# generated using pymatgen
data_HfSiTe
_symmetry_space_group_name_H-M   'P 1'
_cell_length_a   3.66730534
_cell_length_b   3.66730534
_cell_length_c   27.31120900
_cell_angle_alpha   90.00000000
_cell_angle_beta   90.00000000
_cell_angle_gamma   90.00000000
_symmetry_Int_Tables_number   1
_chemical_formula_structural   HfSiTe
_chemical_formula_sum   'Hf2 Si2 Te2'
_cell_volume   367.31195881
_cell_formula_units_Z   2
loop_
 _symmetry_equiv_pos_site_id
 _symmetry_equiv_pos_as_xyz
  1  'x, y, z'
loop_
 _atom_site_type_symbol
 _atom_site_label
 _atom_site_symmetry_multiplicity
 _atom_site_fract_x
 _atom_site_fract_y
 _atom_site_fract_z
 _atom_site_occupancy
  Hf  Hf0  1  0.40717400  0.90717400  0.26591931  1
  Hf  Hf1  1  0.90717400  0.40717400  0.11162569  1
  Si  Si2  1  0.90717400  0.90717400  0.18877200  1
  Si  Si3  1  0.40717400  0.40717400  0.18877200  1
  Te  Te4  1  0.90717400  0.40717400  0.31705339  1
  Te  Te5  1  0.40717400  0.90717400  0.06049161  1
