# generated using pymatgen
data_NbBr2O
_symmetry_space_group_name_H-M   'P 1'
_cell_length_a   7.04720917
_cell_length_b   3.92401174
_cell_length_c   27.72420000
_cell_angle_alpha   90.00000000
_cell_angle_beta   104.60150814
_cell_angle_gamma   90.00000000
_symmetry_Int_Tables_number   1
_chemical_formula_structural   NbBr2O
_chemical_formula_sum   'Nb2 Br4 O2'
_cell_volume   741.90510964
_cell_formula_units_Z   2
loop_
 _symmetry_equiv_pos_site_id
 _symmetry_equiv_pos_as_xyz
  1  'x, y, z'
loop_
 _atom_site_type_symbol
 _atom_site_label
 _atom_site_symmetry_multiplicity
 _atom_site_fract_x
 _atom_site_fract_y
 _atom_site_fract_z
 _atom_site_occupancy
  Br  Br0  1  0.07839448  0.45577848  0.34457359  1
  Br  Br1  1  0.56623930  0.44983047  0.33235116  1
  Br  Br2  1  0.43376070  0.44983047  0.19874484  1
  Br  Br3  1  0.92160552  0.45577848  0.18652241  1
  Nb  Nb4  1  0.78493188  0.48613893  0.26554952  1
  Nb  Nb5  1  0.21506812  0.48613893  0.26554648  1
  O  O6  1  0.77880820  0.96135213  0.26556484  1
  O  O7  1  0.22119180  0.96135213  0.26553016  1
