# generated using pymatgen
data_NiP2
_symmetry_space_group_name_H-M   'P 1'
_cell_length_a   5.56757320
_cell_length_b   5.56770405
_cell_length_c   20.60584200
_cell_angle_alpha   93.83075036
_cell_angle_beta   90.00000000
_cell_angle_gamma   90.00000000
_symmetry_Int_Tables_number   1
_chemical_formula_structural   NiP2
_chemical_formula_sum   'Ni2 P4'
_cell_volume   637.32512180
_cell_formula_units_Z   2
loop_
 _symmetry_equiv_pos_site_id
 _symmetry_equiv_pos_as_xyz
  1  'x, y, z'
loop_
 _atom_site_type_symbol
 _atom_site_label
 _atom_site_symmetry_multiplicity
 _atom_site_fract_x
 _atom_site_fract_y
 _atom_site_fract_z
 _atom_site_occupancy
  Ni  Ni0  1  0.00000000  -0.00000000  0.01470100  1
  Ni  Ni1  1  0.50000000  0.50000000  0.01470100  1
  P  P2  1  0.36680652  0.86680183  0.01468363  1
  P  P3  1  0.86680652  0.63319817  0.01471737  1
  P  P4  1  0.13319348  0.36680183  0.01468363  1
  P  P5  1  0.63319348  0.13319817  0.01471737  1
