# generated using pymatgen
data_Te3As2
_symmetry_space_group_name_H-M   'P 1'
_cell_length_a   4.07477256
_cell_length_b   4.07477266
_cell_length_c   30.30620000
_cell_angle_alpha   90.00000000
_cell_angle_beta   90.00000000
_cell_angle_gamma   119.99813601
_symmetry_Int_Tables_number   1
_chemical_formula_structural   Te3As2
_chemical_formula_sum   'Te3 As2'
_cell_volume   435.78976937
_cell_formula_units_Z   1
loop_
 _symmetry_equiv_pos_site_id
 _symmetry_equiv_pos_as_xyz
  1  'x, y, z'
loop_
 _atom_site_type_symbol
 _atom_site_label
 _atom_site_symmetry_multiplicity
 _atom_site_fract_x
 _atom_site_fract_y
 _atom_site_fract_z
 _atom_site_occupancy
  As  As0  1  0.00001203  -0.00001203  0.60426462  1
  As  As1  1  0.66667520  0.33332480  0.72905767  1
  Te  Te2  1  0.66667246  0.33332754  0.55118375  1
  Te  Te3  1  0.00000084  -0.00000084  0.78212955  1
  Te  Te4  1  0.33333948  0.66666052  0.66666440  1
