# generated using pymatgen
data_SbN
_symmetry_space_group_name_H-M   'P 1'
_cell_length_a   3.32716450
_cell_length_b   3.91851102
_cell_length_c   22.49252000
_cell_angle_alpha   91.30326785
_cell_angle_beta   91.55081857
_cell_angle_gamma   90.00101235
_symmetry_Int_Tables_number   1
_chemical_formula_structural   SbN
_chemical_formula_sum   'Sb2 N2'
_cell_volume   293.06361900
_cell_formula_units_Z   2
loop_
 _symmetry_equiv_pos_site_id
 _symmetry_equiv_pos_as_xyz
  1  'x, y, z'
loop_
 _atom_site_type_symbol
 _atom_site_label
 _atom_site_symmetry_multiplicity
 _atom_site_fract_x
 _atom_site_fract_y
 _atom_site_fract_z
 _atom_site_occupancy
  Sb  Sb0  1  0.63780210  0.79294772  0.55536392  1
  Sb  Sb1  1  0.11755545  0.27850449  0.44464720  1
  N  N2  1  0.62173576  0.97324555  0.46753173  1
  N  N3  1  0.13361069  0.48172024  0.53247915  1
