# generated using pymatgen
data_InSe
_symmetry_space_group_name_H-M   'P 1'
_cell_length_a   4.06926577
_cell_length_b   5.94739549
_cell_length_c   20.09124400
_cell_angle_alpha   84.25580003
_cell_angle_beta   83.96879694
_cell_angle_gamma   69.98884806
_symmetry_Int_Tables_number   1
_chemical_formula_structural   InSe
_chemical_formula_sum   'In2 Se2'
_cell_volume   453.28243758
_cell_formula_units_Z   2
loop_
 _symmetry_equiv_pos_site_id
 _symmetry_equiv_pos_as_xyz
  1  'x, y, z'
loop_
 _atom_site_type_symbol
 _atom_site_label
 _atom_site_symmetry_multiplicity
 _atom_site_fract_x
 _atom_site_fract_y
 _atom_site_fract_z
 _atom_site_occupancy
  In  In0  1  0.00879328  0.03097028  0.94884671  1
  In  In1  1  0.26452242  0.55489995  0.91449987  1
  Se  Se2  1  0.88809317  0.37903858  0.84591162  1
  Se  Se3  1  0.38520513  0.20685419  0.01743580  1
