# generated using pymatgen
data_UI3
_symmetry_space_group_name_H-M   'P 1'
_cell_length_a   4.15577482
_cell_length_b   9.94820341
_cell_length_c   25.48389600
_cell_angle_alpha   90.00000000
_cell_angle_beta   90.00000000
_cell_angle_gamma   90.00000000
_symmetry_Int_Tables_number   1
_chemical_formula_structural   UI3
_chemical_formula_sum   'U2 I6'
_cell_volume   1053.56779892
_cell_formula_units_Z   2
loop_
 _symmetry_equiv_pos_site_id
 _symmetry_equiv_pos_as_xyz
  1  'x, y, z'
loop_
 _atom_site_type_symbol
 _atom_site_label
 _atom_site_symmetry_multiplicity
 _atom_site_fract_x
 _atom_site_fract_y
 _atom_site_fract_z
 _atom_site_occupancy
  U  U0  1  0.50000000  0.25000000  0.14401007  1
  U  U1  1  0.00000000  0.75000000  0.15978793  1
  I  I2  1  0.00000000  0.25000000  0.05315639  1
  I  I3  1  0.50000000  0.56676385  0.09364900  1
  I  I4  1  0.50000000  0.93323615  0.09364900  1
  I  I5  1  -0.00000000  0.43323615  0.21014900  1
  I  I6  1  0.00000000  0.06676385  0.21014900  1
  I  I7  1  0.50000000  0.75000000  0.25064061  1
