# generated using pymatgen
data_TbCl3
_symmetry_space_group_name_H-M   'P 1'
_cell_length_a   3.79676035
_cell_length_b   8.50311755
_cell_length_c   23.98067100
_cell_angle_alpha   90.00000000
_cell_angle_beta   90.00000000
_cell_angle_gamma   90.00000000
_symmetry_Int_Tables_number   1
_chemical_formula_structural   TbCl3
_chemical_formula_sum   'Tb2 Cl6'
_cell_volume   774.19916610
_cell_formula_units_Z   2
loop_
 _symmetry_equiv_pos_site_id
 _symmetry_equiv_pos_as_xyz
  1  'x, y, z'
loop_
 _atom_site_type_symbol
 _atom_site_label
 _atom_site_symmetry_multiplicity
 _atom_site_fract_x
 _atom_site_fract_y
 _atom_site_fract_z
 _atom_site_occupancy
  Tb  Tb0  1  0.00000000  0.50000000  0.07766836  1
  Tb  Tb1  1  0.50000000  -0.00000000  0.08832664  1
  Cl  Cl2  1  0.00000000  0.81739499  0.03216049  1
  Cl  Cl3  1  0.50000000  0.50000000  0.00008342  1
  Cl  Cl4  1  -0.00000000  0.18260501  0.03216049  1
  Cl  Cl5  1  0.50000000  0.68260501  0.13383451  1
  Cl  Cl6  1  0.50000000  0.31739499  0.13383451  1
  Cl  Cl7  1  0.00000000  -0.00000000  0.16591158  1
