# generated using pymatgen
data_Pt(SCl3)2
_symmetry_space_group_name_H-M   'P 1'
_cell_length_a   4.50930442
_cell_length_b   6.50308917
_cell_length_c   28.39910200
_cell_angle_alpha   105.08807269
_cell_angle_beta   97.59759874
_cell_angle_gamma   95.02369193
_symmetry_Int_Tables_number   1
_chemical_formula_structural   Pt(SCl3)2
_chemical_formula_sum   'Pt1 S2 Cl6'
_cell_volume   790.51864027
_cell_formula_units_Z   1
loop_
 _symmetry_equiv_pos_site_id
 _symmetry_equiv_pos_as_xyz
  1  'x, y, z'
loop_
 _atom_site_type_symbol
 _atom_site_label
 _atom_site_symmetry_multiplicity
 _atom_site_fract_x
 _atom_site_fract_y
 _atom_site_fract_z
 _atom_site_occupancy
  Pt  Pt0  1  0.50000000  0.50000000  0.14787600  1
  S  S1  1  0.18607745  0.25295944  0.08535768  1
  S  S2  1  0.81392255  0.74704056  0.21039432  1
  Cl  Cl3  1  0.22414613  0.30836817  0.01853762  1
  Cl  Cl4  1  0.80314448  0.63521936  0.09985202  1
  Cl  Cl5  1  0.40682354  -0.01688851  0.08030769  1
  Cl  Cl6  1  0.59317646  0.01688851  0.21544431  1
  Cl  Cl7  1  0.19685552  0.36478064  0.19590098  1
  Cl  Cl8  1  0.77585387  0.69163183  0.27721438  1
