# generated using pymatgen
data_CoO2
_symmetry_space_group_name_H-M   'P 1'
_cell_length_a   4.88260397
_cell_length_b   2.81945451
_cell_length_c   25.30608971
_cell_angle_alpha   90.00000000
_cell_angle_beta   92.39247125
_cell_angle_gamma   90.00000000
_symmetry_Int_Tables_number   1
_chemical_formula_structural   CoO2
_chemical_formula_sum   'Co2 O4'
_cell_volume   348.06704472
_cell_formula_units_Z   2
loop_
 _symmetry_equiv_pos_site_id
 _symmetry_equiv_pos_as_xyz
  1  'x, y, z'
loop_
 _atom_site_type_symbol
 _atom_site_label
 _atom_site_symmetry_multiplicity
 _atom_site_fract_x
 _atom_site_fract_y
 _atom_site_fract_z
 _atom_site_occupancy
  Co  Co0  1  0.93971600  0.79941900  0.22539000  1
  Co  Co1  1  0.43971600  0.29941900  0.22539000  1
  O  O2  1  0.28104713  0.79941900  0.26229179  1
  O  O3  1  0.78104713  0.29941900  0.26229179  1
  O  O4  1  0.09838487  0.29941900  0.18848721  1
  O  O5  1  0.59838487  0.79941900  0.18848721  1
