# generated using pymatgen
data_KrF2
_symmetry_space_group_name_H-M   'P 1'
_cell_length_a   4.27931694
_cell_length_b   6.80566993
_cell_length_c   24.38330000
_cell_angle_alpha   90.00000000
_cell_angle_beta   90.00000000
_cell_angle_gamma   90.00000000
_symmetry_Int_Tables_number   1
_chemical_formula_structural   KrF2
_chemical_formula_sum   'Kr1 F2'
_cell_volume   710.12992942
_cell_formula_units_Z   1
loop_
 _symmetry_equiv_pos_site_id
 _symmetry_equiv_pos_as_xyz
  1  'x, y, z'
loop_
 _atom_site_type_symbol
 _atom_site_label
 _atom_site_symmetry_multiplicity
 _atom_site_fract_x
 _atom_site_fract_y
 _atom_site_fract_z
 _atom_site_occupancy
  F  F0  1  0.50000000  0.21526798  0.08988300  1
  F  F1  1  0.50000000  0.78473202  0.08988300  1
  Kr  Kr2  1  0.50000000  0.50000000  0.08988300  1
