# generated using pymatgen
data_Ni(HO)2
_symmetry_space_group_name_H-M   'P 1'
_cell_length_a   3.12507231
_cell_length_b   3.12507197
_cell_length_c   24.60214700
_cell_angle_alpha   90.00000000
_cell_angle_beta   90.00000000
_cell_angle_gamma   120.00000363
_symmetry_Int_Tables_number   1
_chemical_formula_structural   Ni(HO)2
_chemical_formula_sum   'Ni1 H2 O2'
_cell_volume   208.07682806
_cell_formula_units_Z   1
loop_
 _symmetry_equiv_pos_site_id
 _symmetry_equiv_pos_as_xyz
  1  'x, y, z'
loop_
 _atom_site_type_symbol
 _atom_site_label
 _atom_site_symmetry_multiplicity
 _atom_site_fract_x
 _atom_site_fract_y
 _atom_site_fract_z
 _atom_site_occupancy
  Ni  Ni0  1  0.14811700  0.84048000  0.09353100  1
  H  H1  1  0.81478400  0.17381300  0.17412309  1
  H  H2  1  0.48145000  0.50714700  0.01293991  1
  O  O3  1  0.81478400  0.17381300  0.13454367  1
  O  O4  1  0.48145000  0.50714700  0.05251933  1
