# generated using pymatgen
data_TiNbS4
_symmetry_space_group_name_H-M   'P 1'
_cell_length_a   3.39478268
_cell_length_b   5.89690711
_cell_length_c   23.01822000
_cell_angle_alpha   89.74241183
_cell_angle_beta   90.00000000
_cell_angle_gamma   90.00000000
_symmetry_Int_Tables_number   1
_chemical_formula_structural   TiNbS4
_chemical_formula_sum   'Ti1 Nb1 S4'
_cell_volume   460.79060074
_cell_formula_units_Z   1
loop_
 _symmetry_equiv_pos_site_id
 _symmetry_equiv_pos_as_xyz
  1  'x, y, z'
loop_
 _atom_site_type_symbol
 _atom_site_label
 _atom_site_symmetry_multiplicity
 _atom_site_fract_x
 _atom_site_fract_y
 _atom_site_fract_z
 _atom_site_occupancy
  Ti  Ti0  1  0.00000000  0.00000000  0.93443900  1
  Nb  Nb1  1  0.50000000  0.50000000  0.93443900  1
  S  S2  1  0.00000000  0.32597276  -0.00005428  1
  S  S3  1  0.50000000  0.16308417  0.87070097  1
  S  S4  1  0.50000000  0.83691583  0.99817603  1
  S  S5  1  0.00000000  0.67402724  0.86893128  1
