# generated using pymatgen
data_NbIO2
_symmetry_space_group_name_H-M   'P 1'
_cell_length_a   3.96225388
_cell_length_b   3.81328742
_cell_length_c   27.40015000
_cell_angle_alpha   90.00000000
_cell_angle_beta   90.00000000
_cell_angle_gamma   90.00000000
_symmetry_Int_Tables_number   1
_chemical_formula_structural   NbIO2
_chemical_formula_sum   'Nb2 I2 O4'
_cell_volume   413.99469894
_cell_formula_units_Z   2
loop_
 _symmetry_equiv_pos_site_id
 _symmetry_equiv_pos_as_xyz
  1  'x, y, z'
loop_
 _atom_site_type_symbol
 _atom_site_label
 _atom_site_symmetry_multiplicity
 _atom_site_fract_x
 _atom_site_fract_y
 _atom_site_fract_z
 _atom_site_occupancy
  Nb  Nb0  1  0.45784845  0.75000000  0.55163635  1
  Nb  Nb1  1  0.54215155  0.25000000  0.44836365  1
  I  I2  1  0.50251534  0.25000000  0.63502515  1
  I  I3  1  0.49748466  0.75000000  0.36497485  1
  O  O4  1  0.99515115  0.75000000  0.55682998  1
  O  O5  1  0.49374402  0.75000000  0.47517508  1
  O  O6  1  0.50625598  0.25000000  0.52482492  1
  O  O7  1  0.00484885  0.25000000  0.44317002  1
