# generated using pymatgen
data_NpIO
_symmetry_space_group_name_H-M   'P 1'
_cell_length_a   3.98000603
_cell_length_b   3.98000603
_cell_length_c   26.08041700
_cell_angle_alpha   90.00000000
_cell_angle_beta   90.00000000
_cell_angle_gamma   90.00000000
_symmetry_Int_Tables_number   1
_chemical_formula_structural   NpIO
_chemical_formula_sum   'Np2 I2 O2'
_cell_volume   413.12548971
_cell_formula_units_Z   2
loop_
 _symmetry_equiv_pos_site_id
 _symmetry_equiv_pos_as_xyz
  1  'x, y, z'
loop_
 _atom_site_type_symbol
 _atom_site_label
 _atom_site_symmetry_multiplicity
 _atom_site_fract_x
 _atom_site_fract_y
 _atom_site_fract_z
 _atom_site_occupancy
  I  I0  1  0.50000000  0.00000000  0.23323815  1
  I  I1  1  0.00000000  0.50000000  -0.00009715  1
  Np  Np2  1  0.50000000  -0.00000000  0.07116894  1
  Np  Np3  1  0.00000000  0.50000000  0.16197206  1
  O  O4  1  0.50000000  0.50000000  0.11657100  1
  O  O5  1  0.00000000  0.00000000  0.11657100  1
