# generated using pymatgen
data_Th(TeI)2
_symmetry_space_group_name_H-M   'P 1'
_cell_length_a   7.73253317
_cell_length_b   14.32522304
_cell_length_c   26.43429000
_cell_angle_alpha   90.00000000
_cell_angle_beta   109.35120774
_cell_angle_gamma   90.00000000
_symmetry_Int_Tables_number   1
_chemical_formula_structural   Th(TeI)2
_chemical_formula_sum   'Th4 Te8 I8'
_cell_volume   2762.70887651
_cell_formula_units_Z   4
loop_
 _symmetry_equiv_pos_site_id
 _symmetry_equiv_pos_as_xyz
  1  'x, y, z'
loop_
 _atom_site_type_symbol
 _atom_site_label
 _atom_site_symmetry_multiplicity
 _atom_site_fract_x
 _atom_site_fract_y
 _atom_site_fract_z
 _atom_site_occupancy
  Th  Th0  1  0.00000000  0.14314815  0.50000000  1
  Th  Th1  1  0.00000000  0.85685185  0.50000000  1
  Th  Th2  1  0.50000000  0.35685185  0.50000000  1
  Th  Th3  1  0.50000000  0.64314815  0.50000000  1
  Te  Te4  1  0.87224795  -0.00000000  0.40016526  1
  Te  Te5  1  0.12775205  -0.00000000  0.59983474  1
  Te  Te6  1  0.33852728  -0.00000000  0.53314574  1
  Te  Te7  1  0.66147272  -0.00000000  0.46685426  1
  Te  Te8  1  0.37224795  0.50000000  0.40016526  1
  Te  Te9  1  0.62775205  0.50000000  0.59983474  1
  Te  Te10  1  0.83852728  0.50000000  0.53314574  1
  Te  Te11  1  0.16147272  0.50000000  0.46685426  1
  I  I12  1  0.76785217  0.20818252  0.57580452  1
  I  I13  1  0.23214783  0.20818252  0.42419548  1
  I  I14  1  0.73214783  0.29181748  0.42419548  1
  I  I15  1  0.26785217  0.29181748  0.57580452  1
  I  I16  1  0.26785217  0.70818252  0.57580452  1
  I  I17  1  0.73214783  0.70818252  0.42419548  1
  I  I18  1  0.23214783  0.79181748  0.42419548  1
  I  I19  1  0.76785217  0.79181748  0.57580452  1
