# generated using pymatgen
data_Tl2O
_symmetry_space_group_name_H-M   'P 1'
_cell_length_a   6.16199696
_cell_length_b   3.55634735
_cell_length_c   23.09469500
_cell_angle_alpha   90.00000000
_cell_angle_beta   94.80410922
_cell_angle_gamma   90.00000000
_symmetry_Int_Tables_number   1
_chemical_formula_structural   Tl2O
_chemical_formula_sum   'Tl4 O2'
_cell_volume   504.32379262
_cell_formula_units_Z   2
loop_
 _symmetry_equiv_pos_site_id
 _symmetry_equiv_pos_as_xyz
  1  'x, y, z'
loop_
 _atom_site_type_symbol
 _atom_site_label
 _atom_site_symmetry_multiplicity
 _atom_site_fract_x
 _atom_site_fract_y
 _atom_site_fract_z
 _atom_site_occupancy
  Tl  Tl0  1  0.55664718  0.00000000  0.56653850  1
  Tl  Tl1  1  0.34844164  0.50000000  0.43356006  1
  Tl  Tl2  1  0.05664718  0.50000000  0.56653850  1
  Tl  Tl3  1  0.84844164  -0.00000000  0.43356006  1
  O  O4  1  0.20257419  -0.00000000  0.50004644  1
  O  O5  1  0.70257419  0.50000000  0.50004644  1
