# generated using pymatgen
data_YClO
_symmetry_space_group_name_H-M   'P 1'
_cell_length_a   3.79732915
_cell_length_b   3.79737514
_cell_length_c   26.36630400
_cell_angle_alpha   90.00000000
_cell_angle_beta   90.00000000
_cell_angle_gamma   119.99961525
_symmetry_Int_Tables_number   1
_chemical_formula_structural   YClO
_chemical_formula_sum   'Y2 Cl2 O2'
_cell_volume   329.26329224
_cell_formula_units_Z   2
loop_
 _symmetry_equiv_pos_site_id
 _symmetry_equiv_pos_as_xyz
  1  'x, y, z'
loop_
 _atom_site_type_symbol
 _atom_site_label
 _atom_site_symmetry_multiplicity
 _atom_site_fract_x
 _atom_site_fract_y
 _atom_site_fract_z
 _atom_site_occupancy
  Cl  Cl0  1  0.00000129  0.00000162  0.75890046  1
  Cl  Cl1  1  0.99999869  0.99999747  0.99962825  1
  O  O2  1  0.66666158  0.33332369  0.84695911  1
  O  O3  1  0.33333769  0.66667628  0.91159795  1
  Y  Y4  1  0.33333248  0.66666443  0.82474347  1
  Y  Y5  1  0.66666728  0.33333551  0.93380276  1
