# generated using pymatgen
data_SrBiBrO2
_symmetry_space_group_name_H-M   'P 1'
_cell_length_a   5.63983398
_cell_length_b   5.99265230
_cell_length_c   26.46430900
_cell_angle_alpha   89.99944546
_cell_angle_beta   90.00000000
_cell_angle_gamma   90.00000000
_symmetry_Int_Tables_number   1
_chemical_formula_structural   SrBiBrO2
_chemical_formula_sum   'Sr2 Bi2 Br2 O4'
_cell_volume   894.42917974
_cell_formula_units_Z   2
loop_
 _symmetry_equiv_pos_site_id
 _symmetry_equiv_pos_as_xyz
  1  'x, y, z'
loop_
 _atom_site_type_symbol
 _atom_site_label
 _atom_site_symmetry_multiplicity
 _atom_site_fract_x
 _atom_site_fract_y
 _atom_site_fract_z
 _atom_site_occupancy
  Sr  Sr0  1  0.75000000  0.49998194  0.83128869  1
  Sr  Sr1  1  0.25000000  0.50001806  0.92444531  1
  Bi  Bi2  1  0.25000000  0.00001435  0.83695641  1
  Bi  Bi3  1  0.75000000  -0.00001435  0.91877859  1
  Br  Br4  1  0.75000000  0.50009480  0.98515688  1
  Br  Br5  1  0.25000000  0.49990520  0.77057812  1
  O  O6  1  0.00000104  0.22569818  0.87786773  1
  O  O7  1  0.50000104  0.77430182  0.87786627  1
  O  O8  1  -0.00000104  0.77430182  0.87786627  1
  O  O9  1  0.49999896  0.22569818  0.87786773  1
