# generated using pymatgen
data_CoI2
_symmetry_space_group_name_H-M   'P 1'
_cell_length_a   3.91515218
_cell_length_b   3.91515241
_cell_length_c   26.66672200
_cell_angle_alpha   90.00000000
_cell_angle_beta   90.00000000
_cell_angle_gamma   120.00000636
_symmetry_Int_Tables_number   1
_chemical_formula_structural   CoI2
_chemical_formula_sum   'Co1 I2'
_cell_volume   353.99535125
_cell_formula_units_Z   1
loop_
 _symmetry_equiv_pos_site_id
 _symmetry_equiv_pos_as_xyz
  1  'x, y, z'
loop_
 _atom_site_type_symbol
 _atom_site_label
 _atom_site_symmetry_multiplicity
 _atom_site_fract_x
 _atom_site_fract_y
 _atom_site_fract_z
 _atom_site_occupancy
  Co  Co0  1  0.33494200  0.97724500  0.12500100  1
  I  I1  1  0.66827500  0.64391200  0.18314169  1
  I  I2  1  0.00160900  0.31057800  0.06686031  1
