# generated using pymatgen
data_ZrS2
_symmetry_space_group_name_H-M   'P 1'
_cell_length_a   3.68202885
_cell_length_b   3.68202885
_cell_length_c   30.61113300
_cell_angle_alpha   90.00000000
_cell_angle_beta   90.00000000
_cell_angle_gamma   119.99999253
_symmetry_Int_Tables_number   1
_chemical_formula_structural   ZrS2
_chemical_formula_sum   'Zr1 S2'
_cell_volume   359.40527220
_cell_formula_units_Z   1
loop_
 _symmetry_equiv_pos_site_id
 _symmetry_equiv_pos_as_xyz
  1  'x, y, z'
loop_
 _atom_site_type_symbol
 _atom_site_label
 _atom_site_symmetry_multiplicity
 _atom_site_fract_x
 _atom_site_fract_y
 _atom_site_fract_z
 _atom_site_occupancy
  Zr  Zr0  1  0.00000000  0.00000000  0.14398100  1
  S  S1  1  0.66666700  0.33333300  0.09657660  1
  S  S2  1  0.33333300  0.66666700  0.19138540  1
