# generated using pymatgen
data_PrTe3
_symmetry_space_group_name_H-M   'P 1'
_cell_length_a   4.41545000
_cell_length_b   4.41558650
_cell_length_c   30.66102200
_cell_angle_alpha   90.00000000
_cell_angle_beta   90.00000000
_cell_angle_gamma   90.00000000
_symmetry_Int_Tables_number   1
_chemical_formula_structural   PrTe3
_chemical_formula_sum   'Pr2 Te6'
_cell_volume   597.79185724
_cell_formula_units_Z   2
loop_
 _symmetry_equiv_pos_site_id
 _symmetry_equiv_pos_as_xyz
  1  'x, y, z'
loop_
 _atom_site_type_symbol
 _atom_site_label
 _atom_site_symmetry_multiplicity
 _atom_site_fract_x
 _atom_site_fract_y
 _atom_site_fract_z
 _atom_site_occupancy
  Pr  Pr0  1  0.00000000  0.25000000  0.15550841  1
  Pr  Pr1  1  0.50000000  0.75000000  0.29556959  1
  Te  Te2  1  0.00000000  0.75000000  0.07107652  1
  Te  Te3  1  0.50000000  0.25000000  0.07107544  1
  Te  Te4  1  0.50000000  0.75000000  0.18682338  1
  Te  Te5  1  0.00000000  0.25000000  0.26425462  1
  Te  Te6  1  0.00000000  0.75000000  0.38000256  1
  Te  Te7  1  0.50000000  0.25000000  0.38000148  1
