# generated using pymatgen
data_US3
_symmetry_space_group_name_H-M   'P 1'
_cell_length_a   5.39406733
_cell_length_b   3.89044349
_cell_length_c   27.56127843
_cell_angle_alpha   90.00000000
_cell_angle_beta   92.50086736
_cell_angle_gamma   90.00000000
_symmetry_Int_Tables_number   1
_chemical_formula_structural   US3
_chemical_formula_sum   'U2 S6'
_cell_volume   577.83121265
_cell_formula_units_Z   2
loop_
 _symmetry_equiv_pos_site_id
 _symmetry_equiv_pos_as_xyz
  1  'x, y, z'
loop_
 _atom_site_type_symbol
 _atom_site_label
 _atom_site_symmetry_multiplicity
 _atom_site_fract_x
 _atom_site_fract_y
 _atom_site_fract_z
 _atom_site_occupancy
  U  U0  1  0.07278822  0.97515500  0.24323218  1
  U  U1  1  0.55131878  0.47515400  0.14691982  1
  S  S2  1  0.56701832  0.97515500  0.21733868  1
  S  S3  1  0.27969112  0.47515400  0.30391220  1
  S  S4  1  0.89299579  0.47515400  0.30392024  1
  S  S5  1  0.73111121  0.97515500  0.08623176  1
  S  S6  1  0.34441588  0.97515500  0.08623980  1
  S  S7  1  0.05708868  0.47515400  0.17281332  1
