# generated using pymatgen
data_ScAg(PSe3)2
_symmetry_space_group_name_H-M   'P 1'
_cell_length_a   6.49340672
_cell_length_b   6.49340695
_cell_length_c   27.16892300
_cell_angle_alpha   90.00000000
_cell_angle_beta   90.00000000
_cell_angle_gamma   119.99999882
_symmetry_Int_Tables_number   1
_chemical_formula_structural   ScAg(PSe3)2
_chemical_formula_sum   'Sc1 Ag1 P2 Se6'
_cell_volume   992.08363968
_cell_formula_units_Z   1
loop_
 _symmetry_equiv_pos_site_id
 _symmetry_equiv_pos_as_xyz
  1  'x, y, z'
loop_
 _atom_site_type_symbol
 _atom_site_label
 _atom_site_symmetry_multiplicity
 _atom_site_fract_x
 _atom_site_fract_y
 _atom_site_fract_z
 _atom_site_occupancy
  Sc  Sc0  1  0.00000000  0.00000000  0.13958000  1
  Ag  Ag1  1  0.66666700  0.33333300  0.13958000  1
  P  P2  1  0.33333300  0.66666700  0.09796506  1
  P  P3  1  0.33333300  0.66666700  0.18119494  1
  Se  Se4  1  0.30592840  0.97918024  0.07424853  1
  Se  Se5  1  0.02081976  0.32674816  0.07424853  1
  Se  Se6  1  0.67325184  0.69407160  0.07424853  1
  Se  Se7  1  0.67325184  0.97918024  0.20491147  1
  Se  Se8  1  0.02081976  0.69407160  0.20491147  1
  Se  Se9  1  0.30592840  0.32674816  0.20491147  1
