# generated using pymatgen
data_ErAg(PSe3)2
_symmetry_space_group_name_H-M   'P 1'
_cell_length_a   6.59806111
_cell_length_b   6.59806109
_cell_length_c   27.23170800
_cell_angle_alpha   90.00000000
_cell_angle_beta   90.00000000
_cell_angle_gamma   120.00000500
_symmetry_Int_Tables_number   1
_chemical_formula_structural   ErAg(PSe3)2
_chemical_formula_sum   'Er1 Ag1 P2 Se6'
_cell_volume   1026.68722269
_cell_formula_units_Z   1
loop_
 _symmetry_equiv_pos_site_id
 _symmetry_equiv_pos_as_xyz
  1  'x, y, z'
loop_
 _atom_site_type_symbol
 _atom_site_label
 _atom_site_symmetry_multiplicity
 _atom_site_fract_x
 _atom_site_fract_y
 _atom_site_fract_z
 _atom_site_occupancy
  Er  Er0  1  0.00000000  0.00000000  0.13983400  1
  Ag  Ag1  1  0.33333300  0.66666700  0.13983400  1
  P  P2  1  0.66666700  0.33333300  0.09782276  1
  P  P3  1  0.66666700  0.33333300  0.18184524  1
  Se  Se4  1  0.67728348  0.65862566  0.07335614  1
  Se  Se5  1  0.34137434  0.01865683  0.07335614  1
  Se  Se6  1  0.98134317  0.32271652  0.07335614  1
  Se  Se7  1  0.34137434  0.32271652  0.20631186  1
  Se  Se8  1  0.67728348  0.01865683  0.20631186  1
  Se  Se9  1  0.98134317  0.65862566  0.20631186  1
