# generated using pymatgen
data_TmAg(PSe3)2
_symmetry_space_group_name_H-M   'P 1'
_cell_length_a   6.58801852
_cell_length_b   6.58801923
_cell_length_c   27.09668400
_cell_angle_alpha   90.00000000
_cell_angle_beta   90.00000000
_cell_angle_gamma   120.00000131
_symmetry_Int_Tables_number   1
_chemical_formula_structural   TmAg(PSe3)2
_chemical_formula_sum   'Tm1 Ag1 P2 Se6'
_cell_volume   1018.48923298
_cell_formula_units_Z   1
loop_
 _symmetry_equiv_pos_site_id
 _symmetry_equiv_pos_as_xyz
  1  'x, y, z'
loop_
 _atom_site_type_symbol
 _atom_site_label
 _atom_site_symmetry_multiplicity
 _atom_site_fract_x
 _atom_site_fract_y
 _atom_site_fract_z
 _atom_site_occupancy
  Tm  Tm0  1  0.00000000  0.00000000  0.13928500  1
  Ag  Ag1  1  0.66666700  0.33333300  0.13928500  1
  P  P2  1  0.33333300  0.66666700  0.09712020  1
  P  P3  1  0.33333300  0.66666700  0.18145080  1
  Se  Se4  1  0.32098983  0.98110472  0.07261585  1
  Se  Se5  1  0.66011589  0.67901017  0.07261585  1
  Se  Se6  1  0.01889528  0.33988411  0.07261585  1
  Se  Se7  1  0.32098983  0.33988411  0.20595515  1
  Se  Se8  1  0.66011589  0.98110472  0.20595515  1
  Se  Se9  1  0.01889528  0.67901017  0.20595515  1
