# generated using pymatgen
data_Nb(SeBr)2
_symmetry_space_group_name_H-M   'P 1'
_cell_length_a   6.69556124
_cell_length_b   11.77412071
_cell_length_c   27.25675324
_cell_angle_alpha   90.00000000
_cell_angle_beta   95.51560554
_cell_angle_gamma   90.00000000
_symmetry_Int_Tables_number   1
_chemical_formula_structural   Nb(SeBr)2
_chemical_formula_sum   'Nb4 Se8 Br8'
_cell_volume   2138.81964406
_cell_formula_units_Z   4
loop_
 _symmetry_equiv_pos_site_id
 _symmetry_equiv_pos_as_xyz
  1  'x, y, z'
loop_
 _atom_site_type_symbol
 _atom_site_label
 _atom_site_symmetry_multiplicity
 _atom_site_fract_x
 _atom_site_fract_y
 _atom_site_fract_z
 _atom_site_occupancy
  Nb  Nb0  1  0.89893000  0.94837393  0.18048000  1
  Nb  Nb1  1  0.89893000  0.69575607  0.18048000  1
  Nb  Nb2  1  0.39893000  0.19575607  0.18048000  1
  Nb  Nb3  1  0.39893000  0.44837393  0.18048000  1
  Se  Se4  1  0.20909715  0.82206500  0.21365232  1
  Se  Se5  1  0.70909715  0.32206500  0.21365232  1
  Se  Se6  1  0.94243699  0.82206500  0.26173908  1
  Se  Se7  1  0.44243699  0.32206500  0.26173908  1
  Se  Se8  1  0.35542201  0.32206500  0.09922092  1
  Se  Se9  1  0.85542201  0.82206500  0.09922092  1
  Se  Se10  1  0.08876185  0.32206500  0.14730768  1
  Se  Se11  1  0.58876185  0.82206500  0.14730768  1
  Br  Br12  1  0.10865823  0.52973474  0.23743552  1
  Br  Br13  1  0.10865823  0.11439526  0.23743552  1
  Br  Br14  1  0.60865823  0.61439526  0.23743552  1
  Br  Br15  1  0.60865823  0.02973474  0.23743552  1
  Br  Br16  1  0.18920177  0.61439526  0.12352448  1
  Br  Br17  1  0.18920177  0.02973474  0.12352448  1
  Br  Br18  1  0.68920177  0.11439526  0.12352448  1
  Br  Br19  1  0.68920177  0.52973474  0.12352448  1
