# generated using pymatgen
data_PdS2
_symmetry_space_group_name_H-M   'P 1'
_cell_length_a   5.44379863
_cell_length_b   5.56126746
_cell_length_c   35.60708800
_cell_angle_alpha   90.00000000
_cell_angle_beta   90.00000000
_cell_angle_gamma   90.00000000
_symmetry_Int_Tables_number   1
_chemical_formula_structural   PdS2
_chemical_formula_sum   'Pd2 S4'
_cell_volume   1077.98394348
_cell_formula_units_Z   2
loop_
 _symmetry_equiv_pos_site_id
 _symmetry_equiv_pos_as_xyz
  1  'x, y, z'
loop_
 _atom_site_type_symbol
 _atom_site_label
 _atom_site_symmetry_multiplicity
 _atom_site_fract_x
 _atom_site_fract_y
 _atom_site_fract_z
 _atom_site_occupancy
  Pd  Pd0  1  0.50000000  0.50000000  0.14100600  1
  Pd  Pd1  1  0.00000000  0.00000000  0.14100600  1
  S  S2  1  0.60216101  0.11002885  0.15948828  1
  S  S3  1  0.10216101  0.38997115  0.12252372  1
  S  S4  1  0.89783899  0.61002885  0.15948828  1
  S  S5  1  0.39783899  0.88997115  0.12252372  1
