# generated using pymatgen
data_S5N6
_symmetry_space_group_name_H-M   'P 1'
_cell_length_a   6.12607152
_cell_length_b   6.12607164
_cell_length_c   25.91798177
_cell_angle_alpha   102.17573370
_cell_angle_beta   102.17573347
_cell_angle_gamma   74.87761130
_symmetry_Int_Tables_number   1
_chemical_formula_structural   S5N6
_chemical_formula_sum   'S5 N6'
_cell_volume   905.25375470
_cell_formula_units_Z   1
loop_
 _symmetry_equiv_pos_site_id
 _symmetry_equiv_pos_as_xyz
  1  'x, y, z'
loop_
 _atom_site_type_symbol
 _atom_site_label
 _atom_site_symmetry_multiplicity
 _atom_site_fract_x
 _atom_site_fract_y
 _atom_site_fract_z
 _atom_site_occupancy
  S  S0  1  0.33994883  0.77713052  0.00867294  1
  S  S1  1  0.36586463  0.37541890  0.04857950  1
  S  S2  1  -0.02549632  0.02724032  0.07646300  1
  S  S3  1  0.62632410  0.63587837  0.10434550  1
  S  S4  1  0.22461248  0.66179417  0.14425206  1
  N  N5  1  0.30923039  0.51585125  -0.00006952  1
  N  N6  1  0.08794525  0.95107146  0.02580877  1
  N  N7  1  0.54719297  0.79918860  0.05926959  1
  N  N8  1  0.20255540  0.45455103  0.09365541  1
  N  N9  1  0.05067254  0.91379775  0.12711623  1
  N  N10  1  0.48589175  0.69251261  0.15299452  1
