# generated using pymatgen
data_P4S3
_symmetry_space_group_name_H-M   'P 1'
_cell_length_a   6.45903244
_cell_length_b   10.91480253
_cell_length_c   25.97953600
_cell_angle_alpha   90.00000000
_cell_angle_beta   90.00000000
_cell_angle_gamma   90.00000000
_symmetry_Int_Tables_number   1
_chemical_formula_structural   P4S3
_chemical_formula_sum   'P8 S6'
_cell_volume   1831.53295978
_cell_formula_units_Z   2
loop_
 _symmetry_equiv_pos_site_id
 _symmetry_equiv_pos_as_xyz
  1  'x, y, z'
loop_
 _atom_site_type_symbol
 _atom_site_label
 _atom_site_symmetry_multiplicity
 _atom_site_fract_x
 _atom_site_fract_y
 _atom_site_fract_z
 _atom_site_occupancy
  P  P0  1  0.26353041  0.57424403  0.06187775  1
  P  P1  1  0.23646959  0.07424403  0.06187775  1
  P  P2  1  0.10627185  0.41933893  0.10565600  1
  P  P3  1  0.39372815  0.91933893  0.10565600  1
  P  P4  1  0.80749020  0.66798330  0.10565600  1
  P  P5  1  0.69250980  0.16798330  0.10565600  1
  P  P6  1  0.26353041  0.57424403  0.14943425  1
  P  P7  1  0.23646959  0.07424403  0.14943425  1
  S  S8  1  0.48353726  0.19261118  0.04304389  1
  S  S9  1  0.01646274  0.69261118  0.04304389  1
  S  S10  1  0.79188436  0.47338334  0.10565600  1
  S  S11  1  0.70811564  0.97338334  0.10565600  1
  S  S12  1  0.48353726  0.19261118  0.16826711  1
  S  S13  1  0.01646274  0.69261118  0.16826711  1
