# generated using pymatgen
data_As2O3
_symmetry_space_group_name_H-M   'P 1'
_cell_length_a   4.55819630
_cell_length_b   8.27723959
_cell_length_c   25.90163904
_cell_angle_alpha   101.13274523
_cell_angle_beta   90.00000000
_cell_angle_gamma   90.00000000
_symmetry_Int_Tables_number   1
_chemical_formula_structural   As2O3
_chemical_formula_sum   'As4 O6'
_cell_volume   958.86083440
_cell_formula_units_Z   2
loop_
 _symmetry_equiv_pos_site_id
 _symmetry_equiv_pos_as_xyz
  1  'x, y, z'
loop_
 _atom_site_type_symbol
 _atom_site_label
 _atom_site_symmetry_multiplicity
 _atom_site_fract_x
 _atom_site_fract_y
 _atom_site_fract_z
 _atom_site_occupancy
  As  As0  1  0.79127024  0.67501681  0.05302209  1
  As  As1  1  0.38239468  0.12189270  0.07467205  1
  As  As2  1  0.29127024  0.83019119  0.13844291  1
  As  As3  1  0.88239468  0.38331530  0.11679195  1
  O  O4  1  0.12294704  0.79437886  0.07253661  1
  O  O5  1  0.92140950  0.47285264  0.05714981  1
  O  O6  1  0.99677354  0.17891414  0.08291253  1
  O  O7  1  0.62294704  0.71082914  0.11892839  1
  O  O8  1  0.49677354  0.32629386  0.10855147  1
  O  O9  1  0.42140950  0.03235536  0.13431519  1
