# generated using pymatgen
data_As2O3
_symmetry_space_group_name_H-M   'P 1'
_cell_length_a   4.54530407
_cell_length_b   5.31275109
_cell_length_c   25.82279300
_cell_angle_alpha   90.00000000
_cell_angle_beta   90.00000000
_cell_angle_gamma   92.61683693
_symmetry_Int_Tables_number   1
_chemical_formula_structural   As2O3
_chemical_formula_sum   'As4 O6'
_cell_volume   622.92032871
_cell_formula_units_Z   2
loop_
 _symmetry_equiv_pos_site_id
 _symmetry_equiv_pos_as_xyz
  1  'x, y, z'
loop_
 _atom_site_type_symbol
 _atom_site_label
 _atom_site_symmetry_multiplicity
 _atom_site_fract_x
 _atom_site_fract_y
 _atom_site_fract_z
 _atom_site_occupancy
  As  As0  1  0.96854843  0.73315324  0.05608032  1
  As  As1  1  0.48925803  0.14291016  0.08362827  1
  As  As2  1  -0.01074197  0.64291016  0.18401873  1
  As  As3  1  0.46854843  0.23315324  0.21156668  1
  O  O4  1  0.35692209  0.83269355  0.05867700  1
  O  O5  1  0.86854679  0.04758904  0.07642566  1
  O  O6  1  0.93295666  0.55699101  0.11609232  1
  O  O7  1  0.43295666  0.05699101  0.15155468  1
  O  O8  1  0.36854679  0.54758904  0.19122134  1
  O  O9  1  0.85692209  0.33269355  0.20897000  1
