# generated using pymatgen
data_SiS2
_symmetry_space_group_name_H-M   'P 1'
_cell_length_a   5.60680412
_cell_length_b   4.95502123
_cell_length_c   30.92676000
_cell_angle_alpha   90.00000000
_cell_angle_beta   90.00000000
_cell_angle_gamma   90.00000000
_symmetry_Int_Tables_number   1
_chemical_formula_structural   SiS2
_chemical_formula_sum   'Si2 S4'
_cell_volume   859.20209627
_cell_formula_units_Z   2
loop_
 _symmetry_equiv_pos_site_id
 _symmetry_equiv_pos_as_xyz
  1  'x, y, z'
loop_
 _atom_site_type_symbol
 _atom_site_label
 _atom_site_symmetry_multiplicity
 _atom_site_fract_x
 _atom_site_fract_y
 _atom_site_fract_z
 _atom_site_occupancy
  Si  Si0  1  0.25000000  0.50000000  0.17665500  1
  Si  Si1  1  0.75000000  0.50000000  0.17665500  1
  S  S2  1  0.50000000  0.28045169  0.13741332  1
  S  S3  1  0.00000000  0.71954831  0.13741332  1
  S  S4  1  0.50000000  0.71954831  0.21589768  1
  S  S5  1  0.00000000  0.28045169  0.21589768  1
