# generated using pymatgen
data_ZrSe3
_symmetry_space_group_name_H-M   'P 1'
_cell_length_a   5.46971601
_cell_length_b   3.77158969
_cell_length_c   31.15612600
_cell_angle_alpha   90.00000000
_cell_angle_beta   97.32329408
_cell_angle_gamma   90.00000000
_symmetry_Int_Tables_number   1
_chemical_formula_structural   ZrSe3
_chemical_formula_sum   'Zr2 Se6'
_cell_volume   637.49307408
_cell_formula_units_Z   2
loop_
 _symmetry_equiv_pos_site_id
 _symmetry_equiv_pos_as_xyz
  1  'x, y, z'
loop_
 _atom_site_type_symbol
 _atom_site_label
 _atom_site_symmetry_multiplicity
 _atom_site_fract_x
 _atom_site_fract_y
 _atom_site_fract_z
 _atom_site_occupancy
  Zr  Zr0  1  0.71505979  0.75000000  0.11492006  1
  Zr  Zr1  1  0.28494021  0.25000000  0.21105594  1
  Se  Se2  1  0.89431419  0.25000000  0.06197082  1
  Se  Se3  1  0.45851398  0.25000000  0.06206840  1
  Se  Se4  1  0.23784744  0.75000000  0.14631509  1
  Se  Se5  1  0.76215256  0.25000000  0.17965991  1
  Se  Se6  1  0.54148602  0.75000000  0.26390660  1
  Se  Se7  1  0.10568581  0.75000000  0.26400418  1
