# generated using pymatgen
data_ZrBrN
_symmetry_space_group_name_H-M   'P 1'
_cell_length_a   3.62504715
_cell_length_b   4.12804580
_cell_length_c   28.00388000
_cell_angle_alpha   90.00000000
_cell_angle_beta   90.00000000
_cell_angle_gamma   90.00000000
_symmetry_Int_Tables_number   1
_chemical_formula_structural   ZrBrN
_chemical_formula_sum   'Zr2 Br2 N2'
_cell_volume   419.06016003
_cell_formula_units_Z   2
loop_
 _symmetry_equiv_pos_site_id
 _symmetry_equiv_pos_as_xyz
  1  'x, y, z'
loop_
 _atom_site_type_symbol
 _atom_site_label
 _atom_site_symmetry_multiplicity
 _atom_site_fract_x
 _atom_site_fract_y
 _atom_site_fract_z
 _atom_site_occupancy
  Zr  Zr0  1  0.73713100  0.07916800  0.19257759  1
  Zr  Zr1  1  0.23713100  0.57916800  0.12894541  1
  Br  Br2  1  0.23713100  0.07916800  0.26726332  1
  Br  Br3  1  0.73713100  0.57916800  0.05425968  1
  N  N4  1  0.73713100  0.57916800  0.17091052  1
  N  N5  1  0.23713100  0.07916800  0.15061248  1
