# generated using pymatgen
data_SiAs
_symmetry_space_group_name_H-M   'P 1'
_cell_length_a   3.69955840
_cell_length_b   10.84651563
_cell_length_c   24.79902200
_cell_angle_alpha   84.09416292
_cell_angle_beta   85.72979048
_cell_angle_gamma   80.19184771
_symmetry_Int_Tables_number   1
_chemical_formula_structural   SiAs
_chemical_formula_sum   'Si6 As6'
_cell_volume   973.72193896
_cell_formula_units_Z   6
loop_
 _symmetry_equiv_pos_site_id
 _symmetry_equiv_pos_as_xyz
  1  'x, y, z'
loop_
 _atom_site_type_symbol
 _atom_site_label
 _atom_site_symmetry_multiplicity
 _atom_site_fract_x
 _atom_site_fract_y
 _atom_site_fract_z
 _atom_site_occupancy
  As  As0  1  0.86665503  0.46450917  0.80218084  1
  As  As1  1  0.51367537  0.14291023  0.82973890  1
  As  As2  1  0.99824078  0.02832542  0.97519306  1
  As  As3  1  0.33084597  0.33798983  0.00031816  1
  As  As4  1  0.19926022  0.77417358  0.82730594  1
  As  As5  1  0.68382563  0.65958877  0.97276010  1
  Si  Si6  1  0.89719565  0.25217010  0.95343883  1
  Si  Si7  1  0.93763911  0.26720803  0.85751360  1
  Si  Si8  1  0.30030535  0.55032890  0.84906017  1
  Si  Si9  1  0.54070298  0.00482329  0.91377069  1
  Si  Si10  1  0.25986189  0.53529097  0.94498540  1
  Si  Si11  1  0.65679802  0.79767571  0.88872831  1
