# generated using pymatgen
data_KMnP
_symmetry_space_group_name_H-M   'P 1'
_cell_length_a   3.77045197
_cell_length_b   3.77045197
_cell_length_c   30.47834900
_cell_angle_alpha   90.00000000
_cell_angle_beta   90.00000000
_cell_angle_gamma   90.00000000
_symmetry_Int_Tables_number   1
_chemical_formula_structural   KMnP
_chemical_formula_sum   'K2 Mn2 P2'
_cell_volume   433.28959894
_cell_formula_units_Z   2
loop_
 _symmetry_equiv_pos_site_id
 _symmetry_equiv_pos_as_xyz
  1  'x, y, z'
loop_
 _atom_site_type_symbol
 _atom_site_label
 _atom_site_symmetry_multiplicity
 _atom_site_fract_x
 _atom_site_fract_y
 _atom_site_fract_z
 _atom_site_occupancy
  K  K0  1  0.38127300  0.88127300  0.27336695  1
  K  K1  1  0.88127300  0.38127300  0.07043005  1
  Mn  Mn2  1  0.88127300  0.88127300  0.17189800  1
  Mn  Mn3  1  0.38127300  0.38127300  0.17189800  1
  P  P4  1  0.88127300  0.38127300  0.21463097  1
  P  P5  1  0.38127300  0.88127300  0.12916503  1
