# generated using pymatgen
data_InBr3
_symmetry_space_group_name_H-M   'P 1'
_cell_length_a   6.78479278
_cell_length_b   6.78481296
_cell_length_c   23.18990600
_cell_angle_alpha   86.45333011
_cell_angle_beta   82.89294863
_cell_angle_gamma   60.00009474
_symmetry_Int_Tables_number   1
_chemical_formula_structural   InBr3
_chemical_formula_sum   'In2 Br6'
_cell_volume   917.39170891
_cell_formula_units_Z   2
loop_
 _symmetry_equiv_pos_site_id
 _symmetry_equiv_pos_as_xyz
  1  'x, y, z'
loop_
 _atom_site_type_symbol
 _atom_site_label
 _atom_site_symmetry_multiplicity
 _atom_site_fract_x
 _atom_site_fract_y
 _atom_site_fract_z
 _atom_site_occupancy
  Br  Br0  1  0.11285710  0.00000000  0.00072485  1
  Br  Br1  1  0.74931690  -0.00000000  0.13710115  1
  Br  Br2  1  0.80697097  0.65295279  0.00073599  1
  Br  Br3  1  0.40225024  0.65295279  0.13709001  1
  Br  Br4  1  0.05520303  0.34704721  0.13709001  1
  Br  Br5  1  0.45992376  0.34704721  0.00073599  1
  In  In6  1  0.09774121  0.66669057  0.06891300  1
  In  In7  1  0.76443279  0.33330943  0.06891300  1
