# generated using pymatgen
data_ZrTe3
_symmetry_space_group_name_H-M   'P 1'
_cell_length_a   5.97481813
_cell_length_b   3.94529525
_cell_length_c   31.50661500
_cell_angle_alpha   90.00000000
_cell_angle_beta   96.93966588
_cell_angle_gamma   90.00000000
_symmetry_Int_Tables_number   1
_chemical_formula_structural   ZrTe3
_chemical_formula_sum   'Zr2 Te6'
_cell_volume   737.24623653
_cell_formula_units_Z   2
loop_
 _symmetry_equiv_pos_site_id
 _symmetry_equiv_pos_as_xyz
  1  'x, y, z'
loop_
 _atom_site_type_symbol
 _atom_site_label
 _atom_site_symmetry_multiplicity
 _atom_site_fract_x
 _atom_site_fract_y
 _atom_site_fract_z
 _atom_site_occupancy
  Zr  Zr0  1  0.71535962  0.25000000  0.11236532  1
  Zr  Zr1  1  0.28464038  0.75000000  0.22110868  1
  Te  Te2  1  0.91934833  0.75000000  0.05795335  1
  Te  Te3  1  0.44198649  0.75000000  0.05797198  1
  Te  Te4  1  0.23877756  0.25000000  0.14914319  1
  Te  Te5  1  0.76122244  0.75000000  0.18432981  1
  Te  Te6  1  0.55801351  0.25000000  0.27550102  1
  Te  Te7  1  0.08065167  0.25000000  0.27552065  1
