# generated using pymatgen
data_CaMnSi
_symmetry_space_group_name_H-M   'P 1'
_cell_length_a   3.85958611
_cell_length_b   3.85958611
_cell_length_c   27.72391100
_cell_angle_alpha   90.00000000
_cell_angle_beta   90.00000000
_cell_angle_gamma   90.00000000
_symmetry_Int_Tables_number   1
_chemical_formula_structural   CaMnSi
_chemical_formula_sum   'Ca2 Mn2 Si2'
_cell_volume   412.98660478
_cell_formula_units_Z   2
loop_
 _symmetry_equiv_pos_site_id
 _symmetry_equiv_pos_as_xyz
  1  'x, y, z'
loop_
 _atom_site_type_symbol
 _atom_site_label
 _atom_site_symmetry_multiplicity
 _atom_site_fract_x
 _atom_site_fract_y
 _atom_site_fract_z
 _atom_site_occupancy
  Ca  Ca0  1  0.97918000  0.47918000  0.23234375  1
  Ca  Ca1  1  0.47918000  0.97918000  0.04625725  1
  Mn  Mn2  1  0.47918000  0.47918000  0.13930100  1
  Mn  Mn3  1  0.97918000  0.97918000  0.13930100  1
  Si  Si4  1  0.47918000  0.97918000  0.18982041  1
  Si  Si5  1  0.97918000  0.47918000  0.08878059  1
