# generated using pymatgen
data_Te2W
_symmetry_space_group_name_H-M   'P 1'
_cell_length_a   3.51011951
_cell_length_b   6.31552299
_cell_length_c   35.43185100
_cell_angle_alpha   90.00000000
_cell_angle_beta   90.00000000
_cell_angle_gamma   90.00000000
_symmetry_Int_Tables_number   1
_chemical_formula_structural   Te2W
_chemical_formula_sum   'Te4 W2'
_cell_volume   785.46179178
_cell_formula_units_Z   2
loop_
 _symmetry_equiv_pos_site_id
 _symmetry_equiv_pos_as_xyz
  1  'x, y, z'
loop_
 _atom_site_type_symbol
 _atom_site_label
 _atom_site_symmetry_multiplicity
 _atom_site_fract_x
 _atom_site_fract_y
 _atom_site_fract_z
 _atom_site_occupancy
  Te  Te0  1  0.00000000  0.20622356  0.17905108  1
  Te  Te1  1  0.50000000  0.69853301  0.16177994  1
  Te  Te2  1  0.00000000  0.86046457  0.28032644  1
  Te  Te3  1  0.50000000  0.35277321  0.26306075  1
  W  W4  1  0.50000000  0.95714962  0.22395613  1
  W  W5  1  0.00000000  0.60184303  0.21815966  1
