# generated using pymatgen
data_HgCl2
_symmetry_space_group_name_H-M   'P 1'
_cell_length_a   4.09496232
_cell_length_b   13.01547061
_cell_length_c   25.60372200
_cell_angle_alpha   90.00000000
_cell_angle_beta   90.00000000
_cell_angle_gamma   90.00000000
_symmetry_Int_Tables_number   1
_chemical_formula_structural   HgCl2
_chemical_formula_sum   'Hg2 Cl4'
_cell_volume   1364.62363328
_cell_formula_units_Z   2
loop_
 _symmetry_equiv_pos_site_id
 _symmetry_equiv_pos_as_xyz
  1  'x, y, z'
loop_
 _atom_site_type_symbol
 _atom_site_label
 _atom_site_symmetry_multiplicity
 _atom_site_fract_x
 _atom_site_fract_y
 _atom_site_fract_z
 _atom_site_occupancy
  Hg  Hg0  1  0.50043794  0.37377491  0.06448000  1
  Hg  Hg1  1  -0.00043794  0.87377491  0.06448000  1
  Cl  Cl2  1  0.64389818  0.01201781  0.06448000  1
  Cl  Cl3  1  0.14460273  0.23556728  0.06448000  1
  Cl  Cl4  1  0.85610182  0.51201781  0.06448000  1
  Cl  Cl5  1  0.35539727  0.73556728  0.06448000  1
