# generated using pymatgen
data_Te2Rh
_symmetry_space_group_name_H-M   'P 1'
_cell_length_a   3.77876929
_cell_length_b   3.77876937
_cell_length_c   25.51581100
_cell_angle_alpha   90.00000000
_cell_angle_beta   90.00000000
_cell_angle_gamma   119.99999933
_symmetry_Int_Tables_number   1
_chemical_formula_structural   Te2Rh
_chemical_formula_sum   'Te2 Rh1'
_cell_volume   315.53008546
_cell_formula_units_Z   1
loop_
 _symmetry_equiv_pos_site_id
 _symmetry_equiv_pos_as_xyz
  1  'x, y, z'
loop_
 _atom_site_type_symbol
 _atom_site_label
 _atom_site_symmetry_multiplicity
 _atom_site_fract_x
 _atom_site_fract_y
 _atom_site_fract_z
 _atom_site_occupancy
  Te  Te0  1  0.43118600  0.47035100  0.16844621  1
  Te  Te1  1  0.76452000  0.13701700  0.04772579  1
  Rh  Rh2  1  0.09785300  0.80368400  0.10808600  1
