# generated using pymatgen
data_PbIF
_symmetry_space_group_name_H-M   'P 1'
_cell_length_a   4.18803269
_cell_length_b   4.18803269
_cell_length_c   28.45969800
_cell_angle_alpha   90.00000000
_cell_angle_beta   90.00000000
_cell_angle_gamma   90.00000000
_symmetry_Int_Tables_number   1
_chemical_formula_structural   PbIF
_chemical_formula_sum   'Pb2 I2 F2'
_cell_volume   499.17222529
_cell_formula_units_Z   2
loop_
 _symmetry_equiv_pos_site_id
 _symmetry_equiv_pos_as_xyz
  1  'x, y, z'
loop_
 _atom_site_type_symbol
 _atom_site_label
 _atom_site_symmetry_multiplicity
 _atom_site_fract_x
 _atom_site_fract_y
 _atom_site_fract_z
 _atom_site_occupancy
  Pb  Pb0  1  0.61662200  0.11662200  0.21830045  1
  Pb  Pb1  1  0.11662200  0.61662200  0.11408855  1
  I  I2  1  0.11662200  0.61662200  0.27539552  1
  I  I3  1  0.61662200  0.11662200  0.05699348  1
  F  F4  1  0.11662200  0.11662200  0.16619500  1
  F  F5  1  0.61662200  0.61662200  0.16619500  1
