# generated using pymatgen
data_YI3
_symmetry_space_group_name_H-M   'P 1'
_cell_length_a   7.51203748
_cell_length_b   7.51203815
_cell_length_c   25.67374100
_cell_angle_alpha   90.00000000
_cell_angle_beta   90.00000000
_cell_angle_gamma   120.00000109
_symmetry_Int_Tables_number   1
_chemical_formula_structural   YI3
_chemical_formula_sum   'Y2 I6'
_cell_volume   1254.68675516
_cell_formula_units_Z   2
loop_
 _symmetry_equiv_pos_site_id
 _symmetry_equiv_pos_as_xyz
  1  'x, y, z'
loop_
 _atom_site_type_symbol
 _atom_site_label
 _atom_site_symmetry_multiplicity
 _atom_site_fract_x
 _atom_site_fract_y
 _atom_site_fract_z
 _atom_site_occupancy
  Y  Y0  1  0.00000000  0.00000000  0.14720167  1
  Y  Y1  1  0.66666700  0.33333300  0.14718033  1
  I  I2  1  0.67650084  0.00979331  0.07874430  1
  I  I3  1  0.33329247  0.32349916  0.07874430  1
  I  I4  1  0.99020669  0.66670753  0.07874430  1
  I  I5  1  0.33337453  0.00983484  0.21563870  1
  I  I6  1  0.67646031  0.66662547  0.21563870  1
  I  I7  1  0.99016516  0.32353969  0.21563870  1
