# generated using pymatgen
data_SbSBr
_symmetry_space_group_name_H-M   'P 1'
_cell_length_a   3.99418008
_cell_length_b   6.91375339
_cell_length_c   28.67747100
_cell_angle_alpha   90.00000000
_cell_angle_beta   90.00000000
_cell_angle_gamma   90.00000000
_symmetry_Int_Tables_number   1
_chemical_formula_structural   SbSBr
_chemical_formula_sum   'Sb2 S2 Br2'
_cell_volume   791.92193939
_cell_formula_units_Z   2
loop_
 _symmetry_equiv_pos_site_id
 _symmetry_equiv_pos_as_xyz
  1  'x, y, z'
loop_
 _atom_site_type_symbol
 _atom_site_label
 _atom_site_symmetry_multiplicity
 _atom_site_fract_x
 _atom_site_fract_y
 _atom_site_fract_z
 _atom_site_occupancy
  Sb  Sb0  1  0.75000000  0.26984117  0.15226686  1
  Sb  Sb1  1  0.25000000  0.73015883  0.15032214  1
  S  S2  1  0.75000000  0.57629531  0.20151586  1
  S  S3  1  0.25000000  0.42370469  0.10107314  1
  Br  Br4  1  0.25000000  0.11011902  0.21900550  1
  Br  Br5  1  0.75000000  0.88988098  0.08358250  1
