# generated using pymatgen
data_SbSeI
_symmetry_space_group_name_H-M   'P 1'
_cell_length_a   3.87828699
_cell_length_b   7.35282421
_cell_length_c   29.16371300
_cell_angle_alpha   90.00000000
_cell_angle_beta   90.00000000
_cell_angle_gamma   90.00000000
_symmetry_Int_Tables_number   1
_chemical_formula_structural   SbSeI
_chemical_formula_sum   'Sb2 Se2 I2'
_cell_volume   831.64301046
_cell_formula_units_Z   2
loop_
 _symmetry_equiv_pos_site_id
 _symmetry_equiv_pos_as_xyz
  1  'x, y, z'
loop_
 _atom_site_type_symbol
 _atom_site_label
 _atom_site_symmetry_multiplicity
 _atom_site_fract_x
 _atom_site_fract_y
 _atom_site_fract_z
 _atom_site_occupancy
  Sb  Sb0  1  0.75000000  0.20416798  0.05424489  1
  Sb  Sb1  1  0.25000000  0.70416798  0.10286311  1
  Se  Se2  1  0.25000000  0.03762165  0.00826839  1
  Se  Se3  1  0.75000000  0.53762165  0.14883961  1
  I  I4  1  0.75000000  0.53884037  0.00353941  1
  I  I5  1  0.25000000  0.03884037  0.15356859  1
