# generated using pymatgen
data_SbSI
_symmetry_space_group_name_H-M   'P 1'
_cell_length_a   3.79691587
_cell_length_b   6.12644173
_cell_length_c   28.13526300
_cell_angle_alpha   90.00000000
_cell_angle_beta   90.00000000
_cell_angle_gamma   90.00000000
_symmetry_Int_Tables_number   1
_chemical_formula_structural   SbSI
_chemical_formula_sum   'Sb2 S2 I2'
_cell_volume   654.47077962
_cell_formula_units_Z   2
loop_
 _symmetry_equiv_pos_site_id
 _symmetry_equiv_pos_as_xyz
  1  'x, y, z'
loop_
 _atom_site_type_symbol
 _atom_site_label
 _atom_site_symmetry_multiplicity
 _atom_site_fract_x
 _atom_site_fract_y
 _atom_site_fract_z
 _atom_site_occupancy
  Sb  Sb0  1  0.25000000  0.85309100  0.07848302  1
  Sb  Sb1  1  0.75000000  0.35309100  0.20826198  1
  S  S2  1  0.75000000  0.85302340  0.02038421  1
  S  S3  1  0.25000000  0.35302340  0.26635979  1
  I  I4  1  0.25000000  0.35303660  0.09759479  1
  I  I5  1  0.75000000  0.85303660  0.18914921  1
