# generated using pymatgen
data_BiSeI
_symmetry_space_group_name_H-M   'P 1'
_cell_length_a   4.32031182
_cell_length_b   10.72704171
_cell_length_c   25.03710600
_cell_angle_alpha   90.00000000
_cell_angle_beta   90.00000000
_cell_angle_gamma   90.00000000
_symmetry_Int_Tables_number   1
_chemical_formula_structural   BiSeI
_chemical_formula_sum   'Bi2 Se2 I2'
_cell_volume   1160.32377468
_cell_formula_units_Z   2
loop_
 _symmetry_equiv_pos_site_id
 _symmetry_equiv_pos_as_xyz
  1  'x, y, z'
loop_
 _atom_site_type_symbol
 _atom_site_label
 _atom_site_symmetry_multiplicity
 _atom_site_fract_x
 _atom_site_fract_y
 _atom_site_fract_z
 _atom_site_occupancy
  Bi  Bi0  1  0.75000000  0.36219652  0.21233120  1
  Bi  Bi1  1  0.25000000  0.63780348  0.14861780  1
  Se  Se2  1  0.75000000  0.46581193  0.11395958  1
  Se  Se3  1  0.25000000  0.53418807  0.24698942  1
  I  I4  1  0.25000000  0.16466406  0.17740639  1
  I  I5  1  0.75000000  0.83533594  0.18354261  1
