# generated using pymatgen
data_SbSI
_symmetry_space_group_name_H-M   'P 1'
_cell_length_a   4.14311692
_cell_length_b   10.39617496
_cell_length_c   27.01978300
_cell_angle_alpha   90.00000000
_cell_angle_beta   90.00000000
_cell_angle_gamma   90.00000000
_symmetry_Int_Tables_number   1
_chemical_formula_structural   SbSI
_chemical_formula_sum   'Sb2 S2 I2'
_cell_volume   1163.81145242
_cell_formula_units_Z   2
loop_
 _symmetry_equiv_pos_site_id
 _symmetry_equiv_pos_as_xyz
  1  'x, y, z'
loop_
 _atom_site_type_symbol
 _atom_site_label
 _atom_site_symmetry_multiplicity
 _atom_site_fract_x
 _atom_site_fract_y
 _atom_site_fract_z
 _atom_site_occupancy
  Sb  Sb0  1  0.75000000  0.36786967  0.19798746  1
  Sb  Sb1  1  0.25000000  0.63213033  0.13583354  1
  S  S2  1  0.75000000  0.46304662  0.11455641  1
  S  S3  1  0.25000000  0.53695338  0.21926459  1
  I  I4  1  0.25000000  0.17167703  0.16064721  1
  I  I5  1  0.75000000  0.82832297  0.17317379  1
