# generated using pymatgen
data_Bi2Se3
_symmetry_space_group_name_H-M   'P 1'
_cell_length_a   4.17308384
_cell_length_b   9.96380770
_cell_length_c   29.53561900
_cell_angle_alpha   90.00000000
_cell_angle_beta   90.00000000
_cell_angle_gamma   90.00000000
_symmetry_Int_Tables_number   1
_chemical_formula_structural   Bi2Se3
_chemical_formula_sum   'Bi4 Se6'
_cell_volume   1228.08527459
_cell_formula_units_Z   2
loop_
 _symmetry_equiv_pos_site_id
 _symmetry_equiv_pos_as_xyz
  1  'x, y, z'
loop_
 _atom_site_type_symbol
 _atom_site_label
 _atom_site_symmetry_multiplicity
 _atom_site_fract_x
 _atom_site_fract_y
 _atom_site_fract_z
 _atom_site_occupancy
  Bi  Bi0  1  0.25000000  0.51327211  0.14571049  1
  Bi  Bi1  1  0.75000000  0.85821556  0.18145502  1
  Bi  Bi2  1  0.25000000  0.14178444  0.24296898  1
  Bi  Bi3  1  0.75000000  0.48672789  0.27871351  1
  Se  Se4  1  0.75000000  0.66031906  0.10389422  1
  Se  Se5  1  0.25000000  0.03313363  0.15073458  1
  Se  Se6  1  0.75000000  0.33485879  0.20128996  1
  Se  Se7  1  0.25000000  0.66514121  0.22313404  1
  Se  Se8  1  0.75000000  -0.03313363  0.27368942  1
  Se  Se9  1  0.25000000  0.33968094  0.32052878  1
