# generated using pymatgen
data_SbCl5
_symmetry_space_group_name_H-M   'P 1'
_cell_length_a   7.94790756
_cell_length_b   6.36131818
_cell_length_c   31.01024600
_cell_angle_alpha   90.00000000
_cell_angle_beta   90.00000000
_cell_angle_gamma   102.67733581
_symmetry_Int_Tables_number   1
_chemical_formula_structural   SbCl5
_chemical_formula_sum   'Sb2 Cl10'
_cell_volume   1529.63026772
_cell_formula_units_Z   2
loop_
 _symmetry_equiv_pos_site_id
 _symmetry_equiv_pos_as_xyz
  1  'x, y, z'
loop_
 _atom_site_type_symbol
 _atom_site_label
 _atom_site_symmetry_multiplicity
 _atom_site_fract_x
 _atom_site_fract_y
 _atom_site_fract_z
 _atom_site_occupancy
  Sb  Sb0  1  0.24535423  0.31700037  0.69747842  1
  Sb  Sb1  1  0.76953877  0.72075963  0.59159158  1
  Cl  Cl2  1  0.64742207  0.35513064  0.58140407  1
  Cl  Cl3  1  0.21002833  0.18801609  0.62681383  1
  Cl  Cl4  1  0.80486467  0.84974391  0.66225617  1
  Cl  Cl5  1  0.36746993  0.68262936  0.70766593  1
  Cl  Cl6  1  0.52650942  0.23941563  0.69946955  1
  Cl  Cl7  1  0.96463630  0.39251502  0.69797325  1
  Cl  Cl8  1  0.16271935  0.08204993  0.75579078  1
  Cl  Cl9  1  0.85217365  0.95571007  0.53327922  1
  Cl  Cl10  1  0.05025670  0.64524498  0.59109675  1
  Cl  Cl11  1  0.48838358  0.79834437  0.58960045  1
