# generated using pymatgen
data_BCl3
_symmetry_space_group_name_H-M   'P 1'
_cell_length_a   6.10089862
_cell_length_b   6.10089801
_cell_length_c   25.65588200
_cell_angle_alpha   90.00000000
_cell_angle_beta   90.00000000
_cell_angle_gamma   119.99999884
_symmetry_Int_Tables_number   1
_chemical_formula_structural   BCl3
_chemical_formula_sum   'B1 Cl3'
_cell_volume   826.99933368
_cell_formula_units_Z   1
loop_
 _symmetry_equiv_pos_site_id
 _symmetry_equiv_pos_as_xyz
  1  'x, y, z'
loop_
 _atom_site_type_symbol
 _atom_site_label
 _atom_site_symmetry_multiplicity
 _atom_site_fract_x
 _atom_site_fract_y
 _atom_site_fract_z
 _atom_site_occupancy
  B  B0  1  0.33333300  0.66666700  0.07460200  1
  Cl  Cl1  1  0.04782361  0.38100781  0.07460200  1
  Cl  Cl2  1  0.61899219  0.66681580  0.07460200  1
  Cl  Cl3  1  0.33318420  0.95217639  0.07460200  1
