# generated using pymatgen
data_FeCl3
_symmetry_space_group_name_H-M   'P 1'
_cell_length_a   5.79194788
_cell_length_b   5.79194828
_cell_length_c   19.23313100
_cell_angle_alpha   90.00000000
_cell_angle_beta   90.00000000
_cell_angle_gamma   119.99999772
_symmetry_Int_Tables_number   1
_chemical_formula_structural   FeCl3
_chemical_formula_sum   'Fe2 Cl6'
_cell_volume   558.76597359
_cell_formula_units_Z   2
loop_
 _symmetry_equiv_pos_site_id
 _symmetry_equiv_pos_as_xyz
  1  'x, y, z'
loop_
 _atom_site_type_symbol
 _atom_site_label
 _atom_site_symmetry_multiplicity
 _atom_site_fract_x
 _atom_site_fract_y
 _atom_site_fract_z
 _atom_site_occupancy
  Fe  Fe0  1  0.00000000  0.00000000  0.33333495  1
  Fe  Fe1  1  0.33333300  0.66666700  0.33333205  1
  Cl  Cl2  1  0.30913247  0.33333476  0.26653146  1
  Cl  Cl3  1  0.66666524  0.97579871  0.26653146  1
  Cl  Cl4  1  0.02420129  0.69086753  0.26653146  1
  Cl  Cl5  1  0.02420053  0.33333224  0.40013554  1
  Cl  Cl6  1  0.30913171  0.97579947  0.40013554  1
  Cl  Cl7  1  0.66666776  0.69086829  0.40013554  1
