# generated using pymatgen
data_NbCoTe2
_symmetry_space_group_name_H-M   'P 1'
_cell_length_a   6.35207406
_cell_length_b   7.79761677
_cell_length_c   24.96025600
_cell_angle_alpha   98.58549192
_cell_angle_beta   90.00000000
_cell_angle_gamma   90.00000000
_symmetry_Int_Tables_number   1
_chemical_formula_structural   NbCoTe2
_chemical_formula_sum   'Nb4 Co4 Te8'
_cell_volume   1222.45362216
_cell_formula_units_Z   4
loop_
 _symmetry_equiv_pos_site_id
 _symmetry_equiv_pos_as_xyz
  1  'x, y, z'
loop_
 _atom_site_type_symbol
 _atom_site_label
 _atom_site_symmetry_multiplicity
 _atom_site_fract_x
 _atom_site_fract_y
 _atom_site_fract_z
 _atom_site_occupancy
  Nb  Nb0  1  0.48300473  0.19730414  0.09032826  1
  Nb  Nb1  1  0.51699527  0.80269486  0.09935074  1
  Nb  Nb2  1  0.98300473  0.30269486  0.09935074  1
  Nb  Nb3  1  0.01699527  0.69730514  0.09032826  1
  Co  Co4  1  0.85369399  0.97718070  0.06247416  1
  Co  Co5  1  0.35369399  0.52281930  0.12720284  1
  Co  Co6  1  0.64630601  0.47718070  0.06247416  1
  Co  Co7  1  0.14630601  0.02281930  0.12720284  1
  Te  Te8  1  0.25425974  0.43339249  0.02514900  1
  Te  Te9  1  0.74719275  0.69493623  0.00012196  1
  Te  Te10  1  0.24719275  0.80506377  0.18955704  1
  Te  Te11  1  0.75425974  0.06660751  0.16453000  1
  Te  Te12  1  0.75280725  0.19493623  0.00012196  1
  Te  Te13  1  0.25280725  0.30506377  0.18955704  1
  Te  Te14  1  0.24574026  0.93339249  0.02514900  1
  Te  Te15  1  0.74574026  0.56660751  0.16453000  1
