# generated using pymatgen
data_MgI2
_symmetry_space_group_name_H-M   'P 1'
_cell_length_a   4.16071519
_cell_length_b   4.16071502
_cell_length_c   27.73127600
_cell_angle_alpha   90.00000000
_cell_angle_beta   90.00000000
_cell_angle_gamma   120.00000136
_symmetry_Int_Tables_number   1
_chemical_formula_structural   MgI2
_chemical_formula_sum   'Mg1 I2'
_cell_volume   415.75400103
_cell_formula_units_Z   1
loop_
 _symmetry_equiv_pos_site_id
 _symmetry_equiv_pos_as_xyz
  1  'x, y, z'
loop_
 _atom_site_type_symbol
 _atom_site_label
 _atom_site_symmetry_multiplicity
 _atom_site_fract_x
 _atom_site_fract_y
 _atom_site_fract_z
 _atom_site_occupancy
  Mg  Mg0  1  0.44850200  0.06037700  0.13939600  1
  I  I1  1  0.11516900  0.39371000  0.19986824  1
  I  I2  1  0.78183500  0.72704400  0.07892476  1
