# generated using pymatgen
data_BBr3
_symmetry_space_group_name_H-M   'P 1'
_cell_length_a   6.46933947
_cell_length_b   6.46933964
_cell_length_c   25.24361800
_cell_angle_alpha   90.00000000
_cell_angle_beta   90.00000000
_cell_angle_gamma   119.99999913
_symmetry_Int_Tables_number   1
_chemical_formula_structural   BBr3
_chemical_formula_sum   'B1 Br3'
_cell_volume   914.96004101
_cell_formula_units_Z   1
loop_
 _symmetry_equiv_pos_site_id
 _symmetry_equiv_pos_as_xyz
  1  'x, y, z'
loop_
 _atom_site_type_symbol
 _atom_site_label
 _atom_site_symmetry_multiplicity
 _atom_site_fract_x
 _atom_site_fract_y
 _atom_site_fract_z
 _atom_site_occupancy
  B  B0  1  0.33333300  0.66666700  0.08164100  1
  Br  Br1  1  0.03890636  0.37255192  0.08164100  1
  Br  Br2  1  0.62744808  0.66635444  0.08164100  1
  Br  Br3  1  0.33364556  0.96109364  0.08164100  1
