# generated using pymatgen
data_FeCl2
_symmetry_space_group_name_H-M   'P 1'
_cell_length_a   3.49758854
_cell_length_b   3.49758869
_cell_length_c   27.01259200
_cell_angle_alpha   90.00000000
_cell_angle_beta   90.00000000
_cell_angle_gamma   119.99999858
_symmetry_Int_Tables_number   1
_chemical_formula_structural   FeCl2
_chemical_formula_sum   'Fe1 Cl2'
_cell_volume   286.17675222
_cell_formula_units_Z   1
loop_
 _symmetry_equiv_pos_site_id
 _symmetry_equiv_pos_as_xyz
  1  'x, y, z'
loop_
 _atom_site_type_symbol
 _atom_site_label
 _atom_site_symmetry_multiplicity
 _atom_site_fract_x
 _atom_site_fract_y
 _atom_site_fract_z
 _atom_site_occupancy
  Fe  Fe0  1  0.47824600  0.27830300  0.37043100  1
  Cl  Cl1  1  0.14491300  0.61163600  0.42254374  1
  Cl  Cl2  1  0.81157900  0.94497000  0.31831726  1
