# generated using pymatgen
data_PCl3
_symmetry_space_group_name_H-M   'P 1'
_cell_length_a   5.80810351
_cell_length_b   7.94329507
_cell_length_c   30.07448500
_cell_angle_alpha   90.00000000
_cell_angle_beta   90.00000000
_cell_angle_gamma   90.00000000
_symmetry_Int_Tables_number   1
_chemical_formula_structural   PCl3
_chemical_formula_sum   'P2 Cl6'
_cell_volume   1387.50080102
_cell_formula_units_Z   2
loop_
 _symmetry_equiv_pos_site_id
 _symmetry_equiv_pos_as_xyz
  1  'x, y, z'
loop_
 _atom_site_type_symbol
 _atom_site_label
 _atom_site_symmetry_multiplicity
 _atom_site_fract_x
 _atom_site_fract_y
 _atom_site_fract_z
 _atom_site_occupancy
  P  P0  1  0.39543590  0.51834526  0.08374600  1
  P  P1  1  0.10456410  0.01834526  0.08374600  1
  Cl  Cl2  1  0.19057036  0.58894072  0.03038687  1
  Cl  Cl3  1  0.30942964  0.08894072  0.03038687  1
  Cl  Cl4  1  0.86909834  0.21563229  0.08374600  1
  Cl  Cl5  1  0.63090166  0.71563229  0.08374600  1
  Cl  Cl6  1  0.30942964  0.08894072  0.13710513  1
  Cl  Cl7  1  0.19057036  0.58894072  0.13710513  1
