# generated using pymatgen
data_AsCl3
_symmetry_space_group_name_H-M   'P 1'
_cell_length_a   4.08530401
_cell_length_b   9.43420720
_cell_length_c   25.23253100
_cell_angle_alpha   90.00000000
_cell_angle_beta   90.00000000
_cell_angle_gamma   90.00000000
_symmetry_Int_Tables_number   1
_chemical_formula_structural   AsCl3
_chemical_formula_sum   'As2 Cl6'
_cell_volume   972.50222976
_cell_formula_units_Z   2
loop_
 _symmetry_equiv_pos_site_id
 _symmetry_equiv_pos_as_xyz
  1  'x, y, z'
loop_
 _atom_site_type_symbol
 _atom_site_label
 _atom_site_symmetry_multiplicity
 _atom_site_fract_x
 _atom_site_fract_y
 _atom_site_fract_z
 _atom_site_occupancy
  As  As0  1  0.49700165  0.80257165  0.10668494  1
  As  As1  1  0.50299835  0.30257165  0.13571106  1
  Cl  Cl2  1  0.75827564  0.62690000  0.06552360  1
  Cl  Cl3  1  0.22211917  0.30264460  0.06020749  1
  Cl  Cl4  1  0.75832220  0.97813675  0.06546238  1
  Cl  Cl5  1  0.24167780  0.47813675  0.17693362  1
  Cl  Cl6  1  0.77788083  0.80264460  0.18218851  1
  Cl  Cl7  1  0.24172436  0.12690000  0.17687240  1
