# generated using pymatgen
data_SbI3
_symmetry_space_group_name_H-M   'P 1'
_cell_length_a   7.46047368
_cell_length_b   7.46047334
_cell_length_c   30.90703300
_cell_angle_alpha   90.00000000
_cell_angle_beta   90.00000000
_cell_angle_gamma   120.00000149
_symmetry_Int_Tables_number   1
_chemical_formula_structural   SbI3
_chemical_formula_sum   'Sb2 I6'
_cell_volume   1489.77515094
_cell_formula_units_Z   2
loop_
 _symmetry_equiv_pos_site_id
 _symmetry_equiv_pos_as_xyz
  1  'x, y, z'
loop_
 _atom_site_type_symbol
 _atom_site_label
 _atom_site_symmetry_multiplicity
 _atom_site_fract_x
 _atom_site_fract_y
 _atom_site_fract_z
 _atom_site_occupancy
  Sb  Sb0  1  0.66666700  0.33333300  0.12351655  1
  Sb  Sb1  1  0.00000000  0.00000000  0.12353645  1
  I  I2  1  0.99526220  0.32859698  0.06536297  1
  I  I3  1  0.67140302  0.66666522  0.06536297  1
  I  I4  1  0.33333478  0.00473780  0.06536297  1
  I  I5  1  0.99526398  0.66666778  0.18169003  1
  I  I6  1  0.33333222  0.32859620  0.18169003  1
  I  I7  1  0.67140380  0.00473602  0.18169003  1
