# generated using pymatgen
data_AlBr3
_symmetry_space_group_name_H-M   'P 1'
_cell_length_a   7.30150361
_cell_length_b   6.88816213
_cell_length_c   23.25677300
_cell_angle_alpha   90.00000000
_cell_angle_beta   98.73861129
_cell_angle_gamma   91.14394233
_symmetry_Int_Tables_number   1
_chemical_formula_structural   AlBr3
_chemical_formula_sum   'Al2 Br6'
_cell_volume   1155.86099920
_cell_formula_units_Z   2
loop_
 _symmetry_equiv_pos_site_id
 _symmetry_equiv_pos_as_xyz
  1  'x, y, z'
loop_
 _atom_site_type_symbol
 _atom_site_label
 _atom_site_symmetry_multiplicity
 _atom_site_fract_x
 _atom_site_fract_y
 _atom_site_fract_z
 _atom_site_occupancy
  Al  Al0  1  0.70571225  0.40231932  0.26837617  1
  Al  Al1  1  0.29428775  0.59768068  0.21564483  1
  Br  Br2  1  0.76122617  0.08824272  0.25398763  1
  Br  Br3  1  0.07764074  0.41035174  0.16072690  1
  Br  Br4  1  0.41160316  0.43217241  0.30602039  1
  Br  Br5  1  0.58839684  0.56782759  0.17800061  1
  Br  Br6  1  0.92235926  0.58964826  0.32329410  1
  Br  Br7  1  0.23877383  0.91175728  0.23003337  1
