# generated using pymatgen
data_RuBr3
_symmetry_space_group_name_H-M   'P 1'
_cell_length_a   5.87657987
_cell_length_b   6.40252302
_cell_length_c   27.41300400
_cell_angle_alpha   90.00000000
_cell_angle_beta   90.00000000
_cell_angle_gamma   90.00000000
_symmetry_Int_Tables_number   1
_chemical_formula_structural   RuBr3
_chemical_formula_sum   'Ru2 Br6'
_cell_volume   1031.41257204
_cell_formula_units_Z   2
loop_
 _symmetry_equiv_pos_site_id
 _symmetry_equiv_pos_as_xyz
  1  'x, y, z'
loop_
 _atom_site_type_symbol
 _atom_site_label
 _atom_site_symmetry_multiplicity
 _atom_site_fract_x
 _atom_site_fract_y
 _atom_site_fract_z
 _atom_site_occupancy
  Ru  Ru0  1  0.74999896  0.25399404  0.22640700  1
  Ru  Ru1  1  0.25000104  0.25399404  0.22640700  1
  Br  Br2  1  0.50000000  0.09636213  0.16177366  1
  Br  Br3  1  0.00000000  0.41162144  0.16177406  1
  Br  Br4  1  0.00000000  0.93648536  0.22640700  1
  Br  Br5  1  0.50000000  0.57150844  0.22640700  1
  Br  Br6  1  0.00000000  0.41162144  0.29103994  1
  Br  Br7  1  0.50000000  0.09636213  0.29104034  1
