# generated using pymatgen
data_MoBr3
_symmetry_space_group_name_H-M   'P 1'
_cell_length_a   6.07231105
_cell_length_b   6.57900962
_cell_length_c   25.68026600
_cell_angle_alpha   90.00000000
_cell_angle_beta   90.00000000
_cell_angle_gamma   90.00000000
_symmetry_Int_Tables_number   1
_chemical_formula_structural   MoBr3
_chemical_formula_sum   'Mo2 Br6'
_cell_volume   1025.92130625
_cell_formula_units_Z   2
loop_
 _symmetry_equiv_pos_site_id
 _symmetry_equiv_pos_as_xyz
  1  'x, y, z'
loop_
 _atom_site_type_symbol
 _atom_site_label
 _atom_site_symmetry_multiplicity
 _atom_site_fract_x
 _atom_site_fract_y
 _atom_site_fract_z
 _atom_site_occupancy
  Mo  Mo0  1  0.72872046  0.25264394  0.24688700  1
  Mo  Mo1  1  0.27127954  0.25264394  0.24688700  1
  Br  Br2  1  0.50000000  0.09036066  0.17380576  1
  Br  Br3  1  0.00000000  0.40757778  0.17810268  1
  Br  Br4  1  0.50000000  0.58006284  0.24688700  1
  Br  Br5  1  0.00000000  0.94293241  0.24688700  1
  Br  Br6  1  0.00000000  0.40757778  0.31567232  1
  Br  Br7  1  0.50000000  0.09036066  0.31996924  1
