# generated using pymatgen
data_AsBr3
_symmetry_space_group_name_H-M   'P 1'
_cell_length_a   4.11825209
_cell_length_b   10.17159729
_cell_length_c   25.16213100
_cell_angle_alpha   90.00000000
_cell_angle_beta   90.00000000
_cell_angle_gamma   90.00000000
_symmetry_Int_Tables_number   1
_chemical_formula_structural   AsBr3
_chemical_formula_sum   'As2 Br6'
_cell_volume   1054.02158156
_cell_formula_units_Z   2
loop_
 _symmetry_equiv_pos_site_id
 _symmetry_equiv_pos_as_xyz
  1  'x, y, z'
loop_
 _atom_site_type_symbol
 _atom_site_label
 _atom_site_symmetry_multiplicity
 _atom_site_fract_x
 _atom_site_fract_y
 _atom_site_fract_z
 _atom_site_occupancy
  As  As0  1  0.00718492  0.80924137  0.11393938  1
  As  As1  1  -0.00718492  0.30924137  0.14760662  1
  Br  Br2  1  0.73237178  0.63336160  0.06989609  1
  Br  Br3  1  0.28471442  0.30905482  0.06498322  1
  Br  Br4  1  0.73252824  0.98567520  0.07024357  1
  Br  Br5  1  0.26747176  0.48567520  0.19130243  1
  Br  Br6  1  0.71528558  0.80905482  0.19656278  1
  Br  Br7  1  0.26762822  0.13336160  0.19165091  1
