# generated using pymatgen
data_BiSBr
_symmetry_space_group_name_H-M   'P 1'
_cell_length_a   4.08559817
_cell_length_b   7.20092669
_cell_length_c   28.46763900
_cell_angle_alpha   90.00000000
_cell_angle_beta   90.00000000
_cell_angle_gamma   90.00000000
_symmetry_Int_Tables_number   1
_chemical_formula_structural   BiSBr
_chemical_formula_sum   'Bi2 S2 Br2'
_cell_volume   837.52058372
_cell_formula_units_Z   2
loop_
 _symmetry_equiv_pos_site_id
 _symmetry_equiv_pos_as_xyz
  1  'x, y, z'
loop_
 _atom_site_type_symbol
 _atom_site_label
 _atom_site_symmetry_multiplicity
 _atom_site_fract_x
 _atom_site_fract_y
 _atom_site_fract_z
 _atom_site_occupancy
  Bi  Bi0  1  0.75000000  0.72802593  0.14663240  1
  Bi  Bi1  1  0.25000000  0.27197407  0.15081560  1
  S  S2  1  0.25000000  0.57681184  0.09497960  1
  S  S3  1  0.75000000  0.42318816  0.20246840  1
  Br  Br4  1  0.75000000  0.08686672  0.08479250  1
  Br  Br5  1  0.25000000  0.91313328  0.21265550  1
