# generated using pymatgen
data_Bi2TeI
_symmetry_space_group_name_H-M   'P 1'
_cell_length_a   4.41630268
_cell_length_b   4.41630175
_cell_length_c   37.39824700
_cell_angle_alpha   90.00000000
_cell_angle_beta   90.00000000
_cell_angle_gamma   119.99999955
_symmetry_Int_Tables_number   1
_chemical_formula_structural   Bi2TeI
_chemical_formula_sum   'Bi4 Te2 I2'
_cell_volume   631.68337915
_cell_formula_units_Z   2
loop_
 _symmetry_equiv_pos_site_id
 _symmetry_equiv_pos_as_xyz
  1  'x, y, z'
loop_
 _atom_site_type_symbol
 _atom_site_label
 _atom_site_symmetry_multiplicity
 _atom_site_fract_x
 _atom_site_fract_y
 _atom_site_fract_z
 _atom_site_occupancy
  Bi  Bi0  1  0.00000000  0.00000000  0.86389989  1
  Bi  Bi1  1  0.66666700  0.33333300  0.00038034  1
  Bi  Bi2  1  0.00000000  0.00000000  0.04599866  1
  Bi  Bi3  1  0.66666700  0.33333300  0.18247911  1
  Te  Te4  1  0.66666700  0.33333300  0.81825705  1
  Te  Te5  1  0.00000000  0.00000000  0.22812195  1
  I  I6  1  0.33333300  0.66666700  0.92030963  1
  I  I7  1  0.33333300  0.66666700  0.12606937  1
