# generated using pymatgen
data_BiSI
_symmetry_space_group_name_H-M   'P 1'
_cell_length_a   4.26117467
_cell_length_b   10.61634049
_cell_length_c   28.88705100
_cell_angle_alpha   90.00000000
_cell_angle_beta   90.00000000
_cell_angle_gamma   90.00000000
_symmetry_Int_Tables_number   1
_chemical_formula_structural   BiSI
_chemical_formula_sum   'Bi2 S2 I2'
_cell_volume   1306.79475900
_cell_formula_units_Z   2
loop_
 _symmetry_equiv_pos_site_id
 _symmetry_equiv_pos_as_xyz
  1  'x, y, z'
loop_
 _atom_site_type_symbol
 _atom_site_label
 _atom_site_symmetry_multiplicity
 _atom_site_fract_x
 _atom_site_fract_y
 _atom_site_fract_z
 _atom_site_occupancy
  Bi  Bi0  1  0.75000000  0.36731302  0.18231550  1
  Bi  Bi1  1  0.25000000  0.63268698  0.12533350  1
  S  S2  1  0.75000000  0.46698109  0.10127156  1
  S  S3  1  0.25000000  0.53301891  0.20637644  1
  I  I4  1  0.25000000  0.16772553  0.15082360  1
  I  I5  1  0.75000000  0.83227447  0.15682540  1
