# generated using pymatgen
data_SN
_symmetry_space_group_name_H-M   'P 1'
_cell_length_a   3.50904681
_cell_length_b   4.49379123
_cell_length_c   25.96481264
_cell_angle_alpha   90.00000000
_cell_angle_beta   106.18757245
_cell_angle_gamma   90.00000000
_symmetry_Int_Tables_number   1
_chemical_formula_structural   SN
_chemical_formula_sum   'S2 N2'
_cell_volume   393.20467947
_cell_formula_units_Z   2
loop_
 _symmetry_equiv_pos_site_id
 _symmetry_equiv_pos_as_xyz
  1  'x, y, z'
loop_
 _atom_site_type_symbol
 _atom_site_label
 _atom_site_symmetry_multiplicity
 _atom_site_fract_x
 _atom_site_fract_y
 _atom_site_fract_z
 _atom_site_occupancy
  S  S0  1  0.18190159  0.28502972  0.04250830  1
  S  S1  1  0.32226741  0.78502972  0.11102570  1
  N  N2  1  0.20152722  0.93416328  0.05206608  1
  N  N3  1  0.30264178  0.43416328  0.10146892  1
