# generated using pymatgen
data_SN
_symmetry_space_group_name_H-M   'P 1'
_cell_length_a   4.32137702
_cell_length_b   3.97776244
_cell_length_c   28.97756100
_cell_angle_alpha   90.00000000
_cell_angle_beta   105.35977649
_cell_angle_gamma   59.61742383
_symmetry_Int_Tables_number   1
_chemical_formula_structural   SN
_chemical_formula_sum   'S2 N2'
_cell_volume   408.94396988
_cell_formula_units_Z   2
loop_
 _symmetry_equiv_pos_site_id
 _symmetry_equiv_pos_as_xyz
  1  'x, y, z'
loop_
 _atom_site_type_symbol
 _atom_site_label
 _atom_site_symmetry_multiplicity
 _atom_site_fract_x
 _atom_site_fract_y
 _atom_site_fract_z
 _atom_site_occupancy
  S  S0  1  0.76060006  0.55548600  0.11922524  1
  S  S1  1  0.23939646  0.44452243  0.19058534  1
  N  N2  1  0.16841916  0.53547134  0.13225706  1
  N  N3  1  0.83158431  0.46452023  0.17755335  1
