# generated using pymatgen
data_SiH4
_symmetry_space_group_name_H-M   'P 1'
_cell_length_a   7.89842249
_cell_length_b   4.62133012
_cell_length_c   25.46535137
_cell_angle_alpha   90.00000000
_cell_angle_beta   94.18216212
_cell_angle_gamma   90.00000000
_symmetry_Int_Tables_number   1
_chemical_formula_structural   SiH4
_chemical_formula_sum   'Si2 H8'
_cell_volume   927.04124780
_cell_formula_units_Z   2
loop_
 _symmetry_equiv_pos_site_id
 _symmetry_equiv_pos_as_xyz
  1  'x, y, z'
loop_
 _atom_site_type_symbol
 _atom_site_label
 _atom_site_symmetry_multiplicity
 _atom_site_fract_x
 _atom_site_fract_y
 _atom_site_fract_z
 _atom_site_occupancy
  Si  Si0  1  0.82256879  0.10080241  0.07256590  1
  Si  Si1  1  0.32256879  0.39919759  0.07256590  1
  H  H2  1  0.71682251  0.00970810  0.02436326  1
  H  H3  1  0.21682251  0.49029190  0.02436326  1
  H  H4  1  0.99360081  0.96259932  0.07291935  1
  H  H5  1  0.49360081  0.53740068  0.07291935  1
  H  H6  1  0.84352612  0.42193495  0.07240939  1
  H  H7  1  0.34352612  0.07806505  0.07240939  1
  H  H8  1  0.23784577  0.48866621  0.12056510  1
  H  H9  1  0.73784577  0.01133379  0.12056510  1
