# generated using pymatgen
data_HS7N
_symmetry_space_group_name_H-M   'P 1'
_cell_length_a   7.35285373
_cell_length_b   7.94221453
_cell_length_c   28.85305400
_cell_angle_alpha   90.00000000
_cell_angle_beta   90.00000000
_cell_angle_gamma   90.00000000
_symmetry_Int_Tables_number   1
_chemical_formula_structural   HS7N
_chemical_formula_sum   'H2 S14 N2'
_cell_volume   1684.95896686
_cell_formula_units_Z   2
loop_
 _symmetry_equiv_pos_site_id
 _symmetry_equiv_pos_as_xyz
  1  'x, y, z'
loop_
 _atom_site_type_symbol
 _atom_site_label
 _atom_site_symmetry_multiplicity
 _atom_site_fract_x
 _atom_site_fract_y
 _atom_site_fract_z
 _atom_site_occupancy
  H  H0  1  0.21146221  0.41062361  0.12003100  1
  H  H1  1  0.28853879  0.91062361  0.12003100  1
  S  S2  1  0.00720372  0.71368930  0.04175157  1
  S  S3  1  0.49279628  0.21368930  0.04175157  1
  S  S4  1  0.84474911  0.51223012  0.06187054  1
  S  S5  1  0.65525089  0.01223012  0.06187054  1
  S  S6  1  0.26723521  0.68440800  0.06857597  1
  S  S7  1  0.23276479  0.18440800  0.06857597  1
  S  S8  1  0.70151770  0.58600590  0.12003100  1
  S  S9  1  0.79848230  0.08600590  0.12003100  1
  S  S10  1  0.26723521  0.68440800  0.17148603  1
  S  S11  1  0.23276479  0.18440800  0.17148603  1
  S  S12  1  0.65525089  0.01223012  0.17819146  1
  S  S13  1  0.84474911  0.51223012  0.17819146  1
  S  S14  1  0.49279628  0.21368930  0.19831043  1
  S  S15  1  0.00720372  0.71368930  0.19831043  1
  N  N16  1  0.28282705  0.78109064  0.12003100  1
  N  N17  1  0.21717295  0.28109064  0.12003100  1
