# generated using pymatgen
data_AlHO2
_symmetry_space_group_name_H-M   'P 1'
_cell_length_a   2.92846743
_cell_length_b   3.70249918
_cell_length_c   26.33364100
_cell_angle_alpha   90.00000000
_cell_angle_beta   100.33001941
_cell_angle_gamma   90.00000000
_symmetry_Int_Tables_number   1
_chemical_formula_structural   AlHO2
_chemical_formula_sum   'Al2 H2 O4'
_cell_volume   280.89837303
_cell_formula_units_Z   2
loop_
 _symmetry_equiv_pos_site_id
 _symmetry_equiv_pos_as_xyz
  1  'x, y, z'
loop_
 _atom_site_type_symbol
 _atom_site_label
 _atom_site_symmetry_multiplicity
 _atom_site_fract_x
 _atom_site_fract_y
 _atom_site_fract_z
 _atom_site_occupancy
  Al  Al0  1  0.69786553  0.75000000  0.08794221  1
  Al  Al1  1  0.30212873  0.25000000  0.15257238  1
  H  H2  1  0.06233387  0.75000000  0.00382369  1
  H  H3  1  0.93768480  0.25000000  0.23669160  1
  O  O4  1  0.12230023  0.75000000  0.04108261  1
  O  O5  1  0.72183726  0.25000000  0.10279101  1
  O  O6  1  0.27815182  0.75000000  0.13772515  1
  O  O7  1  0.87769776  0.25000000  0.19943235  1
