# generated using pymatgen
data_P4Se5
_symmetry_space_group_name_H-M   'P 1'
_cell_length_a   6.56727461
_cell_length_b   13.04688272
_cell_length_c   31.81349600
_cell_angle_alpha   90.00000000
_cell_angle_beta   90.00000000
_cell_angle_gamma   90.00000000
_symmetry_Int_Tables_number   1
_chemical_formula_structural   P4Se5
_chemical_formula_sum   'P8 Se10'
_cell_volume   2725.85865109
_cell_formula_units_Z   2
loop_
 _symmetry_equiv_pos_site_id
 _symmetry_equiv_pos_as_xyz
  1  'x, y, z'
loop_
 _atom_site_type_symbol
 _atom_site_label
 _atom_site_symmetry_multiplicity
 _atom_site_fract_x
 _atom_site_fract_y
 _atom_site_fract_z
 _atom_site_occupancy
  P  P0  1  0.59329659  0.93303120  0.17050874  1
  P  P1  1  -0.09329659  0.43303120  0.17050874  1
  P  P2  1  0.90788051  0.88035386  0.19339539  1
  P  P3  1  0.59211949  0.38035386  0.19339539  1
  P  P4  1  0.48780427  0.91304414  0.23810820  1
  P  P5  1  0.01219573  0.41304414  0.23810820  1
  P  P6  1  0.53434172  0.67236734  0.18722588  1
  P  P7  1  -0.03434172  0.17236734  0.18722588  1
  Se  Se8  1  0.45889022  0.79785305  0.13730762  1
  Se  Se9  1  0.04110978  0.29785305  0.13730762  1
  Se  Se10  1  0.87494548  0.70363807  0.19557525  1
  Se  Se11  1  0.62505452  0.20363807  0.19557525  1
  Se  Se12  1  0.37905973  0.74595471  0.24473886  1
  Se  Se13  1  0.12094027  0.24595471  0.24473886  1
  Se  Se14  1  0.81799740  0.94196114  0.25938071  1
  Se  Se15  1  0.68200260  0.44196114  0.25938071  1
  Se  Se16  1  0.27455103  0.01042849  0.26898333  1
  Se  Se17  1  0.22544897  0.51042849  0.26898333  1
