# generated using pymatgen
data_HgPS3
_symmetry_space_group_name_H-M   'P 1'
_cell_length_a   6.22489405
_cell_length_b   6.61475518
_cell_length_c   27.78219500
_cell_angle_alpha   94.93016712
_cell_angle_beta   106.74919033
_cell_angle_gamma   118.04245999
_symmetry_Int_Tables_number   1
_chemical_formula_structural   HgPS3
_chemical_formula_sum   'Hg2 P2 S6'
_cell_volume   933.05624927
_cell_formula_units_Z   2
loop_
 _symmetry_equiv_pos_site_id
 _symmetry_equiv_pos_as_xyz
  1  'x, y, z'
loop_
 _atom_site_type_symbol
 _atom_site_label
 _atom_site_symmetry_multiplicity
 _atom_site_fract_x
 _atom_site_fract_y
 _atom_site_fract_z
 _atom_site_occupancy
  Hg  Hg0  1  0.14106263  0.78260054  0.13974402  1
  Hg  Hg1  1  0.85893737  0.21739946  0.14036998  1
  P  P2  1  0.44305087  0.44651031  0.09539767  1
  P  P3  1  0.55694913  0.55348969  0.18471733  1
  S  S4  1  0.72970775  0.72318126  0.07849120  1
  S  S5  1  0.09429771  0.40140573  0.05812154  1
  S  S6  1  0.43442989  0.13001261  0.07867236  1
  S  S7  1  0.56557011  0.86998739  0.20144164  1
  S  S8  1  0.90570229  0.59859427  0.22199246  1
  S  S9  1  0.27029225  0.27681874  0.20162280  1
