# generated using pymatgen
data_CrI2
_symmetry_space_group_name_H-M   'P 1'
_cell_length_a   7.47677123
_cell_length_b   3.94580714
_cell_length_c   27.51235718
_cell_angle_alpha   90.00000000
_cell_angle_beta   96.88607636
_cell_angle_gamma   90.00000000
_symmetry_Int_Tables_number   1
_chemical_formula_structural   CrI2
_chemical_formula_sum   'Cr2 I4'
_cell_volume   805.81178330
_cell_formula_units_Z   2
loop_
 _symmetry_equiv_pos_site_id
 _symmetry_equiv_pos_as_xyz
  1  'x, y, z'
loop_
 _atom_site_type_symbol
 _atom_site_label
 _atom_site_symmetry_multiplicity
 _atom_site_fract_x
 _atom_site_fract_y
 _atom_site_fract_z
 _atom_site_occupancy
  Cr  Cr0  1  0.33113800  0.02564500  0.19745200  1
  Cr  Cr1  1  0.83113800  0.52564500  0.19745200  1
  I  I2  1  0.49329555  0.52564500  0.25751896  1
  I  I3  1  0.99329555  0.02564500  0.25751896  1
  I  I4  1  0.66897945  0.02564500  0.13738604  1
  I  I5  1  0.16897945  0.52564500  0.13738604  1
