# generated using pymatgen
data_PBr3
_symmetry_space_group_name_H-M   'P 1'
_cell_length_a   6.30916969
_cell_length_b   7.74184811
_cell_length_c   30.97076500
_cell_angle_alpha   90.00000000
_cell_angle_beta   90.00000000
_cell_angle_gamma   90.00000000
_symmetry_Int_Tables_number   1
_chemical_formula_structural   PBr3
_chemical_formula_sum   'P2 Br6'
_cell_volume   1512.75566366
_cell_formula_units_Z   2
loop_
 _symmetry_equiv_pos_site_id
 _symmetry_equiv_pos_as_xyz
  1  'x, y, z'
loop_
 _atom_site_type_symbol
 _atom_site_label
 _atom_site_symmetry_multiplicity
 _atom_site_fract_x
 _atom_site_fract_y
 _atom_site_fract_z
 _atom_site_occupancy
  P  P0  1  0.02411074  0.03250002  0.08855700  1
  P  P1  1  0.47588926  0.53250002  0.08855700  1
  Br  Br2  1  0.13460770  0.19360593  0.03184070  1
  Br  Br3  1  0.36539230  0.69360593  0.03184070  1
  Br  Br4  1  0.67409020  0.09176712  0.08855700  1
  Br  Br5  1  0.82590980  0.59176712  0.08855700  1
  Br  Br6  1  0.36539230  0.69360593  0.14527430  1
  Br  Br7  1  0.13460770  0.19360593  0.14527430  1
