# generated using pymatgen
data_Nb(SeCl)2
_symmetry_space_group_name_H-M   'P 1'
_cell_length_a   6.36837590
_cell_length_b   6.57864749
_cell_length_c   27.40500793
_cell_angle_alpha   83.65890783
_cell_angle_beta   84.31759618
_cell_angle_gamma   61.04955436
_symmetry_Int_Tables_number   1
_chemical_formula_structural   Nb(SeCl)2
_chemical_formula_sum   'Nb2 Se4 Cl4'
_cell_volume   997.15065126
_cell_formula_units_Z   2
loop_
 _symmetry_equiv_pos_site_id
 _symmetry_equiv_pos_as_xyz
  1  'x, y, z'
loop_
 _atom_site_type_symbol
 _atom_site_label
 _atom_site_symmetry_multiplicity
 _atom_site_fract_x
 _atom_site_fract_y
 _atom_site_fract_z
 _atom_site_occupancy
  Nb  Nb0  1  0.34437440  0.19314262  0.16792790  1
  Nb  Nb1  1  0.08488260  0.71215638  0.16792810  1
  Se  Se2  1  0.91481168  0.46460801  0.13283318  1
  Se  Se3  1  0.51444532  0.44069099  0.20302282  1
  Se  Se4  1  0.19738129  0.42512457  0.24887294  1
  Se  Se5  1  0.23187571  0.48017443  0.08698306  1
  Cl  Cl6  1  0.10109829  0.01418495  0.22076190  1
  Cl  Cl7  1  0.68060818  0.85513500  0.22075588  1
  Cl  Cl8  1  0.32815871  0.89111405  0.11509310  1
  Cl  Cl9  1  0.74864882  0.05016400  0.11509912  1
