# generated using pymatgen
data_Nb(SCl)2
_symmetry_space_group_name_H-M   'P 1'
_cell_length_a   6.29688961
_cell_length_b   11.18178420
_cell_length_c   28.41378000
_cell_angle_alpha   90.00000000
_cell_angle_beta   110.33865130
_cell_angle_gamma   90.00000000
_symmetry_Int_Tables_number   1
_chemical_formula_structural   Nb(SCl)2
_chemical_formula_sum   'Nb4 S8 Cl8'
_cell_volume   1875.89759238
_cell_formula_units_Z   4
loop_
 _symmetry_equiv_pos_site_id
 _symmetry_equiv_pos_as_xyz
  1  'x, y, z'
loop_
 _atom_site_type_symbol
 _atom_site_label
 _atom_site_symmetry_multiplicity
 _atom_site_fract_x
 _atom_site_fract_y
 _atom_site_fract_z
 _atom_site_occupancy
  Nb  Nb0  1  0.50000000  0.62978750  0.13046100  1
  Nb  Nb1  1  0.50000000  0.37021250  0.13046100  1
  Nb  Nb2  1  0.00000000  0.12978750  0.13046100  1
  Nb  Nb3  1  0.00000000  0.87021250  0.13046100  1
  S  S4  1  0.85183658  0.00000000  0.05346936  1
  S  S5  1  0.35183658  0.50000000  0.05346936  1
  S  S6  1  0.65565800  0.00000000  0.09678500  1
  S  S7  1  0.15565800  0.50000000  0.09678500  1
  S  S8  1  0.84434200  0.50000000  0.16413700  1
  S  S9  1  0.34434200  0.00000000  0.16413700  1
  S  S10  1  0.64816342  0.50000000  0.20745264  1
  S  S11  1  0.14816342  0.00000000  0.20745264  1
  Cl  Cl12  1  0.72562057  0.29340386  0.07593676  1
  Cl  Cl13  1  0.72562057  0.70659614  0.07593676  1
  Cl  Cl14  1  0.22562057  0.20659614  0.07593676  1
  Cl  Cl15  1  0.22562057  0.79340386  0.07593676  1
  Cl  Cl16  1  0.77437943  0.79340386  0.18498524  1
  Cl  Cl17  1  0.77437943  0.20659614  0.18498524  1
  Cl  Cl18  1  0.27437943  0.29340386  0.18498524  1
  Cl  Cl19  1  0.27437943  0.70659614  0.18498524  1
