# generated using pymatgen
data_SbBr3
_symmetry_space_group_name_H-M   'P 1'
_cell_length_a   4.20699673
_cell_length_b   9.98320623
_cell_length_c   25.09944100
_cell_angle_alpha   90.00000000
_cell_angle_beta   90.00000000
_cell_angle_gamma   90.00000000
_symmetry_Int_Tables_number   1
_chemical_formula_structural   SbBr3
_chemical_formula_sum   'Sb2 Br6'
_cell_volume   1054.15935165
_cell_formula_units_Z   2
loop_
 _symmetry_equiv_pos_site_id
 _symmetry_equiv_pos_as_xyz
  1  'x, y, z'
loop_
 _atom_site_type_symbol
 _atom_site_label
 _atom_site_symmetry_multiplicity
 _atom_site_fract_x
 _atom_site_fract_y
 _atom_site_fract_z
 _atom_site_occupancy
  Sb  Sb0  1  0.21898353  0.49999402  0.26841552  1
  Sb  Sb1  1  0.71898353  0.00000598  0.29332748  1
  Br  Br2  1  0.55007414  0.31670437  0.22024250  1
  Br  Br3  1  0.04354971  -0.00000010  0.20658553  1
  Br  Br4  1  0.55003463  0.68327881  0.22023802  1
  Br  Br5  1  0.05003463  0.81672119  0.34150598  1
  Br  Br6  1  0.54354971  0.50000010  0.35515747  1
  Br  Br7  1  0.05007414  0.18329563  0.34150150  1
