# generated using pymatgen
data_AlPS4
_symmetry_space_group_name_H-M   'P 1'
_cell_length_a   5.70607580
_cell_length_b   5.07052625
_cell_length_c   25.46678800
_cell_angle_alpha   90.00000000
_cell_angle_beta   90.00000000
_cell_angle_gamma   90.00000000
_symmetry_Int_Tables_number   1
_chemical_formula_structural   AlPS4
_chemical_formula_sum   'Al1 P1 S4'
_cell_volume   736.82566547
_cell_formula_units_Z   1
loop_
 _symmetry_equiv_pos_site_id
 _symmetry_equiv_pos_as_xyz
  1  'x, y, z'
loop_
 _atom_site_type_symbol
 _atom_site_label
 _atom_site_symmetry_multiplicity
 _atom_site_fract_x
 _atom_site_fract_y
 _atom_site_fract_z
 _atom_site_occupancy
  Al  Al0  1  0.50000000  0.00000000  0.22513200  1
  P  P1  1  0.00000000  0.00000000  0.22513200  1
  S  S2  1  0.77568687  0.21709999  0.17795413  1
  S  S3  1  0.22431313  0.78290001  0.17795413  1
  S  S4  1  0.77568687  0.78290001  0.27231087  1
  S  S5  1  0.22431313  0.21709999  0.27231087  1
