# generated using pymatgen
data_ScCl
_symmetry_space_group_name_H-M   'P 1'
_cell_length_a   3.47046569
_cell_length_b   3.47046544
_cell_length_c   27.73551800
_cell_angle_alpha   90.00000000
_cell_angle_beta   90.00000000
_cell_angle_gamma   120.00000238
_symmetry_Int_Tables_number   1
_chemical_formula_structural   ScCl
_chemical_formula_sum   'Sc2 Cl2'
_cell_volume   289.29596931
_cell_formula_units_Z   2
loop_
 _symmetry_equiv_pos_site_id
 _symmetry_equiv_pos_as_xyz
  1  'x, y, z'
loop_
 _atom_site_type_symbol
 _atom_site_label
 _atom_site_symmetry_multiplicity
 _atom_site_fract_x
 _atom_site_fract_y
 _atom_site_fract_z
 _atom_site_occupancy
  Sc  Sc0  1  0.66666700  0.33333300  0.13345197  1
  Sc  Sc1  1  0.00000000  0.00000000  0.22391803  1
  Cl  Cl2  1  0.33333300  0.66666700  0.07452625  1
  Cl  Cl3  1  0.33333300  0.66666700  0.28284275  1
