# generated using pymatgen
data_As4S3
_symmetry_space_group_name_H-M   'P 1'
_cell_length_a   7.08701837
_cell_length_b   6.84981166
_cell_length_c   28.94458600
_cell_angle_alpha   90.00000000
_cell_angle_beta   90.00000000
_cell_angle_gamma   90.00000000
_symmetry_Int_Tables_number   1
_chemical_formula_structural   As4S3
_chemical_formula_sum   'As8 S6'
_cell_volume   1405.10743306
_cell_formula_units_Z   2
loop_
 _symmetry_equiv_pos_site_id
 _symmetry_equiv_pos_as_xyz
  1  'x, y, z'
loop_
 _atom_site_type_symbol
 _atom_site_label
 _atom_site_symmetry_multiplicity
 _atom_site_fract_x
 _atom_site_fract_y
 _atom_site_fract_z
 _atom_site_occupancy
  As  As0  1  0.07015929  0.14599139  0.07793447  1
  As  As1  1  0.42984071  0.14599139  0.07793447  1
  As  As2  1  0.25000000  0.96462242  0.13964903  1
  As  As3  1  0.75000000  0.51974637  0.21395561  1
  As  As4  1  0.25000000  0.48025363  0.16416639  1
  As  As5  1  0.75000000  0.03537758  0.23847297  1
  As  As6  1  0.57015929  0.85400861  0.30018753  1
  As  As7  1  0.92984071  0.85400861  0.30018753  1
  S  S8  1  0.75000000  0.82241423  0.17999730  1
  S  S9  1  0.00914580  0.43001164  0.11293336  1
  S  S10  1  0.49085420  0.43001164  0.11293336  1
  S  S11  1  0.50914580  0.56998836  0.26518864  1
  S  S12  1  0.99085420  0.56998836  0.26518864  1
  S  S13  1  0.25000000  0.17758577  0.19812470  1
