# generated using pymatgen
data_CrCl3
_symmetry_space_group_name_H-M   'P 1'
_cell_length_a   5.98033550
_cell_length_b   10.35806021
_cell_length_c   26.35174062
_cell_angle_alpha   90.00000000
_cell_angle_beta   94.22139251
_cell_angle_gamma   90.00000000
_symmetry_Int_Tables_number   1
_chemical_formula_structural   CrCl3
_chemical_formula_sum   'Cr4 Cl12'
_cell_volume   1627.92155075
_cell_formula_units_Z   4
loop_
 _symmetry_equiv_pos_site_id
 _symmetry_equiv_pos_as_xyz
  1  'x, y, z'
loop_
 _atom_site_type_symbol
 _atom_site_label
 _atom_site_symmetry_multiplicity
 _atom_site_fract_x
 _atom_site_fract_y
 _atom_site_fract_z
 _atom_site_occupancy
  Cr  Cr0  1  0.90680500  0.98016037  0.15688900  1
  Cr  Cr1  1  0.90680500  0.64681963  0.15688900  1
  Cr  Cr2  1  0.40680400  0.48016037  0.15688900  1
  Cr  Cr3  1  0.40680400  0.14681963  0.15688900  1
  Cl  Cl4  1  0.10035171  0.13643247  0.20774885  1
  Cl  Cl5  1  0.10035171  0.49054753  0.20774885  1
  Cl  Cl6  1  0.06909098  0.81349000  0.20776444  1
  Cl  Cl7  1  0.60035171  0.63643247  0.20774885  1
  Cl  Cl8  1  0.60035171  0.99054753  0.20774885  1
  Cl  Cl9  1  0.56909098  0.31349000  0.20776444  1
  Cl  Cl10  1  0.24451802  0.31349000  0.10601356  1
  Cl  Cl11  1  0.21325729  0.63643247  0.10602815  1
  Cl  Cl12  1  0.21325729  0.99054753  0.10602815  1
  Cl  Cl13  1  0.74451802  0.81349000  0.10601356  1
  Cl  Cl14  1  0.71325729  0.13643247  0.10602815  1
  Cl  Cl15  1  0.71325729  0.49054753  0.10602815  1
