# generated using pymatgen
data_Te2Br
_symmetry_space_group_name_H-M   'P 1'
_cell_length_a   4.05215463
_cell_length_b   12.83625886
_cell_length_c   30.70241300
_cell_angle_alpha   90.00000000
_cell_angle_beta   90.00000000
_cell_angle_gamma   90.00000000
_symmetry_Int_Tables_number   1
_chemical_formula_structural   Te2Br
_chemical_formula_sum   'Te8 Br4'
_cell_volume   1596.97083675
_cell_formula_units_Z   4
loop_
 _symmetry_equiv_pos_site_id
 _symmetry_equiv_pos_as_xyz
  1  'x, y, z'
loop_
 _atom_site_type_symbol
 _atom_site_label
 _atom_site_symmetry_multiplicity
 _atom_site_fract_x
 _atom_site_fract_y
 _atom_site_fract_z
 _atom_site_occupancy
  Te  Te0  1  0.75000000  0.76430538  0.04426215  1
  Te  Te1  1  0.25000000  0.92375255  0.04744146  1
  Te  Te2  1  0.25000000  0.30850736  0.10685704  1
  Te  Te3  1  0.75000000  0.45885566  0.12672069  1
  Te  Te4  1  0.25000000  0.95885566  0.14528431  1
  Te  Te5  1  0.75000000  0.80850736  0.16514796  1
  Te  Te6  1  0.75000000  0.42375255  0.22456354  1
  Te  Te7  1  0.25000000  0.26430538  0.22774285  1
  Br  Br8  1  0.25000000  0.59608588  0.04400924  1
  Br  Br9  1  0.75000000  0.13848418  0.08628445  1
  Br  Br10  1  0.25000000  0.63848418  0.18571955  1
  Br  Br11  1  0.75000000  0.09608588  0.22799576  1
