# generated using pymatgen
data_Te2I
_symmetry_space_group_name_H-M   'P 1'
_cell_length_a   4.15816292
_cell_length_b   13.38528929
_cell_length_c   30.07469100
_cell_angle_alpha   90.00000000
_cell_angle_beta   90.00000000
_cell_angle_gamma   90.00000000
_symmetry_Int_Tables_number   1
_chemical_formula_structural   Te2I
_chemical_formula_sum   'Te8 I4'
_cell_volume   1673.90357525
_cell_formula_units_Z   4
loop_
 _symmetry_equiv_pos_site_id
 _symmetry_equiv_pos_as_xyz
  1  'x, y, z'
loop_
 _atom_site_type_symbol
 _atom_site_label
 _atom_site_symmetry_multiplicity
 _atom_site_fract_x
 _atom_site_fract_y
 _atom_site_fract_z
 _atom_site_occupancy
  Te  Te0  1  0.75000000  0.76325470  0.04523907  1
  Te  Te1  1  0.25000000  0.91561142  0.04901526  1
  Te  Te2  1  0.25000000  0.31036722  0.11324090  1
  Te  Te3  1  0.75000000  0.45220579  0.13683080  1
  Te  Te4  1  0.25000000  0.95220579  0.14704020  1
  Te  Te5  1  0.75000000  0.81036722  0.17063010  1
  Te  Te6  1  0.75000000  0.41561142  0.23485674  1
  Te  Te7  1  0.25000000  0.26325470  0.23863193  1
  I  I8  1  0.25000000  0.58915666  0.04371454  1
  I  I9  1  0.75000000  0.14371121  0.08318059  1
  I  I10  1  0.25000000  0.64371121  0.20069141  1
  I  I11  1  0.75000000  0.08915666  0.24015646  1
