# generated using pymatgen
data_BiBr3
_symmetry_space_group_name_H-M   'P 1'
_cell_length_a   7.17273728
_cell_length_b   12.42723356
_cell_length_c   23.44584800
_cell_angle_alpha   90.00000000
_cell_angle_beta   98.05991356
_cell_angle_gamma   90.00000000
_symmetry_Int_Tables_number   1
_chemical_formula_structural   BiBr3
_chemical_formula_sum   'Bi4 Br12'
_cell_volume   2069.25511774
_cell_formula_units_Z   4
loop_
 _symmetry_equiv_pos_site_id
 _symmetry_equiv_pos_as_xyz
  1  'x, y, z'
loop_
 _atom_site_type_symbol
 _atom_site_label
 _atom_site_symmetry_multiplicity
 _atom_site_fract_x
 _atom_site_fract_y
 _atom_site_fract_z
 _atom_site_occupancy
  Bi  Bi0  1  0.92332600  0.66664297  0.92335703  1
  Bi  Bi1  1  0.42332600  0.83335703  0.92335703  1
  Bi  Bi2  1  0.92362400  0.33335703  0.92359297  1
  Bi  Bi3  1  0.42362400  0.16664297  0.92359297  1
  Br  Br4  1  0.71940519  0.82909004  0.85112662  1
  Br  Br5  1  0.73210550  0.49980133  0.85124766  1
  Br  Br6  1  0.62719456  0.67082459  0.99554856  1
  Br  Br7  1  0.21940519  0.67090996  0.85112662  1
  Br  Br8  1  0.12719456  0.82917541  0.99554856  1
  Br  Br9  1  0.11484450  0.50019867  0.99570234  1
  Br  Br10  1  0.61484450  0.99980133  0.99570234  1
  Br  Br11  1  0.23210550  0.00019867  0.85124766  1
  Br  Br12  1  0.71975544  0.17082459  0.85140144  1
  Br  Br13  1  0.62754481  0.32909104  -0.00417662  1
  Br  Br14  1  0.21975544  0.32917541  0.85140144  1
  Br  Br15  1  0.12754481  0.17090996  -0.00417662  1
