# generated using pymatgen
data_S3(NCl)2
_symmetry_space_group_name_H-M   'P 1'
_cell_length_a   5.44867051
_cell_length_b   6.41738691
_cell_length_c   29.15441200
_cell_angle_alpha   90.00000000
_cell_angle_beta   90.00000000
_cell_angle_gamma   112.24809702
_symmetry_Int_Tables_number   1
_chemical_formula_structural   S3(NCl)2
_chemical_formula_sum   'S3 N2 Cl2'
_cell_volume   943.52711954
_cell_formula_units_Z   1
loop_
 _symmetry_equiv_pos_site_id
 _symmetry_equiv_pos_as_xyz
  1  'x, y, z'
loop_
 _atom_site_type_symbol
 _atom_site_label
 _atom_site_symmetry_multiplicity
 _atom_site_fract_x
 _atom_site_fract_y
 _atom_site_fract_z
 _atom_site_occupancy
  S  S0  1  0.83761591  0.77008645  0.16558328  1
  S  S1  1  0.67236462  0.36278612  0.21184104  1
  S  S2  1  0.89590474  0.81011160  0.24033770  1
  N  N3  1  0.74517630  0.50937028  0.16429768  1
  N  N4  1  0.75910485  0.54273398  0.25027255  1
  Cl  Cl5  1  0.47821929  0.85982978  0.15617901  1
  Cl  Cl6  1  0.12405629  0.25281078  0.20161874  1
