# generated using pymatgen
data_BiI
_symmetry_space_group_name_H-M   'P 1'
_cell_length_a   14.67347970
_cell_length_b   4.43110586
_cell_length_c   30.61785100
_cell_angle_alpha   90.00000000
_cell_angle_beta   97.15279052
_cell_angle_gamma   90.00000000
_symmetry_Int_Tables_number   1
_chemical_formula_structural   BiI
_chemical_formula_sum   'Bi8 I8'
_cell_volume   1975.27191092
_cell_formula_units_Z   8
loop_
 _symmetry_equiv_pos_site_id
 _symmetry_equiv_pos_as_xyz
  1  'x, y, z'
loop_
 _atom_site_type_symbol
 _atom_site_label
 _atom_site_symmetry_multiplicity
 _atom_site_fract_x
 _atom_site_fract_y
 _atom_site_fract_z
 _atom_site_occupancy
  Bi  Bi0  1  0.48974069  0.50000000  0.08086804  1
  Bi  Bi1  1  -0.01025931  0.00000000  0.08086804  1
  Bi  Bi2  1  0.69691680  0.00000000  0.17339062  1
  Bi  Bi3  1  0.55504047  0.50000000  0.18084779  1
  Bi  Bi4  1  0.19691680  0.50000000  0.17339062  1
  Bi  Bi5  1  0.05504047  0.00000000  0.18084779  1
  Bi  Bi6  1  0.76220176  0.00000000  0.27337231  1
  Bi  Bi7  1  0.26220176  0.50000000  0.27337231  1
  I  I8  1  0.61940829  0.00000000  0.05016122  1
  I  I9  1  0.11940829  0.50000000  0.05016122  1
  I  I10  1  0.85097691  0.50000000  0.10383915  1
  I  I11  1  0.35097691  0.00000000  0.10383915  1
  I  I12  1  0.90099786  0.50000000  0.25043191  1
  I  I13  1  0.40099786  0.00000000  0.25043191  1
  I  I14  1  0.63252623  0.50000000  0.30408196  1
  I  I15  1  0.13252623  0.00000000  0.30408196  1
