# generated using pymatgen
data_CrBr3
_symmetry_space_group_name_H-M   'P 1'
_cell_length_a   6.34273662
_cell_length_b   6.34273742
_cell_length_c   27.48523700
_cell_angle_alpha   90.00000000
_cell_angle_beta   90.00000000
_cell_angle_gamma   120.00000077
_symmetry_Int_Tables_number   1
_chemical_formula_structural   CrBr3
_chemical_formula_sum   'Cr2 Br6'
_cell_volume   957.59864913
_cell_formula_units_Z   2
loop_
 _symmetry_equiv_pos_site_id
 _symmetry_equiv_pos_as_xyz
  1  'x, y, z'
loop_
 _atom_site_type_symbol
 _atom_site_label
 _atom_site_symmetry_multiplicity
 _atom_site_fract_x
 _atom_site_fract_y
 _atom_site_fract_z
 _atom_site_occupancy
  Cr  Cr0  1  0.00000000  0.00000000  0.12422647  1
  Cr  Cr1  1  0.66666700  0.33333300  0.12421353  1
  Br  Br2  1  0.98067435  0.31398693  0.07190505  1
  Br  Br3  1  0.33331157  0.01932565  0.07190505  1
  Br  Br4  1  0.68601307  0.66668843  0.07190505  1
  Br  Br5  1  0.68599165  0.01934707  0.17653395  1
  Br  Br6  1  0.33335443  0.31400835  0.17653395  1
  Br  Br7  1  0.98065293  0.66664557  0.17653395  1
