# generated using pymatgen
data_TbBr
_symmetry_space_group_name_H-M   'P 1'
_cell_length_a   3.79822667
_cell_length_b   3.79822600
_cell_length_c   26.33121400
_cell_angle_alpha   90.00000000
_cell_angle_beta   90.00000000
_cell_angle_gamma   120.00000585
_symmetry_Int_Tables_number   1
_chemical_formula_structural   TbBr
_chemical_formula_sum   'Tb2 Br2'
_cell_volume   328.97520828
_cell_formula_units_Z   2
loop_
 _symmetry_equiv_pos_site_id
 _symmetry_equiv_pos_as_xyz
  1  'x, y, z'
loop_
 _atom_site_type_symbol
 _atom_site_label
 _atom_site_symmetry_multiplicity
 _atom_site_fract_x
 _atom_site_fract_y
 _atom_site_fract_z
 _atom_site_occupancy
  Tb  Tb0  1  0.00000000  0.00000000  0.15197982  1
  Tb  Tb1  1  0.66666700  0.33333300  0.25730818  1
  Br  Br2  1  0.33333300  0.66666700  0.07877063  1
  Br  Br3  1  0.33333300  0.66666700  0.33051837  1
