# generated using pymatgen
data_Ge2S3I2
_symmetry_space_group_name_H-M   'P 1'
_cell_length_a   10.24550334
_cell_length_b   10.24550302
_cell_length_c   30.01205900
_cell_angle_alpha   90.00000000
_cell_angle_beta   90.00000000
_cell_angle_gamma   120.00000104
_symmetry_Int_Tables_number   1
_chemical_formula_structural   Ge2S3I2
_chemical_formula_sum   'Ge8 S12 I8'
_cell_volume   2728.30553326
_cell_formula_units_Z   4
loop_
 _symmetry_equiv_pos_site_id
 _symmetry_equiv_pos_as_xyz
  1  'x, y, z'
loop_
 _atom_site_type_symbol
 _atom_site_label
 _atom_site_symmetry_multiplicity
 _atom_site_fract_x
 _atom_site_fract_y
 _atom_site_fract_z
 _atom_site_occupancy
  Ge  Ge0  1  0.36325800  0.84327300  0.52286400  1
  Ge  Ge1  1  0.99088349  0.97061376  0.58234880  1
  Ge  Ge2  1  0.86297227  0.21564751  0.58234880  1
  Ge  Ge3  1  0.23591724  0.34355873  0.58234880  1
  Ge  Ge4  1  0.40229851  0.04926624  0.74401920  1
  Ge  Ge5  1  0.15726476  0.67632127  0.74401920  1
  Ge  Ge6  1  0.53020973  0.80423249  0.74401920  1
  Ge  Ge7  1  0.02992400  0.17660700  0.80350400  1
  S  S8  1  0.87039203  0.19940191  0.50979260  1
  S  S9  1  0.00712909  0.99427912  0.50979260  1
  S  S10  1  0.21225188  0.33613897  0.50979260  1
  S  S11  1  0.21319628  0.13325021  0.61531255  1
  S  S12  1  0.07328079  0.40323507  0.61531255  1
  S  S13  1  0.80329593  -0.00666528  0.61531255  1
  S  S14  1  0.58988607  0.02654528  0.71105645  1
  S  S15  1  0.17998572  0.88662979  0.71105645  1
  S  S16  1  0.31990121  0.61664493  0.71105645  1
  S  S17  1  0.52278997  0.82047809  0.81657640  1
  S  S18  1  0.38605291  0.02560088  0.81657640  1
  S  S19  1  0.18093012  0.68374103  0.81657640  1
  I  I20  1  0.36325800  0.84327300  0.60416744  1
  I  I21  1  0.50341414  0.54831851  0.60269982  1
  I  I22  1  0.65821249  0.27838464  0.60269982  1
  I  I23  1  0.92814636  0.70311686  0.60269982  1
  I  I24  1  0.73496951  0.74149536  0.72366918  1
  I  I25  1  0.88976786  0.47156149  0.72366918  1
  I  I26  1  0.46503564  0.31676314  0.72366918  1
  I  I27  1  0.02992400  0.17660700  0.72220156  1
