# generated using pymatgen
data_Ge(BiTe2)2
_symmetry_space_group_name_H-M   'P 1'
_cell_length_a   4.37012745
_cell_length_b   4.37012792
_cell_length_c   32.79744100
_cell_angle_alpha   90.00000000
_cell_angle_beta   90.00000000
_cell_angle_gamma   119.99999645
_symmetry_Int_Tables_number   1
_chemical_formula_structural   Ge(BiTe2)2
_chemical_formula_sum   'Ge1 Bi2 Te4'
_cell_volume   542.44893310
_cell_formula_units_Z   1
loop_
 _symmetry_equiv_pos_site_id
 _symmetry_equiv_pos_as_xyz
  1  'x, y, z'
loop_
 _atom_site_type_symbol
 _atom_site_label
 _atom_site_symmetry_multiplicity
 _atom_site_fract_x
 _atom_site_fract_y
 _atom_site_fract_z
 _atom_site_occupancy
  Ge  Ge0  1  0.66666700  0.33333300  0.44513000  1
  Bi  Bi1  1  0.33333300  0.66666700  0.32908284  1
  Bi  Bi2  1  0.00000000  0.00000000  0.56117916  1
  Te  Te3  1  0.66666700  0.33333300  0.27553048  1
  Te  Te4  1  0.00000000  0.00000000  0.39370941  1
  Te  Te5  1  0.33333300  0.66666700  0.49655259  1
  Te  Te6  1  0.66666700  0.33333300  0.61473052  1
