# generated using pymatgen
data_SNCl
_symmetry_space_group_name_H-M   'P 1'
_cell_length_a   5.55041170
_cell_length_b   6.02622856
_cell_length_c   25.81546600
_cell_angle_alpha   90.00000000
_cell_angle_beta   90.00000000
_cell_angle_gamma   98.35314540
_symmetry_Int_Tables_number   1
_chemical_formula_structural   SNCl
_chemical_formula_sum   'S3 N3 Cl3'
_cell_volume   854.31675724
_cell_formula_units_Z   3
loop_
 _symmetry_equiv_pos_site_id
 _symmetry_equiv_pos_as_xyz
  1  'x, y, z'
loop_
 _atom_site_type_symbol
 _atom_site_label
 _atom_site_symmetry_multiplicity
 _atom_site_fract_x
 _atom_site_fract_y
 _atom_site_fract_z
 _atom_site_occupancy
  S  S0  1  0.95307811  0.77776168  0.05933955  1
  S  S1  1  0.12038091  0.17872593  0.11442200  1
  S  S2  1  0.95307811  0.77776168  0.16950545  1
  N  N3  1  0.02798749  0.04326250  0.06271273  1
  N  N4  1  0.88140701  0.66535590  0.11442200  1
  N  N5  1  0.02798749  0.04326250  0.16613227  1
  Cl  Cl6  1  0.29849252  0.65182204  0.04052296  1
  Cl  Cl7  1  0.50785883  0.16712475  0.11442200  1
  Cl  Cl8  1  0.29849252  0.65182204  0.18832204  1
