# generated using pymatgen
data_CBrN
_symmetry_space_group_name_H-M   'P 1'
_cell_length_a   3.96850027
_cell_length_b   5.71950317
_cell_length_c   24.38990000
_cell_angle_alpha   90.00000000
_cell_angle_beta   90.00000000
_cell_angle_gamma   90.00000000
_symmetry_Int_Tables_number   1
_chemical_formula_structural   CBrN
_chemical_formula_sum   'C1 Br1 N1'
_cell_volume   553.59828850
_cell_formula_units_Z   1
loop_
 _symmetry_equiv_pos_site_id
 _symmetry_equiv_pos_as_xyz
  1  'x, y, z'
loop_
 _atom_site_type_symbol
 _atom_site_label
 _atom_site_symmetry_multiplicity
 _atom_site_fract_x
 _atom_site_fract_y
 _atom_site_fract_z
 _atom_site_occupancy
  C  C0  1  0.50000000  0.45106817  0.13099500  1
  Br  Br1  1  0.50000000  0.13745033  0.13099500  1
  N  N2  1  0.50000000  0.65477150  0.13099500  1
