# generated using pymatgen
data_YBrO
_symmetry_space_group_name_H-M   'P 1'
_cell_length_a   3.83346234
_cell_length_b   3.83346233
_cell_length_c   30.30870100
_cell_angle_alpha   90.00000000
_cell_angle_beta   90.00000000
_cell_angle_gamma   120.00063498
_symmetry_Int_Tables_number   1
_chemical_formula_structural   YBrO
_chemical_formula_sum   'Y2 Br2 O2'
_cell_volume   385.72481267
_cell_formula_units_Z   2
loop_
 _symmetry_equiv_pos_site_id
 _symmetry_equiv_pos_as_xyz
  1  'x, y, z'
loop_
 _atom_site_type_symbol
 _atom_site_label
 _atom_site_symmetry_multiplicity
 _atom_site_fract_x
 _atom_site_fract_y
 _atom_site_fract_z
 _atom_site_occupancy
  Br  Br0  1  0.33333531  0.66666469  0.55604751  1
  Br  Br1  1  0.33333616  0.66666384  0.77727875  1
  O  O2  1  0.00000009  0.99999991  0.63840272  1
  O  O3  1  0.66666388  0.33333612  0.69493334  1
  Y  Y4  1  0.66666937  0.33333063  0.61953150  1
  Y  Y5  1  0.99999520  0.00000480  0.71380618  1
