# generated using pymatgen
data_PbBr2
_symmetry_space_group_name_H-M   'P 1'
_cell_length_a   4.39738484
_cell_length_b   7.61592357
_cell_length_c   27.15750900
_cell_angle_alpha   90.00000000
_cell_angle_beta   90.00000000
_cell_angle_gamma   90.00000000
_symmetry_Int_Tables_number   1
_chemical_formula_structural   PbBr2
_chemical_formula_sum   'Pb2 Br4'
_cell_volume   909.50896464
_cell_formula_units_Z   2
loop_
 _symmetry_equiv_pos_site_id
 _symmetry_equiv_pos_as_xyz
  1  'x, y, z'
loop_
 _atom_site_type_symbol
 _atom_site_label
 _atom_site_symmetry_multiplicity
 _atom_site_fract_x
 _atom_site_fract_y
 _atom_site_fract_z
 _atom_site_occupancy
  Pb  Pb0  1  0.75000000  0.74997039  0.18706496  1
  Pb  Pb1  1  0.25000000  0.25002961  0.18695704  1
  Br  Br2  1  0.25000000  -0.08362357  0.12420188  1
  Br  Br3  1  0.75000000  0.41693906  0.12415214  1
  Br  Br4  1  0.25000000  0.58306094  0.24986986  1
  Br  Br5  1  0.75000000  0.08362357  0.24982012  1
