# generated using pymatgen
data_TiCl2
_symmetry_space_group_name_H-M   'P 1'
_cell_length_a   3.29331415
_cell_length_b   3.29331394
_cell_length_c   25.82378400
_cell_angle_alpha   90.00000000
_cell_angle_beta   90.00000000
_cell_angle_gamma   120.00000206
_symmetry_Int_Tables_number   1
_chemical_formula_structural   TiCl2
_chemical_formula_sum   'Ti1 Cl2'
_cell_volume   242.55866610
_cell_formula_units_Z   1
loop_
 _symmetry_equiv_pos_site_id
 _symmetry_equiv_pos_as_xyz
  1  'x, y, z'
loop_
 _atom_site_type_symbol
 _atom_site_label
 _atom_site_symmetry_multiplicity
 _atom_site_fract_x
 _atom_site_fract_y
 _atom_site_fract_z
 _atom_site_occupancy
  Ti  Ti0  1  0.52571200  0.11689900  0.13212200  1
  Cl  Cl1  1  0.19237900  0.45023200  0.19371215  1
  Cl  Cl2  1  0.85904500  0.78356600  0.07053185  1
