# generated using pymatgen
data_VCl3
_symmetry_space_group_name_H-M   'P 1'
_cell_length_a   6.01536873
_cell_length_b   6.01536860
_cell_length_c   25.64668200
_cell_angle_alpha   90.00000000
_cell_angle_beta   90.00000000
_cell_angle_gamma   120.00000602
_symmetry_Int_Tables_number   1
_chemical_formula_structural   VCl3
_chemical_formula_sum   'V2 Cl6'
_cell_volume   803.68579276
_cell_formula_units_Z   2
loop_
 _symmetry_equiv_pos_site_id
 _symmetry_equiv_pos_as_xyz
  1  'x, y, z'
loop_
 _atom_site_type_symbol
 _atom_site_label
 _atom_site_symmetry_multiplicity
 _atom_site_fract_x
 _atom_site_fract_y
 _atom_site_fract_z
 _atom_site_occupancy
  V  V0  1  0.33333300  0.66666700  0.25535050  1
  V  V1  1  0.00000000  0.00000000  0.25535050  1
  Cl  Cl2  1  0.66666080  0.68552926  0.20217113  1
  Cl  Cl3  1  0.01886846  0.33333920  0.20217113  1
  Cl  Cl4  1  0.31447074  0.98113154  0.20217113  1
  Cl  Cl5  1  0.01886226  0.68553546  0.30852987  1
  Cl  Cl6  1  0.31446454  0.33332680  0.30852987  1
  Cl  Cl7  1  0.66667320  0.98113774  0.30852987  1
