# generated using pymatgen
data_ZrFeCl6
_symmetry_space_group_name_H-M   'P 1'
_cell_length_a   6.23977641
_cell_length_b   6.23977648
_cell_length_c   25.33921600
_cell_angle_alpha   90.00000000
_cell_angle_beta   90.00000000
_cell_angle_gamma   119.99999960
_symmetry_Int_Tables_number   1
_chemical_formula_structural   ZrFeCl6
_chemical_formula_sum   'Zr1 Fe1 Cl6'
_cell_volume   854.40123526
_cell_formula_units_Z   1
loop_
 _symmetry_equiv_pos_site_id
 _symmetry_equiv_pos_as_xyz
  1  'x, y, z'
loop_
 _atom_site_type_symbol
 _atom_site_label
 _atom_site_symmetry_multiplicity
 _atom_site_fract_x
 _atom_site_fract_y
 _atom_site_fract_z
 _atom_site_occupancy
  Zr  Zr0  1  0.66666700  0.33333300  0.13160600  1
  Fe  Fe1  1  -0.00000000  -0.00000000  0.13160600  1
  Cl  Cl2  1  0.33094689  0.31471404  0.07536995  1
  Cl  Cl3  1  0.68528596  0.01623286  0.07536995  1
  Cl  Cl4  1  0.98376714  0.66905311  0.07536995  1
  Cl  Cl5  1  0.68528596  0.66905311  0.18784305  1
  Cl  Cl6  1  0.98376714  0.31471404  0.18784305  1
  Cl  Cl7  1  0.33094689  0.01623286  0.18784305  1
