# generated using pymatgen
data_HfFeCl6
_symmetry_space_group_name_H-M   'P 1'
_cell_length_a   6.22276495
_cell_length_b   6.22276555
_cell_length_c   25.87187700
_cell_angle_alpha   90.00000000
_cell_angle_beta   90.00000000
_cell_angle_gamma   120.00000174
_symmetry_Int_Tables_number   1
_chemical_formula_structural   HfFeCl6
_chemical_formula_sum   'Hf1 Fe1 Cl6'
_cell_volume   867.61169555
_cell_formula_units_Z   1
loop_
 _symmetry_equiv_pos_site_id
 _symmetry_equiv_pos_as_xyz
  1  'x, y, z'
loop_
 _atom_site_type_symbol
 _atom_site_label
 _atom_site_symmetry_multiplicity
 _atom_site_fract_x
 _atom_site_fract_y
 _atom_site_fract_z
 _atom_site_occupancy
  Hf  Hf0  1  0.66666700  0.33333300  0.12438100  1
  Fe  Fe1  1  0.00000000  0.00000000  0.12438100  1
  Cl  Cl2  1  0.68443178  0.01901106  0.06967863  1
  Cl  Cl3  1  0.98098894  0.66542072  0.06967863  1
  Cl  Cl4  1  0.33457928  0.31556822  0.06967863  1
  Cl  Cl5  1  0.33457928  0.01901106  0.17908337  1
  Cl  Cl6  1  0.68443178  0.66542072  0.17908337  1
  Cl  Cl7  1  0.98098894  0.31556822  0.17908337  1
