# generated using pymatgen
data_TeAuCl7
_symmetry_space_group_name_H-M   'P 1'
_cell_length_a   6.59192084
_cell_length_b   6.87966825
_cell_length_c   29.56322339
_cell_angle_alpha   92.70542246
_cell_angle_beta   92.39063584
_cell_angle_gamma   79.62736821
_symmetry_Int_Tables_number   1
_chemical_formula_structural   TeAuCl7
_chemical_formula_sum   'Te1 Au1 Cl7'
_cell_volume   1316.56593134
_cell_formula_units_Z   1
loop_
 _symmetry_equiv_pos_site_id
 _symmetry_equiv_pos_as_xyz
  1  'x, y, z'
loop_
 _atom_site_type_symbol
 _atom_site_label
 _atom_site_symmetry_multiplicity
 _atom_site_fract_x
 _atom_site_fract_y
 _atom_site_fract_z
 _atom_site_occupancy
  Te  Te0  1  0.27054606  0.89269261  0.07572680  1
  Au  Au1  1  0.97810754  0.45820412  0.06034863  1
  Cl  Cl2  1  0.97798592  0.21390773  0.00466024  1
  Cl  Cl3  1  0.51620708  0.05088072  0.04232404  1
  Cl  Cl4  1  0.96940159  0.22699616  0.11444443  1
  Cl  Cl5  1  0.98982653  0.69265004  0.00737593  1
  Cl  Cl6  1  0.41879991  0.92241731  0.14923413  1
  Cl  Cl7  1  0.98201101  0.70052286  0.11850539  1
  Cl  Cl8  1  0.47129737  0.56979545  0.06351043  1
