# generated using pymatgen
data_Al3Te3I
_symmetry_space_group_name_H-M   'P 1'
_cell_length_a   4.13417786
_cell_length_b   11.18306982
_cell_length_c   30.30771300
_cell_angle_alpha   90.00000000
_cell_angle_beta   90.00000000
_cell_angle_gamma   90.00000000
_symmetry_Int_Tables_number   1
_chemical_formula_structural   Al3Te3I
_chemical_formula_sum   'Al6 Te6 I2'
_cell_volume   1401.21042424
_cell_formula_units_Z   2
loop_
 _symmetry_equiv_pos_site_id
 _symmetry_equiv_pos_as_xyz
  1  'x, y, z'
loop_
 _atom_site_type_symbol
 _atom_site_label
 _atom_site_symmetry_multiplicity
 _atom_site_fract_x
 _atom_site_fract_y
 _atom_site_fract_z
 _atom_site_occupancy
  Al  Al0  1  0.25000000  0.15964880  0.26128084  1
  Al  Al1  1  0.75000000  0.45147728  0.28587450  1
  Al  Al2  1  0.25000000  0.67625035  0.34713486  1
  Al  Al3  1  0.75000000  0.32374965  0.35591014  1
  Al  Al4  1  0.25000000  0.54852272  0.41717150  1
  Al  Al5  1  0.75000000  0.84035120  0.44176516  1
  Te  Te6  1  0.75000000  0.27625935  0.22430937  1
  Te  Te7  1  0.25000000  0.59501968  0.26373574  1
  Te  Te8  1  0.25000000  0.16715034  0.34976179  1
  Te  Te9  1  0.75000000  0.83284966  0.35328421  1
  Te  Te10  1  0.75000000  0.40498032  0.43931026  1
  Te  Te11  1  0.25000000  0.72374065  0.47873663  1
  I  I12  1  0.25000000  0.94521190  0.23587641  1
  I  I13  1  0.75000000  0.05478810  0.46716959  1
