# generated using pymatgen
data_Nb2Te6I
_symmetry_space_group_name_H-M   'P 1'
_cell_length_a   9.30071114
_cell_length_b   9.72072510
_cell_length_c   24.28549900
_cell_angle_alpha   90.00000000
_cell_angle_beta   90.00000000
_cell_angle_gamma   112.74071509
_symmetry_Int_Tables_number   1
_chemical_formula_structural   Nb2Te6I
_chemical_formula_sum   'Nb4 Te12 I2'
_cell_volume   2024.96224417
_cell_formula_units_Z   2
loop_
 _symmetry_equiv_pos_site_id
 _symmetry_equiv_pos_as_xyz
  1  'x, y, z'
loop_
 _atom_site_type_symbol
 _atom_site_label
 _atom_site_symmetry_multiplicity
 _atom_site_fract_x
 _atom_site_fract_y
 _atom_site_fract_z
 _atom_site_occupancy
  Nb  Nb0  1  0.47401857  0.63110670  0.28066867  1
  Nb  Nb1  1  0.82456108  0.87107760  0.28916173  1
  Nb  Nb2  1  0.17543892  0.12892240  0.29906927  1
  Nb  Nb3  1  0.52598143  0.36889330  0.30756333  1
  Te  Te4  1  0.62311705  0.77699034  0.18785146  1
  Te  Te5  1  0.04487449  0.97672106  0.19973009  1
  Te  Te6  1  0.34757882  0.35716235  0.21477887  1
  Te  Te7  1  0.75829701  0.58872551  0.23467075  1
  Te  Te8  1  0.91562386  0.16723782  0.24636548  1
  Te  Te9  1  0.45679313  0.08885519  0.25513743  1
  Te  Te10  1  0.54320687  0.91114481  0.33309357  1
  Te  Te11  1  0.08437614  0.83276218  0.34186652  1
  Te  Te12  1  0.24170299  0.41127449  0.35356125  1
  Te  Te13  1  0.65242118  0.64283765  0.37345313  1
  Te  Te14  1  0.95512551  0.02327894  0.38850191  1
  Te  Te15  1  0.37688295  0.22300966  0.40037954  1
  I  I16  1  0.18333017  0.64746691  0.24451695  1
  I  I17  1  0.81666983  0.35253309  0.34371405  1
