# generated using pymatgen
data_Nb3GeTe6
_symmetry_space_group_name_H-M   'P 1'
_cell_length_a   6.53296001
_cell_length_b   11.68720248
_cell_length_c   26.91385500
_cell_angle_alpha   90.00000000
_cell_angle_beta   90.00000000
_cell_angle_gamma   90.00000000
_symmetry_Int_Tables_number   1
_chemical_formula_structural   Nb3GeTe6
_chemical_formula_sum   'Nb6 Ge2 Te12'
_cell_volume   2054.92736750
_cell_formula_units_Z   2
loop_
 _symmetry_equiv_pos_site_id
 _symmetry_equiv_pos_as_xyz
  1  'x, y, z'
loop_
 _atom_site_type_symbol
 _atom_site_label
 _atom_site_symmetry_multiplicity
 _atom_site_fract_x
 _atom_site_fract_y
 _atom_site_fract_z
 _atom_site_occupancy
  Nb  Nb0  1  0.32680058  0.33352885  0.13853300  1
  Nb  Nb1  1  0.03638608  0.68530947  0.13853300  1
  Nb  Nb2  1  0.80257777  0.46838367  0.13853300  1
  Nb  Nb3  1  0.30257777  0.03161633  0.13853300  1
  Nb  Nb4  1  0.53638608  0.81469053  0.13853300  1
  Nb  Nb5  1  0.82680058  0.16647115  0.13853300  1
  Ge  Ge6  1  0.42487231  0.57520012  0.13853300  1
  Ge  Ge7  1  0.92487231  0.92479988  0.13853300  1
  Te  Te8  1  0.14538379  0.18138954  0.06799360  1
  Te  Te9  1  0.64538379  0.31861046  0.06799360  1
  Te  Te10  1  0.21584302  0.83919466  0.06800554  1
  Te  Te11  1  0.71584302  0.66080534  0.06800554  1
  Te  Te12  1  0.13512733  0.49256354  0.06978733  1
  Te  Te13  1  0.63512733  0.00743646  0.06978733  1
  Te  Te14  1  0.13512733  0.49256354  0.20727867  1
  Te  Te15  1  0.63512733  0.00743646  0.20727867  1
  Te  Te16  1  0.21584302  0.83919466  0.20906146  1
  Te  Te17  1  0.71584302  0.66080534  0.20906146  1
  Te  Te18  1  0.64538379  0.31861046  0.20907240  1
  Te  Te19  1  0.14538379  0.18138954  0.20907240  1
