# generated using pymatgen
data_P2Se5
_symmetry_space_group_name_H-M   'P 1'
_cell_length_a   5.85832109
_cell_length_b   6.86483610
_cell_length_c   25.23869200
_cell_angle_alpha   90.00000000
_cell_angle_beta   90.00000000
_cell_angle_gamma   115.27429159
_symmetry_Int_Tables_number   1
_chemical_formula_structural   P2Se5
_chemical_formula_sum   'P2 Se5'
_cell_volume   917.84708692
_cell_formula_units_Z   1
loop_
 _symmetry_equiv_pos_site_id
 _symmetry_equiv_pos_as_xyz
  1  'x, y, z'
loop_
 _atom_site_type_symbol
 _atom_site_label
 _atom_site_symmetry_multiplicity
 _atom_site_fract_x
 _atom_site_fract_y
 _atom_site_fract_z
 _atom_site_occupancy
  P  P0  1  0.19309796  0.28049532  0.04432666  1
  P  P1  1  0.80765732  0.28039249  0.14571953  1
  Se  Se2  1  0.80760859  0.28034387  0.05457835  1
  Se  Se3  1  0.45097752  0.57707042  0.09098171  1
  Se  Se4  1  0.15429076  -0.01612329  0.09094628  1
  Se  Se5  1  0.88590967  -0.00973535  0.16416418  1
  Se  Se6  1  0.17592618  0.57081154  0.16413829  1
