# generated using pymatgen
data_PSe
_symmetry_space_group_name_H-M   'P 1'
_cell_length_a   9.09358550
_cell_length_b   7.40183106
_cell_length_c   26.80559601
_cell_angle_alpha   90.00000000
_cell_angle_beta   98.84127056
_cell_angle_gamma   90.00000000
_symmetry_Int_Tables_number   1
_chemical_formula_structural   PSe
_chemical_formula_sum   'P8 Se8'
_cell_volume   1782.82440327
_cell_formula_units_Z   8
loop_
 _symmetry_equiv_pos_site_id
 _symmetry_equiv_pos_as_xyz
  1  'x, y, z'
loop_
 _atom_site_type_symbol
 _atom_site_label
 _atom_site_symmetry_multiplicity
 _atom_site_fract_x
 _atom_site_fract_y
 _atom_site_fract_z
 _atom_site_occupancy
  P  P0  1  0.53774881  0.31027509  0.21438115  1
  P  P1  1  0.63286316  0.12906606  0.27702474  1
  P  P2  1  0.61819921  0.68906553  0.29967870  1
  P  P3  1  0.43301013  0.51812556  0.31794905  1
  P  P4  1  0.18212787  0.01812556  0.33257995  1
  P  P5  1  0.99693879  0.18906553  0.35085130  1
  P  P6  1  0.98227384  0.62906606  0.37350426  1
  P  P7  1  0.07738819  0.81027509  0.43614885  1
  Se  Se8  1  0.71046736  0.53490566  0.23611181  1
  Se  Se9  1  0.45904301  0.90185301  0.25770697  1
  Se  Se10  1  0.32636113  0.42091105  0.23957514  1
  Se  Se11  1  0.57324510  0.27319804  0.34864384  1
  Se  Se12  1  0.04189190  0.77319804  0.30188516  1
  Se  Se13  1  0.28877587  0.92091105  0.41095486  1
  Se  Se14  1  0.15609399  0.40185301  0.39282203  1
  Se  Se15  1  0.90467064  0.03490566  0.41441719  1
