# generated using pymatgen
data_CrS2
_symmetry_space_group_name_H-M   'P 1'
_cell_length_a   3.29812732
_cell_length_b   3.29812676
_cell_length_c   36.32575963
_cell_angle_alpha   90.89857364
_cell_angle_beta   88.29702967
_cell_angle_gamma   60.00289036
_symmetry_Int_Tables_number   1
_chemical_formula_structural   CrS2
_chemical_formula_sum   'Cr1 S2'
_cell_volume   341.84595741
_cell_formula_units_Z   1
loop_
 _symmetry_equiv_pos_site_id
 _symmetry_equiv_pos_as_xyz
  1  'x, y, z'
loop_
 _atom_site_type_symbol
 _atom_site_label
 _atom_site_symmetry_multiplicity
 _atom_site_fract_x
 _atom_site_fract_y
 _atom_site_fract_z
 _atom_site_occupancy
  Cr  Cr0  1  0.99350800  0.75337000  0.34319500  1
  S  S1  1  0.30594048  0.10372566  0.38111818  1
  S  S2  1  0.68107552  0.40301334  0.30527182  1
