# generated using pymatgen
data_BiOF
_symmetry_space_group_name_H-M   'P 1'
_cell_length_a   3.96868607
_cell_length_b   3.96868593
_cell_length_c   30.47449300
_cell_angle_alpha   90.00000000
_cell_angle_beta   90.00000000
_cell_angle_gamma   119.99999298
_symmetry_Int_Tables_number   1
_chemical_formula_structural   BiOF
_chemical_formula_sum   'Bi2 O2 F2'
_cell_volume   415.68143578
_cell_formula_units_Z   2
loop_
 _symmetry_equiv_pos_site_id
 _symmetry_equiv_pos_as_xyz
  1  'x, y, z'
loop_
 _atom_site_type_symbol
 _atom_site_label
 _atom_site_symmetry_multiplicity
 _atom_site_fract_x
 _atom_site_fract_y
 _atom_site_fract_z
 _atom_site_occupancy
  Bi  Bi0  1  0.66666700  0.33333300  0.06310774  1
  Bi  Bi1  1  -0.00000000  -0.00000000  0.16084426  1
  O  O2  1  -0.00000000  -0.00000000  0.08708142  1
  O  O3  1  0.66666700  0.33333300  0.13687158  1
  F  F4  1  0.33333300  0.66666700  0.03113003  1
  F  F5  1  0.33333300  0.66666700  0.19282197  1
