# generated using pymatgen
data_Nb3TeCl7
_symmetry_space_group_name_H-M   'P 1'
_cell_length_a   6.93888636
_cell_length_b   6.93888701
_cell_length_c   25.79209000
_cell_angle_alpha   90.00000000
_cell_angle_beta   90.00000000
_cell_angle_gamma   120.00000160
_symmetry_Int_Tables_number   1
_chemical_formula_structural   Nb3TeCl7
_chemical_formula_sum   'Nb3 Te1 Cl7'
_cell_volume   1075.46616307
_cell_formula_units_Z   1
loop_
 _symmetry_equiv_pos_site_id
 _symmetry_equiv_pos_as_xyz
  1  'x, y, z'
loop_
 _atom_site_type_symbol
 _atom_site_label
 _atom_site_symmetry_multiplicity
 _atom_site_fract_x
 _atom_site_fract_y
 _atom_site_fract_z
 _atom_site_occupancy
  Nb  Nb0  1  0.94691323  0.47345612  0.12903070  1
  Nb  Nb1  1  0.52654388  0.47345612  0.12903070  1
  Nb  Nb2  1  0.52654388  0.05308677  0.12903070  1
  Te  Te3  1  0.66666700  0.33333300  0.21258356  1
  Cl  Cl4  1  0.83260777  0.66521454  0.06726728  1
  Cl  Cl5  1  0.83260777  0.16739223  0.06726728  1
  Cl  Cl6  1  0.33478546  0.16739223  0.06726728  1
  Cl  Cl7  1  0.33333300  0.66666700  0.07549836  1
  Cl  Cl8  1  0.16613247  0.83386753  0.17917037  1
  Cl  Cl9  1  0.16613247  0.33226495  0.17917037  1
  Cl  Cl10  1  0.66773505  0.83386753  0.17917037  1
