# generated using pymatgen
data_SrThBr6
_symmetry_space_group_name_H-M   'P 1'
_cell_length_a   4.21909474
_cell_length_b   9.28720420
_cell_length_c   25.47064500
_cell_angle_alpha   90.00000000
_cell_angle_beta   90.00000000
_cell_angle_gamma   90.00000000
_symmetry_Int_Tables_number   1
_chemical_formula_structural   SrThBr6
_chemical_formula_sum   'Sr1 Th1 Br6'
_cell_volume   998.03142321
_cell_formula_units_Z   1
loop_
 _symmetry_equiv_pos_site_id
 _symmetry_equiv_pos_as_xyz
  1  'x, y, z'
loop_
 _atom_site_type_symbol
 _atom_site_label
 _atom_site_symmetry_multiplicity
 _atom_site_fract_x
 _atom_site_fract_y
 _atom_site_fract_z
 _atom_site_occupancy
  Sr  Sr0  1  0.50000000  0.25000000  0.14242732  1
  Th  Th1  1  0.00000000  0.75000000  0.13065258  1
  Br  Br2  1  0.50000000  0.75000000  0.05077726  1
  Br  Br3  1  0.00000000  0.45395067  0.08268009  1
  Br  Br4  1  0.00000000  0.04604933  0.08268009  1
  Br  Br5  1  0.50000000  0.57544363  0.18812275  1
  Br  Br6  1  0.50000000  0.92455637  0.18812275  1
  Br  Br7  1  0.00000000  0.25000000  0.22312216  1
