# generated using pymatgen
data_Ta3TeI7
_symmetry_space_group_name_H-M   'P 1'
_cell_length_a   7.64586777
_cell_length_b   7.64586724
_cell_length_c   26.07368300
_cell_angle_alpha   90.00000000
_cell_angle_beta   90.00000000
_cell_angle_gamma   120.00000231
_symmetry_Int_Tables_number   1
_chemical_formula_structural   Ta3TeI7
_chemical_formula_sum   'Ta3 Te1 I7'
_cell_volume   1320.03831826
_cell_formula_units_Z   1
loop_
 _symmetry_equiv_pos_site_id
 _symmetry_equiv_pos_as_xyz
  1  'x, y, z'
loop_
 _atom_site_type_symbol
 _atom_site_label
 _atom_site_symmetry_multiplicity
 _atom_site_fract_x
 _atom_site_fract_y
 _atom_site_fract_z
 _atom_site_occupancy
  Ta  Ta0  1  0.26118733  0.13059367  0.14509668  1
  Ta  Ta1  1  0.86940633  0.73881267  0.14509668  1
  Ta  Ta2  1  0.86940633  0.13059367  0.14509668  1
  Te  Te3  1  0.00000000  0.00000000  0.22682228  1
  I  I4  1  0.16822302  0.83177698  0.07267187  1
  I  I5  1  0.16822302  0.33644604  0.07267187  1
  I  I6  1  0.66355396  0.83177698  0.07267187  1
  I  I7  1  0.66666700  0.33333300  0.08841066  1
  I  I8  1  0.49775365  0.99550829  0.20299147  1
  I  I9  1  0.49775365  0.50224635  0.20299147  1
  I  I10  1  0.00449171  0.50224635  0.20299147  1
