# generated using pymatgen
data_FePSe3
_symmetry_space_group_name_H-M   'P 1'
_cell_length_a   6.23944045
_cell_length_b   6.23944056
_cell_length_c   23.29194800
_cell_angle_alpha   90.00000000
_cell_angle_beta   90.00000000
_cell_angle_gamma   119.99999941
_symmetry_Int_Tables_number   1
_chemical_formula_structural   FePSe3
_chemical_formula_sum   'Fe2 P2 Se6'
_cell_volume   785.28579564
_cell_formula_units_Z   2
loop_
 _symmetry_equiv_pos_site_id
 _symmetry_equiv_pos_as_xyz
  1  'x, y, z'
loop_
 _atom_site_type_symbol
 _atom_site_label
 _atom_site_symmetry_multiplicity
 _atom_site_fract_x
 _atom_site_fract_y
 _atom_site_fract_z
 _atom_site_occupancy
  Fe  Fe0  1  -0.00000000  -0.00000000  0.49999617  1
  Fe  Fe1  1  0.66666700  0.33333300  0.50000283  1
  P  P2  1  0.33333300  0.66666700  0.45211436  1
  P  P3  1  0.33333300  0.66666700  0.54788464  1
  Se  Se4  1  0.68080933  0.01415956  0.42934589  1
  Se  Se5  1  0.33334923  0.31919067  0.42934589  1
  Se  Se6  1  0.98584044  0.66665077  0.42934589  1
  Se  Se7  1  0.98585667  0.31917444  0.57065411  1
  Se  Se8  1  0.33331677  0.01414333  0.57065411  1
  Se  Se9  1  0.68082556  0.66668323  0.57065411  1
