# generated using pymatgen
data_AlTeI7
_symmetry_space_group_name_H-M   'P 1'
_cell_length_a   7.21517531
_cell_length_b   6.92521406
_cell_length_c   28.86105800
_cell_angle_alpha   90.00000000
_cell_angle_beta   105.74933638
_cell_angle_gamma   87.01880440
_symmetry_Int_Tables_number   1
_chemical_formula_structural   AlTeI7
_chemical_formula_sum   'Al1 Te1 I7'
_cell_volume   1385.92363922
_cell_formula_units_Z   1
loop_
 _symmetry_equiv_pos_site_id
 _symmetry_equiv_pos_as_xyz
  1  'x, y, z'
loop_
 _atom_site_type_symbol
 _atom_site_label
 _atom_site_symmetry_multiplicity
 _atom_site_fract_x
 _atom_site_fract_y
 _atom_site_fract_z
 _atom_site_occupancy
  Al  Al0  1  0.69714073  0.00573751  0.19814898  1
  Te  Te1  1  0.00613905  0.58125365  0.29132717  1
  I  I2  1  0.44791719  0.91242525  0.12403301  1
  I  I3  1  0.70174857  0.37838765  0.19824964  1
  I  I4  1  0.03813645  0.85629292  0.20178466  1
  I  I5  1  0.62042832  0.88625088  0.27611677  1
  I  I6  1  0.30894911  0.33606203  0.28081577  1
  I  I7  1  0.88958471  0.36294046  0.35885172  1
  I  I8  1  0.22785486  0.82844764  0.35815328  1
