# generated using pymatgen
data_AlSeBr7
_symmetry_space_group_name_H-M   'P 1'
_cell_length_a   6.57145035
_cell_length_b   6.31901658
_cell_length_c   27.29868500
_cell_angle_alpha   90.00000000
_cell_angle_beta   106.53621555
_cell_angle_gamma   84.03326295
_symmetry_Int_Tables_number   1
_chemical_formula_structural   AlSeBr7
_chemical_formula_sum   'Al1 Se1 Br7'
_cell_volume   1080.28807833
_cell_formula_units_Z   1
loop_
 _symmetry_equiv_pos_site_id
 _symmetry_equiv_pos_as_xyz
  1  'x, y, z'
loop_
 _atom_site_type_symbol
 _atom_site_label
 _atom_site_symmetry_multiplicity
 _atom_site_fract_x
 _atom_site_fract_y
 _atom_site_fract_z
 _atom_site_occupancy
  Al  Al0  1  0.68296870  0.01859566  0.18514295  1
  Se  Se1  1  0.00302575  0.57354051  0.27688816  1
  Br  Br2  1  0.42841103  0.94557561  0.11386122  1
  Br  Br3  1  0.69358308  0.38776778  0.18815720  1
  Br  Br4  1  0.02421249  0.84588273  0.19066324  1
  Br  Br5  1  0.61441338  0.89990541  0.26056428  1
  Br  Br6  1  0.28690380  0.32441521  0.26778393  1
  Br  Br7  1  0.88902056  0.37478617  0.33756693  1
  Br  Br8  1  0.21275920  0.79988891  0.33704109  1
