# generated using pymatgen
data_HfCl4
_symmetry_space_group_name_H-M   'P 1'
_cell_length_a   6.20813729
_cell_length_b   7.32438341
_cell_length_c   26.91605200
_cell_angle_alpha   90.00000000
_cell_angle_beta   108.27487097
_cell_angle_gamma   90.00000000
_symmetry_Int_Tables_number   1
_chemical_formula_structural   HfCl4
_chemical_formula_sum   'Hf2 Cl8'
_cell_volume   1162.16440778
_cell_formula_units_Z   2
loop_
 _symmetry_equiv_pos_site_id
 _symmetry_equiv_pos_as_xyz
  1  'x, y, z'
loop_
 _atom_site_type_symbol
 _atom_site_label
 _atom_site_symmetry_multiplicity
 _atom_site_fract_x
 _atom_site_fract_y
 _atom_site_fract_z
 _atom_site_occupancy
  Hf  Hf0  1  0.75000000  0.66502208  0.12847400  1
  Hf  Hf1  1  0.25000000  0.33497792  0.12847400  1
  Cl  Cl2  1  0.52268418  0.86626228  0.06835434  1
  Cl  Cl3  1  0.50629988  0.39021075  0.07532690  1
  Cl  Cl4  1  0.02268418  0.13373772  0.06835434  1
  Cl  Cl5  1  0.00629988  0.60978925  0.07532690  1
  Cl  Cl6  1  0.99370012  0.39021075  0.18162210  1
  Cl  Cl7  1  0.97731582  0.86626228  0.18859466  1
  Cl  Cl8  1  0.49370012  0.60978925  0.18162210  1
  Cl  Cl9  1  0.47731582  0.13373772  0.18859466  1
