# generated using pymatgen
data_Al2Te3
_symmetry_space_group_name_H-M   'P 1'
_cell_length_a   7.26016871
_cell_length_b   12.79409528
_cell_length_c   25.32495800
_cell_angle_alpha   90.00000000
_cell_angle_beta   90.05345115
_cell_angle_gamma   90.00000000
_symmetry_Int_Tables_number   1
_chemical_formula_structural   Al2Te3
_chemical_formula_sum   'Al8 Te12'
_cell_volume   2352.36570046
_cell_formula_units_Z   4
loop_
 _symmetry_equiv_pos_site_id
 _symmetry_equiv_pos_as_xyz
  1  'x, y, z'
loop_
 _atom_site_type_symbol
 _atom_site_label
 _atom_site_symmetry_multiplicity
 _atom_site_fract_x
 _atom_site_fract_y
 _atom_site_fract_z
 _atom_site_occupancy
  Al  Al0  1  0.93195369  0.40847222  0.11120582  1
  Al  Al1  1  0.43197345  0.92989744  0.11121959  1
  Al  Al2  1  0.41802654  0.24929851  0.11362621  1
  Al  Al3  1  0.91801487  0.08905391  0.11363690  1
  Al  Al4  1  0.08198513  0.58905391  0.18892910  1
  Al  Al5  1  0.58197346  0.74929851  0.18893979  1
  Al  Al6  1  0.56802655  0.42989744  0.19134641  1
  Al  Al7  1  0.06804631  0.90847222  0.19136018  1
  Te  Te8  1  0.08932080  0.24574147  0.06292153  1
  Te  Te9  1  0.58933627  0.09260568  0.06291597  1
  Te  Te10  1  0.09152920  0.58317829  0.08739880  1
  Te  Te11  1  0.57550735  0.43034151  0.08456789  1
  Te  Te12  1  0.59154090  0.75518998  0.08740825  1
  Te  Te13  1  0.07552716  0.90801999  0.08458075  1
  Te  Te14  1  0.92447284  0.40801999  0.21798525  1
  Te  Te15  1  0.40845910  0.25518998  0.21515775  1
  Te  Te16  1  0.42449265  0.93034151  0.21799911  1
  Te  Te17  1  0.90847080  0.08317829  0.21516720  1
  Te  Te18  1  0.41066373  0.59260568  0.23965003  1
  Te  Te19  1  0.91067920  0.74574147  0.23964447  1
