# generated using pymatgen
data_GaTeI7
_symmetry_space_group_name_H-M   'P 1'
_cell_length_a   7.20375997
_cell_length_b   6.91326855
_cell_length_c   28.97928700
_cell_angle_alpha   90.00000000
_cell_angle_beta   105.83292952
_cell_angle_gamma   86.96936863
_symmetry_Int_Tables_number   1
_chemical_formula_structural   GaTeI7
_chemical_formula_sum   'Ga1 Te1 I7'
_cell_volume   1386.36102731
_cell_formula_units_Z   1
loop_
 _symmetry_equiv_pos_site_id
 _symmetry_equiv_pos_as_xyz
  1  'x, y, z'
loop_
 _atom_site_type_symbol
 _atom_site_label
 _atom_site_symmetry_multiplicity
 _atom_site_fract_x
 _atom_site_fract_y
 _atom_site_fract_z
 _atom_site_occupancy
  Ga  Ga0  1  0.30303052  0.49471531  0.18282431  1
  Te  Te1  1  -0.00540183  0.91740942  0.09058523  1
  I  I2  1  0.77004498  0.67172071  0.02377866  1
  I  I3  1  0.11160317  0.13567056  0.02330790  1
  I  I4  1  0.69217498  0.16472001  0.10113242  1
  I  I5  1  0.38134157  0.61512231  0.10453175  1
  I  I6  1  0.95866259  0.64521049  0.17957621  1
  I  I7  1  0.30000988  0.11824873  0.18326340  1
  I  I8  1  0.55483514  0.59217946  0.25701312  1
