# generated using pymatgen
data_NiTeO4
_symmetry_space_group_name_H-M   'P 1'
_cell_length_a   3.11073296
_cell_length_b   5.29360402
_cell_length_c   21.79817800
_cell_angle_alpha   92.92761429
_cell_angle_beta   90.00000000
_cell_angle_gamma   90.00000000
_symmetry_Int_Tables_number   1
_chemical_formula_structural   NiTeO4
_chemical_formula_sum   'Ni1 Te1 O4'
_cell_volume   358.48186566
_cell_formula_units_Z   1
loop_
 _symmetry_equiv_pos_site_id
 _symmetry_equiv_pos_as_xyz
  1  'x, y, z'
loop_
 _atom_site_type_symbol
 _atom_site_label
 _atom_site_symmetry_multiplicity
 _atom_site_fract_x
 _atom_site_fract_y
 _atom_site_fract_z
 _atom_site_occupancy
  Ni  Ni0  1  0.50000000  0.54907200  0.04907200  1
  Te  Te1  1  0.00000000  0.04907200  0.04907200  1
  O  O2  1  0.00000000  0.74080138  0.09167250  1
  O  O3  1  0.00000000  0.35734262  0.00647150  1
  O  O4  1  0.50000000  0.21227949  0.09797555  1
  O  O5  1  0.50000000  0.88586551  0.00016945  1
