# generated using pymatgen
data_Nb3TeI7
_symmetry_space_group_name_H-M   'P 1'
_cell_length_a   7.69337054
_cell_length_b   7.69337091
_cell_length_c   27.88342100
_cell_angle_alpha   90.00000000
_cell_angle_beta   90.00000000
_cell_angle_gamma   119.99999841
_symmetry_Int_Tables_number   1
_chemical_formula_structural   Nb3TeI7
_chemical_formula_sum   'Nb3 Te1 I7'
_cell_volume   1429.25597403
_cell_formula_units_Z   1
loop_
 _symmetry_equiv_pos_site_id
 _symmetry_equiv_pos_as_xyz
  1  'x, y, z'
loop_
 _atom_site_type_symbol
 _atom_site_label
 _atom_site_symmetry_multiplicity
 _atom_site_fract_x
 _atom_site_fract_y
 _atom_site_fract_z
 _atom_site_occupancy
  Nb  Nb0  1  0.86751168  0.13248832  0.13278482  1
  Nb  Nb1  1  0.86751168  0.73502235  0.13278482  1
  Nb  Nb2  1  0.26497765  0.13248832  0.13278482  1
  Te  Te3  1  0.00000000  0.00000000  0.05738007  1
  I  I4  1  0.49791703  0.99583407  0.07788274  1
  I  I5  1  0.49791703  0.50208297  0.07788274  1
  I  I6  1  0.00416593  0.50208297  0.07788274  1
  I  I7  1  0.66666700  0.33333300  0.18613582  1
  I  I8  1  0.66352414  0.83176207  0.20015615  1
  I  I9  1  0.16823793  0.33647586  0.20015615  1
  I  I10  1  0.16823793  0.83176207  0.20015615  1
