# generated using pymatgen
data_Nb3Cl8
_symmetry_space_group_name_H-M   'P 1'
_cell_length_a   6.78713673
_cell_length_b   6.78713694
_cell_length_c   23.37499700
_cell_angle_alpha   90.00000000
_cell_angle_beta   90.00000000
_cell_angle_gamma   120.00000375
_symmetry_Int_Tables_number   1
_chemical_formula_structural   Nb3Cl8
_chemical_formula_sum   'Nb3 Cl8'
_cell_volume   932.51406154
_cell_formula_units_Z   1
loop_
 _symmetry_equiv_pos_site_id
 _symmetry_equiv_pos_as_xyz
  1  'x, y, z'
loop_
 _atom_site_type_symbol
 _atom_site_label
 _atom_site_symmetry_multiplicity
 _atom_site_fract_x
 _atom_site_fract_y
 _atom_site_fract_z
 _atom_site_occupancy
  Nb  Nb0  1  0.47212538  0.94424977  0.14487711  1
  Nb  Nb1  1  0.47212538  0.52787462  0.14487711  1
  Nb  Nb2  1  0.05575023  0.52787462  0.14487711  1
  Cl  Cl3  1  0.16801236  0.33602572  0.07377741  1
  Cl  Cl4  1  0.16801236  0.83198764  0.07377741  1
  Cl  Cl5  1  0.66397428  0.83198764  0.07377741  1
  Cl  Cl6  1  0.66666700  0.33333300  0.08655774  1
  Cl  Cl7  1  0.83511136  0.67022272  0.20306483  1
  Cl  Cl8  1  0.32977728  0.16488864  0.20306483  1
  Cl  Cl9  1  0.83511136  0.16488864  0.20306483  1
  Cl  Cl10  1  0.33333300  0.66666700  0.22462623  1
