# generated using pymatgen
data_CoBr2
_symmetry_space_group_name_H-M   'P 1'
_cell_length_a   3.66580834
_cell_length_b   3.66580909
_cell_length_c   26.90660500
_cell_angle_alpha   90.00000000
_cell_angle_beta   90.00000000
_cell_angle_gamma   120.00000171
_symmetry_Int_Tables_number   1
_chemical_formula_structural   CoBr2
_chemical_formula_sum   'Co1 Br2'
_cell_volume   313.13320773
_cell_formula_units_Z   1
loop_
 _symmetry_equiv_pos_site_id
 _symmetry_equiv_pos_as_xyz
  1  'x, y, z'
loop_
 _atom_site_type_symbol
 _atom_site_label
 _atom_site_symmetry_multiplicity
 _atom_site_fract_x
 _atom_site_fract_y
 _atom_site_fract_z
 _atom_site_occupancy
  Co  Co0  1  0.45725900  0.06678700  0.12834400  1
  Br  Br1  1  0.12392600  0.40012100  0.18248947  1
  Br  Br2  1  0.79059200  0.73345500  0.07419853  1
