# generated using pymatgen
data_TlSbO3
_symmetry_space_group_name_H-M   'P 1'
_cell_length_a   5.38493185
_cell_length_b   5.38493201
_cell_length_c   26.22790500
_cell_angle_alpha   90.00000000
_cell_angle_beta   90.00000000
_cell_angle_gamma   120.00000509
_symmetry_Int_Tables_number   1
_chemical_formula_structural   TlSbO3
_chemical_formula_sum   'Tl2 Sb2 O6'
_cell_volume   658.64992626
_cell_formula_units_Z   2
loop_
 _symmetry_equiv_pos_site_id
 _symmetry_equiv_pos_as_xyz
  1  'x, y, z'
loop_
 _atom_site_type_symbol
 _atom_site_label
 _atom_site_symmetry_multiplicity
 _atom_site_fract_x
 _atom_site_fract_y
 _atom_site_fract_z
 _atom_site_occupancy
  Tl  Tl0  1  0.33333300  0.66666700  0.04636676  1
  Tl  Tl1  1  0.33333300  0.66666700  0.24884024  1
  Sb  Sb2  1  0.00000000  0.00000000  0.14760101  1
  Sb  Sb3  1  0.66666700  0.33333300  0.14760499  1
  O  O4  1  0.95302135  0.66666576  0.10470279  1
  O  O5  1  0.33333424  0.28635559  0.10470279  1
  O  O6  1  0.71364441  0.04697865  0.10470279  1
  O  O7  1  0.71364465  0.66666724  0.19050221  1
  O  O8  1  0.95302259  0.28635535  0.19050221  1
  O  O9  1  0.33333276  0.04697741  0.19050221  1
