# generated using pymatgen
data_PdSCl
_symmetry_space_group_name_H-M   'P 1'
_cell_length_a   7.81090178
_cell_length_b   8.96765614
_cell_length_c   28.68351800
_cell_angle_alpha   90.00000000
_cell_angle_beta   90.00000000
_cell_angle_gamma   109.86903470
_symmetry_Int_Tables_number   1
_chemical_formula_structural   PdSCl
_chemical_formula_sum   'Pd6 S6 Cl6'
_cell_volume   1889.54998672
_cell_formula_units_Z   6
loop_
 _symmetry_equiv_pos_site_id
 _symmetry_equiv_pos_as_xyz
  1  'x, y, z'
loop_
 _atom_site_type_symbol
 _atom_site_label
 _atom_site_symmetry_multiplicity
 _atom_site_fract_x
 _atom_site_fract_y
 _atom_site_fract_z
 _atom_site_occupancy
  Pd  Pd0  1  0.59251268  0.55475893  0.05956527  1
  Pd  Pd1  1  0.89480398  0.90979387  0.05934838  1
  Pd  Pd2  1  0.14898287  0.79349181  0.11054700  1
  Pd  Pd3  1  0.84591987  0.43631918  0.11054700  1
  Pd  Pd4  1  0.89480398  0.90979387  0.16174562  1
  Pd  Pd5  1  0.59251268  0.55475893  0.16152873  1
  S  S6  1  0.85583077  0.67955335  0.01833991  1
  S  S7  1  0.04252419  0.59374866  0.05593631  1
  S  S8  1  0.58520539  0.80643176  0.07291799  1
  S  S9  1  0.58520539  0.80643176  0.14817601  1
  S  S10  1  0.04252419  0.59374866  0.16515769  1
  S  S11  1  0.85583077  0.67955335  0.20275509  1
  Cl  Cl12  1  0.63905390  0.30676150  0.04861913  1
  Cl  Cl13  1  0.21765622  0.98818963  0.04917155  1
  Cl  Cl14  1  0.91784564  0.12709569  0.11054700  1
  Cl  Cl15  1  0.33656035  0.44048590  0.11054700  1
  Cl  Cl16  1  0.21765622  0.98818963  0.17192345  1
  Cl  Cl17  1  0.63905390  0.30676150  0.17247487  1
