# generated using pymatgen
data_AsCl5
_symmetry_space_group_name_H-M   'P 1'
_cell_length_a   6.34006778
_cell_length_b   7.27188163
_cell_length_c   28.06346400
_cell_angle_alpha   90.00000000
_cell_angle_beta   90.00000000
_cell_angle_gamma   90.00000000
_symmetry_Int_Tables_number   1
_chemical_formula_structural   AsCl5
_chemical_formula_sum   'As1 Cl5'
_cell_volume   1293.84418545
_cell_formula_units_Z   1
loop_
 _symmetry_equiv_pos_site_id
 _symmetry_equiv_pos_as_xyz
  1  'x, y, z'
loop_
 _atom_site_type_symbol
 _atom_site_label
 _atom_site_symmetry_multiplicity
 _atom_site_fract_x
 _atom_site_fract_y
 _atom_site_fract_z
 _atom_site_occupancy
  As  As0  1  0.82475412  -0.00000000  0.14366500  1
  Cl  Cl1  1  0.82291212  -0.00000000  0.06346770  1
  Cl  Cl2  1  0.65236183  0.73889599  0.14366500  1
  Cl  Cl3  1  0.65236183  0.26110401  0.14366500  1
  Cl  Cl4  1  0.16892498  -0.00000000  0.14366500  1
  Cl  Cl5  1  0.82291212  -0.00000000  0.22386130  1
