# generated using pymatgen
data_AlI3
_symmetry_space_group_name_H-M   'P 1'
_cell_length_a   9.66709470
_cell_length_b   5.77166411
_cell_length_c   28.94438100
_cell_angle_alpha   90.00000000
_cell_angle_beta   109.55114761
_cell_angle_gamma   89.14920170
_symmetry_Int_Tables_number   1
_chemical_formula_structural   AlI3
_chemical_formula_sum   'Al2 I6'
_cell_volume   1521.65582733
_cell_formula_units_Z   2
loop_
 _symmetry_equiv_pos_site_id
 _symmetry_equiv_pos_as_xyz
  1  'x, y, z'
loop_
 _atom_site_type_symbol
 _atom_site_label
 _atom_site_symmetry_multiplicity
 _atom_site_fract_x
 _atom_site_fract_y
 _atom_site_fract_z
 _atom_site_occupancy
  Al  Al0  1  0.80176516  0.50735676  0.20332072  1
  Al  Al1  1  0.19823484  0.49264324  0.24389528  1
  I  I2  1  0.65883217  0.26569275  0.13237562  1
  I  I3  1  0.00340818  0.25749831  0.27233084  1
  I  I4  1  0.67242235  0.75943052  0.24622024  1
  I  I5  1  0.32757765  0.24056948  0.20099576  1
  I  I6  1  -0.00340818  0.74250169  0.17488516  1
  I  I7  1  0.34116783  0.73430725  0.31484038  1
