# generated using pymatgen
data_ZrTiTe4
_symmetry_space_group_name_H-M   'P 1'
_cell_length_a   6.71805872
_cell_length_b   3.87119108
_cell_length_c   26.94283443
_cell_angle_alpha   90.00000000
_cell_angle_beta   90.03287338
_cell_angle_gamma   90.00000000
_symmetry_Int_Tables_number   1
_chemical_formula_structural   ZrTiTe4
_chemical_formula_sum   'Zr1 Ti1 Te4'
_cell_volume   700.69918834
_cell_formula_units_Z   1
loop_
 _symmetry_equiv_pos_site_id
 _symmetry_equiv_pos_as_xyz
  1  'x, y, z'
loop_
 _atom_site_type_symbol
 _atom_site_label
 _atom_site_symmetry_multiplicity
 _atom_site_fract_x
 _atom_site_fract_y
 _atom_site_fract_z
 _atom_site_occupancy
  Zr  Zr0  1  0.51706200  0.89418300  0.12913000  1
  Ti  Ti1  1  0.01706200  0.39418300  0.12913000  1
  Te  Te2  1  0.17344074  0.89418300  0.19357719  1
  Te  Te3  1  0.69434059  0.39418300  0.19575358  1
  Te  Te4  1  0.33978341  0.39418300  0.06250642  1
  Te  Te5  1  0.86068326  0.89418300  0.06468281  1
