# generated using pymatgen
data_MgPSe3
_symmetry_space_group_name_H-M   'P 1'
_cell_length_a   6.42561714
_cell_length_b   6.42561716
_cell_length_c   25.42938100
_cell_angle_alpha   90.00000000
_cell_angle_beta   90.00000000
_cell_angle_gamma   119.99999987
_symmetry_Int_Tables_number   1
_chemical_formula_structural   MgPSe3
_chemical_formula_sum   'Mg2 P2 Se6'
_cell_volume   909.27680564
_cell_formula_units_Z   2
loop_
 _symmetry_equiv_pos_site_id
 _symmetry_equiv_pos_as_xyz
  1  'x, y, z'
loop_
 _atom_site_type_symbol
 _atom_site_label
 _atom_site_symmetry_multiplicity
 _atom_site_fract_x
 _atom_site_fract_y
 _atom_site_fract_z
 _atom_site_occupancy
  Mg  Mg0  1  0.66666700  0.33333300  0.14623357  1
  Mg  Mg1  1  0.00000000  0.00000000  0.14777443  1
  P  P2  1  0.33333300  0.66666700  0.10289521  1
  P  P3  1  0.33333300  0.66666700  0.19111279  1
  Se  Se4  1  0.00219779  0.33345976  0.07902286  1
  Se  Se5  1  0.33126197  0.99780221  0.07902286  1
  Se  Se6  1  0.66654024  0.66873803  0.07902286  1
  Se  Se7  1  0.00012676  0.66459597  0.21498514  1
  Se  Se8  1  0.66446921  0.99987324  0.21498514  1
  Se  Se9  1  0.33540403  0.33553079  0.21498514  1
