# generated using pymatgen
data_Ta3SBr7
_symmetry_space_group_name_H-M   'P 1'
_cell_length_a   7.10963499
_cell_length_b   7.10966062
_cell_length_c   23.46282500
_cell_angle_alpha   89.67811927
_cell_angle_beta   90.00000000
_cell_angle_gamma   119.99973132
_symmetry_Int_Tables_number   1
_chemical_formula_structural   Ta3SBr7
_chemical_formula_sum   'Ta3 S1 Br7'
_cell_volume   1027.06787655
_cell_formula_units_Z   1
loop_
 _symmetry_equiv_pos_site_id
 _symmetry_equiv_pos_as_xyz
  1  'x, y, z'
loop_
 _atom_site_type_symbol
 _atom_site_label
 _atom_site_symmetry_multiplicity
 _atom_site_fract_x
 _atom_site_fract_y
 _atom_site_fract_z
 _atom_site_occupancy
  Br  Br0  1  0.20278922  0.91274545  0.01367605  1
  Br  Br1  1  0.70995912  0.91274526  0.01367690  1
  Br  Br2  1  0.53941668  0.07883614  0.13425246  1
  Br  Br3  1  0.03699346  0.58076666  0.14774694  1
  Br  Br4  1  0.54376912  0.58076383  0.14774802  1
  Br  Br5  1  0.03701270  0.07402446  0.14775720  1
  Br  Br6  1  0.70992619  0.41985116  0.01366312  1
  S  S7  1  0.20774836  0.41549728  0.99922215  1
  Ta  Ta8  1  0.34128859  0.27918960  0.07413070  1
  Ta  Ta9  1  0.93789937  0.27918920  0.07413089  1
  Ta  Ta10  1  0.34129118  0.68258296  0.07412958  1
