# generated using pymatgen
data_PPdSe
_symmetry_space_group_name_H-M   'P 1'
_cell_length_a   5.84477227
_cell_length_b   5.91014666
_cell_length_c   28.98561400
_cell_angle_alpha   90.00000000
_cell_angle_beta   90.00000000
_cell_angle_gamma   90.00000000
_symmetry_Int_Tables_number   1
_chemical_formula_structural   PPdSe
_chemical_formula_sum   'P4 Pd4 Se4'
_cell_volume   1001.26343550
_cell_formula_units_Z   4
loop_
 _symmetry_equiv_pos_site_id
 _symmetry_equiv_pos_as_xyz
  1  'x, y, z'
loop_
 _atom_site_type_symbol
 _atom_site_label
 _atom_site_symmetry_multiplicity
 _atom_site_fract_x
 _atom_site_fract_y
 _atom_site_fract_z
 _atom_site_occupancy
  P  P0  1  0.12518034  0.28667863  0.22079780  1
  P  P1  1  0.87481966  0.78667863  0.22079780  1
  P  P2  1  0.12518034  0.21332137  0.29620320  1
  P  P3  1  0.87481966  0.71332137  0.29620320  1
  Pd  Pd4  1  0.75662135  0.15567849  0.20686940  1
  Pd  Pd5  1  0.24337865  0.65567849  0.20686940  1
  Pd  Pd6  1  0.75662135  0.34432151  0.31013260  1
  Pd  Pd7  1  0.24337865  0.84432151  0.31013260  1
  Se  Se8  1  0.63578659  0.54011984  0.18213840  1
  Se  Se9  1  0.36421341  0.04011984  0.18213840  1
  Se  Se10  1  0.36421341  0.45988016  0.33486360  1
  Se  Se11  1  0.63578659  0.95988016  0.33486360  1
