# generated using pymatgen
data_NbI5
_symmetry_space_group_name_H-M   'P 1'
_cell_length_a   6.61485810
_cell_length_b   13.72719832
_cell_length_c   30.58618172
_cell_angle_alpha   96.06622457
_cell_angle_beta   90.00000000
_cell_angle_gamma   90.00000000
_symmetry_Int_Tables_number   1
_chemical_formula_structural   NbI5
_chemical_formula_sum   'Nb2 I10'
_cell_volume   2761.77949541
_cell_formula_units_Z   2
loop_
 _symmetry_equiv_pos_site_id
 _symmetry_equiv_pos_as_xyz
  1  'x, y, z'
loop_
 _atom_site_type_symbol
 _atom_site_label
 _atom_site_symmetry_multiplicity
 _atom_site_fract_x
 _atom_site_fract_y
 _atom_site_fract_z
 _atom_site_occupancy
  Nb  Nb0  1  0.54847652  0.25704206  0.07703475  1
  Nb  Nb1  1  0.95152348  0.75704206  0.07703475  1
  I  I2  1  0.72167319  0.17774585  0.00077894  1
  I  I3  1  0.77832681  0.67774585  0.00077894  1
  I  I4  1  0.72922827  0.42644685  0.06034879  1
  I  I5  1  0.26280044  0.11572029  0.06213384  1
  I  I6  1  0.77077173  0.92644685  0.06034879  1
  I  I7  1  0.23719956  0.61572029  0.06213384  1
  I  I8  1  0.78031836  0.19288994  0.13662339  1
  I  I9  1  0.26905633  0.36852902  0.12448828  1
  I  I10  1  0.71968164  0.69288994  0.13662339  1
  I  I11  1  0.23094367  0.86852902  0.12448828  1
