# generated using pymatgen
data_Si3H
_symmetry_space_group_name_H-M   'P 1'
_cell_length_a   3.87307206
_cell_length_b   3.87307222
_cell_length_c   31.30219900
_cell_angle_alpha   90.00000000
_cell_angle_beta   90.00000000
_cell_angle_gamma   120.00000728
_symmetry_Int_Tables_number   1
_chemical_formula_structural   Si3H
_chemical_formula_sum   'Si6 H2'
_cell_volume   406.64610854
_cell_formula_units_Z   2
loop_
 _symmetry_equiv_pos_site_id
 _symmetry_equiv_pos_as_xyz
  1  'x, y, z'
loop_
 _atom_site_type_symbol
 _atom_site_label
 _atom_site_symmetry_multiplicity
 _atom_site_fract_x
 _atom_site_fract_y
 _atom_site_fract_z
 _atom_site_occupancy
  Si  Si0  1  0.33333300  0.66666700  0.06650886  1
  Si  Si1  1  0.66666700  0.33333300  0.09124896  1
  Si  Si2  1  0.66666700  0.33333300  0.16762309  1
  Si  Si3  1  0.33333300  0.66666700  0.19344391  1
  Si  Si4  1  0.33333300  0.66666700  0.26981804  1
  Si  Si5  1  0.66666700  0.33333300  0.29455814  1
  H  H6  1  0.33333300  0.66666700  0.01827064  1
  H  H7  1  0.66666700  0.33333300  0.34279636  1
