# generated using pymatgen
data_CdPS3
_symmetry_space_group_name_H-M   'P 1'
_cell_length_a   6.25971226
_cell_length_b   10.84269921
_cell_length_c   27.38910375
_cell_angle_alpha   90.00000000
_cell_angle_beta   94.24389246
_cell_angle_gamma   90.00000000
_symmetry_Int_Tables_number   1
_chemical_formula_structural   CdPS3
_chemical_formula_sum   'Cd4 P4 S12'
_cell_volume   1853.86098561
_cell_formula_units_Z   4
loop_
 _symmetry_equiv_pos_site_id
 _symmetry_equiv_pos_as_xyz
  1  'x, y, z'
loop_
 _atom_site_type_symbol
 _atom_site_label
 _atom_site_symmetry_multiplicity
 _atom_site_fract_x
 _atom_site_fract_y
 _atom_site_fract_z
 _atom_site_occupancy
  Cd  Cd0  1  0.47415100  0.68127861  0.17122100  1
  Cd  Cd1  1  0.47415100  0.01459339  0.17122100  1
  Cd  Cd2  1  0.97415100  0.51459339  0.17122100  1
  Cd  Cd3  1  0.97415100  0.18127861  0.17122100  1
  P  P4  1  0.98757498  0.84793600  0.21274094  1
  P  P5  1  0.48757498  0.34793600  0.21274094  1
  P  P6  1  0.46072602  0.34793600  0.12970106  1
  P  P7  1  0.96072602  0.84793600  0.12970106  1
  S  S8  1  0.18117810  0.34793600  0.23388610  1
  S  S9  1  0.15102283  0.69131835  0.23389083  1
  S  S10  1  0.15102283  0.00455365  0.23389083  1
  S  S11  1  0.68117810  0.84793600  0.23388610  1
  S  S12  1  0.65102283  0.50455365  0.23389083  1
  S  S13  1  0.65102283  0.19131835  0.23389083  1
  S  S14  1  0.29727817  0.50455365  0.10855017  1
  S  S15  1  0.29727817  0.19131835  0.10855017  1
  S  S16  1  0.26712290  0.84793600  0.10855490  1
  S  S17  1  0.79727817  0.69131835  0.10855017  1
  S  S18  1  0.79727817  0.00455365  0.10855017  1
  S  S19  1  0.76712390  0.34793600  0.10855490  1
