# generated using pymatgen
data_ReSe2
_symmetry_space_group_name_H-M   'P 1'
_cell_length_a   6.66475492
_cell_length_b   6.78529395
_cell_length_c   27.19998200
_cell_angle_alpha   91.82832533
_cell_angle_beta   104.15913555
_cell_angle_gamma   118.85722775
_symmetry_Int_Tables_number   1
_chemical_formula_structural   ReSe2
_chemical_formula_sum   'Re4 Se8'
_cell_volume   1028.16082873
_cell_formula_units_Z   4
loop_
 _symmetry_equiv_pos_site_id
 _symmetry_equiv_pos_as_xyz
  1  'x, y, z'
loop_
 _atom_site_type_symbol
 _atom_site_label
 _atom_site_symmetry_multiplicity
 _atom_site_fract_x
 _atom_site_fract_y
 _atom_site_fract_z
 _atom_site_occupancy
  Re  Re0  1  0.93626994  0.68476868  0.13476368  1
  Re  Re1  1  0.51274947  0.70917838  0.13308513  1
  Re  Re2  1  0.48725053  0.29082162  0.13162087  1
  Re  Re3  1  0.06373006  0.31523132  0.12994232  1
  Se  Se4  1  0.72632625  0.34397733  0.06732652  1
  Se  Se5  1  0.77772156  0.89203462  0.07660105  1
  Se  Se6  1  0.25418765  0.38485425  0.05900975  1
  Se  Se7  1  0.24877124  0.86547131  0.08358100  1
  Se  Se8  1  0.75122876  0.13452869  0.18112500  1
  Se  Se9  1  0.74581235  0.61514575  0.20569625  1
  Se  Se10  1  0.22227844  0.10796538  0.18810395  1
  Se  Se11  1  0.27367375  0.65602267  0.19737848  1
