# generated using pymatgen
data_TiS2
_symmetry_space_group_name_H-M   'P 1'
_cell_length_a   3.40849488
_cell_length_b   3.40865544
_cell_length_c   30.81903333
_cell_angle_alpha   100.74128251
_cell_angle_beta   90.00000000
_cell_angle_gamma   119.99844187
_symmetry_Int_Tables_number   1
_chemical_formula_structural   TiS2
_chemical_formula_sum   'Ti1 S2'
_cell_volume   302.83443377
_cell_formula_units_Z   1
loop_
 _symmetry_equiv_pos_site_id
 _symmetry_equiv_pos_as_xyz
  1  'x, y, z'
loop_
 _atom_site_type_symbol
 _atom_site_label
 _atom_site_symmetry_multiplicity
 _atom_site_fract_x
 _atom_site_fract_y
 _atom_site_fract_z
 _atom_site_occupancy
  Ti  Ti0  1  0.99881700  0.99763400  0.19072200  1
  S  S1  1  0.38518591  0.77037183  0.23795411  1
  S  S2  1  0.61244809  0.22489717  0.14348889  1
