# generated using pymatgen
data_MoS2
_symmetry_space_group_name_H-M   'P 1'
_cell_length_a   5.53871512
_cell_length_b   3.19766557
_cell_length_c   36.37140361
_cell_angle_alpha   90.00000000
_cell_angle_beta   92.88472892
_cell_angle_gamma   90.00000000
_symmetry_Int_Tables_number   1
_chemical_formula_structural   MoS2
_chemical_formula_sum   'Mo2 S4'
_cell_volume   643.35613453
_cell_formula_units_Z   2
loop_
 _symmetry_equiv_pos_site_id
 _symmetry_equiv_pos_as_xyz
  1  'x, y, z'
loop_
 _atom_site_type_symbol
 _atom_site_label
 _atom_site_symmetry_multiplicity
 _atom_site_fract_x
 _atom_site_fract_y
 _atom_site_fract_z
 _atom_site_occupancy
  Mo  Mo0  1  0.31804200  0.50000000  0.11608600  1
  Mo  Mo1  1  0.81804200  0.00000000  0.11608600  1
  S  S2  1  0.49915953  0.00000000  0.15976682  1
  S  S3  1  0.63692547  0.50000000  0.07240618  1
  S  S4  1  -0.00084047  0.50000000  0.15976682  1
  S  S5  1  0.13692547  0.00000000  0.07240618  1
