# generated using pymatgen
data_Nb2CS2
_symmetry_space_group_name_H-M   'P 1'
_cell_length_a   3.30039874
_cell_length_b   3.30039880
_cell_length_c   29.32907500
_cell_angle_alpha   90.00000000
_cell_angle_beta   90.00000000
_cell_angle_gamma   119.99999945
_symmetry_Int_Tables_number   1
_chemical_formula_structural   Nb2CS2
_chemical_formula_sum   'Nb2 C1 S2'
_cell_volume   276.66984949
_cell_formula_units_Z   1
loop_
 _symmetry_equiv_pos_site_id
 _symmetry_equiv_pos_as_xyz
  1  'x, y, z'
loop_
 _atom_site_type_symbol
 _atom_site_label
 _atom_site_symmetry_multiplicity
 _atom_site_fract_x
 _atom_site_fract_y
 _atom_site_fract_z
 _atom_site_occupancy
  Nb  Nb0  1  0.90305000  0.97047900  0.20002312  1
  Nb  Nb1  1  0.56971600  0.30381300  0.11805988  1
  C  C2  1  0.23638300  0.63714600  0.15904100  1
  S  S3  1  0.56971600  0.30381300  0.25608478  1
  S  S4  1  0.90305000  0.97047900  0.06199822  1
