# generated using pymatgen
data_CrSe
_symmetry_space_group_name_H-M   'P 1'
_cell_length_a   3.50524455
_cell_length_b   3.50524455
_cell_length_c   26.32051700
_cell_angle_alpha   90.00000000
_cell_angle_beta   90.00000000
_cell_angle_gamma   90.00000000
_symmetry_Int_Tables_number   1
_chemical_formula_structural   CrSe
_chemical_formula_sum   'Cr2 Se2'
_cell_volume   323.39333121
_cell_formula_units_Z   2
loop_
 _symmetry_equiv_pos_site_id
 _symmetry_equiv_pos_as_xyz
  1  'x, y, z'
loop_
 _atom_site_type_symbol
 _atom_site_label
 _atom_site_symmetry_multiplicity
 _atom_site_fract_x
 _atom_site_fract_y
 _atom_site_fract_z
 _atom_site_occupancy
  Cr  Cr0  1  0.89516600  0.89516600  0.12006800  1
  Cr  Cr1  1  0.39516600  0.39516600  0.12006800  1
  Se  Se2  1  0.89516600  0.39516600  0.18405752  1
  Se  Se3  1  0.39516600  0.89516600  0.05607948  1
