# generated using pymatgen
data_PS
_symmetry_space_group_name_H-M   'P 1'
_cell_length_a   9.77977034
_cell_length_b   8.29821282
_cell_length_c   25.52801013
_cell_angle_alpha   90.00000000
_cell_angle_beta   101.67351628
_cell_angle_gamma   90.00000000
_symmetry_Int_Tables_number   1
_chemical_formula_structural   PS
_chemical_formula_sum   'P8 S8'
_cell_volume   2028.86538944
_cell_formula_units_Z   8
loop_
 _symmetry_equiv_pos_site_id
 _symmetry_equiv_pos_as_xyz
  1  'x, y, z'
loop_
 _atom_site_type_symbol
 _atom_site_label
 _atom_site_symmetry_multiplicity
 _atom_site_fract_x
 _atom_site_fract_y
 _atom_site_fract_z
 _atom_site_occupancy
  P  P0  1  0.97439260  0.81384275  0.21647597  1
  P  P1  1  0.02560740  0.81384275  0.34625003  1
  P  P2  1  0.16143093  0.60893359  0.31396596  1
  P  P3  1  0.83856907  0.60893359  0.24876004  1
  P  P4  1  0.47439260  0.31384275  0.21647597  1
  P  P5  1  0.52560740  0.31384275  0.34625003  1
  P  P6  1  0.66143093  0.10893359  0.31396596  1
  P  P7  1  0.33856907  0.10893359  0.24876004  1
  S  S8  1  0.00000000  0.44310002  0.28136300  1
  S  S9  1  0.00000000  0.97986608  0.28136300  1
  S  S10  1  0.17686632  0.70984061  0.23855824  1
  S  S11  1  0.82313368  0.70984061  0.32416776  1
  S  S12  1  0.50000000  0.94310002  0.28136300  1
  S  S13  1  0.50000000  0.47986608  0.28136300  1
  S  S14  1  0.67686632  0.20984061  0.23855824  1
  S  S15  1  0.32313368  0.20984061  0.32416776  1
