# generated using pymatgen
data_VAg(PSe3)2
_symmetry_space_group_name_H-M   'P 1'
_cell_length_a   6.39259352
_cell_length_b   6.39554889
_cell_length_c   23.51285700
_cell_angle_alpha   86.69756411
_cell_angle_beta   83.38102037
_cell_angle_gamma   60.01527981
_symmetry_Int_Tables_number   1
_chemical_formula_structural   VAg(PSe3)2
_chemical_formula_sum   'V1 Ag1 P2 Se6'
_cell_volume   827.09115071
_cell_formula_units_Z   1
loop_
 _symmetry_equiv_pos_site_id
 _symmetry_equiv_pos_as_xyz
  1  'x, y, z'
loop_
 _atom_site_type_symbol
 _atom_site_label
 _atom_site_symmetry_multiplicity
 _atom_site_fract_x
 _atom_site_fract_y
 _atom_site_fract_z
 _atom_site_occupancy
  Ag  Ag0  1  0.26137149  0.32770901  0.07477400  1
  P  P1  1  0.94861079  0.99326425  0.02713085  1
  P  P2  1  0.90857896  0.99326425  0.12241515  1
  Se  Se3  1  0.31444877  0.67777754  0.00139088  1
  Se  Se4  1  0.85822568  0.67777754  0.14815712  1
  Se  Se5  1  0.25249302  0.95426576  0.14803917  1
  Se  Se6  1  0.64369422  0.95426576  0.00150683  1
  Se  Se7  1  0.58199520  0.34793475  0.14818644  1
  Se  Se8  1  0.92052305  0.34793475  0.00136056  1
  V  V9  1  0.59572681  0.65899838  0.07477400  1
