# generated using pymatgen
data_ScPS4
_symmetry_space_group_name_H-M   'P 1'
_cell_length_a   6.21332787
_cell_length_b   6.46313714
_cell_length_c   27.51791692
_cell_angle_alpha   89.26256492
_cell_angle_beta   89.70445371
_cell_angle_gamma   81.53066000
_symmetry_Int_Tables_number   1
_chemical_formula_structural   ScPS4
_chemical_formula_sum   'Sc2 P2 S8'
_cell_volume   1092.90594465
_cell_formula_units_Z   2
loop_
 _symmetry_equiv_pos_site_id
 _symmetry_equiv_pos_as_xyz
  1  'x, y, z'
loop_
 _atom_site_type_symbol
 _atom_site_label
 _atom_site_symmetry_multiplicity
 _atom_site_fract_x
 _atom_site_fract_y
 _atom_site_fract_z
 _atom_site_occupancy
  Sc  Sc0  1  0.71456509  0.29939183  0.14306425  1
  Sc  Sc1  1  0.30518491  0.89691617  0.11229075  1
  P  P2  1  0.20188736  0.34580462  0.17475163  1
  P  P3  1  0.81786164  0.85050438  0.08060237  1
  S  S4  1  0.91355103  0.88714145  0.15152715  1
  S  S5  1  0.39491534  0.57855942  0.18044760  1
  S  S6  1  0.43182110  0.08772178  0.19057014  1
  S  S7  1  0.93375072  0.37891895  0.21719328  1
  S  S8  1  0.08599928  0.81739005  0.03816072  1
  S  S9  1  0.58792990  0.10858722  0.06478386  1
  S  S10  1  0.62483466  0.61774858  0.07490640  1
  S  S11  1  0.10619897  0.30916655  0.10382685  1
