# generated using pymatgen
data_GaAg(PSe3)2
_symmetry_space_group_name_H-M   'P 1'
_cell_length_a   6.42874520
_cell_length_b   6.42874520
_cell_length_c   23.46718400
_cell_angle_alpha   90.00000000
_cell_angle_beta   90.00000000
_cell_angle_gamma   119.99999317
_symmetry_Int_Tables_number   1
_chemical_formula_structural   GaAg(PSe3)2
_chemical_formula_sum   'Ga1 Ag1 P2 Se6'
_cell_volume   839.93188285
_cell_formula_units_Z   1
loop_
 _symmetry_equiv_pos_site_id
 _symmetry_equiv_pos_as_xyz
  1  'x, y, z'
loop_
 _atom_site_type_symbol
 _atom_site_label
 _atom_site_symmetry_multiplicity
 _atom_site_fract_x
 _atom_site_fract_y
 _atom_site_fract_z
 _atom_site_occupancy
  Ag  Ag0  1  0.33333400  0.66666600  0.07387300  1
  Ga  Ga1  1  0.00000000  0.00000000  0.07387300  1
  P  P2  1  0.66666600  0.33333400  0.12221348  1
  P  P3  1  0.66666600  0.33333400  0.02553252  1
  Se  Se4  1  0.69779568  0.01617444  0.14780190  1
  Se  Se5  1  0.98382556  0.30220432  -0.00005590  1
  Se  Se6  1  0.98382556  0.68162124  0.14780190  1
  Se  Se7  1  0.31837876  0.01617444  -0.00005590  1
  Se  Se8  1  0.69779568  0.68162124  -0.00005590  1
  Se  Se9  1  0.31837876  0.30220432  0.14780190  1
