# generated using pymatgen
data_TlPd2Se3
_symmetry_space_group_name_H-M   'P 1'
_cell_length_a   7.33831626
_cell_length_b   7.33831596
_cell_length_c   26.03371000
_cell_angle_alpha   90.00000000
_cell_angle_beta   90.00000000
_cell_angle_gamma   120.00000134
_symmetry_Int_Tables_number   1
_chemical_formula_structural   TlPd2Se3
_chemical_formula_sum   'Tl2 Pd4 Se6'
_cell_volume   1214.11414952
_cell_formula_units_Z   2
loop_
 _symmetry_equiv_pos_site_id
 _symmetry_equiv_pos_as_xyz
  1  'x, y, z'
loop_
 _atom_site_type_symbol
 _atom_site_label
 _atom_site_symmetry_multiplicity
 _atom_site_fract_x
 _atom_site_fract_y
 _atom_site_fract_z
 _atom_site_occupancy
  Tl  Tl0  1  0.29909800  0.79630400  0.19818961  1
  Tl  Tl1  1  0.96576400  0.12963800  0.03357639  1
  Pd  Pd2  1  0.63243100  0.46297100  0.11588300  1
  Pd  Pd3  1  0.13243100  0.46297100  0.11588300  1
  Pd  Pd4  1  0.63243100  0.96297100  0.11588300  1
  Pd  Pd5  1  0.13243100  0.96297100  0.11588300  1
  Se  Se6  1  0.80128618  0.80068336  0.16705716  1
  Se  Se7  1  0.80128618  0.29411482  0.16705716  1
  Se  Se8  1  0.29471764  0.29411482  0.16705716  1
  Se  Se9  1  0.46357482  0.63182718  0.06470784  1
  Se  Se10  1  0.97014336  0.63182718  0.06470784  1
  Se  Se11  1  0.46357482  0.12525864  0.06470784  1
