# generated using pymatgen
data_PPdS
_symmetry_space_group_name_H-M   'P 1'
_cell_length_a   5.69865496
_cell_length_b   5.73744105
_cell_length_c   28.87993100
_cell_angle_alpha   90.00000000
_cell_angle_beta   90.00000000
_cell_angle_gamma   90.00000000
_symmetry_Int_Tables_number   1
_chemical_formula_structural   PPdS
_chemical_formula_sum   'P4 Pd4 S4'
_cell_volume   944.24947012
_cell_formula_units_Z   4
loop_
 _symmetry_equiv_pos_site_id
 _symmetry_equiv_pos_as_xyz
  1  'x, y, z'
loop_
 _atom_site_type_symbol
 _atom_site_label
 _atom_site_symmetry_multiplicity
 _atom_site_fract_x
 _atom_site_fract_y
 _atom_site_fract_z
 _atom_site_occupancy
  P  P0  1  0.93512142  0.57853031  0.29596315  1
  P  P1  1  0.67120958  0.07853031  0.29596315  1
  P  P2  1  0.93512142  0.51460869  0.21927085  1
  P  P3  1  0.67120958  0.01460869  0.21927085  1
  Pd  Pd4  1  0.55328660  0.45779774  0.30986100  1
  Pd  Pd5  1  0.05304540  0.95779774  0.30986100  1
  Pd  Pd6  1  0.55328660  0.63534026  0.20537300  1
  Pd  Pd7  1  0.05304540  0.13534026  0.20537300  1
  S  S8  1  0.16602918  0.34335526  0.33034085  1
  S  S9  1  0.44030182  0.84335526  0.33034085  1
  S  S10  1  0.44030182  0.24978274  0.18489315  1
  S  S11  1  0.16602918  0.74978274  0.18489315  1
