# generated using pymatgen
data_NdTe3
_symmetry_space_group_name_H-M   'P 1'
_cell_length_a   4.40144558
_cell_length_b   4.40157947
_cell_length_c   32.52241100
_cell_angle_alpha   90.00000000
_cell_angle_beta   90.00000000
_cell_angle_gamma   90.00000000
_symmetry_Int_Tables_number   1
_chemical_formula_structural   NdTe3
_chemical_formula_sum   'Nd2 Te6'
_cell_volume   630.06683216
_cell_formula_units_Z   2
loop_
 _symmetry_equiv_pos_site_id
 _symmetry_equiv_pos_as_xyz
  1  'x, y, z'
loop_
 _atom_site_type_symbol
 _atom_site_label
 _atom_site_symmetry_multiplicity
 _atom_site_fract_x
 _atom_site_fract_y
 _atom_site_fract_z
 _atom_site_occupancy
  Nd  Nd0  1  0.50000000  0.25000000  0.56917394  1
  Nd  Nd1  1  0.00000000  0.75000000  0.70021606  1
  Te  Te2  1  0.50000000  0.25000000  0.67093915  1
  Te  Te3  1  -0.00000000  0.25000000  0.77927523  1
  Te  Te4  1  -0.00000000  0.25000000  0.49012664  1
  Te  Te5  1  0.50000000  0.75000000  0.77926336  1
  Te  Te6  1  -0.00000000  0.75000000  0.59845085  1
  Te  Te7  1  0.50000000  0.75000000  0.49011477  1
