# generated using pymatgen
data_Te2Mo
_symmetry_space_group_name_H-M   'P 1'
_cell_length_a   6.35941717
_cell_length_b   3.47733259
_cell_length_c   35.54031183
_cell_angle_alpha   90.00000000
_cell_angle_beta   91.04329697
_cell_angle_gamma   90.00000000
_symmetry_Int_Tables_number   1
_chemical_formula_structural   Te2Mo
_chemical_formula_sum   'Te4 Mo2'
_cell_volume   785.80136046
_cell_formula_units_Z   2
loop_
 _symmetry_equiv_pos_site_id
 _symmetry_equiv_pos_as_xyz
  1  'x, y, z'
loop_
 _atom_site_type_symbol
 _atom_site_label
 _atom_site_symmetry_multiplicity
 _atom_site_fract_x
 _atom_site_fract_y
 _atom_site_fract_z
 _atom_site_occupancy
  Te  Te0  1  0.54455388  0.25000000  0.16019796  1
  Te  Te1  1  0.39817312  0.75000000  0.27696804  1
  Te  Te2  1  0.03846727  0.75000000  0.17651082  1
  Te  Te3  1  0.90425973  0.25000000  0.26065518  1
  Mo  Mo4  1  0.29091641  0.25000000  0.22128486  1
  Mo  Mo5  1  0.65181059  0.75000000  0.21588014  1
