# generated using pymatgen
data_CrS2
_symmetry_space_group_name_H-M   'P 1'
_cell_length_a   3.29800990
_cell_length_b   3.29791074
_cell_length_c   30.01972800
_cell_angle_alpha   89.99478787
_cell_angle_beta   90.00000000
_cell_angle_gamma   120.00099462
_symmetry_Int_Tables_number   1
_chemical_formula_structural   CrS2
_chemical_formula_sum   'Cr1 S2'
_cell_volume   282.76384767
_cell_formula_units_Z   1
loop_
 _symmetry_equiv_pos_site_id
 _symmetry_equiv_pos_as_xyz
  1  'x, y, z'
loop_
 _atom_site_type_symbol
 _atom_site_label
 _atom_site_symmetry_multiplicity
 _atom_site_fract_x
 _atom_site_fract_y
 _atom_site_fract_z
 _atom_site_occupancy
  Cr  Cr0  1  0.00001728  0.00009600  0.13368400  1
  S  S1  1  0.33333010  0.66672947  0.17953161  1
  S  S2  1  0.66669663  0.33346253  0.08783639  1
