# generated using pymatgen
data_ScAg(PS3)2
_symmetry_space_group_name_H-M   'P 1'
_cell_length_a   6.18651201
_cell_length_b   6.18651236
_cell_length_c   24.57894300
_cell_angle_alpha   90.00000000
_cell_angle_beta   90.00000000
_cell_angle_gamma   120.00000335
_symmetry_Int_Tables_number   1
_chemical_formula_structural   ScAg(PS3)2
_chemical_formula_sum   'Sc1 Ag1 P2 S6'
_cell_volume   814.67720517
_cell_formula_units_Z   1
loop_
 _symmetry_equiv_pos_site_id
 _symmetry_equiv_pos_as_xyz
  1  'x, y, z'
loop_
 _atom_site_type_symbol
 _atom_site_label
 _atom_site_symmetry_multiplicity
 _atom_site_fract_x
 _atom_site_fract_y
 _atom_site_fract_z
 _atom_site_occupancy
  Sc  Sc0  1  0.00000000  0.00000000  0.14828700  1
  Ag  Ag1  1  0.33333300  0.66666700  0.14828700  1
  P  P2  1  0.66666700  0.33333300  0.10284584  1
  P  P3  1  0.66666700  0.33333300  0.19372716  1
  S  S4  1  0.33638667  0.30520068  0.07978794  1
  S  S5  1  0.69479932  0.03118600  0.07978794  1
  S  S6  1  0.96881400  0.66361333  0.07978794  1
  S  S7  1  0.96881400  0.30520068  0.21678606  1
  S  S8  1  0.69479932  0.66361333  0.21678606  1
  S  S9  1  0.33638667  0.03118600  0.21678606  1
