# generated using pymatgen
data_TaSe2
_symmetry_space_group_name_H-M   'P 1'
_cell_length_a   3.47334655
_cell_length_b   6.01576748
_cell_length_c   27.46095700
_cell_angle_alpha   90.00000000
_cell_angle_beta   90.00000000
_cell_angle_gamma   89.99956416
_symmetry_Int_Tables_number   1
_chemical_formula_structural   TaSe2
_chemical_formula_sum   'Ta2 Se4'
_cell_volume   573.79244566
_cell_formula_units_Z   2
loop_
 _symmetry_equiv_pos_site_id
 _symmetry_equiv_pos_as_xyz
  1  'x, y, z'
loop_
 _atom_site_type_symbol
 _atom_site_label
 _atom_site_symmetry_multiplicity
 _atom_site_fract_x
 _atom_site_fract_y
 _atom_site_fract_z
 _atom_site_occupancy
  Ta  Ta0  1  0.52033676  0.80102506  0.95519065  1
  Ta  Ta1  1  0.02033570  0.30107306  0.95518970  1
  Se  Se2  1  0.02032848  0.96772280  0.01623215  1
  Se  Se3  1  0.52032738  0.46771156  0.01623695  1
  Se  Se4  1  0.52032842  0.46770366  0.89414743  1
  Se  Se5  1  0.02032926  0.96770986  0.89415313  1
