# generated using pymatgen
data_CdPS3
_symmetry_space_group_name_H-M   'P 1'
_cell_length_a   6.25899405
_cell_length_b   6.25899473
_cell_length_c   27.03792400
_cell_angle_alpha   90.00000000
_cell_angle_beta   90.00000000
_cell_angle_gamma   120.00000157
_symmetry_Int_Tables_number   1
_chemical_formula_structural   CdPS3
_chemical_formula_sum   'Cd2 P2 S6'
_cell_volume   917.30358802
_cell_formula_units_Z   2
loop_
 _symmetry_equiv_pos_site_id
 _symmetry_equiv_pos_as_xyz
  1  'x, y, z'
loop_
 _atom_site_type_symbol
 _atom_site_label
 _atom_site_symmetry_multiplicity
 _atom_site_fract_x
 _atom_site_fract_y
 _atom_site_fract_z
 _atom_site_occupancy
  Cd  Cd0  1  0.00000000  0.00000000  0.27091201  1
  Cd  Cd1  1  0.33333300  0.66666700  0.27247099  1
  P  P2  1  0.66666700  0.33333300  0.22974323  1
  P  P3  1  0.66666700  0.33333300  0.31363977  1
  S  S4  1  0.35441796  0.01906179  0.20837228  1
  S  S5  1  0.66868917  0.02108496  0.33500972  1
  S  S6  1  0.35239479  0.33131083  0.33500972  1
  S  S7  1  0.98093821  0.33535617  0.20837228  1
  S  S8  1  0.66464383  0.64558204  0.20837228  1
  S  S9  1  0.97891504  0.64760521  0.33500972  1
