# generated using pymatgen
data_SmTe3
_symmetry_space_group_name_H-M   'P 1'
_cell_length_a   4.37739087
_cell_length_b   4.37742268
_cell_length_c   30.27357900
_cell_angle_alpha   90.00000000
_cell_angle_beta   90.00000000
_cell_angle_gamma   90.00000000
_symmetry_Int_Tables_number   1
_chemical_formula_structural   SmTe3
_chemical_formula_sum   'Sm2 Te6'
_cell_volume   580.09293812
_cell_formula_units_Z   2
loop_
 _symmetry_equiv_pos_site_id
 _symmetry_equiv_pos_as_xyz
  1  'x, y, z'
loop_
 _atom_site_type_symbol
 _atom_site_label
 _atom_site_symmetry_multiplicity
 _atom_site_fract_x
 _atom_site_fract_y
 _atom_site_fract_z
 _atom_site_occupancy
  Sm  Sm0  1  0.00000000  0.25000000  0.15588853  1
  Sm  Sm1  1  0.50000000  0.75000000  0.29456347  1
  Te  Te2  1  0.50000000  0.25000000  0.07198133  1
  Te  Te3  1  0.00000000  0.75000000  0.07198827  1
  Te  Te4  1  0.50000000  0.75000000  0.18686179  1
  Te  Te5  1  0.00000000  0.25000000  0.26359021  1
  Te  Te6  1  0.50000000  0.25000000  0.37846373  1
  Te  Te7  1  0.00000000  0.75000000  0.37847067  1
