# generated using pymatgen
data_USe3
_symmetry_space_group_name_H-M   'P 1'
_cell_length_a   5.66448755
_cell_length_b   4.00191387
_cell_length_c   30.13885652
_cell_angle_alpha   90.00000000
_cell_angle_beta   92.50700718
_cell_angle_gamma   90.00000000
_symmetry_Int_Tables_number   1
_chemical_formula_structural   USe3
_chemical_formula_sum   'U2 Se6'
_cell_volume   682.55753280
_cell_formula_units_Z   2
loop_
 _symmetry_equiv_pos_site_id
 _symmetry_equiv_pos_as_xyz
  1  'x, y, z'
loop_
 _atom_site_type_symbol
 _atom_site_label
 _atom_site_symmetry_multiplicity
 _atom_site_fract_x
 _atom_site_fract_y
 _atom_site_fract_z
 _atom_site_occupancy
  U  U0  1  0.57365090  0.01363500  0.23785418  1
  U  U1  1  0.05130110  0.51363500  0.14208282  1
  Se  Se2  1  0.06741380  0.01363500  0.21105505  1
  Se  Se3  1  0.37451633  0.51363500  0.29528969  1
  Se  Se4  1  0.79972992  0.51363500  0.29525133  1
  Se  Se5  1  0.82522208  0.01363500  0.08468667  1
  Se  Se6  1  0.25043567  0.01363500  0.08464731  1
  Se  Se7  1  0.55753820  0.51363500  0.16888195  1
