# generated using pymatgen
data_Mg(AlSe2)2
_symmetry_space_group_name_H-M   'P 1'
_cell_length_a   3.89960234
_cell_length_b   3.89960223
_cell_length_c   31.17124400
_cell_angle_alpha   90.00000000
_cell_angle_beta   90.00000000
_cell_angle_gamma   120.00000101
_symmetry_Int_Tables_number   1
_chemical_formula_structural   Mg(AlSe2)2
_chemical_formula_sum   'Mg1 Al2 Se4'
_cell_volume   410.51156279
_cell_formula_units_Z   1
loop_
 _symmetry_equiv_pos_site_id
 _symmetry_equiv_pos_as_xyz
  1  'x, y, z'
loop_
 _atom_site_type_symbol
 _atom_site_label
 _atom_site_symmetry_multiplicity
 _atom_site_fract_x
 _atom_site_fract_y
 _atom_site_fract_z
 _atom_site_occupancy
  Mg  Mg0  1  0.66666700  0.33333300  0.44026900  1
  Al  Al1  1  0.00000000  0.00000000  0.32013979  1
  Al  Al2  1  0.33333300  0.66666700  0.56039921  1
  Se  Se3  1  0.00000000  0.00000000  0.39412456  1
  Se  Se4  1  0.66666700  0.33333300  0.59470789  1
  Se  Se5  1  0.66666700  0.33333300  0.28583111  1
  Se  Se6  1  0.33333300  0.66666700  0.48641444  1
