# generated using pymatgen
data_TcS2
_symmetry_space_group_name_H-M   'P 1'
_cell_length_a   6.39091260
_cell_length_b   6.49459472
_cell_length_c   27.53992600
_cell_angle_alpha   66.70347454
_cell_angle_beta   77.79092202
_cell_angle_gamma   61.12401083
_symmetry_Int_Tables_number   1
_chemical_formula_structural   TcS2
_chemical_formula_sum   'Tc4 S8'
_cell_volume   919.05355295
_cell_formula_units_Z   4
loop_
 _symmetry_equiv_pos_site_id
 _symmetry_equiv_pos_as_xyz
  1  'x, y, z'
loop_
 _atom_site_type_symbol
 _atom_site_label
 _atom_site_symmetry_multiplicity
 _atom_site_fract_x
 _atom_site_fract_y
 _atom_site_fract_z
 _atom_site_occupancy
  Tc  Tc0  1  0.51108186  0.28584773  0.13740714  1
  Tc  Tc1  1  0.06153829  0.69105038  0.13487745  1
  Tc  Tc2  1  0.93846171  0.30894962  0.13890355  1
  Tc  Tc3  1  0.48891814  0.71415227  0.13637486  1
  S  S4  1  0.32312397  0.17121344  0.08967615  1
  S  S5  1  0.85827688  0.15375473  0.08345983  1
  S  S6  1  0.36154891  0.67158053  0.06847887  1
  S  S7  1  0.82555038  0.70129053  0.07505811  1
  S  S8  1  0.17444962  0.29870947  0.19872389  1
  S  S9  1  0.63845109  0.32841947  0.20530213  1
  S  S10  1  0.14172312  0.84624527  0.19032117  1
  S  S11  1  0.67687603  0.82878656  0.18410485  1
