# generated using pymatgen
data_Tl4SnS3
_symmetry_space_group_name_H-M   'P 1'
_cell_length_a   8.01198358
_cell_length_b   8.01198358
_cell_length_c   26.51139500
_cell_angle_alpha   90.00000000
_cell_angle_beta   90.00000000
_cell_angle_gamma   90.00000000
_symmetry_Int_Tables_number   1
_chemical_formula_structural   Tl4SnS3
_chemical_formula_sum   'Tl8 Sn2 S6'
_cell_volume   1701.81630816
_cell_formula_units_Z   2
loop_
 _symmetry_equiv_pos_site_id
 _symmetry_equiv_pos_as_xyz
  1  'x, y, z'
loop_
 _atom_site_type_symbol
 _atom_site_label
 _atom_site_symmetry_multiplicity
 _atom_site_fract_x
 _atom_site_fract_y
 _atom_site_fract_z
 _atom_site_occupancy
  Tl  Tl0  1  0.40860902  0.89325973  0.05877601  1
  Tl  Tl1  1  0.89325973  0.09139098  0.05877601  1
  Tl  Tl2  1  0.09139098  0.60674027  0.05877601  1
  Tl  Tl3  1  0.60674027  0.40860902  0.05877601  1
  Tl  Tl4  1  0.90860902  0.10674027  0.21490599  1
  Tl  Tl5  1  0.39325973  0.90860902  0.21490599  1
  Tl  Tl6  1  0.59139098  0.39325973  0.21490599  1
  Tl  Tl7  1  0.10674027  0.59139098  0.21490599  1
  Sn  Sn8  1  0.25000000  0.25000000  0.13031873  1
  Sn  Sn9  1  0.75000000  0.75000000  0.14336427  1
  S  S10  1  0.75000000  0.75000000  0.04775205  1
  S  S11  1  0.91714841  0.41714841  0.13684100  1
  S  S12  1  0.58285159  0.08285159  0.13684100  1
  S  S13  1  0.41714841  0.58285159  0.13684100  1
  S  S14  1  0.08285159  0.91714841  0.13684100  1
  S  S15  1  0.25000000  0.25000000  0.22593095  1
