# generated using pymatgen
data_HfSe3
_symmetry_space_group_name_H-M   'P 1'
_cell_length_a   5.43752761
_cell_length_b   3.73355217
_cell_length_c   30.85860800
_cell_angle_alpha   90.00000000
_cell_angle_beta   97.74001823
_cell_angle_gamma   90.00000000
_symmetry_Int_Tables_number   1
_chemical_formula_structural   HfSe3
_chemical_formula_sum   'Hf2 Se6'
_cell_volume   620.76211329
_cell_formula_units_Z   2
loop_
 _symmetry_equiv_pos_site_id
 _symmetry_equiv_pos_as_xyz
  1  'x, y, z'
loop_
 _atom_site_type_symbol
 _atom_site_label
 _atom_site_symmetry_multiplicity
 _atom_site_fract_x
 _atom_site_fract_y
 _atom_site_fract_z
 _atom_site_occupancy
  Hf  Hf0  1  0.21301784  0.25000000  0.11141357  1
  Hf  Hf1  1  0.78698216  0.75000000  0.20806243  1
  Se  Se2  1  0.95253392  0.75000000  0.05860582  1
  Se  Se3  1  0.39311524  0.75000000  0.05867160  1
  Se  Se4  1  0.73749676  0.25000000  0.14335704  1
  Se  Se5  1  0.26250324  0.75000000  0.17611896  1
  Se  Se6  1  0.60688476  0.25000000  0.26080540  1
  Se  Se7  1  0.04746608  0.25000000  0.26087118  1
