# generated using pymatgen
data_ZrS3
_symmetry_space_group_name_H-M   'P 1'
_cell_length_a   5.17219909
_cell_length_b   3.64476896
_cell_length_c   30.70439212
_cell_angle_alpha   90.00000000
_cell_angle_beta   92.12041586
_cell_angle_gamma   90.00000000
_symmetry_Int_Tables_number   1
_chemical_formula_structural   ZrS3
_chemical_formula_sum   'Zr2 S6'
_cell_volume   578.42661195
_cell_formula_units_Z   2
loop_
 _symmetry_equiv_pos_site_id
 _symmetry_equiv_pos_as_xyz
  1  'x, y, z'
loop_
 _atom_site_type_symbol
 _atom_site_label
 _atom_site_symmetry_multiplicity
 _atom_site_fract_x
 _atom_site_fract_y
 _atom_site_fract_z
 _atom_site_occupancy
  Zr  Zr0  1  0.66492271  0.25000000  0.11251426  1
  Zr  Zr1  1  0.18474929  0.75000000  0.20307574  1
  S  S2  1  0.99449262  0.25000000  0.25453282  1
  S  S3  1  0.85517938  0.75000000  0.06105718  1
  S  S4  1  0.67831901  0.75000000  0.17370921  1
  S  S5  1  0.17135299  0.25000000  0.14188079  1
  S  S6  1  0.45208084  0.75000000  0.06106026  1
  S  S7  1  0.39759116  0.25000000  0.25452974  1
