# generated using pymatgen
data_DyBC
_symmetry_space_group_name_H-M   'P 1'
_cell_length_a   3.50693611
_cell_length_b   3.49570233
_cell_length_c   29.67424858
_cell_angle_alpha   90.00000000
_cell_angle_beta   102.10013367
_cell_angle_gamma   90.00000000
_symmetry_Int_Tables_number   1
_chemical_formula_structural   DyBC
_chemical_formula_sum   'Dy2 B2 C2'
_cell_volume   355.70043656
_cell_formula_units_Z   2
loop_
 _symmetry_equiv_pos_site_id
 _symmetry_equiv_pos_as_xyz
  1  'x, y, z'
loop_
 _atom_site_type_symbol
 _atom_site_label
 _atom_site_symmetry_multiplicity
 _atom_site_fract_x
 _atom_site_fract_y
 _atom_site_fract_z
 _atom_site_occupancy
  Dy  Dy0  1  0.14215227  0.00000000  0.10141465  1
  Dy  Dy1  1  0.98775773  0.00000000  0.22798535  1
  B  B2  1  0.68599355  0.50000000  0.14360694  1
  B  B3  1  0.44391745  0.50000000  0.18579306  1
  C  C4  1  0.63213141  0.50000000  0.09371181  1
  C  C5  1  0.49777959  0.50000000  0.23568819  1
