# generated using pymatgen
data_SiP2
_symmetry_space_group_name_H-M   'P 1'
_cell_length_a   3.46975550
_cell_length_b   10.09757135
_cell_length_c   35.96494200
_cell_angle_alpha   90.00000000
_cell_angle_beta   90.00000000
_cell_angle_gamma   90.00000000
_symmetry_Int_Tables_number   1
_chemical_formula_structural   SiP2
_chemical_formula_sum   'Si4 P8'
_cell_volume   1260.07143713
_cell_formula_units_Z   4
loop_
 _symmetry_equiv_pos_site_id
 _symmetry_equiv_pos_as_xyz
  1  'x, y, z'
loop_
 _atom_site_type_symbol
 _atom_site_label
 _atom_site_symmetry_multiplicity
 _atom_site_fract_x
 _atom_site_fract_y
 _atom_site_fract_z
 _atom_site_occupancy
  Si  Si0  1  0.00000000  0.41304895  0.07235941  1
  Si  Si1  1  0.50000000  0.69657431  0.10254338  1
  Si  Si2  1  0.50000000  0.19657431  0.11940762  1
  Si  Si3  1  0.00000000  0.91304895  0.14959259  1
  P  P4  1  0.00000000  0.23568872  0.03262364  1
  P  P5  1  0.50000000  0.11865490  0.05767341  1
  P  P6  1  0.50000000  0.54411212  0.05556889  1
  P  P7  1  0.00000000  0.83524899  0.09008148  1
  P  P8  1  0.00000000  0.33524899  0.13187052  1
  P  P9  1  0.50000000  0.04411212  0.16638211  1
  P  P10  1  0.50000000  0.61865490  0.16427759  1
  P  P11  1  0.00000000  0.73568872  0.18932836  1
