# generated using pymatgen
data_Zr2Te2P
_symmetry_space_group_name_H-M   'P 1'
_cell_length_a   3.84475699
_cell_length_b   3.84475710
_cell_length_c   30.47990000
_cell_angle_alpha   90.00000000
_cell_angle_beta   90.00000000
_cell_angle_gamma   119.99982267
_symmetry_Int_Tables_number   1
_chemical_formula_structural   Zr2Te2P
_chemical_formula_sum   'Zr2 Te2 P1'
_cell_volume   390.19594210
_cell_formula_units_Z   1
loop_
 _symmetry_equiv_pos_site_id
 _symmetry_equiv_pos_as_xyz
  1  'x, y, z'
loop_
 _atom_site_type_symbol
 _atom_site_label
 _atom_site_symmetry_multiplicity
 _atom_site_fract_x
 _atom_site_fract_y
 _atom_site_fract_z
 _atom_site_occupancy
  P  P0  1  0.33334249  0.66665751  0.66667934  1
  Te  Te1  1  0.66666771  0.33333229  0.55693785  1
  Te  Te2  1  0.00000279  -0.00000279  0.77642149  1
  Zr  Zr3  1  0.00001674  -0.00001674  0.61926363  1
  Zr  Zr4  1  0.66667027  0.33332973  0.71409770  1
