# generated using pymatgen
data_Te2Mo
_symmetry_space_group_name_H-M   'P 1'
_cell_length_a   3.47783293
_cell_length_b   6.35848359
_cell_length_c   33.31351800
_cell_angle_alpha   90.00000000
_cell_angle_beta   90.00000000
_cell_angle_gamma   90.00000000
_symmetry_Int_Tables_number   1
_chemical_formula_structural   Te2Mo
_chemical_formula_sum   'Te4 Mo2'
_cell_volume   736.68659496
_cell_formula_units_Z   2
loop_
 _symmetry_equiv_pos_site_id
 _symmetry_equiv_pos_as_xyz
  1  'x, y, z'
loop_
 _atom_site_type_symbol
 _atom_site_label
 _atom_site_symmetry_multiplicity
 _atom_site_fract_x
 _atom_site_fract_y
 _atom_site_fract_z
 _atom_site_occupancy
  Mo  Mo0  1  0.00000000  0.60211775  0.19994117  1
  Mo  Mo1  1  0.50000000  0.96352096  0.20572836  1
  Te  Te2  1  0.00000000  0.86193952  0.26511414  1
  Te  Te3  1  0.50000000  0.35425646  0.24770252  1
  Te  Te4  1  0.50000000  0.70370429  0.14054758  1
  Te  Te5  1  0.00000000  0.21138102  0.15795923  1
