# generated using pymatgen
data_FeBr2
_symmetry_space_group_name_H-M   'P 1'
_cell_length_a   3.69348417
_cell_length_b   3.69348478
_cell_length_c   26.55784100
_cell_angle_alpha   90.00000000
_cell_angle_beta   90.00000000
_cell_angle_gamma   120.00000330
_symmetry_Int_Tables_number   1
_chemical_formula_structural   FeBr2
_chemical_formula_sum   'Fe1 Br2'
_cell_volume   313.75881714
_cell_formula_units_Z   1
loop_
 _symmetry_equiv_pos_site_id
 _symmetry_equiv_pos_as_xyz
  1  'x, y, z'
loop_
 _atom_site_type_symbol
 _atom_site_label
 _atom_site_symmetry_multiplicity
 _atom_site_fract_x
 _atom_site_fract_y
 _atom_site_fract_z
 _atom_site_occupancy
  Fe  Fe0  1  0.38734000  0.01560400  0.12346300  1
  Br  Br1  1  0.72067300  0.68227000  0.18027248  1
  Br  Br2  1  0.05400800  0.34893700  0.06665452  1
