# generated using pymatgen
data_Al2Te5
_symmetry_space_group_name_H-M   'P 1'
_cell_length_a   4.18761565
_cell_length_b   8.29322661
_cell_length_c   24.09995800
_cell_angle_alpha   95.87875540
_cell_angle_beta   90.00000000
_cell_angle_gamma   104.62384642
_symmetry_Int_Tables_number   1
_chemical_formula_structural   Al2Te5
_chemical_formula_sum   'Al2 Te5'
_cell_volume   805.29969241
_cell_formula_units_Z   1
loop_
 _symmetry_equiv_pos_site_id
 _symmetry_equiv_pos_as_xyz
  1  'x, y, z'
loop_
 _atom_site_type_symbol
 _atom_site_label
 _atom_site_symmetry_multiplicity
 _atom_site_fract_x
 _atom_site_fract_y
 _atom_site_fract_z
 _atom_site_occupancy
  Al  Al0  1  0.29984750  0.59969501  0.04226195  1
  Al  Al1  1  0.70015250  0.40030499  0.12786105  1
  Te  Te2  1  0.43991466  0.87982932  -0.00216610  1
  Te  Te3  1  0.30298849  0.60597698  0.15448693  1
  Te  Te4  1  0.69701151  0.39402302  0.01563607  1
  Te  Te5  1  0.00000000  0.00000000  0.08506200  1
  Te  Te6  1  0.56008534  0.12017068  0.17228910  1
