# generated using pymatgen
data_InS
_symmetry_space_group_name_H-M   'P 1'
_cell_length_a   3.92568920
_cell_length_b   3.92620589
_cell_length_c   25.67770000
_cell_angle_alpha   90.00000000
_cell_angle_beta   90.00000000
_cell_angle_gamma   90.00000000
_symmetry_Int_Tables_number   1
_chemical_formula_structural   InS
_chemical_formula_sum   'In2 S2'
_cell_volume   395.77203447
_cell_formula_units_Z   2
loop_
 _symmetry_equiv_pos_site_id
 _symmetry_equiv_pos_as_xyz
  1  'x, y, z'
loop_
 _atom_site_type_symbol
 _atom_site_label
 _atom_site_symmetry_multiplicity
 _atom_site_fract_x
 _atom_site_fract_y
 _atom_site_fract_z
 _atom_site_occupancy
  In  In0  1  0.50000000  0.54446799  0.15565148  1
  In  In1  1  0.00000000  0.04446799  0.05226552  1
  S  S2  1  0.50000000  0.54453201  0.04641747  1
  S  S3  1  0.00000000  0.04453201  0.16149953  1
