# generated using pymatgen
data_ScCl3
_symmetry_space_group_name_H-M   'P 1'
_cell_length_a   6.37300424
_cell_length_b   6.37300457
_cell_length_c   25.32475300
_cell_angle_alpha   90.00000000
_cell_angle_beta   90.00000000
_cell_angle_gamma   119.99999829
_symmetry_Int_Tables_number   1
_chemical_formula_structural   ScCl3
_chemical_formula_sum   'Sc2 Cl6'
_cell_volume   890.76736083
_cell_formula_units_Z   2
loop_
 _symmetry_equiv_pos_site_id
 _symmetry_equiv_pos_as_xyz
  1  'x, y, z'
loop_
 _atom_site_type_symbol
 _atom_site_label
 _atom_site_symmetry_multiplicity
 _atom_site_fract_x
 _atom_site_fract_y
 _atom_site_fract_z
 _atom_site_occupancy
  Sc  Sc0  1  0.33333300  0.66666700  0.25434831  1
  Sc  Sc1  1  0.00000000  0.00000000  0.25437069  1
  Cl  Cl2  1  0.02402463  0.33331359  0.19829550  1
  Cl  Cl3  1  0.30928896  0.97597537  0.19829550  1
  Cl  Cl4  1  0.66668641  0.69071104  0.19829550  1
  Cl  Cl5  1  0.66664759  0.97595596  0.31042350  1
  Cl  Cl6  1  0.02404404  0.69069163  0.31042350  1
  Cl  Cl7  1  0.30930837  0.33335241  0.31042350  1
