# generated using pymatgen
data_TeO2
_symmetry_space_group_name_H-M   'P 1'
_cell_length_a   5.18149197
_cell_length_b   5.71279028
_cell_length_c   24.12597600
_cell_angle_alpha   90.00000000
_cell_angle_beta   90.00000000
_cell_angle_gamma   90.00000000
_symmetry_Int_Tables_number   1
_chemical_formula_structural   TeO2
_chemical_formula_sum   'Te4 O8'
_cell_volume   714.14763481
_cell_formula_units_Z   4
loop_
 _symmetry_equiv_pos_site_id
 _symmetry_equiv_pos_as_xyz
  1  'x, y, z'
loop_
 _atom_site_type_symbol
 _atom_site_label
 _atom_site_symmetry_multiplicity
 _atom_site_fract_x
 _atom_site_fract_y
 _atom_site_fract_z
 _atom_site_occupancy
  O  O0  1  0.68990289  0.43603700  0.00187136  1
  O  O1  1  0.81009711  0.93603700  0.00187136  1
  O  O2  1  0.64574941  0.16776139  0.10057262  1
  O  O3  1  0.35425059  0.83223861  0.07044538  1
  O  O4  1  0.14574941  0.33223861  0.07044538  1
  O  O5  1  0.85425059  0.66776139  0.10057262  1
  O  O6  1  0.18990289  0.06396300  0.16914664  1
  O  O7  1  0.31009711  0.56396300  0.16914664  1
  Te  Te8  1  0.52123548  0.13171591  0.02564730  1
  Te  Te9  1  0.97876452  0.63171591  0.02564730  1
  Te  Te10  1  0.47876452  0.86828409  0.14537170  1
  Te  Te11  1  0.02123548  0.36828409  0.14537170  1
