# generated using pymatgen
data_U(OF)2
_symmetry_space_group_name_H-M   'P 1'
_cell_length_a   4.21769045
_cell_length_b   4.21769105
_cell_length_c   26.90242300
_cell_angle_alpha   90.00000000
_cell_angle_beta   90.00000000
_cell_angle_gamma   120.00000299
_symmetry_Int_Tables_number   1
_chemical_formula_structural   U(OF)2
_chemical_formula_sum   'U1 O2 F2'
_cell_volume   414.44936747
_cell_formula_units_Z   1
loop_
 _symmetry_equiv_pos_site_id
 _symmetry_equiv_pos_as_xyz
  1  'x, y, z'
loop_
 _atom_site_type_symbol
 _atom_site_label
 _atom_site_symmetry_multiplicity
 _atom_site_fract_x
 _atom_site_fract_y
 _atom_site_fract_z
 _atom_site_occupancy
  U  U0  1  0.33333300  0.66666700  0.41885800  1
  O  O1  1  0.33333300  0.66666700  0.35252901  1
  O  O2  1  0.33333300  0.66666700  0.48518599  1
  F  F3  1  -0.00000000  -0.00000000  0.41883434  1
  F  F4  1  0.66666700  0.33333300  0.41888066  1
