# generated using pymatgen
data_Sn(SbTe2)2
_symmetry_space_group_name_H-M   'P 1'
_cell_length_a   4.36610242
_cell_length_b   4.36610259
_cell_length_c   32.47600200
_cell_angle_alpha   90.00000000
_cell_angle_beta   90.00000000
_cell_angle_gamma   120.00012131
_symmetry_Int_Tables_number   1
_chemical_formula_structural   Sn(SbTe2)2
_chemical_formula_sum   'Sn1 Sb2 Te4'
_cell_volume   536.14284624
_cell_formula_units_Z   1
loop_
 _symmetry_equiv_pos_site_id
 _symmetry_equiv_pos_as_xyz
  1  'x, y, z'
loop_
 _atom_site_type_symbol
 _atom_site_label
 _atom_site_symmetry_multiplicity
 _atom_site_fract_x
 _atom_site_fract_y
 _atom_site_fract_z
 _atom_site_occupancy
  Sb  Sb0  1  -0.00000574  0.00000574  0.75068865  1
  Sb  Sb1  1  0.66665974  0.33334026  0.99321377  1
  Sn  Sn2  1  0.33332843  0.66667157  0.87195943  1
  Te  Te3  1  0.33332420  0.66667580  0.69915640  1
  Te  Te4  1  0.33332987  0.66667013  0.04474886  1
  Te  Te5  1  0.00000671  -0.00000671  0.93130299  1
  Te  Te6  1  0.66665679  0.33334321  0.81259889  1
