# generated using pymatgen
data_PI2
_symmetry_space_group_name_H-M   'P 1'
_cell_length_a   4.38816225
_cell_length_b   7.33518296
_cell_length_c   27.56439543
_cell_angle_alpha   87.49704119
_cell_angle_beta   87.13673213
_cell_angle_gamma   74.81231437
_symmetry_Int_Tables_number   1
_chemical_formula_structural   PI2
_chemical_formula_sum   'P2 I4'
_cell_volume   854.75357125
_cell_formula_units_Z   2
loop_
 _symmetry_equiv_pos_site_id
 _symmetry_equiv_pos_as_xyz
  1  'x, y, z'
loop_
 _atom_site_type_symbol
 _atom_site_label
 _atom_site_symmetry_multiplicity
 _atom_site_fract_x
 _atom_site_fract_y
 _atom_site_fract_z
 _atom_site_occupancy
  P  P0  1  -0.02997527  0.59498255  0.05772480  1
  P  P1  1  0.27126727  0.53889145  0.12382120  1
  I  I2  1  0.88236595  0.77782147  0.17399300  1
  I  I3  1  0.11326755  0.89470994  0.03254922  1
  I  I4  1  0.12802445  0.23916306  0.14899678  1
  I  I5  1  0.35892505  0.35605153  0.00755300  1
