# generated using pymatgen
data_IrBr3
_symmetry_space_group_name_H-M   'P 1'
_cell_length_a   6.40394580
_cell_length_b   11.09431356
_cell_length_c   26.73572350
_cell_angle_alpha   90.00000000
_cell_angle_beta   94.40878182
_cell_angle_gamma   90.00000000
_symmetry_Int_Tables_number   1
_chemical_formula_structural   IrBr3
_chemical_formula_sum   'Ir4 Br12'
_cell_volume   1893.88251480
_cell_formula_units_Z   4
loop_
 _symmetry_equiv_pos_site_id
 _symmetry_equiv_pos_as_xyz
  1  'x, y, z'
loop_
 _atom_site_type_symbol
 _atom_site_label
 _atom_site_symmetry_multiplicity
 _atom_site_fract_x
 _atom_site_fract_y
 _atom_site_fract_z
 _atom_site_occupancy
  Ir  Ir0  1  0.90560800  0.97758318  0.16387700  1
  Ir  Ir1  1  0.90560800  0.64424982  0.16387700  1
  Ir  Ir2  1  0.40560900  0.47758318  0.16387800  1
  Ir  Ir3  1  0.40560900  0.14425082  0.16387800  1
  Br  Br4  1  0.09742599  0.48585395  0.21657965  1
  Br  Br5  1  0.09742599  0.13598005  0.21657965  1
  Br  Br6  1  0.07269292  0.81091700  0.21657376  1
  Br  Br7  1  0.59742599  0.98585395  0.21657965  1
  Br  Br8  1  0.59742599  0.63598005  0.21657965  1
  Br  Br9  1  0.57269192  0.31091600  0.21657376  1
  Br  Br10  1  0.23852508  0.31091600  0.11118124  1
  Br  Br11  1  0.21379201  0.98585395  0.11117535  1
  Br  Br12  1  0.21379201  0.63598005  0.11117535  1
  Br  Br13  1  0.73852508  0.81091700  0.11118124  1
  Br  Br14  1  0.71379101  0.48585395  0.11117535  1
  Br  Br15  1  0.71379101  0.13598005  0.11117535  1
