# generated using pymatgen
data_RhBr3
_symmetry_space_group_name_H-M   'P 1'
_cell_length_a   6.33919493
_cell_length_b   10.97953284
_cell_length_c   26.50782883
_cell_angle_alpha   90.00000000
_cell_angle_beta   94.60896303
_cell_angle_gamma   90.00000000
_symmetry_Int_Tables_number   1
_chemical_formula_structural   RhBr3
_chemical_formula_sum   'Rh4 Br12'
_cell_volume   1839.01588769
_cell_formula_units_Z   4
loop_
 _symmetry_equiv_pos_site_id
 _symmetry_equiv_pos_as_xyz
  1  'x, y, z'
loop_
 _atom_site_type_symbol
 _atom_site_label
 _atom_site_symmetry_multiplicity
 _atom_site_fract_x
 _atom_site_fract_y
 _atom_site_fract_z
 _atom_site_occupancy
  Rh  Rh0  1  0.88475700  0.63720363  0.16251500  1
  Rh  Rh1  1  0.88475700  0.97053237  0.16251500  1
  Rh  Rh2  1  0.38475700  0.13720363  0.16251500  1
  Rh  Rh3  1  0.38475700  0.47053137  0.16251500  1
  Br  Br4  1  0.07759156  0.12903105  0.21606408  1
  Br  Br5  1  0.07759156  0.47870495  0.21606408  1
  Br  Br6  1  0.05310072  0.80386700  0.21606675  1
  Br  Br7  1  0.57759156  0.62903105  0.21606508  1
  Br  Br8  1  0.57759156  0.97870495  0.21606508  1
  Br  Br9  1  0.55310072  0.30386700  0.21606675  1
  Br  Br10  1  0.21641328  0.30386700  0.10896425  1
  Br  Br11  1  0.19192244  0.62903105  0.10896592  1
  Br  Br12  1  0.19192244  0.97870495  0.10896592  1
  Br  Br13  1  0.71641328  0.80386700  0.10896425  1
  Br  Br14  1  0.69192244  0.12903105  0.10896592  1
  Br  Br15  1  0.69192244  0.47870495  0.10896592  1
