# generated using pymatgen
data_AuSe
_symmetry_space_group_name_H-M   'P 1'
_cell_length_a   6.06956426
_cell_length_b   3.68754037
_cell_length_c   25.31279422
_cell_angle_alpha   90.00000000
_cell_angle_beta   94.89117976
_cell_angle_gamma   90.00000000
_symmetry_Int_Tables_number   1
_chemical_formula_structural   AuSe
_chemical_formula_sum   'Au2 Se2'
_cell_volume   564.48185643
_cell_formula_units_Z   2
loop_
 _symmetry_equiv_pos_site_id
 _symmetry_equiv_pos_as_xyz
  1  'x, y, z'
loop_
 _atom_site_type_symbol
 _atom_site_label
 _atom_site_symmetry_multiplicity
 _atom_site_fract_x
 _atom_site_fract_y
 _atom_site_fract_z
 _atom_site_occupancy
  Au  Au0  1  0.38720700  0.00000000  0.18279900  1
  Au  Au1  1  0.88720700  0.50000000  0.18279900  1
  Se  Se2  1  0.19887785  0.50000000  0.12859642  1
  Se  Se3  1  0.57553715  0.50000000  0.23700158  1
