# generated using pymatgen
data_LuHCl
_symmetry_space_group_name_H-M   'P 1'
_cell_length_a   3.62283252
_cell_length_b   3.62283236
_cell_length_c   27.70347200
_cell_angle_alpha   90.00000000
_cell_angle_beta   90.00000000
_cell_angle_gamma   119.99999253
_symmetry_Int_Tables_number   1
_chemical_formula_structural   LuHCl
_chemical_formula_sum   'Lu2 H2 Cl2'
_cell_volume   314.89180725
_cell_formula_units_Z   2
loop_
 _symmetry_equiv_pos_site_id
 _symmetry_equiv_pos_as_xyz
  1  'x, y, z'
loop_
 _atom_site_type_symbol
 _atom_site_label
 _atom_site_symmetry_multiplicity
 _atom_site_fract_x
 _atom_site_fract_y
 _atom_site_fract_z
 _atom_site_occupancy
  Lu  Lu0  1  0.00000000  0.00000000  0.11926511  1
  Lu  Lu1  1  0.66666700  0.33333300  0.21406789  1
  H  H2  1  0.66666700  0.33333300  0.13744747  1
  H  H3  1  0.00000000  0.00000000  0.19588553  1
  Cl  Cl4  1  0.33333300  0.66666700  0.05876575  1
  Cl  Cl5  1  0.33333300  0.66666700  0.27456725  1
