# generated using pymatgen
data_TiNCl
_symmetry_space_group_name_H-M   'P 1'
_cell_length_a   3.27128343
_cell_length_b   3.94907453
_cell_length_c   28.40248700
_cell_angle_alpha   90.00000000
_cell_angle_beta   90.00000000
_cell_angle_gamma   90.00000000
_symmetry_Int_Tables_number   1
_chemical_formula_structural   TiNCl
_chemical_formula_sum   'Ti2 N2 Cl2'
_cell_volume   366.91872409
_cell_formula_units_Z   2
loop_
 _symmetry_equiv_pos_site_id
 _symmetry_equiv_pos_as_xyz
  1  'x, y, z'
loop_
 _atom_site_type_symbol
 _atom_site_label
 _atom_site_symmetry_multiplicity
 _atom_site_fract_x
 _atom_site_fract_y
 _atom_site_fract_z
 _atom_site_occupancy
  Ti  Ti0  1  0.28268100  0.05913100  0.17537964  1
  Ti  Ti1  1  0.78268100  0.55913100  0.12045636  1
  N  N2  1  0.28268100  0.55913100  0.16130945  1
  N  N3  1  0.78268100  0.05913100  0.13452655  1
  Cl  Cl4  1  0.78268100  0.05913100  0.24003325  1
  Cl  Cl5  1  0.28268100  0.55913100  0.05580375  1
