# generated using pymatgen
data_BiTeCl
_symmetry_space_group_name_H-M   'P 1'
_cell_length_a   4.27841469
_cell_length_b   4.27841423
_cell_length_c   28.14164500
_cell_angle_alpha   90.00000000
_cell_angle_beta   90.00000000
_cell_angle_gamma   119.99999595
_symmetry_Int_Tables_number   1
_chemical_formula_structural   BiTeCl
_chemical_formula_sum   'Bi1 Te1 Cl1'
_cell_volume   446.11398428
_cell_formula_units_Z   1
loop_
 _symmetry_equiv_pos_site_id
 _symmetry_equiv_pos_as_xyz
  1  'x, y, z'
loop_
 _atom_site_type_symbol
 _atom_site_label
 _atom_site_symmetry_multiplicity
 _atom_site_fract_x
 _atom_site_fract_y
 _atom_site_fract_z
 _atom_site_occupancy
  Bi  Bi0  1  0.33333300  0.66666700  0.06810908  1
  Te  Te1  1  0.66666700  0.33333300  0.13170400  1
  Cl  Cl2  1  0.00000000  0.00000000  0.01028891  1
