# generated using pymatgen
data_BiClO
_symmetry_space_group_name_H-M   'P 1'
_cell_length_a   3.88446720
_cell_length_b   3.88446720
_cell_length_c   29.82779100
_cell_angle_alpha   90.00000000
_cell_angle_beta   90.00000000
_cell_angle_gamma   90.00000167
_symmetry_Int_Tables_number   1
_chemical_formula_structural   BiClO
_chemical_formula_sum   'Bi2 Cl2 O2'
_cell_volume   450.07408702
_cell_formula_units_Z   2
loop_
 _symmetry_equiv_pos_site_id
 _symmetry_equiv_pos_as_xyz
  1  'x, y, z'
loop_
 _atom_site_type_symbol
 _atom_site_label
 _atom_site_symmetry_multiplicity
 _atom_site_fract_x
 _atom_site_fract_y
 _atom_site_fract_z
 _atom_site_occupancy
  Bi  Bi0  1  0.50000599  0.00000601  0.17444200  1
  Bi  Bi1  1  0.00000601  0.50000599  0.08799100  1
  Cl  Cl2  1  0.00000602  0.50000598  0.22115881  1
  Cl  Cl3  1  0.50000598  0.00000602  0.04127419  1
  O  O4  1  0.00000600  0.00000600  0.13121600  1
  O  O5  1  0.50000600  0.50000600  0.13121600  1
