# generated using pymatgen
data_Te4O9
_symmetry_space_group_name_H-M   'P 1'
_cell_length_a   9.42211494
_cell_length_b   9.42211454
_cell_length_c   22.77785800
_cell_angle_alpha   90.00000000
_cell_angle_beta   90.00000000
_cell_angle_gamma   120.00000141
_symmetry_Int_Tables_number   1
_chemical_formula_structural   Te4O9
_chemical_formula_sum   'Te8 O18'
_cell_volume   1751.21828688
_cell_formula_units_Z   2
loop_
 _symmetry_equiv_pos_site_id
 _symmetry_equiv_pos_as_xyz
  1  'x, y, z'
loop_
 _atom_site_type_symbol
 _atom_site_label
 _atom_site_symmetry_multiplicity
 _atom_site_fract_x
 _atom_site_fract_y
 _atom_site_fract_z
 _atom_site_occupancy
  Te  Te0  1  0.33333300  0.66666700  0.51223385  1
  Te  Te1  1  0.68559781  0.06577078  0.55074055  1
  Te  Te2  1  0.38017197  0.31440219  0.55074055  1
  Te  Te3  1  0.93422922  0.61982803  0.55074055  1
  Te  Te4  1  0.39910378  0.04683897  0.44926045  1
  Te  Te5  1  0.64773519  0.60089622  0.44926045  1
  Te  Te6  1  0.95316103  0.35226481  0.44926045  1
  Te  Te7  1  0.00000000  0.00000000  0.48776715  1
  O  O8  1  0.48682785  0.84337253  0.56136355  1
  O  O9  1  0.35654568  0.51317215  0.56136355  1
  O  O10  1  0.15662747  0.64345432  0.56136355  1
  O  O11  1  0.29819207  0.81170351  0.45796844  1
  O  O12  1  0.51351044  0.70180793  0.45796844  1
  O  O13  1  0.18829649  0.48648956  0.45796844  1
  O  O14  1  0.84650615  0.82329347  0.43863645  1
  O  O15  1  0.97678832  0.15349385  0.43863645  1
  O  O16  1  0.17670653  0.02321168  0.43863645  1
  O  O17  1  0.03514093  0.85496349  0.54203256  1
  O  O18  1  0.81982256  0.96485907  0.54203256  1
  O  O19  1  0.14503651  0.18017744  0.54203256  1
  O  O20  1  0.40981498  0.10754771  0.53026425  1
  O  O21  1  0.69773274  0.59018502  0.53026425  1
  O  O22  1  0.89245229  0.30226726  0.53026425  1
  O  O23  1  0.92351802  0.55911929  0.46973675  1
  O  O24  1  0.63560026  0.07648198  0.46973675  1
  O  O25  1  0.44088071  0.36439974  0.46973675  1
