# generated using pymatgen
data_RhCl3
_symmetry_space_group_name_H-M   'P 1'
_cell_length_a   6.00615582
_cell_length_b   10.40308131
_cell_length_c   26.27319818
_cell_angle_alpha   90.00000000
_cell_angle_beta   94.36797781
_cell_angle_gamma   90.00000000
_symmetry_Int_Tables_number   1
_chemical_formula_structural   RhCl3
_chemical_formula_sum   'Rh4 Cl12'
_cell_volume   1636.84770953
_cell_formula_units_Z   4
loop_
 _symmetry_equiv_pos_site_id
 _symmetry_equiv_pos_as_xyz
  1  'x, y, z'
loop_
 _atom_site_type_symbol
 _atom_site_label
 _atom_site_symmetry_multiplicity
 _atom_site_fract_x
 _atom_site_fract_y
 _atom_site_fract_z
 _atom_site_occupancy
  Rh  Rh0  1  0.89425700  0.97575986  0.15701900  1
  Rh  Rh1  1  0.89425700  0.64241814  0.15701900  1
  Rh  Rh2  1  0.39425700  0.47575986  0.15701900  1
  Rh  Rh3  1  0.39425700  0.14241814  0.15701900  1
  Cl  Cl4  1  0.08589847  0.48393515  0.20744795  1
  Cl  Cl5  1  0.08589847  0.13424385  0.20744795  1
  Cl  Cl6  1  0.06132515  0.80908900  0.20745097  1
  Cl  Cl7  1  0.58589847  0.98393415  0.20744795  1
  Cl  Cl8  1  0.58589847  0.63424385  0.20744795  1
  Cl  Cl9  1  0.56132515  0.30909000  0.20745097  1
  Cl  Cl10  1  0.22718785  0.30909000  0.10658803  1
  Cl  Cl11  1  0.20261453  0.98393415  0.10659105  1
  Cl  Cl12  1  0.20261453  0.63424385  0.10659105  1
  Cl  Cl13  1  0.72718785  0.80908900  0.10658803  1
  Cl  Cl14  1  0.70261453  0.48393515  0.10659105  1
  Cl  Cl15  1  0.70261453  0.13424385  0.10659105  1
