# generated using pymatgen
data_TeRhCl
_symmetry_space_group_name_H-M   'P 1'
_cell_length_a   6.63481521
_cell_length_b   3.69031518
_cell_length_c   27.75782958
_cell_angle_alpha   90.00000000
_cell_angle_beta   102.91231989
_cell_angle_gamma   90.00000000
_symmetry_Int_Tables_number   1
_chemical_formula_structural   TeRhCl
_chemical_formula_sum   'Te2 Rh2 Cl2'
_cell_volume   662.45232593
_cell_formula_units_Z   2
loop_
 _symmetry_equiv_pos_site_id
 _symmetry_equiv_pos_as_xyz
  1  'x, y, z'
loop_
 _atom_site_type_symbol
 _atom_site_label
 _atom_site_symmetry_multiplicity
 _atom_site_fract_x
 _atom_site_fract_y
 _atom_site_fract_z
 _atom_site_occupancy
  Te  Te0  1  0.39955743  0.00000000  0.06107127  1
  Te  Te1  1  0.34129057  0.50000000  0.16172473  1
  Rh  Rh2  1  0.62520461  0.50000000  0.11096689  1
  Rh  Rh3  1  0.11564339  0.00000000  0.11183011  1
  Cl  Cl4  1  0.89747797  0.50000000  0.06036993  1
  Cl  Cl5  1  0.84337003  0.00000000  0.16242707  1
