# generated using pymatgen
data_TiS3
_symmetry_space_group_name_H-M   'P 1'
_cell_length_a   5.02249711
_cell_length_b   3.41177258
_cell_length_c   29.51781400
_cell_angle_alpha   90.00000000
_cell_angle_beta   95.77532502
_cell_angle_gamma   90.00000000
_symmetry_Int_Tables_number   1
_chemical_formula_structural   TiS3
_chemical_formula_sum   'Ti2 S6'
_cell_volume   503.23858100
_cell_formula_units_Z   2
loop_
 _symmetry_equiv_pos_site_id
 _symmetry_equiv_pos_as_xyz
  1  'x, y, z'
loop_
 _atom_site_type_symbol
 _atom_site_label
 _atom_site_symmetry_multiplicity
 _atom_site_fract_x
 _atom_site_fract_y
 _atom_site_fract_z
 _atom_site_occupancy
  Ti  Ti0  1  0.72308276  0.25000000  0.11563249  1
  Ti  Ti1  1  0.27691724  0.75000000  0.20681051  1
  S  S2  1  0.89649854  0.75000000  0.06416460  1
  S  S3  1  0.48893196  0.75000000  0.06414304  1
  S  S4  1  0.24114324  0.25000000  0.14621831  1
  S  S5  1  0.75885676  0.75000000  0.17622469  1
  S  S6  1  0.51106804  0.25000000  0.25829996  1
  S  S7  1  0.10350146  0.25000000  0.25827840  1
