# generated using pymatgen
data_KSbS2
_symmetry_space_group_name_H-M   'P 1'
_cell_length_a   8.56368243
_cell_length_b   6.92978324
_cell_length_c   27.46690000
_cell_angle_alpha   90.00000000
_cell_angle_beta   90.00000000
_cell_angle_gamma   123.10829184
_symmetry_Int_Tables_number   1
_chemical_formula_structural   KSbS2
_chemical_formula_sum   'K2 Sb2 S4'
_cell_volume   1365.35973334
_cell_formula_units_Z   2
loop_
 _symmetry_equiv_pos_site_id
 _symmetry_equiv_pos_as_xyz
  1  'x, y, z'
loop_
 _atom_site_type_symbol
 _atom_site_label
 _atom_site_symmetry_multiplicity
 _atom_site_fract_x
 _atom_site_fract_y
 _atom_site_fract_z
 _atom_site_occupancy
  K  K0  1  0.50000000  0.25000000  0.12298058  1
  K  K1  1  0.50000000  0.75000000  0.22168442  1
  Sb  Sb2  1  0.00000000  0.75000000  0.20218418  1
  Sb  Sb3  1  0.00000000  0.25000000  0.14248182  1
  S  S4  1  0.21484366  0.72910076  0.14668760  1
  S  S5  1  0.78515634  0.77089924  0.14668760  1
  S  S6  1  0.21484366  0.22910076  0.19797840  1
  S  S7  1  0.78515634  0.27089924  0.19797840  1
