# generated using pymatgen
data_Re(AgCl3)2
_symmetry_space_group_name_H-M   'P 1'
_cell_length_a   6.62120056
_cell_length_b   6.62119982
_cell_length_c   28.05940700
_cell_angle_alpha   90.00000000
_cell_angle_beta   90.00000000
_cell_angle_gamma   119.99999896
_symmetry_Int_Tables_number   1
_chemical_formula_structural   Re(AgCl3)2
_chemical_formula_sum   'Re1 Ag2 Cl6'
_cell_volume   1065.32608864
_cell_formula_units_Z   1
loop_
 _symmetry_equiv_pos_site_id
 _symmetry_equiv_pos_as_xyz
  1  'x, y, z'
loop_
 _atom_site_type_symbol
 _atom_site_label
 _atom_site_symmetry_multiplicity
 _atom_site_fract_x
 _atom_site_fract_y
 _atom_site_fract_z
 _atom_site_occupancy
  Re  Re0  1  0.33333300  0.66666700  0.10726900  1
  Ag  Ag1  1  0.66666700  0.33333300  0.08571425  1
  Ag  Ag2  1  0.00000000  0.00000000  0.12882375  1
  Cl  Cl3  1  0.64163656  0.70026670  0.05791738  1
  Cl  Cl4  1  0.05863014  0.35836344  0.05791738  1
  Cl  Cl5  1  0.29973330  0.94136986  0.05791738  1
  Cl  Cl6  1  0.02502944  0.63306630  0.15662062  1
  Cl  Cl7  1  0.36693370  0.39196414  0.15662062  1
  Cl  Cl8  1  0.60803586  0.97497056  0.15662062  1
