# generated using pymatgen
data_UBr4
_symmetry_space_group_name_H-M   'P 1'
_cell_length_a   7.06057642
_cell_length_b   7.06057642
_cell_length_c   25.19174300
_cell_angle_alpha   87.41885266
_cell_angle_beta   87.41885266
_cell_angle_gamma   77.51949910
_symmetry_Int_Tables_number   1
_chemical_formula_structural   UBr4
_chemical_formula_sum   'U2 Br8'
_cell_volume   1224.12934328
_cell_formula_units_Z   2
loop_
 _symmetry_equiv_pos_site_id
 _symmetry_equiv_pos_as_xyz
  1  'x, y, z'
loop_
 _atom_site_type_symbol
 _atom_site_label
 _atom_site_symmetry_multiplicity
 _atom_site_fract_x
 _atom_site_fract_y
 _atom_site_fract_z
 _atom_site_occupancy
  Br  Br0  1  0.17392156  0.55556051  0.05780516  1
  Br  Br1  1  0.94678582  0.94678582  0.17457419  1
  Br  Br2  1  0.05321418  0.05321418  0.03151481  1
  Br  Br3  1  0.66862463  0.66862463  0.00086613  1
  Br  Br4  1  0.55556051  0.17392156  0.05780516  1
  Br  Br5  1  0.44443949  0.82607844  0.14828384  1
  Br  Br6  1  0.82607844  0.44443949  0.14828384  1
  Br  Br7  1  0.33137537  0.33137537  0.20522287  1
  U  U8  1  0.80228834  0.80228834  0.08524927  1
  U  U9  1  0.19771166  0.19771166  0.12083973  1
