# generated using pymatgen
data_IrCl3
_symmetry_space_group_name_H-M   'P 1'
_cell_length_a   6.08608380
_cell_length_b   10.54243367
_cell_length_c   28.27394864
_cell_angle_alpha   90.00000000
_cell_angle_beta   93.98716012
_cell_angle_gamma   90.00000000
_symmetry_Int_Tables_number   1
_chemical_formula_structural   IrCl3
_chemical_formula_sum   'Ir4 Cl12'
_cell_volume   1809.72611856
_cell_formula_units_Z   4
loop_
 _symmetry_equiv_pos_site_id
 _symmetry_equiv_pos_as_xyz
  1  'x, y, z'
loop_
 _atom_site_type_symbol
 _atom_site_label
 _atom_site_symmetry_multiplicity
 _atom_site_fract_x
 _atom_site_fract_y
 _atom_site_fract_z
 _atom_site_occupancy
  Ir  Ir0  1  0.89037400  0.97288605  0.14518900  1
  Ir  Ir1  1  0.89037400  0.63956895  0.14518900  1
  Ir  Ir2  1  0.39037300  0.47288605  0.14518900  1
  Ir  Ir3  1  0.39037300  0.13956895  0.14518900  1
  Cl  Cl4  1  0.08046338  0.48135684  0.19160543  1
  Cl  Cl5  1  0.08046338  0.13109716  0.19160543  1
  Cl  Cl6  1  0.05510921  0.80622700  0.19161137  1
  Cl  Cl7  1  0.58046338  0.98135684  0.19160543  1
  Cl  Cl8  1  0.58046338  0.63109716  0.19160543  1
  Cl  Cl9  1  0.55511021  0.30622800  0.19161137  1
  Cl  Cl10  1  0.22563779  0.30622800  0.09876663  1
  Cl  Cl11  1  0.20028362  0.98135684  0.09877257  1
  Cl  Cl12  1  0.20028362  0.63109716  0.09877257  1
  Cl  Cl13  1  0.72563779  0.80622700  0.09876663  1
  Cl  Cl14  1  0.70028462  0.48135684  0.09877257  1
  Cl  Cl15  1  0.70028462  0.13109716  0.09877257  1
