# generated using pymatgen
data_TlF
_symmetry_space_group_name_H-M   'P 1'
_cell_length_a   5.30261159
_cell_length_b   5.30578995
_cell_length_c   26.38638900
_cell_angle_alpha   90.00000000
_cell_angle_beta   90.00000000
_cell_angle_gamma   90.00000000
_symmetry_Int_Tables_number   1
_chemical_formula_structural   TlF
_chemical_formula_sum   'Tl4 F4'
_cell_volume   742.36900302
_cell_formula_units_Z   4
loop_
 _symmetry_equiv_pos_site_id
 _symmetry_equiv_pos_as_xyz
  1  'x, y, z'
loop_
 _atom_site_type_symbol
 _atom_site_label
 _atom_site_symmetry_multiplicity
 _atom_site_fract_x
 _atom_site_fract_y
 _atom_site_fract_z
 _atom_site_occupancy
  Tl  Tl0  1  0.85969200  0.04946595  0.18096812  1
  Tl  Tl1  1  0.35969200  0.54835205  0.18096812  1
  Tl  Tl2  1  0.35969200  0.04835205  0.06106488  1
  Tl  Tl3  1  0.85969200  0.54946595  0.06106488  1
  F  F4  1  0.35969200  0.04649095  0.15461078  1
  F  F5  1  0.85969200  0.55132705  0.15461078  1
  F  F6  1  0.85969200  0.05132705  0.08742222  1
  F  F7  1  0.35969200  0.54649095  0.08742222  1
