# generated using pymatgen
data_KAuSe2
_symmetry_space_group_name_H-M   'P 1'
_cell_length_a   3.75742258
_cell_length_b   6.73222282
_cell_length_c   27.90500000
_cell_angle_alpha   90.00000000
_cell_angle_beta   90.00000000
_cell_angle_gamma   90.00000000
_symmetry_Int_Tables_number   1
_chemical_formula_structural   KAuSe2
_chemical_formula_sum   'K1 Au1 Se2'
_cell_volume   705.87946847
_cell_formula_units_Z   1
loop_
 _symmetry_equiv_pos_site_id
 _symmetry_equiv_pos_as_xyz
  1  'x, y, z'
loop_
 _atom_site_type_symbol
 _atom_site_label
 _atom_site_symmetry_multiplicity
 _atom_site_fract_x
 _atom_site_fract_y
 _atom_site_fract_z
 _atom_site_occupancy
  Au  Au0  1  0.00000000  0.00000000  0.14164100  1
  K  K1  1  0.00000000  0.50000000  0.14164100  1
  Se  Se2  1  0.50000000  0.14054105  0.09221622  1
  Se  Se3  1  0.50000000  0.85945895  0.19106678  1
