# generated using pymatgen
data_CaI2
_symmetry_space_group_name_H-M   'P 1'
_cell_length_a   4.46932950
_cell_length_b   4.46932892
_cell_length_c   28.05687200
_cell_angle_alpha   90.00000000
_cell_angle_beta   90.00000000
_cell_angle_gamma   119.99999726
_symmetry_Int_Tables_number   1
_chemical_formula_structural   CaI2
_chemical_formula_sum   'Ca1 I2'
_cell_volume   485.34949880
_cell_formula_units_Z   1
loop_
 _symmetry_equiv_pos_site_id
 _symmetry_equiv_pos_as_xyz
  1  'x, y, z'
loop_
 _atom_site_type_symbol
 _atom_site_label
 _atom_site_symmetry_multiplicity
 _atom_site_fract_x
 _atom_site_fract_y
 _atom_site_fract_z
 _atom_site_occupancy
  Ca  Ca0  1  0.39795900  0.02337700  0.14358100  1
  I  I1  1  0.73129200  0.69004400  0.20683072  1
  I  I2  1  0.06462600  0.35671000  0.08033128  1
