# generated using pymatgen
data_AlPd5I2
_symmetry_space_group_name_H-M   'P 1'
_cell_length_a   4.06319545
_cell_length_b   4.06319545
_cell_length_c   27.26854100
_cell_angle_alpha   90.00000000
_cell_angle_beta   90.00000000
_cell_angle_gamma   90.00000000
_symmetry_Int_Tables_number   1
_chemical_formula_structural   AlPd5I2
_chemical_formula_sum   'Al1 Pd5 I2'
_cell_volume   450.19153833
_cell_formula_units_Z   1
loop_
 _symmetry_equiv_pos_site_id
 _symmetry_equiv_pos_as_xyz
  1  'x, y, z'
loop_
 _atom_site_type_symbol
 _atom_site_label
 _atom_site_symmetry_multiplicity
 _atom_site_fract_x
 _atom_site_fract_y
 _atom_site_fract_z
 _atom_site_occupancy
  Al  Al0  1  0.50000000  0.50000000  0.13327700  1
  I  I1  1  0.00000000  -0.00000000  0.26870305  1
  I  I2  1  0.00000000  0.00000000  -0.00214905  1
  Pd  Pd3  1  -0.00000000  0.50000000  0.19824399  1
  Pd  Pd4  1  0.50000000  0.00000000  0.19824399  1
  Pd  Pd5  1  0.50000000  0.00000000  0.06831001  1
  Pd  Pd6  1  0.00000000  0.50000000  0.06831001  1
  Pd  Pd7  1  0.00000000  -0.00000000  0.13327700  1
