# generated using pymatgen
data_DyCl3
_symmetry_space_group_name_H-M   'P 1'
_cell_length_a   3.77104886
_cell_length_b   8.48482818
_cell_length_c   25.99074400
_cell_angle_alpha   90.00000000
_cell_angle_beta   90.00000000
_cell_angle_gamma   90.00000000
_symmetry_Int_Tables_number   1
_chemical_formula_structural   DyCl3
_chemical_formula_sum   'Dy2 Cl6'
_cell_volume   831.61808033
_cell_formula_units_Z   2
loop_
 _symmetry_equiv_pos_site_id
 _symmetry_equiv_pos_as_xyz
  1  'x, y, z'
loop_
 _atom_site_type_symbol
 _atom_site_label
 _atom_site_symmetry_multiplicity
 _atom_site_fract_x
 _atom_site_fract_y
 _atom_site_fract_z
 _atom_site_occupancy
  Dy  Dy0  1  0.00000000  0.75000000  0.12011593  1
  Dy  Dy1  1  0.50000000  0.25000000  0.12979507  1
  Cl  Cl2  1  0.50000000  0.75000000  0.04874241  1
  Cl  Cl3  1  -0.00000000  0.43235633  0.07817940  1
  Cl  Cl4  1  0.00000000  0.06764367  0.07817940  1
  Cl  Cl5  1  0.50000000  0.56764367  0.17173160  1
  Cl  Cl6  1  0.50000000  0.93235633  0.17173160  1
  Cl  Cl7  1  -0.00000000  0.25000000  0.20116859  1
