# generated using pymatgen
data_KTlO
_symmetry_space_group_name_H-M   'P 1'
_cell_length_a   6.12136143
_cell_length_b   3.72920450
_cell_length_c   24.83691792
_cell_angle_alpha   90.00000000
_cell_angle_beta   98.51477997
_cell_angle_gamma   90.00000000
_symmetry_Int_Tables_number   1
_chemical_formula_structural   KTlO
_chemical_formula_sum   'K2 Tl2 O2'
_cell_volume   560.72306895
_cell_formula_units_Z   2
loop_
 _symmetry_equiv_pos_site_id
 _symmetry_equiv_pos_as_xyz
  1  'x, y, z'
loop_
 _atom_site_type_symbol
 _atom_site_label
 _atom_site_symmetry_multiplicity
 _atom_site_fract_x
 _atom_site_fract_y
 _atom_site_fract_z
 _atom_site_occupancy
  K  K0  1  0.31125396  0.00000000  0.06749720  1
  K  K1  1  0.54199904  0.50000000  0.18823480  1
  Tl  Tl2  1  0.80090341  0.50000000  0.07066458  1
  Tl  Tl3  1  0.05234959  0.00000000  0.18506742  1
  O  O4  1  0.15230660  0.50000000  0.12529857  1
  O  O5  1  0.70094640  0.00000000  0.13043243  1
