# generated using pymatgen
data_BiI3
_symmetry_space_group_name_H-M   'P 1'
_cell_length_a   7.58842040
_cell_length_b   7.58842120
_cell_length_c   27.08583600
_cell_angle_alpha   90.00000000
_cell_angle_beta   90.00000000
_cell_angle_gamma   120.00000044
_symmetry_Int_Tables_number   1
_chemical_formula_structural   BiI3
_chemical_formula_sum   'Bi2 I6'
_cell_volume   1350.75220820
_cell_formula_units_Z   2
loop_
 _symmetry_equiv_pos_site_id
 _symmetry_equiv_pos_as_xyz
  1  'x, y, z'
loop_
 _atom_site_type_symbol
 _atom_site_label
 _atom_site_symmetry_multiplicity
 _atom_site_fract_x
 _atom_site_fract_y
 _atom_site_fract_z
 _atom_site_occupancy
  Bi  Bi0  1  0.00000000  0.00000000  0.28413338  1
  Bi  Bi1  1  0.33333300  0.66666700  0.28408062  1
  I  I2  1  0.66667992  0.99705226  0.21665082  1
  I  I3  1  0.00294774  0.66962866  0.21665082  1
  I  I4  1  0.33037134  0.33332008  0.21665082  1
  I  I5  1  0.66665308  0.66961474  0.35156418  1
  I  I6  1  0.00296166  0.33334692  0.35156418  1
  I  I7  1  0.33038526  0.99703834  0.35156418  1
