# generated using pymatgen
data_K4HgAs2
_symmetry_space_group_name_H-M   'P 1'
_cell_length_a   5.62452543
_cell_length_b   5.62452508
_cell_length_c   28.28039900
_cell_angle_alpha   90.00000000
_cell_angle_beta   90.00000000
_cell_angle_gamma   119.99924399
_symmetry_Int_Tables_number   1
_chemical_formula_structural   K4HgAs2
_chemical_formula_sum   'K4 Hg1 As2'
_cell_volume   774.80285913
_cell_formula_units_Z   1
loop_
 _symmetry_equiv_pos_site_id
 _symmetry_equiv_pos_as_xyz
  1  'x, y, z'
loop_
 _atom_site_type_symbol
 _atom_site_label
 _atom_site_symmetry_multiplicity
 _atom_site_fract_x
 _atom_site_fract_y
 _atom_site_fract_z
 _atom_site_occupancy
  As  As0  1  0.33332239  0.66667761  0.57685765  1
  As  As1  1  0.33332099  0.66667901  0.75645942  1
  Hg  Hg2  1  0.33332273  0.66667727  0.66665742  1
  K  K3  1  0.66666801  0.33333199  0.54201931  1
  K  K4  1  -0.00000532  0.00000532  0.79129341  1
  K  K5  1  0.66667128  0.33332872  0.71824717  1
  K  K6  1  -0.00000008  0.00000008  0.61506561  1
