# generated using pymatgen
data_MnI2
_symmetry_space_group_name_H-M   'P 1'
_cell_length_a   4.11701587
_cell_length_b   4.11701578
_cell_length_c   27.23527000
_cell_angle_alpha   90.00000000
_cell_angle_beta   90.00000000
_cell_angle_gamma   120.00000072
_symmetry_Int_Tables_number   1
_chemical_formula_structural   MnI2
_chemical_formula_sum   'Mn1 I2'
_cell_volume   399.78582075
_cell_formula_units_Z   1
loop_
 _symmetry_equiv_pos_site_id
 _symmetry_equiv_pos_as_xyz
  1  'x, y, z'
loop_
 _atom_site_type_symbol
 _atom_site_label
 _atom_site_symmetry_multiplicity
 _atom_site_fract_x
 _atom_site_fract_y
 _atom_site_fract_z
 _atom_site_occupancy
  Mn  Mn0  1  0.37233300  0.00461700  0.13282900  1
  I  I1  1  0.03900000  0.33795000  0.19391370  1
  I  I2  1  0.70566600  0.67128400  0.07174430  1
