# generated using pymatgen
data_ThI2
_symmetry_space_group_name_H-M   'P 1'
_cell_length_a   3.92033903
_cell_length_b   3.92033932
_cell_length_c   37.95280100
_cell_angle_alpha   90.00000000
_cell_angle_beta   90.00000000
_cell_angle_gamma   120.00248831
_symmetry_Int_Tables_number   1
_chemical_formula_structural   ThI2
_chemical_formula_sum   'Th1 I2'
_cell_volume   505.13895285
_cell_formula_units_Z   1
loop_
 _symmetry_equiv_pos_site_id
 _symmetry_equiv_pos_as_xyz
  1  'x, y, z'
loop_
 _atom_site_type_symbol
 _atom_site_label
 _atom_site_symmetry_multiplicity
 _atom_site_fract_x
 _atom_site_fract_y
 _atom_site_fract_z
 _atom_site_occupancy
  I  I0  1  0.33331942  0.66668058  0.43917328  1
  I  I1  1  0.66668058  0.33331942  0.56082672  1
  Th  Th2  1  -0.00000000  -0.00000000  0.50000000  1
