# generated using pymatgen
data_BiIO
_symmetry_space_group_name_H-M   'P 1'
_cell_length_a   4.02037842
_cell_length_b   4.02037842
_cell_length_c   29.75928200
_cell_angle_alpha   90.00000000
_cell_angle_beta   90.00000000
_cell_angle_gamma   90.00000000
_symmetry_Int_Tables_number   1
_chemical_formula_structural   BiIO
_chemical_formula_sum   'Bi2 I2 O2'
_cell_volume   481.01244709
_cell_formula_units_Z   2
loop_
 _symmetry_equiv_pos_site_id
 _symmetry_equiv_pos_as_xyz
  1  'x, y, z'
loop_
 _atom_site_type_symbol
 _atom_site_label
 _atom_site_symmetry_multiplicity
 _atom_site_fract_x
 _atom_site_fract_y
 _atom_site_fract_z
 _atom_site_occupancy
  Bi  Bi0  1  0.71133900  0.21133900  0.20572023  1
  Bi  Bi1  1  0.21133900  0.71133900  0.12221977  1
  I  I2  1  0.21133900  0.71133900  0.26823644  1
  I  I3  1  0.71133900  0.21133900  0.05970456  1
  O  O4  1  0.21133900  0.21133900  0.16397000  1
  O  O5  1  0.71133900  0.71133900  0.16397000  1
