# generated using pymatgen
data_RbBiO2
_symmetry_space_group_name_H-M   'P 1'
_cell_length_a   7.97192819
_cell_length_b   5.91872333
_cell_length_c   28.77660000
_cell_angle_alpha   90.00000000
_cell_angle_beta   90.00000000
_cell_angle_gamma   125.75779855
_symmetry_Int_Tables_number   1
_chemical_formula_structural   RbBiO2
_chemical_formula_sum   'Rb2 Bi2 O4'
_cell_volume   1101.83471753
_cell_formula_units_Z   2
loop_
 _symmetry_equiv_pos_site_id
 _symmetry_equiv_pos_as_xyz
  1  'x, y, z'
loop_
 _atom_site_type_symbol
 _atom_site_label
 _atom_site_symmetry_multiplicity
 _atom_site_fract_x
 _atom_site_fract_y
 _atom_site_fract_z
 _atom_site_occupancy
  Bi  Bi0  1  0.50000000  0.25000000  0.18290628  1
  Bi  Bi1  1  0.50000000  0.75000000  0.12208472  1
  O  O2  1  0.70105493  0.22025527  0.13876990  1
  O  O3  1  0.29894507  0.27974473  0.13876990  1
  O  O4  1  0.70105493  0.72025527  0.16622010  1
  O  O5  1  0.29894507  0.77974473  0.16622010  1
  Rb  Rb6  1  0.00000000  0.25000000  0.19763519  1
  Rb  Rb7  1  0.00000000  0.75000000  0.10735581  1
