# generated using pymatgen
data_YCl3
_symmetry_space_group_name_H-M   'P 1'
_cell_length_a   6.85596995
_cell_length_b   11.87434155
_cell_length_c   26.50254460
_cell_angle_alpha   90.00000000
_cell_angle_beta   109.38567971
_cell_angle_gamma   90.00000000
_symmetry_Int_Tables_number   1
_chemical_formula_structural   YCl3
_chemical_formula_sum   'Y4 Cl12'
_cell_volume   2035.25322199
_cell_formula_units_Z   4
loop_
 _symmetry_equiv_pos_site_id
 _symmetry_equiv_pos_as_xyz
  1  'x, y, z'
loop_
 _atom_site_type_symbol
 _atom_site_label
 _atom_site_symmetry_multiplicity
 _atom_site_fract_x
 _atom_site_fract_y
 _atom_site_fract_z
 _atom_site_occupancy
  Y  Y0  1  0.03573200  0.95857637  0.18081700  1
  Y  Y1  1  0.03573200  0.62524963  0.18081700  1
  Y  Y2  1  0.53573200  0.45857637  0.18081700  1
  Y  Y3  1  0.53573200  0.12524963  0.18081700  1
  Cl  Cl4  1  0.29228686  0.47244078  0.24007341  1
  Cl  Cl5  1  0.29228686  0.11138522  0.24007341  1
  Cl  Cl6  1  0.25068978  0.79191300  0.24007965  1
  Cl  Cl7  1  0.79228686  0.97244078  0.24007341  1
  Cl  Cl8  1  0.79228686  0.61138522  0.24007341  1
  Cl  Cl9  1  0.75068978  0.29191300  0.24007965  1
  Cl  Cl10  1  0.32077422  0.29191300  0.12155435  1
  Cl  Cl11  1  0.27917814  0.97244078  0.12156059  1
  Cl  Cl12  1  0.27917814  0.61138522  0.12156059  1
  Cl  Cl13  1  0.82077522  0.79191300  0.12155435  1
  Cl  Cl14  1  0.77917714  0.47244078  0.12156059  1
  Cl  Cl15  1  0.77917714  0.11138522  0.12156059  1
