# generated using pymatgen
data_AsI3
_symmetry_space_group_name_H-M   'P 1'
_cell_length_a   7.15688341
_cell_length_b   7.15688309
_cell_length_c   26.40740100
_cell_angle_alpha   90.00000000
_cell_angle_beta   90.00000000
_cell_angle_gamma   120.00000149
_symmetry_Int_Tables_number   1
_chemical_formula_structural   AsI3
_chemical_formula_sum   'As2 I6'
_cell_volume   1171.39711584
_cell_formula_units_Z   2
loop_
 _symmetry_equiv_pos_site_id
 _symmetry_equiv_pos_as_xyz
  1  'x, y, z'
loop_
 _atom_site_type_symbol
 _atom_site_label
 _atom_site_symmetry_multiplicity
 _atom_site_fract_x
 _atom_site_fract_y
 _atom_site_fract_z
 _atom_site_occupancy
  As  As0  1  0.66666700  0.33333300  0.14060272  1
  As  As1  1  0.00000000  0.00000000  0.14223928  1
  I  I2  1  0.67793510  0.01162899  0.07728210  1
  I  I3  1  0.98837101  0.66630710  0.07728210  1
  I  I4  1  0.33369290  0.32206490  0.07728210  1
  I  I5  1  0.33297310  0.01126910  0.20556090  1
  I  I6  1  0.67829499  0.66702690  0.20556090  1
  I  I7  1  0.98873090  0.32170501  0.20556090  1
