# generated using pymatgen
data_NaZnAs
_symmetry_space_group_name_H-M   'P 1'
_cell_length_a   4.12060244
_cell_length_b   4.12060244
_cell_length_c   27.15426700
_cell_angle_alpha   90.00000000
_cell_angle_beta   90.00000000
_cell_angle_gamma   90.00000000
_symmetry_Int_Tables_number   1
_chemical_formula_structural   NaZnAs
_chemical_formula_sum   'Na2 Zn2 As2'
_cell_volume   461.06219687
_cell_formula_units_Z   2
loop_
 _symmetry_equiv_pos_site_id
 _symmetry_equiv_pos_as_xyz
  1  'x, y, z'
loop_
 _atom_site_type_symbol
 _atom_site_label
 _atom_site_symmetry_multiplicity
 _atom_site_fract_x
 _atom_site_fract_y
 _atom_site_fract_z
 _atom_site_occupancy
  Na  Na0  1  0.35317500  0.85317500  0.22314598  1
  Na  Na1  1  0.85317500  0.35317500  0.04032102  1
  Zn  Zn2  1  0.35317500  0.35317500  0.13173400  1
  Zn  Zn3  1  0.85317500  0.85317500  0.13173400  1
  As  As4  1  0.85317500  0.35317500  0.19090524  1
  As  As5  1  0.35317500  0.85317500  0.07256176  1
