# generated using pymatgen
data_ThI4
_symmetry_space_group_name_H-M   'P 1'
_cell_length_a   8.11439821
_cell_length_b   14.38656830
_cell_length_c   23.67231700
_cell_angle_alpha   102.80105536
_cell_angle_beta   90.00000000
_cell_angle_gamma   90.00000000
_symmetry_Int_Tables_number   1
_chemical_formula_structural   ThI4
_chemical_formula_sum   'Th4 I16'
_cell_volume   2694.78186542
_cell_formula_units_Z   4
loop_
 _symmetry_equiv_pos_site_id
 _symmetry_equiv_pos_as_xyz
  1  'x, y, z'
loop_
 _atom_site_type_symbol
 _atom_site_label
 _atom_site_symmetry_multiplicity
 _atom_site_fract_x
 _atom_site_fract_y
 _atom_site_fract_z
 _atom_site_occupancy
  Th  Th0  1  0.51711773  0.77924756  0.09606198  1
  Th  Th1  1  0.01711773  0.91734944  0.10053502  1
  Th  Th2  1  0.48288227  0.41734944  0.10053502  1
  Th  Th3  1  0.98288227  0.27924756  0.09606198  1
  I  I4  1  0.86572996  0.69923220  0.05161785  1
  I  I5  1  0.36572996  0.99736480  0.14497915  1
  I  I6  1  0.59145944  0.62169835  0.17509647  1
  I  I7  1  0.40854056  0.57489865  0.02150053  1
  I  I8  1  0.25494809  0.81341125  0.99923038  1
  I  I9  1  0.75494809  0.88318575  0.19736662  1
  I  I10  1  0.69434402  0.92569157  0.02775497  1
  I  I11  1  0.19434402  0.77090543  0.16884203  1
  I  I12  1  0.09145944  0.07489865  0.02150053  1
  I  I13  1  0.90854056  0.12169835  0.17509647  1
  I  I14  1  0.13427004  0.49736480  0.14497915  1
  I  I15  1  0.63427004  0.19923220  0.05161785  1
  I  I16  1  0.74505191  0.38318575  0.19736662  1
  I  I17  1  0.24505191  0.31341125  0.99923038  1
  I  I18  1  0.30565598  0.27090543  0.16884203  1
  I  I19  1  0.80565598  0.42569157  0.02775497  1
