# generated using pymatgen
data_CaHI
_symmetry_space_group_name_H-M   'P 1'
_cell_length_a   3.98920822
_cell_length_b   3.98920822
_cell_length_c   29.42063300
_cell_angle_alpha   90.00000000
_cell_angle_beta   90.00000000
_cell_angle_gamma   90.00000000
_symmetry_Int_Tables_number   1
_chemical_formula_structural   CaHI
_chemical_formula_sum   'Ca2 H2 I2'
_cell_volume   468.19354580
_cell_formula_units_Z   2
loop_
 _symmetry_equiv_pos_site_id
 _symmetry_equiv_pos_as_xyz
  1  'x, y, z'
loop_
 _atom_site_type_symbol
 _atom_site_label
 _atom_site_symmetry_multiplicity
 _atom_site_fract_x
 _atom_site_fract_y
 _atom_site_fract_z
 _atom_site_occupancy
  Ca  Ca0  1  0.66922500  0.16922500  0.20179817  1
  Ca  Ca1  1  0.16922500  0.66922500  0.11840683  1
  H  H2  1  0.16922500  0.16922500  0.16010200  1
  H  H3  1  0.66922500  0.66922500  0.16010200  1
  I  I4  1  0.16922500  0.66922500  0.25603467  1
  I  I5  1  0.66922500  0.16922500  0.06417033  1
