# generated using pymatgen
data_CeSiI
_symmetry_space_group_name_H-M   'P 1'
_cell_length_a   4.15507146
_cell_length_b   4.15507146
_cell_length_c   28.19511900
_cell_angle_alpha   90.00000000
_cell_angle_beta   90.00000000
_cell_angle_gamma   120.00000242
_symmetry_Int_Tables_number   1
_chemical_formula_structural   CeSiI
_chemical_formula_sum   'Ce2 Si2 I2'
_cell_volume   421.56208817
_cell_formula_units_Z   2
loop_
 _symmetry_equiv_pos_site_id
 _symmetry_equiv_pos_as_xyz
  1  'x, y, z'
loop_
 _atom_site_type_symbol
 _atom_site_label
 _atom_site_symmetry_multiplicity
 _atom_site_fract_x
 _atom_site_fract_y
 _atom_site_fract_z
 _atom_site_occupancy
  Ce  Ce0  1  0.00000000  -0.00000000  0.07670284  1
  Ce  Ce1  1  0.00000000  0.00000000  0.21395416  1
  I  I2  1  0.33333400  0.66666600  0.29047209  1
  I  I3  1  0.66666600  0.33333400  0.00018491  1
  Si  Si4  1  0.66666600  0.33333400  0.14707164  1
  Si  Si5  1  0.33333400  0.66666600  0.14358536  1
