# generated using pymatgen
data_InClO
_symmetry_space_group_name_H-M   'P 1'
_cell_length_a   3.56538537
_cell_length_b   4.11155973
_cell_length_c   28.66275300
_cell_angle_alpha   90.00000000
_cell_angle_beta   90.00000000
_cell_angle_gamma   90.00000000
_symmetry_Int_Tables_number   1
_chemical_formula_structural   InClO
_chemical_formula_sum   'In2 Cl2 O2'
_cell_volume   420.17574891
_cell_formula_units_Z   2
loop_
 _symmetry_equiv_pos_site_id
 _symmetry_equiv_pos_as_xyz
  1  'x, y, z'
loop_
 _atom_site_type_symbol
 _atom_site_label
 _atom_site_symmetry_multiplicity
 _atom_site_fract_x
 _atom_site_fract_y
 _atom_site_fract_z
 _atom_site_occupancy
  In  In0  1  0.71056400  0.54170100  0.18667235  1
  In  In1  1  0.21056400  0.04170100  0.11555765  1
  Cl  Cl2  1  0.21056400  0.54170100  0.25014538  1
  Cl  Cl3  1  0.71056400  0.04170100  0.05208562  1
  O  O4  1  0.71056400  0.04170100  0.16407710  1
  O  O5  1  0.21056400  0.54170100  0.13815390  1
