# generated using pymatgen
data_InBrO
_symmetry_space_group_name_H-M   'P 1'
_cell_length_a   3.66923805
_cell_length_b   4.09108469
_cell_length_c   28.00969100
_cell_angle_alpha   90.00000000
_cell_angle_beta   90.00000000
_cell_angle_gamma   90.00000000
_symmetry_Int_Tables_number   1
_chemical_formula_structural   InBrO
_chemical_formula_sum   'In2 Br2 O2'
_cell_volume   420.45805484
_cell_formula_units_Z   2
loop_
 _symmetry_equiv_pos_site_id
 _symmetry_equiv_pos_as_xyz
  1  'x, y, z'
loop_
 _atom_site_type_symbol
 _atom_site_label
 _atom_site_symmetry_multiplicity
 _atom_site_fract_x
 _atom_site_fract_y
 _atom_site_fract_z
 _atom_site_occupancy
  In  In0  1  0.72142000  0.59195100  0.19705762  1
  In  In1  1  0.22142000  0.09195000  0.12460538  1
  Br  Br2  1  0.22142000  0.59195100  0.26732365  1
  Br  Br3  1  0.72142000  0.09195000  0.05433935  1
  O  O4  1  0.72142000  0.09195000  0.17256552  1
  O  O5  1  0.22142000  0.59195100  0.14909748  1
