# generated using pymatgen
data_Bi2Te2S
_symmetry_space_group_name_H-M   'P 1'
_cell_length_a   4.27787604
_cell_length_b   4.27787591
_cell_length_c   31.93984000
_cell_angle_alpha   90.00000000
_cell_angle_beta   90.00000000
_cell_angle_gamma   120.00000103
_symmetry_Int_Tables_number   1
_chemical_formula_structural   Bi2Te2S
_chemical_formula_sum   'Bi2 Te2 S1'
_cell_volume   506.19720392
_cell_formula_units_Z   1
loop_
 _symmetry_equiv_pos_site_id
 _symmetry_equiv_pos_as_xyz
  1  'x, y, z'
loop_
 _atom_site_type_symbol
 _atom_site_label
 _atom_site_symmetry_multiplicity
 _atom_site_fract_x
 _atom_site_fract_y
 _atom_site_fract_z
 _atom_site_occupancy
  Bi  Bi0  1  0.00000000  0.00000000  0.61160812  1
  Bi  Bi1  1  0.66666700  0.33333300  0.72172488  1
  Te  Te2  1  0.66666700  0.33333300  0.55521259  1
  Te  Te3  1  0.00000000  0.00000000  0.77812041  1
  S  S4  1  0.33333300  0.66666700  0.66666700  1
