# generated using pymatgen
data_SrHI
_symmetry_space_group_name_H-M   'P 1'
_cell_length_a   4.23816806
_cell_length_b   4.23816806
_cell_length_c   29.39378900
_cell_angle_alpha   90.00000000
_cell_angle_beta   90.00000000
_cell_angle_gamma   90.00000000
_symmetry_Int_Tables_number   1
_chemical_formula_structural   SrHI
_chemical_formula_sum   'Sr2 H2 I2'
_cell_volume   527.97325221
_cell_formula_units_Z   2
loop_
 _symmetry_equiv_pos_site_id
 _symmetry_equiv_pos_as_xyz
  1  'x, y, z'
loop_
 _atom_site_type_symbol
 _atom_site_label
 _atom_site_symmetry_multiplicity
 _atom_site_fract_x
 _atom_site_fract_y
 _atom_site_fract_z
 _atom_site_occupancy
  Sr  Sr0  1  0.59706300  0.09706300  0.20533468  1
  Sr  Sr1  1  0.09706300  0.59706300  0.11424932  1
  H  H2  1  0.09706300  0.09706300  0.15979200  1
  H  H3  1  0.59706300  0.59706300  0.15979200  1
  I  I4  1  0.09706300  0.59706300  0.25916679  1
  I  I5  1  0.59706300  0.09706300  0.06041821  1
