# generated using pymatgen
data_VBrO
_symmetry_space_group_name_H-M   'P 1'
_cell_length_a   3.42527839
_cell_length_b   3.78422479
_cell_length_c   25.59380900
_cell_angle_alpha   90.00000000
_cell_angle_beta   90.00000000
_cell_angle_gamma   90.00000000
_symmetry_Int_Tables_number   1
_chemical_formula_structural   VBrO
_chemical_formula_sum   'V2 Br2 O2'
_cell_volume   331.74755036
_cell_formula_units_Z   2
loop_
 _symmetry_equiv_pos_site_id
 _symmetry_equiv_pos_as_xyz
  1  'x, y, z'
loop_
 _atom_site_type_symbol
 _atom_site_label
 _atom_site_symmetry_multiplicity
 _atom_site_fract_x
 _atom_site_fract_y
 _atom_site_fract_z
 _atom_site_occupancy
  Br  Br0  1  0.00000000  0.50000000  0.00270624  1
  Br  Br1  1  0.50000000  0.00000000  0.21585476  1
  O  O2  1  0.50000000  0.00000000  0.09528954  1
  O  O3  1  0.00000000  0.50000000  0.12327146  1
  V  V4  1  0.50000000  0.50000000  0.07472000  1
  V  V5  1  0.00000000  0.00000000  0.14384100  1
