# generated using pymatgen
data_MnCl2
_symmetry_space_group_name_H-M   'P 1'
_cell_length_a   3.67410495
_cell_length_b   3.67410492
_cell_length_c   25.60309200
_cell_angle_alpha   90.00000000
_cell_angle_beta   90.00000000
_cell_angle_gamma   120.00000022
_symmetry_Int_Tables_number   1
_chemical_formula_structural   MnCl2
_chemical_formula_sum   'Mn1 Cl2'
_cell_volume   299.31339943
_cell_formula_units_Z   1
loop_
 _symmetry_equiv_pos_site_id
 _symmetry_equiv_pos_as_xyz
  1  'x, y, z'
loop_
 _atom_site_type_symbol
 _atom_site_label
 _atom_site_symmetry_multiplicity
 _atom_site_fract_x
 _atom_site_fract_y
 _atom_site_fract_z
 _atom_site_occupancy
  Mn  Mn0  1  0.15975100  0.04514900  0.38282700  1
  Cl  Cl1  1  0.82641800  0.37848200  0.43738861  1
  Cl  Cl2  1  0.49308400  0.71181600  0.32826439  1
