# generated using pymatgen
data_BiTeI
_symmetry_space_group_name_H-M   'P 1'
_cell_length_a   4.38430306
_cell_length_b   4.38430355
_cell_length_c   27.37806500
_cell_angle_alpha   90.00000000
_cell_angle_beta   90.00000000
_cell_angle_gamma   119.99999632
_symmetry_Int_Tables_number   1
_chemical_formula_structural   BiTeI
_chemical_formula_sum   'Bi1 Te1 I1'
_cell_volume   455.75829261
_cell_formula_units_Z   1
loop_
 _symmetry_equiv_pos_site_id
 _symmetry_equiv_pos_as_xyz
  1  'x, y, z'
loop_
 _atom_site_type_symbol
 _atom_site_label
 _atom_site_symmetry_multiplicity
 _atom_site_fract_x
 _atom_site_fract_y
 _atom_site_fract_z
 _atom_site_occupancy
  Bi  Bi0  1  0.31494700  0.96260800  0.16287927  1
  Te  Te1  1  0.98161400  0.29594100  0.09950286  1
  I  I2  1  0.64828000  0.62927500  0.23924287  1
