# generated using pymatgen
data_ZrGeTe
_symmetry_space_group_name_H-M   'P 1'
_cell_length_a   3.76985666
_cell_length_b   3.76985666
_cell_length_c   29.30037200
_cell_angle_alpha   90.00000000
_cell_angle_beta   90.00000000
_cell_angle_gamma   90.00000000
_symmetry_Int_Tables_number   1
_chemical_formula_structural   ZrGeTe
_chemical_formula_sum   'Zr2 Ge2 Te2'
_cell_volume   416.41158942
_cell_formula_units_Z   2
loop_
 _symmetry_equiv_pos_site_id
 _symmetry_equiv_pos_as_xyz
  1  'x, y, z'
loop_
 _atom_site_type_symbol
 _atom_site_label
 _atom_site_symmetry_multiplicity
 _atom_site_fract_x
 _atom_site_fract_y
 _atom_site_fract_z
 _atom_site_occupancy
  Zr  Zr0  1  0.21606500  0.71606400  0.23291434  1
  Zr  Zr1  1  0.71606400  0.21606500  0.08449966  1
  Ge  Ge2  1  0.71606400  0.71606400  0.15870700  1
  Ge  Ge3  1  0.21606500  0.21606500  0.15870700  1
  Te  Te4  1  0.71606400  0.21606500  0.27858491  1
  Te  Te5  1  0.21606500  0.71606400  0.03883009  1
