# generated using pymatgen
data_Li2CeAs2
_symmetry_space_group_name_H-M   'P 1'
_cell_length_a   4.21774620
_cell_length_b   4.21774564
_cell_length_c   26.84799500
_cell_angle_alpha   90.00000000
_cell_angle_beta   90.00000000
_cell_angle_gamma   119.99999694
_symmetry_Int_Tables_number   1
_chemical_formula_structural   Li2CeAs2
_chemical_formula_sum   'Li2 Ce1 As2'
_cell_volume   413.62171516
_cell_formula_units_Z   1
loop_
 _symmetry_equiv_pos_site_id
 _symmetry_equiv_pos_as_xyz
  1  'x, y, z'
loop_
 _atom_site_type_symbol
 _atom_site_label
 _atom_site_symmetry_multiplicity
 _atom_site_fract_x
 _atom_site_fract_y
 _atom_site_fract_z
 _atom_site_occupancy
  Li  Li0  1  0.59576400  0.59083100  0.22041732  1
  Li  Li1  1  0.92909800  0.25749700  0.03464768  1
  Ce  Ce2  1  0.26243100  0.92416400  0.12753300  1
  As  As3  1  0.92909800  0.25749700  0.18794163  1
  As  As4  1  0.59576400  0.59083100  0.06712337  1
