# generated using pymatgen
data_PI3
_symmetry_space_group_name_H-M   'P 1'
_cell_length_a   7.06564667
_cell_length_b   7.06564627
_cell_length_c   25.43279700
_cell_angle_alpha   90.00000000
_cell_angle_beta   90.00000000
_cell_angle_gamma   120.00000184
_symmetry_Int_Tables_number   1
_chemical_formula_structural   PI3
_chemical_formula_sum   'P1 I3'
_cell_volume   1099.58436432
_cell_formula_units_Z   1
loop_
 _symmetry_equiv_pos_site_id
 _symmetry_equiv_pos_as_xyz
  1  'x, y, z'
loop_
 _atom_site_type_symbol
 _atom_site_label
 _atom_site_symmetry_multiplicity
 _atom_site_fract_x
 _atom_site_fract_y
 _atom_site_fract_z
 _atom_site_occupancy
  P  P0  1  0.66666700  0.33333300  0.20913887  1
  I  I1  1  0.34745270  0.33313370  0.16747171  1
  I  I2  1  0.98568100  0.65254730  0.16747171  1
  I  I3  1  0.66686630  0.01431900  0.16747171  1
