# generated using pymatgen
data_PrIO
_symmetry_space_group_name_H-M   'P 1'
_cell_length_a   4.10942116
_cell_length_b   4.10942116
_cell_length_c   29.89015200
_cell_angle_alpha   90.00000000
_cell_angle_beta   90.00000000
_cell_angle_gamma   90.00000000
_symmetry_Int_Tables_number   1
_chemical_formula_structural   PrIO
_chemical_formula_sum   'Pr2 I2 O2'
_cell_volume   504.76522711
_cell_formula_units_Z   2
loop_
 _symmetry_equiv_pos_site_id
 _symmetry_equiv_pos_as_xyz
  1  'x, y, z'
loop_
 _atom_site_type_symbol
 _atom_site_label
 _atom_site_symmetry_multiplicity
 _atom_site_fract_x
 _atom_site_fract_y
 _atom_site_fract_z
 _atom_site_occupancy
  Pr  Pr0  1  0.69894700  0.19894700  0.20528996  1
  Pr  Pr1  1  0.19894700  0.69894700  0.12559304  1
  I  I2  1  0.19894700  0.69894700  0.26874557  1
  I  I3  1  0.69894700  0.19894700  0.06213743  1
  O  O4  1  0.19894700  0.19894700  0.16544200  1
  O  O5  1  0.69894700  0.69894700  0.16544200  1
