# generated using pymatgen
data_GeS
_symmetry_space_group_name_H-M   'P 1'
_cell_length_a   3.67170678
_cell_length_b   4.41619765
_cell_length_c   22.67719900
_cell_angle_alpha   90.00000000
_cell_angle_beta   90.00000000
_cell_angle_gamma   90.00000000
_symmetry_Int_Tables_number   1
_chemical_formula_structural   GeS
_chemical_formula_sum   'Ge2 S2'
_cell_volume   367.71039278
_cell_formula_units_Z   2
loop_
 _symmetry_equiv_pos_site_id
 _symmetry_equiv_pos_as_xyz
  1  'x, y, z'
loop_
 _atom_site_type_symbol
 _atom_site_label
 _atom_site_symmetry_multiplicity
 _atom_site_fract_x
 _atom_site_fract_y
 _atom_site_fract_z
 _atom_site_occupancy
  Ge  Ge0  1  0.00000000  0.36922997  0.55753174  1
  Ge  Ge1  1  0.50000000  0.86922997  0.44246826  1
  S  S2  1  0.00000000  0.49759103  0.45339750  1
  S  S3  1  0.50000000  0.99759103  0.54660250  1
