# generated using pymatgen
data_NaNO2
_symmetry_space_group_name_H-M   'P 1'
_cell_length_a   3.47254823
_cell_length_b   5.23357649
_cell_length_c   22.61068200
_cell_angle_alpha   90.00000000
_cell_angle_beta   90.00000000
_cell_angle_gamma   89.99996657
_symmetry_Int_Tables_number   1
_chemical_formula_structural   NaNO2
_chemical_formula_sum   'Na1 N1 O2'
_cell_volume   410.92307021
_cell_formula_units_Z   1
loop_
 _symmetry_equiv_pos_site_id
 _symmetry_equiv_pos_as_xyz
  1  'x, y, z'
loop_
 _atom_site_type_symbol
 _atom_site_label
 _atom_site_symmetry_multiplicity
 _atom_site_fract_x
 _atom_site_fract_y
 _atom_site_fract_z
 _atom_site_occupancy
  Na  Na0  1  0.00000004  0.00000162  0.11610539  1
  N  N1  1  0.49999968  0.49999355  0.08898888  1
  O  O2  1  0.50000013  0.70437834  0.11940061  1
  O  O3  1  0.50000015  0.29562649  0.11940712  1
