# generated using pymatgen
data_Sb2Te3
_symmetry_space_group_name_H-M   'P 1'
_cell_length_a   4.30823012
_cell_length_b   4.30823023
_cell_length_c   31.34890000
_cell_angle_alpha   90.00000000
_cell_angle_beta   90.00000000
_cell_angle_gamma   119.99871647
_symmetry_Int_Tables_number   1
_chemical_formula_structural   Sb2Te3
_chemical_formula_sum   'Sb2 Te3'
_cell_volume   503.91391492
_cell_formula_units_Z   1
loop_
 _symmetry_equiv_pos_site_id
 _symmetry_equiv_pos_as_xyz
  1  'x, y, z'
loop_
 _atom_site_type_symbol
 _atom_site_label
 _atom_site_symmetry_multiplicity
 _atom_site_fract_x
 _atom_site_fract_y
 _atom_site_fract_z
 _atom_site_occupancy
  Sb  Sb0  1  0.33333270  0.66666730  0.26892666  1
  Sb  Sb1  1  -0.00000431  0.00000431  0.39771201  1
  Te  Te2  1  -0.00000652  0.00000652  0.21417235  1
  Te  Te3  1  0.33332579  0.66667421  0.45246942  1
  Te  Te4  1  0.66665234  0.33334766  0.33331956  1
