# generated using pymatgen
data_As
_symmetry_space_group_name_H-M   'P 1'
_cell_length_a   3.60749492
_cell_length_b   3.60749455
_cell_length_c   21.28788600
_cell_angle_alpha   90.00000000
_cell_angle_beta   90.00000000
_cell_angle_gamma   120.00000340
_symmetry_Int_Tables_number   1
_chemical_formula_structural   As
_chemical_formula_sum   As2
_cell_volume   239.92448077
_cell_formula_units_Z   2
loop_
 _symmetry_equiv_pos_site_id
 _symmetry_equiv_pos_as_xyz
  1  'x, y, z'
loop_
 _atom_site_type_symbol
 _atom_site_label
 _atom_site_symmetry_multiplicity
 _atom_site_fract_x
 _atom_site_fract_y
 _atom_site_fract_z
 _atom_site_occupancy
  As  As0  1  0.66666700  0.33333300  0.46704974  1
  As  As1  1  -0.00000000  0.00000000  0.53295026  1
