# generated using pymatgen
data_P2Pd3S8
_symmetry_space_group_name_H-M   'P 1'
_cell_length_a   6.87624443
_cell_length_b   6.87624433
_cell_length_c   28.56987200
_cell_angle_alpha   90.00000000
_cell_angle_beta   90.00000000
_cell_angle_gamma   120.00000048
_symmetry_Int_Tables_number   1
_chemical_formula_structural   P2Pd3S8
_chemical_formula_sum   'P2 Pd3 S8'
_cell_volume   1169.88057742
_cell_formula_units_Z   1
loop_
 _symmetry_equiv_pos_site_id
 _symmetry_equiv_pos_as_xyz
  1  'x, y, z'
loop_
 _atom_site_type_symbol
 _atom_site_label
 _atom_site_symmetry_multiplicity
 _atom_site_fract_x
 _atom_site_fract_y
 _atom_site_fract_z
 _atom_site_occupancy
  P  P0  1  0.66666700  0.33333300  0.41335214  1
  P  P1  1  0.33333300  0.66666700  0.58664786  1
  Pd  Pd2  1  0.00000000  0.50000000  0.50000000  1
  Pd  Pd3  1  0.50000000  0.00000000  0.50000000  1
  Pd  Pd4  1  0.50000000  0.50000000  0.50000000  1
  S  S5  1  0.66666700  0.33333300  0.34680263  1
  S  S6  1  0.82117021  0.17882979  0.45176020  1
  S  S7  1  0.82117021  0.64234043  0.45176020  1
  S  S8  1  0.35765957  0.17882979  0.45176020  1
  S  S9  1  0.64234043  0.82117021  0.54823980  1
  S  S10  1  0.17882979  0.35765957  0.54823980  1
  S  S11  1  0.17882979  0.82117021  0.54823980  1
  S  S12  1  0.33333300  0.66666700  0.65319737  1
