# generated using pymatgen
data_SbPO4
_symmetry_space_group_name_H-M   'P 1'
_cell_length_a   4.77989246
_cell_length_b   6.79393669
_cell_length_c   23.21008700
_cell_angle_alpha   90.00000000
_cell_angle_beta   95.53061960
_cell_angle_gamma   90.00000000
_symmetry_Int_Tables_number   1
_chemical_formula_structural   SbPO4
_chemical_formula_sum   'Sb2 P2 O8'
_cell_volume   750.22227911
_cell_formula_units_Z   2
loop_
 _symmetry_equiv_pos_site_id
 _symmetry_equiv_pos_as_xyz
  1  'x, y, z'
loop_
 _atom_site_type_symbol
 _atom_site_label
 _atom_site_symmetry_multiplicity
 _atom_site_fract_x
 _atom_site_fract_y
 _atom_site_fract_z
 _atom_site_occupancy
  Sb  Sb0  1  0.66509385  0.25000000  0.86202482  1
  Sb  Sb1  1  0.19471515  0.75000000  0.99778418  1
  P  P2  1  0.62784423  0.75000000  0.90343132  1
  P  P3  1  0.23196377  0.25000000  0.95637668  1
  O  O4  1  0.69416571  0.56672163  0.86955282  1
  O  O5  1  0.69416571  0.93327837  0.86955282  1
  O  O6  1  0.07558965  0.25000000  0.89303805  1
  O  O7  1  0.54936857  0.25000000  0.94362218  1
  O  O8  1  0.78421935  0.75000000  0.96677095  1
  O  O9  1  0.31044043  0.75000000  0.91618682  1
  O  O10  1  0.16564229  0.06672163  0.99025518  1
  O  O11  1  0.16564229  0.43327837  0.99025518  1
