# generated using pymatgen
data_Tl2Sn(AsS3)2
_symmetry_space_group_name_H-M   'P 1'
_cell_length_a   6.70655384
_cell_length_b   6.70655375
_cell_length_c   27.49110700
_cell_angle_alpha   90.00000000
_cell_angle_beta   90.00000000
_cell_angle_gamma   120.00000040
_symmetry_Int_Tables_number   1
_chemical_formula_structural   Tl2Sn(AsS3)2
_chemical_formula_sum   'Tl2 Sn1 As2 S6'
_cell_volume   1070.83284368
_cell_formula_units_Z   1
loop_
 _symmetry_equiv_pos_site_id
 _symmetry_equiv_pos_as_xyz
  1  'x, y, z'
loop_
 _atom_site_type_symbol
 _atom_site_label
 _atom_site_symmetry_multiplicity
 _atom_site_fract_x
 _atom_site_fract_y
 _atom_site_fract_z
 _atom_site_occupancy
  Tl  Tl0  1  0.20653300  0.30589400  0.23670021  1
  Tl  Tl1  1  0.53986700  0.97256000  0.03579179  1
  Sn  Sn2  1  0.87320000  0.63922700  0.13624600  1
  As  As3  1  0.20653300  0.30589400  0.11711770  1
  As  As4  1  0.53986700  0.97256000  0.15537430  1
  S  S5  1  0.10463346  0.53563898  0.07563704  1
  S  S6  1  0.97678802  0.97424848  0.07563704  1
  S  S7  1  0.20822148  0.87066046  0.19685496  1
  S  S8  1  0.53817852  0.40779354  0.07563704  1
  S  S9  1  0.76961198  0.30420552  0.19685496  1
  S  S10  1  0.64176654  0.74281502  0.19685496  1
