# generated using pymatgen
data_SbAsO4
_symmetry_space_group_name_H-M   'P 1'
_cell_length_a   4.76354133
_cell_length_b   7.09131617
_cell_length_c   25.63792022
_cell_angle_alpha   90.00000000
_cell_angle_beta   91.34932728
_cell_angle_gamma   90.00000000
_symmetry_Int_Tables_number   1
_chemical_formula_structural   SbAsO4
_chemical_formula_sum   'Sb2 As2 O8'
_cell_volume   865.80309649
_cell_formula_units_Z   2
loop_
 _symmetry_equiv_pos_site_id
 _symmetry_equiv_pos_as_xyz
  1  'x, y, z'
loop_
 _atom_site_type_symbol
 _atom_site_label
 _atom_site_symmetry_multiplicity
 _atom_site_fract_x
 _atom_site_fract_y
 _atom_site_fract_z
 _atom_site_occupancy
  Sb  Sb0  1  0.30202689  0.64846100  0.18629807  1
  Sb  Sb1  1  0.74096911  0.14846000  0.05784093  1
  As  As2  1  0.22615053  0.14846000  0.14910396  1
  As  As3  1  0.81684747  0.64846100  0.09503504  1
  O  O4  1  0.86542753  0.14846000  0.13400566  1
  O  O5  1  0.70207312  0.64846100  0.15993841  1
  O  O6  1  0.31099914  0.95348611  0.18417820  1
  O  O7  1  0.31099914  0.34343389  0.18417820  1
  O  O8  1  0.73199686  0.45348611  0.05996080  1
  O  O9  1  0.73199686  0.84343389  0.05996080  1
  O  O10  1  0.34092288  0.14846000  0.08420059  1
  O  O11  1  0.17756947  0.64846100  0.11013234  1
