# generated using pymatgen
data_Pr2I5
_symmetry_space_group_name_H-M   'P 1'
_cell_length_a   8.54460388
_cell_length_b   4.27301128
_cell_length_c   32.93499700
_cell_angle_alpha   90.00000000
_cell_angle_beta   95.15174836
_cell_angle_gamma   90.00000000
_symmetry_Int_Tables_number   1
_chemical_formula_structural   Pr2I5
_chemical_formula_sum   'Pr4 I10'
_cell_volume   1197.63825548
_cell_formula_units_Z   2
loop_
 _symmetry_equiv_pos_site_id
 _symmetry_equiv_pos_as_xyz
  1  'x, y, z'
loop_
 _atom_site_type_symbol
 _atom_site_label
 _atom_site_symmetry_multiplicity
 _atom_site_fract_x
 _atom_site_fract_y
 _atom_site_fract_z
 _atom_site_occupancy
  Pr  Pr0  1  0.39233785  0.75000000  0.42921356  1
  Pr  Pr1  1  0.60766215  0.25000000  0.57078644  1
  Pr  Pr2  1  0.99713182  0.25000000  0.35364700  1
  Pr  Pr3  1  0.00286818  0.75000000  0.64635300  1
  I  I4  1  0.62369653  0.25000000  0.39402189  1
  I  I5  1  0.69362031  0.75000000  0.50222144  1
  I  I6  1  0.30637969  0.25000000  0.49777856  1
  I  I7  1  0.01382458  0.75000000  0.42658721  1
  I  I8  1  0.26555825  0.75000000  0.33194691  1
  I  I9  1  0.20051234  0.25000000  0.70013277  1
  I  I10  1  0.79948766  0.75000000  0.29986723  1
  I  I11  1  0.37630347  0.75000000  0.60597811  1
  I  I12  1  0.98617542  0.25000000  0.57341279  1
  I  I13  1  0.73444175  0.25000000  0.66805309  1
