# generated using pymatgen
data_Pr2Br5
_symmetry_space_group_name_H-M   'P 1'
_cell_length_a   4.11915850
_cell_length_b   15.70773567
_cell_length_c   23.52617200
_cell_angle_alpha   100.40694982
_cell_angle_beta   90.00000000
_cell_angle_gamma   90.00000000
_symmetry_Int_Tables_number   1
_chemical_formula_structural   Pr2Br5
_chemical_formula_sum   'Pr4 Br10'
_cell_volume   1497.16479644
_cell_formula_units_Z   2
loop_
 _symmetry_equiv_pos_site_id
 _symmetry_equiv_pos_as_xyz
  1  'x, y, z'
loop_
 _atom_site_type_symbol
 _atom_site_label
 _atom_site_symmetry_multiplicity
 _atom_site_fract_x
 _atom_site_fract_y
 _atom_site_fract_z
 _atom_site_occupancy
  Pr  Pr0  1  0.25000000  0.97194368  0.09874090  1
  Pr  Pr1  1  0.75000000  0.25574832  0.12895110  1
  Pr  Pr2  1  0.75000000  0.75635544  0.13975261  1
  Pr  Pr3  1  0.25000000  0.47133556  0.08793839  1
  Br  Br4  1  0.25000000  0.14957745  0.18138380  1
  Br  Br5  1  0.75000000  0.07811355  0.04630720  1
  Br  Br6  1  0.75000000  0.84867889  0.03529431  1
  Br  Br7  1  0.75000000  0.95076264  0.18778616  1
  Br  Br8  1  0.25000000  0.37901211  0.19239669  1
  Br  Br9  1  0.25000000  0.27692836  0.03990484  1
  Br  Br10  1  0.25000000  0.76635077  0.22905940  1
  Br  Br11  1  0.75000000  0.56926528  0.16802604  1
  Br  Br12  1  0.25000000  0.65842572  0.05966496  1
  Br  Br13  1  0.75000000  0.46134023  0.99863160  1
