# generated using pymatgen
data_ZrP2(HO3)2
_symmetry_space_group_name_H-M   'P 1'
_cell_length_a   5.48300251
_cell_length_b   5.48300267
_cell_length_c   26.10603700
_cell_angle_alpha   90.00000000
_cell_angle_beta   90.00000000
_cell_angle_gamma   119.99999905
_symmetry_Int_Tables_number   1
_chemical_formula_structural   ZrP2(HO3)2
_chemical_formula_sum   'Zr1 P2 H2 O6'
_cell_volume   679.68625427
_cell_formula_units_Z   1
loop_
 _symmetry_equiv_pos_site_id
 _symmetry_equiv_pos_as_xyz
  1  'x, y, z'
loop_
 _atom_site_type_symbol
 _atom_site_label
 _atom_site_symmetry_multiplicity
 _atom_site_fract_x
 _atom_site_fract_y
 _atom_site_fract_z
 _atom_site_occupancy
  Zr  Zr0  1  0.00000000  0.00000000  0.50000000  1
  P  P1  1  0.66666700  0.33333300  0.43696923  1
  P  P2  1  0.33333300  0.66666700  0.56303077  1
  H  H3  1  0.66666700  0.33333300  0.38316463  1
  H  H4  1  0.33333300  0.66666700  0.61683537  1
  O  O5  1  0.35831992  0.17915996  0.45395093  1
  O  O6  1  0.82084004  0.17915996  0.45395093  1
  O  O7  1  0.82084004  0.64168008  0.45395093  1
  O  O8  1  0.17915996  0.82084004  0.54604907  1
  O  O9  1  0.17915996  0.35831992  0.54604907  1
  O  O10  1  0.64168008  0.82084004  0.54604907  1
