# generated using pymatgen
data_TiCl3
_symmetry_space_group_name_H-M   'P 1'
_cell_length_a   6.00775688
_cell_length_b   6.00775688
_cell_length_c   22.81279500
_cell_angle_alpha   90.00000000
_cell_angle_beta   90.00000000
_cell_angle_gamma   120.00000269
_symmetry_Int_Tables_number   1
_chemical_formula_structural   TiCl3
_chemical_formula_sum   'Ti2 Cl6'
_cell_volume   713.07271137
_cell_formula_units_Z   2
loop_
 _symmetry_equiv_pos_site_id
 _symmetry_equiv_pos_as_xyz
  1  'x, y, z'
loop_
 _atom_site_type_symbol
 _atom_site_label
 _atom_site_symmetry_multiplicity
 _atom_site_fract_x
 _atom_site_fract_y
 _atom_site_fract_z
 _atom_site_occupancy
  Cl  Cl0  1  0.65664702  0.65664291  0.00005074  1
  Cl  Cl1  1  -0.00000211  0.34335298  0.00005074  1
  Cl  Cl2  1  0.65664291  -0.00000211  0.12324826  1
  Cl  Cl3  1  0.00000211  0.65664702  0.12324826  1
  Cl  Cl4  1  0.34335298  0.34335709  0.12324826  1
  Cl  Cl5  1  0.34335709  0.00000211  0.00005074  1
  Ti  Ti6  1  0.66666600  0.33333400  0.06164339  1
  Ti  Ti7  1  0.33333400  0.66666600  0.06165561  1
