# generated using pymatgen
data_Te2AuCl
_symmetry_space_group_name_H-M   'P 1'
_cell_length_a   4.08126107
_cell_length_b   8.52784656
_cell_length_c   25.46780000
_cell_angle_alpha   90.00000000
_cell_angle_beta   90.00000000
_cell_angle_gamma   90.00000000
_symmetry_Int_Tables_number   1
_chemical_formula_structural   Te2AuCl
_chemical_formula_sum   'Te4 Au2 Cl2'
_cell_volume   886.39068633
_cell_formula_units_Z   2
loop_
 _symmetry_equiv_pos_site_id
 _symmetry_equiv_pos_as_xyz
  1  'x, y, z'
loop_
 _atom_site_type_symbol
 _atom_site_label
 _atom_site_symmetry_multiplicity
 _atom_site_fract_x
 _atom_site_fract_y
 _atom_site_fract_z
 _atom_site_occupancy
  Au  Au0  1  0.50000000  0.25000000  0.20032674  1
  Au  Au1  1  0.50000000  0.75000000  0.28922426  1
  Cl  Cl2  1  0.50000000  0.75000000  0.17113386  1
  Cl  Cl3  1  0.50000000  0.25000000  0.31841814  1
  Te  Te4  1  -0.00000000  0.03802839  0.19160419  1
  Te  Te5  1  0.00000000  0.46197161  0.19160419  1
  Te  Te6  1  0.00000000  0.96197161  0.29794781  1
  Te  Te7  1  -0.00000000  0.53802839  0.29794781  1
