# generated using pymatgen
data_UIN
_symmetry_space_group_name_H-M   'P 1'
_cell_length_a   3.91026754
_cell_length_b   3.91026754
_cell_length_c   26.22565400
_cell_angle_alpha   90.00000000
_cell_angle_beta   90.00000000
_cell_angle_gamma   90.00000000
_symmetry_Int_Tables_number   1
_chemical_formula_structural   UIN
_chemical_formula_sum   'U2 I2 N2'
_cell_volume   400.99529170
_cell_formula_units_Z   2
loop_
 _symmetry_equiv_pos_site_id
 _symmetry_equiv_pos_as_xyz
  1  'x, y, z'
loop_
 _atom_site_type_symbol
 _atom_site_label
 _atom_site_symmetry_multiplicity
 _atom_site_fract_x
 _atom_site_fract_y
 _atom_site_fract_z
 _atom_site_occupancy
  I  I0  1  -0.00000000  0.50000000  0.00000354  1
  I  I1  1  0.50000000  -0.00000000  0.23738446  1
  N  N2  1  0.50000000  0.50000000  0.11869400  1
  N  N3  1  -0.00000000  -0.00000000  0.11869400  1
  U  U4  1  -0.00000000  0.50000000  0.16217049  1
  U  U5  1  0.50000000  -0.00000000  0.07521751  1
