# generated using pymatgen
data_SbAsO3
_symmetry_space_group_name_H-M   'P 1'
_cell_length_a   4.48582322
_cell_length_b   5.39651240
_cell_length_c   19.50473700
_cell_angle_alpha   90.00000000
_cell_angle_beta   90.71761090
_cell_angle_gamma   86.28708574
_symmetry_Int_Tables_number   1
_chemical_formula_structural   SbAsO3
_chemical_formula_sum   'Sb2 As2 O6'
_cell_volume   471.13861760
_cell_formula_units_Z   2
loop_
 _symmetry_equiv_pos_site_id
 _symmetry_equiv_pos_as_xyz
  1  'x, y, z'
loop_
 _atom_site_type_symbol
 _atom_site_label
 _atom_site_symmetry_multiplicity
 _atom_site_fract_x
 _atom_site_fract_y
 _atom_site_fract_z
 _atom_site_occupancy
  Sb  Sb0  1  0.48391701  0.67484505  0.01712583  1
  Sb  Sb1  1  -0.00839977  0.17445714  0.15403470  1
  As  As2  1  0.98923491  0.24117456  0.97710436  1
  As  As3  1  0.50123353  0.74059671  0.19409783  1
  O  O4  1  0.06083955  0.55079511  0.00840711  1
  O  O5  1  0.59271402  0.32555543  0.98214839  1
  O  O6  1  0.54140975  0.56207568  0.11492455  1
  O  O7  1  0.03820150  0.06194903  0.05623577  1
  O  O8  1  0.56944182  0.05051924  0.16288335  1
  O  O9  1  0.10417268  0.82508904  0.18909710  1
