# generated using pymatgen
data_HfNCl
_symmetry_space_group_name_H-M   'P 1'
_cell_length_a   3.57768946
_cell_length_b   3.57768912
_cell_length_c   27.51658300
_cell_angle_alpha   90.00000000
_cell_angle_beta   90.00000000
_cell_angle_gamma   119.99999405
_symmetry_Int_Tables_number   1
_chemical_formula_structural   HfNCl
_chemical_formula_sum   'Hf2 N2 Cl2'
_cell_volume   305.02146460
_cell_formula_units_Z   2
loop_
 _symmetry_equiv_pos_site_id
 _symmetry_equiv_pos_as_xyz
  1  'x, y, z'
loop_
 _atom_site_type_symbol
 _atom_site_label
 _atom_site_symmetry_multiplicity
 _atom_site_fract_x
 _atom_site_fract_y
 _atom_site_fract_z
 _atom_site_occupancy
  Hf  Hf0  1  -0.00000000  0.00000000  0.12520439  1
  Hf  Hf1  1  0.66666700  0.33333300  0.22024261  1
  N  N2  1  0.66666700  0.33333300  0.14155456  1
  N  N3  1  -0.00000000  0.00000000  0.20389244  1
  Cl  Cl4  1  0.33333300  0.66666700  0.05946126  1
  Cl  Cl5  1  0.33333300  0.66666700  0.28598574  1
