# generated using pymatgen
data_PuBrO
_symmetry_space_group_name_H-M   'P 1'
_cell_length_a   3.90127024
_cell_length_b   3.90127024
_cell_length_c   28.55871300
_cell_angle_alpha   90.00000000
_cell_angle_beta   90.00000000
_cell_angle_gamma   90.00000000
_symmetry_Int_Tables_number   1
_chemical_formula_structural   PuBrO
_chemical_formula_sum   'Pu2 Br2 O2'
_cell_volume   434.66102701
_cell_formula_units_Z   2
loop_
 _symmetry_equiv_pos_site_id
 _symmetry_equiv_pos_as_xyz
  1  'x, y, z'
loop_
 _atom_site_type_symbol
 _atom_site_label
 _atom_site_symmetry_multiplicity
 _atom_site_fract_x
 _atom_site_fract_y
 _atom_site_fract_z
 _atom_site_occupancy
  Pu  Pu0  1  0.58540800  0.08540800  0.19274248  1
  Pu  Pu1  1  0.08540800  0.58540800  0.10694552  1
  Br  Br2  1  0.08540800  0.58540800  0.24950739  1
  Br  Br3  1  0.58540800  0.08540800  0.05018161  1
  O  O4  1  0.58540800  0.58540800  0.14984400  1
  O  O5  1  0.08540800  0.08540800  0.14984400  1
