# generated using pymatgen
data_Te2Au
_symmetry_space_group_name_H-M   'P 1'
_cell_length_a   3.99871063
_cell_length_b   3.99824065
_cell_length_c   23.00962700
_cell_angle_alpha   89.85421823
_cell_angle_beta   90.00000000
_cell_angle_gamma   120.00388147
_symmetry_Int_Tables_number   1
_chemical_formula_structural   Te2Au
_chemical_formula_sum   'Te2 Au1'
_cell_volume   318.57394659
_cell_formula_units_Z   1
loop_
 _symmetry_equiv_pos_site_id
 _symmetry_equiv_pos_as_xyz
  1  'x, y, z'
loop_
 _atom_site_type_symbol
 _atom_site_label
 _atom_site_symmetry_multiplicity
 _atom_site_fract_x
 _atom_site_fract_y
 _atom_site_fract_z
 _atom_site_occupancy
  Au  Au0  1  -0.00000000  -0.00000000  0.06540100  1
  Te  Te1  1  0.33410889  0.66821778  -0.00333115  1
  Te  Te2  1  0.66589111  0.33178222  0.13413215  1
