# generated using pymatgen
data_LiBiO2
_symmetry_space_group_name_H-M   'P 1'
_cell_length_a   4.73976021
_cell_length_b   5.25423632
_cell_length_c   28.63128600
_cell_angle_alpha   90.00000000
_cell_angle_beta   90.00000000
_cell_angle_gamma   90.00000000
_symmetry_Int_Tables_number   1
_chemical_formula_structural   LiBiO2
_chemical_formula_sum   'Li4 Bi4 O8'
_cell_volume   713.02840109
_cell_formula_units_Z   4
loop_
 _symmetry_equiv_pos_site_id
 _symmetry_equiv_pos_as_xyz
  1  'x, y, z'
loop_
 _atom_site_type_symbol
 _atom_site_label
 _atom_site_symmetry_multiplicity
 _atom_site_fract_x
 _atom_site_fract_y
 _atom_site_fract_z
 _atom_site_occupancy
  Li  Li0  1  0.75000000  -0.00000000  0.16189882  1
  Li  Li1  1  0.25000000  -0.00000000  0.16189882  1
  Li  Li2  1  0.25000000  0.50000000  0.16346718  1
  Li  Li3  1  0.75000000  0.50000000  0.16346718  1
  Bi  Bi4  1  0.00000000  0.24257354  0.05989149  1
  Bi  Bi5  1  0.50000000  0.75742646  0.05989149  1
  Bi  Bi6  1  0.50000000  0.25742646  0.26547451  1
  Bi  Bi7  1  0.00000000  0.74257354  0.26547451  1
  O  O8  1  0.50000000  0.16749544  0.05685810  1
  O  O9  1  0.00000000  0.83250456  0.05685810  1
  O  O10  1  -0.00000000  0.25627590  0.13224960  1
  O  O11  1  0.50000000  0.74372410  0.13224960  1
  O  O12  1  0.50000000  0.24372410  0.19311640  1
  O  O13  1  -0.00000000  0.75627590  0.19311640  1
  O  O14  1  0.00000000  0.33250456  0.26850790  1
  O  O15  1  0.50000000  0.66749544  0.26850790  1
