# generated using pymatgen
data_RbI3
_symmetry_space_group_name_H-M   'P 1'
_cell_length_a   8.93434561
_cell_length_b   10.97503567
_cell_length_c   26.99464100
_cell_angle_alpha   90.00000000
_cell_angle_beta   90.00000000
_cell_angle_gamma   90.00000000
_symmetry_Int_Tables_number   1
_chemical_formula_structural   RbI3
_chemical_formula_sum   'Rb2 I6'
_cell_volume   2646.95309429
_cell_formula_units_Z   2
loop_
 _symmetry_equiv_pos_site_id
 _symmetry_equiv_pos_as_xyz
  1  'x, y, z'
loop_
 _atom_site_type_symbol
 _atom_site_label
 _atom_site_symmetry_multiplicity
 _atom_site_fract_x
 _atom_site_fract_y
 _atom_site_fract_z
 _atom_site_occupancy
  Rb  Rb0  1  0.83309985  0.49212242  0.06477800  1
  Rb  Rb1  1  0.33309985  0.00787758  0.06477800  1
  I  I2  1  0.37159358  0.51633993  0.06477800  1
  I  I3  1  0.87159358  0.98366007  0.06477800  1
  I  I4  1  0.56670068  0.73381080  0.06477800  1
  I  I5  1  0.06670068  0.76618920  0.06477800  1
  I  I6  1  0.66122089  0.19684335  0.06477800  1
  I  I7  1  0.16122089  0.30315665  0.06477800  1
