# generated using pymatgen
data_CrPS4
_symmetry_space_group_name_H-M   'P 1'
_cell_length_a   6.54836925
_cell_length_b   6.54859920
_cell_length_c   23.71086000
_cell_angle_alpha   91.09346870
_cell_angle_beta   91.09350710
_cell_angle_gamma   112.63916475
_symmetry_Int_Tables_number   1
_chemical_formula_structural   CrPS4
_chemical_formula_sum   'Cr2 P2 S8'
_cell_volume   937.88261551
_cell_formula_units_Z   2
loop_
 _symmetry_equiv_pos_site_id
 _symmetry_equiv_pos_as_xyz
  1  'x, y, z'
loop_
 _atom_site_type_symbol
 _atom_site_label
 _atom_site_symmetry_multiplicity
 _atom_site_fract_x
 _atom_site_fract_y
 _atom_site_fract_z
 _atom_site_occupancy
  Cr  Cr0  1  0.25327798  0.25337485  0.07823850  1
  Cr  Cr1  1  0.74672202  0.74662515  0.07826550  1
  P  P2  1  0.70146273  0.28861009  0.03473437  1
  P  P3  1  0.29853727  0.71138991  0.12177063  1
  S  S4  1  0.39512439  0.11668117  0.00016644  1
  S  S5  1  0.13411447  0.41281424  0.15629986  1
  S  S6  1  0.10667334  0.90480874  0.12866907  1
  S  S7  1  0.89332666  0.09519126  0.02783493  1
  S  S8  1  0.63039544  0.37781738  0.11558542  1
  S  S9  1  0.36960456  0.62218262  0.04091858  1
  S  S10  1  0.86588553  0.58718576  0.00020514  1
  S  S11  1  0.60487561  0.88331883  0.15633856  1
