# generated using pymatgen
data_TlI3
_symmetry_space_group_name_H-M   'P 1'
_cell_length_a   9.68998043
_cell_length_b   9.62209627
_cell_length_c   26.66472300
_cell_angle_alpha   90.00000000
_cell_angle_beta   90.00000000
_cell_angle_gamma   90.00000000
_symmetry_Int_Tables_number   1
_chemical_formula_structural   TlI3
_chemical_formula_sum   'Tl2 I6'
_cell_volume   2486.16343187
_cell_formula_units_Z   2
loop_
 _symmetry_equiv_pos_site_id
 _symmetry_equiv_pos_as_xyz
  1  'x, y, z'
loop_
 _atom_site_type_symbol
 _atom_site_label
 _atom_site_symmetry_multiplicity
 _atom_site_fract_x
 _atom_site_fract_y
 _atom_site_fract_z
 _atom_site_occupancy
  Tl  Tl0  1  0.35863136  0.49992236  0.06248600  1
  Tl  Tl1  1  0.85863136  0.00007764  0.06248600  1
  I  I2  1  0.14041757  0.78223064  0.06248600  1
  I  I3  1  0.64041757  0.71776936  0.06248600  1
  I  I4  1  0.35838782  -0.00010272  0.06248600  1
  I  I5  1  0.85838782  0.50010272  0.06248600  1
  I  I6  1  0.57648026  0.21750607  0.06248600  1
  I  I7  1  0.07648026  0.28249393  0.06248600  1
