# generated using pymatgen
data_Br2O
_symmetry_space_group_name_H-M   'P 1'
_cell_length_a   3.90596351
_cell_length_b   7.47563981
_cell_length_c   26.40958000
_cell_angle_alpha   90.00000000
_cell_angle_beta   90.00000000
_cell_angle_gamma   90.00000000
_symmetry_Int_Tables_number   1
_chemical_formula_structural   Br2O
_chemical_formula_sum   'Br4 O2'
_cell_volume   771.14854773
_cell_formula_units_Z   2
loop_
 _symmetry_equiv_pos_site_id
 _symmetry_equiv_pos_as_xyz
  1  'x, y, z'
loop_
 _atom_site_type_symbol
 _atom_site_label
 _atom_site_symmetry_multiplicity
 _atom_site_fract_x
 _atom_site_fract_y
 _atom_site_fract_z
 _atom_site_occupancy
  Br  Br0  1  0.63585868  0.31842567  0.19951117  1
  Br  Br1  1  0.36414132  0.81842567  0.19464883  1
  Br  Br2  1  0.39624905  0.51245079  0.27960267  1
  Br  Br3  1  0.60375095  0.01245079  0.11455633  1
  O  O4  1  0.13754751  0.69102354  0.24985067  1
  O  O5  1  0.86245249  0.19102354  0.14430833  1
