# generated using pymatgen
data_RbBrF4
_symmetry_space_group_name_H-M   'P 1'
_cell_length_a   7.04417685
_cell_length_b   7.04417685
_cell_length_c   26.12730000
_cell_angle_alpha   90.00000000
_cell_angle_beta   90.00000000
_cell_angle_gamma   90.00000000
_symmetry_Int_Tables_number   1
_chemical_formula_structural   RbBrF4
_chemical_formula_sum   'Rb2 Br2 F8'
_cell_volume   1296.44779499
_cell_formula_units_Z   2
loop_
 _symmetry_equiv_pos_site_id
 _symmetry_equiv_pos_as_xyz
  1  'x, y, z'
loop_
 _atom_site_type_symbol
 _atom_site_label
 _atom_site_symmetry_multiplicity
 _atom_site_fract_x
 _atom_site_fract_y
 _atom_site_fract_z
 _atom_site_occupancy
  Br  Br0  1  -0.00000000  0.50000000  0.21294400  1
  Br  Br1  1  0.50000000  -0.00000000  0.21294400  1
  F  F2  1  0.64288258  0.14288258  0.16257111  1
  F  F3  1  0.35711742  0.85711742  0.16257111  1
  F  F4  1  0.14288258  0.35711742  0.16257111  1
  F  F5  1  0.85711742  0.64288258  0.16257111  1
  F  F6  1  0.64288258  0.14288258  0.26331689  1
  F  F7  1  0.35711742  0.85711742  0.26331689  1
  F  F8  1  0.14288258  0.35711742  0.26331689  1
  F  F9  1  0.85711742  0.64288258  0.26331689  1
  Rb  Rb10  1  -0.00000000  -0.00000000  0.21294400  1
  Rb  Rb11  1  0.50000000  0.50000000  0.21294400  1
