# generated using pymatgen
data_Sr(BiO2)2
_symmetry_space_group_name_H-M   'P 1'
_cell_length_a   4.36837069
_cell_length_b   5.98335673
_cell_length_c   26.63917000
_cell_angle_alpha   97.44511648
_cell_angle_beta   90.00000000
_cell_angle_gamma   90.00001128
_symmetry_Int_Tables_number   1
_chemical_formula_structural   Sr(BiO2)2
_chemical_formula_sum   'Sr2 Bi4 O8'
_cell_volume   690.41179585
_cell_formula_units_Z   2
loop_
 _symmetry_equiv_pos_site_id
 _symmetry_equiv_pos_as_xyz
  1  'x, y, z'
loop_
 _atom_site_type_symbol
 _atom_site_label
 _atom_site_symmetry_multiplicity
 _atom_site_fract_x
 _atom_site_fract_y
 _atom_site_fract_z
 _atom_site_occupancy
  Sr  Sr0  1  0.25000053  0.85253576  0.11203787  1
  Sr  Sr1  1  0.74999918  0.39675456  0.13726810  1
  Bi  Bi2  1  0.24999917  0.49904039  0.25478228  1
  Bi  Bi3  1  0.75000189  0.01321055  0.23203002  1
  Bi  Bi4  1  0.75000102  0.75029767  0.99452387  1
  Bi  Bi5  1  0.24999811  0.23611421  0.01728350  1
  O  O6  1  0.75000003  0.99472612  0.15448415  1
  O  O7  1  0.24999723  0.60711623  0.18365698  1
  O  O8  1  0.24999973  0.25456631  0.09482867  1
  O  O9  1  0.75000251  0.64215805  0.06564390  1
  O  O10  1  0.74999795  0.38889149  0.23996115  1
  O  O11  1  0.25000163  0.13440748  0.23918882  1
  O  O12  1  0.25000186  0.86043695  0.00934132  1
  O  O13  1  0.74999816  0.11492022  0.01014537  1
