# generated using pymatgen
data_Pd(Se3Cl)2
_symmetry_space_group_name_H-M   'P 1'
_cell_length_a   4.31330322
_cell_length_b   8.48802903
_cell_length_c   27.07672901
_cell_angle_alpha   90.53417924
_cell_angle_beta   95.22873141
_cell_angle_gamma   84.12821078
_symmetry_Int_Tables_number   1
_chemical_formula_structural   Pd(Se3Cl)2
_chemical_formula_sum   'Pd1 Se6 Cl2'
_cell_volume   982.01357226
_cell_formula_units_Z   1
loop_
 _symmetry_equiv_pos_site_id
 _symmetry_equiv_pos_as_xyz
  1  'x, y, z'
loop_
 _atom_site_type_symbol
 _atom_site_label
 _atom_site_symmetry_multiplicity
 _atom_site_fract_x
 _atom_site_fract_y
 _atom_site_fract_z
 _atom_site_occupancy
  Cl  Cl0  1  0.51655429  0.54461910  0.16842302  1
  Cl  Cl1  1  0.18641571  0.45538090  0.31236698  1
  Pd  Pd2  1  0.85148500  0.50000000  0.24039500  1
  Se  Se3  1  0.96808333  0.11806152  0.31332153  1
  Se  Se4  1  0.73488667  0.88193848  0.16746847  1
  Se  Se5  1  0.91263658  0.13471648  0.17484872  1
  Se  Se6  1  0.64010538  0.24569976  0.24425344  1
  Se  Se7  1  0.06286562  0.75430024  0.23653656  1
  Se  Se8  1  0.79033442  0.86528352  0.30594128  1
