# generated using pymatgen
data_Mg5(HO3)2
_symmetry_space_group_name_H-M   'P 1'
_cell_length_a   3.02831283
_cell_length_b   3.02831333
_cell_length_c   33.88764800
_cell_angle_alpha   90.00000000
_cell_angle_beta   90.00000000
_cell_angle_gamma   120.00000555
_symmetry_Int_Tables_number   1
_chemical_formula_structural   Mg5(HO3)2
_chemical_formula_sum   'Mg5 H2 O6'
_cell_volume   269.13710671
_cell_formula_units_Z   1
loop_
 _symmetry_equiv_pos_site_id
 _symmetry_equiv_pos_as_xyz
  1  'x, y, z'
loop_
 _atom_site_type_symbol
 _atom_site_label
 _atom_site_symmetry_multiplicity
 _atom_site_fract_x
 _atom_site_fract_y
 _atom_site_fract_z
 _atom_site_occupancy
  Mg  Mg0  1  0.66666700  0.33333300  0.35595752  1
  Mg  Mg1  1  0.33333300  0.66666700  0.42813969  1
  Mg  Mg2  1  -0.00000000  -0.00000000  0.50000000  1
  Mg  Mg3  1  0.66666700  0.33333300  0.57186031  1
  Mg  Mg4  1  0.33333300  0.66666700  0.64404248  1
  H  H5  1  0.33333300  0.66666700  0.29607754  1
  H  H6  1  0.66666700  0.33333300  0.70392246  1
  O  O7  1  0.33333300  0.66666700  0.32462024  1
  O  O8  1  -0.00000000  -0.00000000  0.39216408  1
  O  O9  1  0.66666700  0.33333300  0.46407063  1
  O  O10  1  0.33333300  0.66666700  0.53592937  1
  O  O11  1  -0.00000000  0.00000000  0.60783592  1
  O  O12  1  0.66666700  0.33333300  0.67537976  1
