# generated using pymatgen
data_Mg4H2O5
_symmetry_space_group_name_H-M   'P 1'
_cell_length_a   3.03706969
_cell_length_b   3.03706887
_cell_length_c   31.42296300
_cell_angle_alpha   90.00000000
_cell_angle_beta   90.00000000
_cell_angle_gamma   119.99999808
_symmetry_Int_Tables_number   1
_chemical_formula_structural   Mg4H2O5
_chemical_formula_sum   'Mg4 H2 O5'
_cell_volume   251.00777341
_cell_formula_units_Z   1
loop_
 _symmetry_equiv_pos_site_id
 _symmetry_equiv_pos_as_xyz
  1  'x, y, z'
loop_
 _atom_site_type_symbol
 _atom_site_label
 _atom_site_symmetry_multiplicity
 _atom_site_fract_x
 _atom_site_fract_y
 _atom_site_fract_z
 _atom_site_occupancy
  Mg  Mg0  1  0.00000000  0.00000000  0.38362631  1
  Mg  Mg1  1  0.66666700  0.33333300  0.46133186  1
  Mg  Mg2  1  0.33333300  0.66666700  0.53866814  1
  Mg  Mg3  1  0.00000000  -0.00000000  0.61637369  1
  H  H4  1  0.66666700  0.33333300  0.31912787  1
  H  H5  1  0.33333300  0.66666700  0.68087213  1
  O  O6  1  0.66666700  0.33333300  0.34991402  1
  O  O7  1  0.33333300  0.66666700  0.42260669  1
  O  O8  1  0.00000000  -0.00000000  0.50000000  1
  O  O9  1  0.66666700  0.33333300  0.57739331  1
  O  O10  1  0.33333300  0.66666700  0.65008598  1
