# generated using pymatgen
data_Mg3(HO2)2
_symmetry_space_group_name_H-M   'P 1'
_cell_length_a   3.05106509
_cell_length_b   3.05106523
_cell_length_c   28.96129200
_cell_angle_alpha   90.00000000
_cell_angle_beta   90.00000000
_cell_angle_gamma   120.00000905
_symmetry_Int_Tables_number   1
_chemical_formula_structural   Mg3(HO2)2
_chemical_formula_sum   'Mg3 H2 O4'
_cell_volume   233.48097084
_cell_formula_units_Z   1
loop_
 _symmetry_equiv_pos_site_id
 _symmetry_equiv_pos_as_xyz
  1  'x, y, z'
loop_
 _atom_site_type_symbol
 _atom_site_label
 _atom_site_symmetry_multiplicity
 _atom_site_fract_x
 _atom_site_fract_y
 _atom_site_fract_z
 _atom_site_occupancy
  Mg  Mg0  1  0.66666700  0.33333300  0.58422519  1
  Mg  Mg1  1  0.00000000  0.00000000  0.49997122  1
  Mg  Mg2  1  0.33333300  0.66666700  0.41571688  1
  H  H3  1  0.00000000  0.00000000  0.65407066  1
  H  H4  1  0.00000000  0.00000000  0.34586814  1
  O  O5  1  0.00000000  0.00000000  0.62065841  1
  O  O6  1  0.33333300  0.66666700  0.54195232  1
  O  O7  1  0.66666700  0.33333300  0.45798773  1
  O  O8  1  0.00000000  0.00000000  0.37928045  1
