# generated using pymatgen
data_CNCl
_symmetry_space_group_name_H-M   'P 1'
_cell_length_a   3.80223944
_cell_length_b   5.64720399
_cell_length_c   22.95920000
_cell_angle_alpha   90.00000000
_cell_angle_beta   90.00000000
_cell_angle_gamma   90.00000000
_symmetry_Int_Tables_number   1
_chemical_formula_structural   CNCl
_chemical_formula_sum   'C1 N1 Cl1'
_cell_volume   492.98044106
_cell_formula_units_Z   1
loop_
 _symmetry_equiv_pos_site_id
 _symmetry_equiv_pos_as_xyz
  1  'x, y, z'
loop_
 _atom_site_type_symbol
 _atom_site_label
 _atom_site_symmetry_multiplicity
 _atom_site_fract_x
 _atom_site_fract_y
 _atom_site_fract_z
 _atom_site_occupancy
  C  C0  1  0.50000000  0.42783303  0.12977800  1
  Cl  Cl1  1  0.50000000  0.14113506  0.12977800  1
  N  N2  1  0.50000000  0.63423191  0.12977800  1
