# generated using pymatgen
data_Ta2PdSe6
_symmetry_space_group_name_H-M   'P 1'
_cell_length_a   3.40033388
_cell_length_b   9.70174283
_cell_length_c   23.94266400
_cell_angle_alpha   97.28008941
_cell_angle_beta   90.00000000
_cell_angle_gamma   100.09282605
_symmetry_Int_Tables_number   1
_chemical_formula_structural   Ta2PdSe6
_chemical_formula_sum   'Ta2 Pd1 Se6'
_cell_volume   771.15743876
_cell_formula_units_Z   1
loop_
 _symmetry_equiv_pos_site_id
 _symmetry_equiv_pos_as_xyz
  1  'x, y, z'
loop_
 _atom_site_type_symbol
 _atom_site_label
 _atom_site_symmetry_multiplicity
 _atom_site_fract_x
 _atom_site_fract_y
 _atom_site_fract_z
 _atom_site_occupancy
  Pd  Pd0  1  0.50000000  0.00000000  0.08233600  1
  Se  Se1  1  0.56619998  0.13239996  0.99977542  1
  Se  Se2  1  0.61682321  0.23364641  0.14072512  1
  Se  Se3  1  0.73358332  0.46716565  0.02438095  1
  Se  Se4  1  0.26641668  0.53283435  0.14029005  1
  Se  Se5  1  0.43380002  0.86760004  0.16489558  1
  Se  Se6  1  0.38317679  0.76635359  0.02394688  1
  Ta  Ta7  1  0.14537345  0.29074690  0.06298254  1
  Ta  Ta8  1  0.85462655  0.70925310  0.10168846  1
