# generated using pymatgen
data_ScBrO
_symmetry_space_group_name_H-M   'P 1'
_cell_length_a   3.55933050
_cell_length_b   3.96189229
_cell_length_c   28.98387400
_cell_angle_alpha   90.00000000
_cell_angle_beta   90.00000000
_cell_angle_gamma   90.00000000
_symmetry_Int_Tables_number   1
_chemical_formula_structural   ScBrO
_chemical_formula_sum   'Sc2 Br2 O2'
_cell_volume   408.72143458
_cell_formula_units_Z   2
loop_
 _symmetry_equiv_pos_site_id
 _symmetry_equiv_pos_as_xyz
  1  'x, y, z'
loop_
 _atom_site_type_symbol
 _atom_site_label
 _atom_site_symmetry_multiplicity
 _atom_site_fract_x
 _atom_site_fract_y
 _atom_site_fract_z
 _atom_site_occupancy
  Sc  Sc0  1  0.75600500  0.12736000  0.18713825  1
  Sc  Sc1  1  0.25600500  0.62736000  0.12282275  1
  Br  Br2  1  0.25600500  0.12736000  0.25533771  1
  Br  Br3  1  0.75600500  0.62736000  0.05462329  1
  O  O4  1  0.75600500  0.62736000  0.16469825  1
  O  O5  1  0.25600500  0.12736000  0.14526275  1
