# generated using pymatgen
data_SnP7Au3
_symmetry_space_group_name_H-M   'P 1'
_cell_length_a   5.06711201
_cell_length_b   5.73324186
_cell_length_c   25.98030400
_cell_angle_alpha   90.00000000
_cell_angle_beta   96.76888845
_cell_angle_gamma   99.27567425
_symmetry_Int_Tables_number   1
_chemical_formula_structural   SnP7Au3
_chemical_formula_sum   'Sn1 P7 Au3'
_cell_volume   739.55319261
_cell_formula_units_Z   1
loop_
 _symmetry_equiv_pos_site_id
 _symmetry_equiv_pos_as_xyz
  1  'x, y, z'
loop_
 _atom_site_type_symbol
 _atom_site_label
 _atom_site_symmetry_multiplicity
 _atom_site_fract_x
 _atom_site_fract_y
 _atom_site_fract_z
 _atom_site_occupancy
  Sn  Sn0  1  0.50392487  0.05727939  0.11993071  1
  P  P1  1  0.06817370  0.73844757  0.13227370  1
  P  P2  1  0.61865228  0.78817745  0.21288273  1
  P  P3  1  0.74938841  0.77181638  0.06718167  1
  P  P4  1  0.40059043  0.99604306  0.26044386  1
  P  P5  1  0.02197697  0.97365437  0.20056568  1
  P  P6  1  0.20705455  0.29570977  0.04627076  1
  P  P7  1  0.90357108  0.02719521  0.00538731  1
  Au  Au8  1  0.55761201  0.38626532  0.23310985  1
  Au  Au9  1  0.70834484  0.37363645  0.02963456  1
  Au  Au10  1  0.00837186  0.35413603  0.16723217  1
