# generated using pymatgen
data_K2Se5
_symmetry_space_group_name_H-M   'P 1'
_cell_length_a   6.58032307
_cell_length_b   6.58807983
_cell_length_c   29.81257100
_cell_angle_alpha   90.00000000
_cell_angle_beta   90.00000000
_cell_angle_gamma   90.00000000
_symmetry_Int_Tables_number   1
_chemical_formula_structural   K2Se5
_chemical_formula_sum   'K4 Se10'
_cell_volume   1292.42544719
_cell_formula_units_Z   2
loop_
 _symmetry_equiv_pos_site_id
 _symmetry_equiv_pos_as_xyz
  1  'x, y, z'
loop_
 _atom_site_type_symbol
 _atom_site_label
 _atom_site_symmetry_multiplicity
 _atom_site_fract_x
 _atom_site_fract_y
 _atom_site_fract_z
 _atom_site_occupancy
  K  K0  1  0.07680233  0.84497323  0.21738949  1
  K  K1  1  0.35831948  0.42678664  0.33068820  1
  K  K2  1  0.85831948  0.07321336  0.33388280  1
  K  K3  1  0.57680233  0.65502677  0.44718151  1
  Se  Se4  1  0.52742512  0.26883651  0.20636801  1
  Se  Se5  1  0.09954756  0.35430137  0.23388240  1
  Se  Se6  1  0.56830344  0.92308536  0.23472881  1
  Se  Se7  1  0.75530009  0.45056715  0.25509484  1
  Se  Se8  1  0.38821397  0.91935914  0.30388993  1
  Se  Se9  1  0.88821397  0.58064086  0.36068107  1
  Se  Se10  1  0.25530009  0.04943285  0.40947616  1
  Se  Se11  1  0.06830344  0.57691464  0.42984219  1
  Se  Se12  1  0.59954756  0.14569863  0.43068860  1
  Se  Se13  1  0.02742512  0.23116349  0.45820299  1
