# generated using pymatgen
data_PdBr2
_symmetry_space_group_name_H-M   'P 1'
_cell_length_a   6.58637465
_cell_length_b   3.98370003
_cell_length_c   26.81913162
_cell_angle_alpha   90.00000000
_cell_angle_beta   96.52893030
_cell_angle_gamma   90.00000000
_symmetry_Int_Tables_number   1
_chemical_formula_structural   PdBr2
_chemical_formula_sum   'Pd2 Br4'
_cell_volume   699.12045946
_cell_formula_units_Z   2
loop_
 _symmetry_equiv_pos_site_id
 _symmetry_equiv_pos_as_xyz
  1  'x, y, z'
loop_
 _atom_site_type_symbol
 _atom_site_label
 _atom_site_symmetry_multiplicity
 _atom_site_fract_x
 _atom_site_fract_y
 _atom_site_fract_z
 _atom_site_occupancy
  Pd  Pd0  1  0.38705400  0.00000000  0.25605400  1
  Pd  Pd1  1  0.88705400  0.00000000  0.25605400  1
  Br  Br2  1  0.10778597  0.18102306  0.19285010  1
  Br  Br3  1  0.16632203  0.18102306  0.31925790  1
  Br  Br4  1  0.60778597  0.81897694  0.19285010  1
  Br  Br5  1  0.66632203  0.81897694  0.31925790  1
