# generated using pymatgen
data_Ta3SeI7
_symmetry_space_group_name_H-M   'P 1'
_cell_length_a   7.60202825
_cell_length_b   7.60202769
_cell_length_c   26.83594600
_cell_angle_alpha   90.00000000
_cell_angle_beta   90.00000000
_cell_angle_gamma   119.99999816
_symmetry_Int_Tables_number   1
_chemical_formula_structural   Ta3SeI7
_chemical_formula_sum   'Ta3 Se1 I7'
_cell_volume   1343.09420435
_cell_formula_units_Z   1
loop_
 _symmetry_equiv_pos_site_id
 _symmetry_equiv_pos_as_xyz
  1  'x, y, z'
loop_
 _atom_site_type_symbol
 _atom_site_label
 _atom_site_symmetry_multiplicity
 _atom_site_fract_x
 _atom_site_fract_y
 _atom_site_fract_z
 _atom_site_occupancy
  Ta  Ta0  1  0.25969824  0.12984862  0.13861529  1
  Ta  Ta1  1  0.87015138  0.74030176  0.13861529  1
  Ta  Ta2  1  0.87015138  0.12984862  0.13861529  1
  Se  Se3  1  0.00000000  0.00000000  0.20943967  1
  I  I4  1  0.16875506  0.83124494  0.06818513  1
  I  I5  1  0.16875506  0.33751012  0.06818513  1
  I  I6  1  0.66248988  0.83124494  0.06818513  1
  I  I7  1  0.66666700  0.33333300  0.08417962  1
  I  I8  1  0.49741255  0.99482511  0.19592248  1
  I  I9  1  0.49741255  0.50258745  0.19592248  1
  I  I10  1  0.00517489  0.50258745  0.19592248  1
