# generated using pymatgen
data_Nb3Br8
_symmetry_space_group_name_H-M   'P 1'
_cell_length_a   7.12539056
_cell_length_b   7.12540548
_cell_length_c   23.75510400
_cell_angle_alpha   90.00000000
_cell_angle_beta   90.00000000
_cell_angle_gamma   119.99945668
_symmetry_Int_Tables_number   1
_chemical_formula_structural   Nb3Br8
_chemical_formula_sum   'Nb3 Br8'
_cell_volume   1044.49941941
_cell_formula_units_Z   1
loop_
 _symmetry_equiv_pos_site_id
 _symmetry_equiv_pos_as_xyz
  1  'x, y, z'
loop_
 _atom_site_type_symbol
 _atom_site_label
 _atom_site_symmetry_multiplicity
 _atom_site_fract_x
 _atom_site_fract_y
 _atom_site_fract_z
 _atom_site_occupancy
  Nb  Nb0  1  0.46864658  0.93729097  0.92545539  1
  Nb  Nb1  1  0.06270847  0.53135282  0.92545473  1
  Br  Br2  1  0.33333320  0.66666648  0.84090174  1
  Br  Br3  1  0.66666321  0.33333206  0.98530240  1
  Br  Br4  1  0.83594959  0.67189326  0.86478021  1
  Br  Br5  1  0.66583455  0.83291797  0.00024577  1
  Br  Br6  1  0.16708095  0.33416731  0.00024614  1
  Br  Br7  1  0.32810674  0.16405175  0.86478127  1
  Nb  Nb8  1  0.46864504  0.53135425  0.92545539  1
  Br  Br9  1  0.83594708  0.16405566  0.86477851  1
  Br  Br10  1  0.16708261  0.83291348  0.00024645  1
