# generated using pymatgen
data_SiP
_symmetry_space_group_name_H-M   'P 1'
_cell_length_a   3.54438029
_cell_length_b   10.46295269
_cell_length_c   24.73016900
_cell_angle_alpha   90.00000000
_cell_angle_beta   90.00000000
_cell_angle_gamma   99.75163521
_symmetry_Int_Tables_number   1
_chemical_formula_structural   SiP
_chemical_formula_sum   'Si6 P6'
_cell_volume   903.85936235
_cell_formula_units_Z   6
loop_
 _symmetry_equiv_pos_site_id
 _symmetry_equiv_pos_as_xyz
  1  'x, y, z'
loop_
 _atom_site_type_symbol
 _atom_site_label
 _atom_site_symmetry_multiplicity
 _atom_site_fract_x
 _atom_site_fract_y
 _atom_site_fract_z
 _atom_site_occupancy
  P  P0  1  0.23046097  0.46092193  0.16270469  1
  P  P1  1  0.68927720  0.37855439  0.02601449  1
  P  P2  1  0.00058440  0.00116881  0.02823617  1
  P  P3  1  0.54177436  0.08354871  0.16492238  1
  P  P4  1  0.88602727  0.77205454  0.19135400  1
  P  P5  1  0.34501683  0.69003366  -0.00041381  1
  Si  Si6  1  0.06025750  0.12051500  0.10767291  1
  Si  Si7  1  0.17078618  0.34157235  0.08326304  1
  Si  Si8  1  0.79487127  0.58974253  0.13885353  1
  Si  Si9  1  0.79814257  0.59628515  0.04315841  1
  Si  Si10  1  0.43617314  0.87234628  0.05208779  1
  Si  Si11  1  0.43290432  0.86580865  0.14778538  1
