# generated using pymatgen
data_Cr3O8
_symmetry_space_group_name_H-M   'P 1'
_cell_length_a   5.63049221
_cell_length_b   5.63049219
_cell_length_c   9.75126000
_cell_angle_alpha   90.00000000
_cell_angle_beta   90.00000000
_cell_angle_gamma   120.00000010
_symmetry_Int_Tables_number   1
_chemical_formula_structural   Cr3O8
_chemical_formula_sum   'Cr3 O8'
_cell_volume   267.72201773
_cell_formula_units_Z   1
loop_
 _symmetry_equiv_pos_site_id
 _symmetry_equiv_pos_as_xyz
  1  'x, y, z'
loop_
 _atom_site_type_symbol
 _atom_site_label
 _atom_site_symmetry_multiplicity
 _atom_site_fract_x
 _atom_site_fract_y
 _atom_site_fract_z
 _atom_site_occupancy
  Cr  Cr0  1  0.33333689  0.16666895  0.25046479  1
  Cr  Cr1  1  0.83333105  0.66666311  0.25046479  1
  Cr  Cr2  1  0.83333105  0.16666895  0.25046479  1
  O  O3  1  0.66666700  0.33333300  0.14321220  1
  O  O4  1  0.15177759  0.30355518  0.15438045  1
  O  O5  1  0.15177759  0.84822241  0.15438045  1
  O  O6  1  0.69644482  0.84822241  0.15438045  1
  O  O7  1  0.97021510  0.48510805  0.34656063  1
  O  O8  1  0.51489195  0.02978490  0.34656063  1
  O  O9  1  0.51489195  0.48510805  0.34656063  1
  O  O10  1  -0.00000000  -0.00000000  0.35771619  1
