# generated using pymatgen
data_Sr(AlCl4)2
_symmetry_space_group_name_H-M   'P 1'
_cell_length_a   6.96986739
_cell_length_b   12.45547261
_cell_length_c   24.96876300
_cell_angle_alpha   94.72980868
_cell_angle_beta   90.00000000
_cell_angle_gamma   90.00000000
_symmetry_Int_Tables_number   1
_chemical_formula_structural   Sr(AlCl4)2
_chemical_formula_sum   'Sr2 Al4 Cl16'
_cell_volume   2160.23149282
_cell_formula_units_Z   2
loop_
 _symmetry_equiv_pos_site_id
 _symmetry_equiv_pos_as_xyz
  1  'x, y, z'
loop_
 _atom_site_type_symbol
 _atom_site_label
 _atom_site_symmetry_multiplicity
 _atom_site_fract_x
 _atom_site_fract_y
 _atom_site_fract_z
 _atom_site_occupancy
  Sr  Sr0  1  0.85199806  0.25000000  0.09950000  1
  Sr  Sr1  1  0.14800194  0.75000000  0.09950000  1
  Al  Al2  1  0.73142029  0.57296592  0.04327706  1
  Al  Al3  1  0.26857971  0.07296592  0.04327706  1
  Al  Al4  1  0.26857971  0.42703408  0.15572194  1
  Al  Al5  1  0.73142029  0.92703408  0.15572194  1
  Cl  Cl6  1  0.70652306  0.40222799  0.02127012  1
  Cl  Cl7  1  0.18888747  0.10516861  0.12679988  1
  Cl  Cl8  1  0.54392198  0.35666739  0.17102905  1
  Cl  Cl9  1  0.70652306  0.09777201  0.17772988  1
  Cl  Cl10  1  0.54392198  0.14333261  0.02796995  1
  Cl  Cl11  1  0.18888747  0.39483139  0.07219912  1
  Cl  Cl12  1  0.04194280  0.14390743  -0.00112179  1
  Cl  Cl13  1  0.04194280  0.35609257  0.20012079  1
  Cl  Cl14  1  0.45607802  0.64333261  0.02796995  1
  Cl  Cl15  1  0.81111253  0.60516861  0.12679988  1
  Cl  Cl16  1  0.95805720  0.64390743  -0.00112179  1
  Cl  Cl17  1  0.29347694  0.90222799  0.02127012  1
  Cl  Cl18  1  0.29347694  0.59777201  0.17772988  1
  Cl  Cl19  1  0.81111253  0.89483139  0.07219912  1
  Cl  Cl20  1  0.45607802  0.85666739  0.17102905  1
  Cl  Cl21  1  0.95805720  0.85609257  0.20012079  1
