# generated using pymatgen
data_CrAg(PS3)2
_symmetry_space_group_name_H-M   'P 1'
_cell_length_a   5.95040443
_cell_length_b   10.58957345
_cell_length_c   25.82516674
_cell_angle_alpha   90.00000000
_cell_angle_beta   104.52279268
_cell_angle_gamma   90.00000000
_symmetry_Int_Tables_number   1
_chemical_formula_structural   CrAg(PS3)2
_chemical_formula_sum   'Cr2 Ag2 P4 S12'
_cell_volume   1575.30611889
_cell_formula_units_Z   2
loop_
 _symmetry_equiv_pos_site_id
 _symmetry_equiv_pos_as_xyz
  1  'x, y, z'
loop_
 _atom_site_type_symbol
 _atom_site_label
 _atom_site_symmetry_multiplicity
 _atom_site_fract_x
 _atom_site_fract_y
 _atom_site_fract_z
 _atom_site_occupancy
  Cr  Cr0  1  0.38757900  0.26188000  0.17967800  1
  Cr  Cr1  1  0.88758000  0.42798200  0.17967800  1
  Ag  Ag2  1  0.38757900  0.90546227  0.17967800  1
  Ag  Ag3  1  0.88758000  0.78440073  0.17967800  1
  P  P4  1  0.42999257  0.59163250  0.22428408  1
  P  P5  1  0.92999257  0.09822850  0.22428408  1
  P  P6  1  0.34516543  0.59163250  0.13507192  1
  P  P7  1  0.84516643  0.09822850  0.13507192  1
  S  S8  1  0.62158561  0.41947169  0.23785542  1
  S  S9  1  0.61464801  0.11160958  0.24207960  1
  S  S10  1  0.61464154  0.74085496  0.25543963  1
  S  S11  1  0.12158561  0.27038931  0.23785542  1
  S  S12  1  0.11464801  0.57825142  0.24207960  1
  S  S13  1  0.11464154  0.94900704  0.25543963  1
  S  S14  1  0.16051746  0.74085496  0.10391537  1
  S  S15  1  0.16050999  0.11160958  0.11727540  1
  S  S16  1  0.15357239  0.41947169  0.12150058  1
  S  S17  1  0.66051646  0.94900704  0.10391537  1
  S  S18  1  0.66050999  0.57825142  0.11727540  1
  S  S19  1  0.65357239  0.27038931  0.12150058  1
