# generated using pymatgen
data_GaTeCl
_symmetry_space_group_name_H-M   'P 1'
_cell_length_a   4.13547735
_cell_length_b   5.84514627
_cell_length_c   28.90599800
_cell_angle_alpha   90.00000000
_cell_angle_beta   90.00000000
_cell_angle_gamma   90.00000000
_symmetry_Int_Tables_number   1
_chemical_formula_structural   GaTeCl
_chemical_formula_sum   'Ga2 Te2 Cl2'
_cell_volume   698.72937022
_cell_formula_units_Z   2
loop_
 _symmetry_equiv_pos_site_id
 _symmetry_equiv_pos_as_xyz
  1  'x, y, z'
loop_
 _atom_site_type_symbol
 _atom_site_label
 _atom_site_symmetry_multiplicity
 _atom_site_fract_x
 _atom_site_fract_y
 _atom_site_fract_z
 _atom_site_occupancy
  Ga  Ga0  1  0.50000000  0.52465651  0.10600015  1
  Ga  Ga1  1  0.00000000  0.02465651  0.16913285  1
  Te  Te2  1  0.00000000  0.24720993  0.08907785  1
  Te  Te3  1  0.50000000  0.74720993  0.18605615  1
  Cl  Cl4  1  0.50000000  0.76904257  0.04784048  1
  Cl  Cl5  1  0.00000000  0.26904257  0.22729252  1
