# generated using pymatgen
data_AlClO
_symmetry_space_group_name_H-M   'P 1'
_cell_length_a   3.16871690
_cell_length_b   3.63896125
_cell_length_c   30.49548600
_cell_angle_alpha   90.00000000
_cell_angle_beta   90.00000000
_cell_angle_gamma   90.00000000
_symmetry_Int_Tables_number   1
_chemical_formula_structural   AlClO
_chemical_formula_sum   'Al2 Cl2 O2'
_cell_volume   351.63850904
_cell_formula_units_Z   2
loop_
 _symmetry_equiv_pos_site_id
 _symmetry_equiv_pos_as_xyz
  1  'x, y, z'
loop_
 _atom_site_type_symbol
 _atom_site_label
 _atom_site_symmetry_multiplicity
 _atom_site_fract_x
 _atom_site_fract_y
 _atom_site_fract_z
 _atom_site_occupancy
  Al  Al0  1  0.34002400  0.66034600  0.16673870  1
  Al  Al1  1  0.84002400  0.16034600  0.11184330  1
  Cl  Cl2  1  0.84002400  0.66034600  0.22184708  1
  Cl  Cl3  1  0.34002400  0.16034600  0.05673492  1
  O  O4  1  0.34002400  0.16034600  0.15197657  1
  O  O5  1  0.84002400  0.66034600  0.12660543  1
