# generated using pymatgen
data_W2N
_symmetry_space_group_name_H-M   'P 1'
_cell_length_a   2.77686480
_cell_length_b   2.77686540
_cell_length_c   25.65665700
_cell_angle_alpha   90.00000000
_cell_angle_beta   90.00000000
_cell_angle_gamma   120.00000408
_symmetry_Int_Tables_number   1
_chemical_formula_structural   W2N
_chemical_formula_sum   'W2 N1'
_cell_volume   171.33269503
_cell_formula_units_Z   1
loop_
 _symmetry_equiv_pos_site_id
 _symmetry_equiv_pos_as_xyz
  1  'x, y, z'
loop_
 _atom_site_type_symbol
 _atom_site_label
 _atom_site_symmetry_multiplicity
 _atom_site_fract_x
 _atom_site_fract_y
 _atom_site_fract_z
 _atom_site_occupancy
  W  W0  1  0.66666700  0.33333300  0.28657117  1
  W  W1  1  0.33333300  0.66666700  0.40161883  1
  N  N2  1  0.00000000  0.00000000  0.34409500  1
