# generated using pymatgen
data_NbCl4
_symmetry_space_group_name_H-M   'P 1'
_cell_length_a   11.80802035
_cell_length_b   6.85949125
_cell_length_c   27.14699760
_cell_angle_alpha   90.00094183
_cell_angle_beta   100.80034510
_cell_angle_gamma   89.99497386
_symmetry_Int_Tables_number   1
_chemical_formula_structural   NbCl4
_chemical_formula_sum   'Nb4 Cl16'
_cell_volume   2159.87595831
_cell_formula_units_Z   4
loop_
 _symmetry_equiv_pos_site_id
 _symmetry_equiv_pos_as_xyz
  1  'x, y, z'
loop_
 _atom_site_type_symbol
 _atom_site_label
 _atom_site_symmetry_multiplicity
 _atom_site_fract_x
 _atom_site_fract_y
 _atom_site_fract_z
 _atom_site_occupancy
  Nb  Nb0  1  0.51938475  0.31700691  0.09276267  1
  Nb  Nb1  1  0.51938335  0.87624364  0.09276290  1
  Nb  Nb2  1  0.01938320  0.37624415  0.09276322  1
  Nb  Nb3  1  0.01938473  0.81700719  0.09276298  1
  Cl  Cl4  1  0.43732165  0.85201867  0.16404777  1
  Cl  Cl5  1  0.43732812  0.34127828  0.16404853  1
  Cl  Cl6  1  0.17109222  0.59660509  0.13465703  1
  Cl  Cl7  1  0.15188884  0.09661282  0.12907015  1
  Cl  Cl8  1  0.60144791  0.34123842  0.02147923  1
  Cl  Cl9  1  0.60144147  0.85197509  0.02147836  1
  Cl  Cl10  1  0.93732286  0.35201939  0.16404712  1
  Cl  Cl11  1  0.93733012  0.84127877  0.16404801  1
  Cl  Cl12  1  0.67109126  0.09660472  0.13465707  1
  Cl  Cl13  1  0.65188781  0.59661197  0.12907029  1
  Cl  Cl14  1  0.38688045  0.59663964  0.05645698  1
  Cl  Cl15  1  0.36767849  0.09664654  0.05086945  1
  Cl  Cl16  1  0.10145001  0.84123839  0.02147872  1
  Cl  Cl17  1  0.10144271  0.35197583  0.02147768  1
  Cl  Cl18  1  0.88688205  0.09664028  0.05645661  1
  Cl  Cl19  1  0.86768002  0.59664719  0.05086924  1
