# generated using pymatgen
data_GaSe
_symmetry_space_group_name_H-M   'P 1'
_cell_length_a   3.79678523
_cell_length_b   3.79678514
_cell_length_c   26.58056600
_cell_angle_alpha   90.00000000
_cell_angle_beta   90.00000000
_cell_angle_gamma   120.00000078
_symmetry_Int_Tables_number   1
_chemical_formula_structural   GaSe
_chemical_formula_sum   'Ga2 Se2'
_cell_volume   331.83860161
_cell_formula_units_Z   2
loop_
 _symmetry_equiv_pos_site_id
 _symmetry_equiv_pos_as_xyz
  1  'x, y, z'
loop_
 _atom_site_type_symbol
 _atom_site_label
 _atom_site_symmetry_multiplicity
 _atom_site_fract_x
 _atom_site_fract_y
 _atom_site_fract_z
 _atom_site_occupancy
  Ga  Ga0  1  0.66666700  0.33333300  0.28700126  1
  Ga  Ga1  1  0.66666700  0.33333300  0.37934497  1
  Se  Se2  1  0.00000000  0.00000000  0.24276726  1
  Se  Se3  1  0.00000000  0.00000000  0.42355451  1
