# generated using pymatgen
data_AgClO2
_symmetry_space_group_name_H-M   'P 1'
_cell_length_a   5.94101770
_cell_length_b   6.08362724
_cell_length_c   27.07005200
_cell_angle_alpha   90.00000000
_cell_angle_beta   90.00000000
_cell_angle_gamma   90.00000000
_symmetry_Int_Tables_number   1
_chemical_formula_structural   AgClO2
_chemical_formula_sum   'Ag4 Cl4 O8'
_cell_volume   978.39118771
_cell_formula_units_Z   4
loop_
 _symmetry_equiv_pos_site_id
 _symmetry_equiv_pos_as_xyz
  1  'x, y, z'
loop_
 _atom_site_type_symbol
 _atom_site_label
 _atom_site_symmetry_multiplicity
 _atom_site_fract_x
 _atom_site_fract_y
 _atom_site_fract_z
 _atom_site_occupancy
  Ag  Ag0  1  0.07672700  0.81267500  0.15570985  1
  Ag  Ag1  1  0.57672700  0.31267600  0.15570985  1
  Ag  Ag2  1  0.57672700  0.81267500  0.10546615  1
  Ag  Ag3  1  0.07672700  0.31267600  0.10546615  1
  Cl  Cl4  1  0.57672700  0.81267500  0.22420514  1
  Cl  Cl5  1  0.07672700  0.31267600  0.22420514  1
  Cl  Cl6  1  0.57672700  0.31267600  0.03697186  1
  Cl  Cl7  1  0.07672700  0.81267500  0.03697186  1
  O  O8  1  0.72923417  0.66380235  0.18895318  1
  O  O9  1  0.42421983  0.96154965  0.18895318  1
  O  O10  1  0.92421983  0.16380235  0.18895318  1
  O  O11  1  0.22923417  0.46154965  0.18895318  1
  O  O12  1  0.22923417  0.96154965  0.07222282  1
  O  O13  1  0.92421983  0.66380235  0.07222282  1
  O  O14  1  0.72923417  0.16380235  0.07222282  1
  O  O15  1  0.42421983  0.46154965  0.07222282  1
