# generated using pymatgen
data_AlCl3
_symmetry_space_group_name_H-M   'P 1'
_cell_length_a   5.96122400
_cell_length_b   10.32536853
_cell_length_c   26.42967350
_cell_angle_alpha   90.00000000
_cell_angle_beta   94.20198293
_cell_angle_gamma   90.00000000
_symmetry_Int_Tables_number   1
_chemical_formula_structural   AlCl3
_chemical_formula_sum   'Al4 Cl12'
_cell_volume   1622.42197581
_cell_formula_units_Z   4
loop_
 _symmetry_equiv_pos_site_id
 _symmetry_equiv_pos_as_xyz
  1  'x, y, z'
loop_
 _atom_site_type_symbol
 _atom_site_label
 _atom_site_symmetry_multiplicity
 _atom_site_fract_x
 _atom_site_fract_y
 _atom_site_fract_z
 _atom_site_occupancy
  Al  Al0  1  0.91634100  0.65220943  0.15775700  1
  Al  Al1  1  0.91634100  0.98552657  0.15775700  1
  Al  Al2  1  0.41634100  0.15220843  0.15775700  1
  Al  Al3  1  0.41634100  0.48552557  0.15775700  1
  Cl  Cl4  1  0.11150161  0.14014269  0.20836570  1
  Cl  Cl5  1  0.11150161  0.49759231  0.20836570  1
  Cl  Cl6  1  0.07527694  0.81886800  0.20837967  1
  Cl  Cl7  1  0.61150161  0.64014269  0.20836470  1
  Cl  Cl8  1  0.61150161  -0.00240769  0.20836470  1
  Cl  Cl9  1  0.57527694  0.31886800  0.20837967  1
  Cl  Cl10  1  0.25740506  0.31886800  0.10713433  1
  Cl  Cl11  1  0.22118039  0.64014269  0.10714930  1
  Cl  Cl12  1  0.22118039  -0.00240769  0.10714930  1
  Cl  Cl13  1  0.75740506  0.81886800  0.10713433  1
  Cl  Cl14  1  0.72118039  0.14014269  0.10714930  1
  Cl  Cl15  1  0.72118039  0.49759231  0.10714930  1
