# generated using pymatgen
data_ScIO
_symmetry_space_group_name_H-M   'P 1'
_cell_length_a   3.87155928
_cell_length_b   7.22612993
_cell_length_c   26.52103900
_cell_angle_alpha   86.75649989
_cell_angle_beta   89.96994293
_cell_angle_gamma   89.99970010
_symmetry_Int_Tables_number   1
_chemical_formula_structural   ScIO
_chemical_formula_sum   'Sc4 I4 O4'
_cell_volume   740.77428369
_cell_formula_units_Z   4
loop_
 _symmetry_equiv_pos_site_id
 _symmetry_equiv_pos_as_xyz
  1  'x, y, z'
loop_
 _atom_site_type_symbol
 _atom_site_label
 _atom_site_symmetry_multiplicity
 _atom_site_fract_x
 _atom_site_fract_y
 _atom_site_fract_z
 _atom_site_occupancy
  Sc  Sc0  1  0.75013353  0.38348958  0.46397921  1
  Sc  Sc1  1  0.24987306  0.11804406  0.53697837  1
  Sc  Sc2  1  0.24986647  0.61651042  0.53602079  1
  Sc  Sc3  1  0.75012694  0.88195594  0.46302163  1
  I  I4  1  0.75031148  0.15380398  0.37814169  1
  I  I5  1  0.74979509  0.35184857  0.60796128  1
  I  I6  1  0.24968852  0.84619602  0.62185831  1
  I  I7  1  0.25020491  0.64815143  0.39203872  1
  O  O8  1  0.74997710  0.62792195  0.50403322  1
  O  O9  1  0.25002290  0.37207805  0.49596678  1
  O  O10  1  0.74999187  0.12031112  0.50401391  1
  O  O11  1  0.25000813  0.87968888  0.49598609  1
