# generated using pymatgen
data_TaTe5Pt
_symmetry_space_group_name_H-M   'P 1'
_cell_length_a   3.78789483
_cell_length_b   15.59934787
_cell_length_c   24.42200000
_cell_angle_alpha   90.00000000
_cell_angle_beta   90.00000000
_cell_angle_gamma   90.00000000
_symmetry_Int_Tables_number   1
_chemical_formula_structural   TaTe5Pt
_chemical_formula_sum   'Ta2 Te10 Pt2'
_cell_volume   1443.06396591
_cell_formula_units_Z   2
loop_
 _symmetry_equiv_pos_site_id
 _symmetry_equiv_pos_as_xyz
  1  'x, y, z'
loop_
 _atom_site_type_symbol
 _atom_site_label
 _atom_site_symmetry_multiplicity
 _atom_site_fract_x
 _atom_site_fract_y
 _atom_site_fract_z
 _atom_site_occupancy
  Pt  Pt0  1  0.50000000  -0.00000000  0.29526700  1
  Pt  Pt1  1  0.50000000  0.50000000  0.29526700  1
  Ta  Ta2  1  0.00000000  0.25000000  0.29838321  1
  Ta  Ta3  1  0.00000000  0.75000000  0.29214979  1
  Te  Te4  1  0.50000000  0.25000000  0.38681028  1
  Te  Te5  1  0.00000000  0.08208774  0.35524273  1
  Te  Te6  1  0.50000000  0.85233436  0.35352955  1
  Te  Te7  1  0.50000000  0.64766564  0.35352955  1
  Te  Te8  1  -0.00000000  0.41791226  0.35524273  1
  Te  Te9  1  0.50000000  0.75000000  0.20372272  1
  Te  Te10  1  -0.00000000  0.91791226  0.23529027  1
  Te  Te11  1  0.50000000  0.14766564  0.23700345  1
  Te  Te12  1  0.50000000  0.35233436  0.23700345  1
  Te  Te13  1  0.00000000  0.58208774  0.23529027  1
