# generated using pymatgen
data_InCu(PSe3)2
_symmetry_space_group_name_H-M   'P 1'
_cell_length_a   6.42713321
_cell_length_b   6.42713341
_cell_length_c   23.43226300
_cell_angle_alpha   90.00000000
_cell_angle_beta   90.00000000
_cell_angle_gamma   119.99999898
_symmetry_Int_Tables_number   1
_chemical_formula_structural   InCu(PSe3)2
_chemical_formula_sum   'In1 Cu1 P2 Se6'
_cell_volume   838.26143245
_cell_formula_units_Z   1
loop_
 _symmetry_equiv_pos_site_id
 _symmetry_equiv_pos_as_xyz
  1  'x, y, z'
loop_
 _atom_site_type_symbol
 _atom_site_label
 _atom_site_symmetry_multiplicity
 _atom_site_fract_x
 _atom_site_fract_y
 _atom_site_fract_z
 _atom_site_occupancy
  Cu  Cu0  1  0.33333400  0.66666800  0.85075200  1
  In  In1  1  0.00000000  0.00000000  0.85075200  1
  P  P2  1  0.66666600  0.33333200  0.80216255  1
  P  P3  1  0.66666600  0.33333200  0.89934145  1
  Se  Se4  1  0.34103214  0.34851362  0.77713848  1
  Se  Se5  1  0.00748148  0.65896786  0.77713848  1
  Se  Se6  1  0.00748148  0.34851362  0.92436552  1
  Se  Se7  1  0.65148638  0.65896786  0.92436552  1
  Se  Se8  1  0.34103214  0.99251852  0.92436552  1
  Se  Se9  1  0.65148638  0.99251852  0.77713848  1
