# generated using pymatgen
data_NbCoTe2
_symmetry_space_group_name_H-M   'P 1'
_cell_length_a   7.76281515
_cell_length_b   6.35669277
_cell_length_c   25.34740000
_cell_angle_alpha   90.00000000
_cell_angle_beta   90.00000000
_cell_angle_gamma   90.00000000
_symmetry_Int_Tables_number   1
_chemical_formula_structural   NbCoTe2
_chemical_formula_sum   'Nb4 Co4 Te8'
_cell_volume   1250.78851432
_cell_formula_units_Z   4
loop_
 _symmetry_equiv_pos_site_id
 _symmetry_equiv_pos_as_xyz
  1  'x, y, z'
loop_
 _atom_site_type_symbol
 _atom_site_label
 _atom_site_symmetry_multiplicity
 _atom_site_fract_x
 _atom_site_fract_y
 _atom_site_fract_z
 _atom_site_occupancy
  Co  Co0  1  0.50000000  0.64358897  0.26973838  1
  Co  Co1  1  -0.00000000  0.85641103  0.26973838  1
  Co  Co2  1  -0.00000000  0.14358897  0.33574362  1
  Co  Co3  1  0.50000000  0.35641103  0.33574362  1
  Nb  Nb4  1  0.20560425  0.50000000  0.30274100  1
  Nb  Nb5  1  0.29439575  -0.00000000  0.30274100  1
  Nb  Nb6  1  0.79439575  0.50000000  0.30274100  1
  Nb  Nb7  1  0.70560425  0.00000000  0.30274100  1
  Te  Te8  1  0.75000000  0.75000000  0.20959350  1
  Te  Te9  1  0.25000000  0.75000000  0.20959350  1
  Te  Te10  1  -0.00000000  0.24754569  0.23560962  1
  Te  Te11  1  0.50000000  0.25245431  0.23560962  1
  Te  Te12  1  0.75000000  0.25000000  0.39588950  1
  Te  Te13  1  0.25000000  0.25000000  0.39588950  1
  Te  Te14  1  0.50000000  0.74754569  0.36987238  1
  Te  Te15  1  -0.00000000  0.75245431  0.36987238  1
