# generated using pymatgen
data_As2S3
_symmetry_space_group_name_H-M   'P 1'
_cell_length_a   4.33340264
_cell_length_b   11.59388220
_cell_length_c   20.47577400
_cell_angle_alpha   90.00000000
_cell_angle_beta   93.11828276
_cell_angle_gamma   93.94427402
_symmetry_Int_Tables_number   1
_chemical_formula_structural   As2S3
_chemical_formula_sum   'As4 S6'
_cell_volume   1024.75914191
_cell_formula_units_Z   2
loop_
 _symmetry_equiv_pos_site_id
 _symmetry_equiv_pos_as_xyz
  1  'x, y, z'
loop_
 _atom_site_type_symbol
 _atom_site_label
 _atom_site_symmetry_multiplicity
 _atom_site_fract_x
 _atom_site_fract_y
 _atom_site_fract_z
 _atom_site_occupancy
  As  As0  1  0.70731861  0.01107509  0.51798194  1
  As  As1  1  0.64039281  0.73251915  0.52618309  1
  As  As2  1  0.48079059  0.26228136  0.47723222  1
  As  As3  1  0.08586311  0.50672792  0.47407697  1
  S  S4  1  0.35486289  0.86871196  0.47214639  1
  S  S5  1  0.38619265  0.14163768  0.56270433  1
  S  S6  1  0.75893087  0.12423489  0.42714282  1
  S  S7  1  0.73691956  0.63668875  0.43309966  1
  S  S8  1  0.27172693  0.60176382  0.56683731  1
  S  S9  1  0.84499798  0.37347438  0.54259328  1
