# generated using pymatgen
data_Ta2PdS6
_symmetry_space_group_name_H-M   'P 1'
_cell_length_a   3.28497193
_cell_length_b   9.30140175
_cell_length_c   23.68851400
_cell_angle_alpha   97.75025066
_cell_angle_beta   90.00000000
_cell_angle_gamma   100.17089872
_symmetry_Int_Tables_number   1
_chemical_formula_structural   Ta2PdS6
_chemical_formula_sum   'Ta2 Pd1 S6'
_cell_volume   705.70641534
_cell_formula_units_Z   1
loop_
 _symmetry_equiv_pos_site_id
 _symmetry_equiv_pos_as_xyz
  1  'x, y, z'
loop_
 _atom_site_type_symbol
 _atom_site_label
 _atom_site_symmetry_multiplicity
 _atom_site_fract_x
 _atom_site_fract_y
 _atom_site_fract_z
 _atom_site_occupancy
  Pd  Pd0  1  0.50000000  0.00000000  0.07785400  1
  S  S1  1  0.73273773  0.46547547  0.02268339  1
  S  S2  1  0.61798127  0.23596254  0.13198583  1
  S  S3  1  0.56691346  0.13382692  -0.00027847  1
  S  S4  1  0.26726227  0.53452453  0.13302461  1
  S  S5  1  0.38201873  0.76403746  0.02372317  1
  S  S6  1  0.43308654  0.86617308  0.15598747  1
  Ta  Ta7  1  0.14702689  0.29405378  0.05846092  1
  Ta  Ta8  1  0.85297311  0.70594622  0.09724808  1
