# generated using pymatgen
data_ZnWO4
_symmetry_space_group_name_H-M   'P 1'
_cell_length_a   4.56965992
_cell_length_b   4.57025918
_cell_length_c   21.64790600
_cell_angle_alpha   90.00000000
_cell_angle_beta   83.06389637
_cell_angle_gamma   90.00391934
_symmetry_Int_Tables_number   1
_chemical_formula_structural   ZnWO4
_chemical_formula_sum   'Zn1 W1 O4'
_cell_volume   448.79757974
_cell_formula_units_Z   1
loop_
 _symmetry_equiv_pos_site_id
 _symmetry_equiv_pos_as_xyz
  1  'x, y, z'
loop_
 _atom_site_type_symbol
 _atom_site_label
 _atom_site_symmetry_multiplicity
 _atom_site_fract_x
 _atom_site_fract_y
 _atom_site_fract_z
 _atom_site_occupancy
  Zn  Zn0  1  0.96317029  0.49996966  0.03675506  1
  W  W1  1  0.46323486  0.99999421  0.03677062  1
  O  O2  1  0.72337152  0.76635369  0.99081192  1
  O  O3  1  0.67063918  0.23380159  0.08273093  1
  O  O4  1  0.20323810  0.76616670  0.08272037  1
  O  O5  1  0.25573906  0.23371415  0.99081810  1
