# generated using pymatgen
data_HoSI
_symmetry_space_group_name_H-M   'P 1'
_cell_length_a   4.14016635
_cell_length_b   5.30614667
_cell_length_c   26.67681000
_cell_angle_alpha   90.00000000
_cell_angle_beta   90.00000000
_cell_angle_gamma   90.00000000
_symmetry_Int_Tables_number   1
_chemical_formula_structural   HoSI
_chemical_formula_sum   'Ho2 S2 I2'
_cell_volume   586.04496177
_cell_formula_units_Z   2
loop_
 _symmetry_equiv_pos_site_id
 _symmetry_equiv_pos_as_xyz
  1  'x, y, z'
loop_
 _atom_site_type_symbol
 _atom_site_label
 _atom_site_symmetry_multiplicity
 _atom_site_fract_x
 _atom_site_fract_y
 _atom_site_fract_z
 _atom_site_occupancy
  Ho  Ho0  1  0.50000000  0.50000000  0.45776172  1
  Ho  Ho1  1  0.00000000  0.00000000  0.54223828  1
  S  S2  1  0.50000000  0.00000000  0.47561488  1
  S  S3  1  0.00000000  0.50000000  0.52438512  1
  I  I4  1  0.00000000  0.50000000  0.37517577  1
  I  I5  1  0.50000000  0.00000000  0.62482423  1
