# generated using pymatgen
data_SiS
_symmetry_space_group_name_H-M   'P 1'
_cell_length_a   3.95977530
_cell_length_b   6.65654680
_cell_length_c   24.07170100
_cell_angle_alpha   90.00000000
_cell_angle_beta   90.00000000
_cell_angle_gamma   90.00000000
_symmetry_Int_Tables_number   1
_chemical_formula_structural   SiS
_chemical_formula_sum   'Si4 S4'
_cell_volume   634.49223652
_cell_formula_units_Z   4
loop_
 _symmetry_equiv_pos_site_id
 _symmetry_equiv_pos_as_xyz
  1  'x, y, z'
loop_
 _atom_site_type_symbol
 _atom_site_label
 _atom_site_symmetry_multiplicity
 _atom_site_fract_x
 _atom_site_fract_y
 _atom_site_fract_z
 _atom_site_occupancy
  Si  Si0  1  0.00000000  -0.00000000  0.52762283  1
  Si  Si1  1  0.50000000  -0.00000000  0.47237834  1
  Si  Si2  1  0.00000000  0.50000000  0.52762283  1
  Si  Si3  1  0.50000000  0.50000000  0.47237834  1
  S  S4  1  0.04978212  0.75000000  0.58491301  1
  S  S5  1  0.95021788  0.25000000  0.58491301  1
  S  S6  1  0.45027633  0.75000000  0.41508782  1
  S  S7  1  0.54972367  0.25000000  0.41508782  1
