# generated using pymatgen
data_Al2FeS4
_symmetry_space_group_name_H-M   'P 1'
_cell_length_a   3.57385062
_cell_length_b   3.57385130
_cell_length_c   29.02009000
_cell_angle_alpha   90.00000000
_cell_angle_beta   90.00000000
_cell_angle_gamma   120.00001224
_symmetry_Int_Tables_number   1
_chemical_formula_structural   Al2FeS4
_chemical_formula_sum   'Al2 Fe1 S4'
_cell_volume   320.99791229
_cell_formula_units_Z   1
loop_
 _symmetry_equiv_pos_site_id
 _symmetry_equiv_pos_as_xyz
  1  'x, y, z'
loop_
 _atom_site_type_symbol
 _atom_site_label
 _atom_site_symmetry_multiplicity
 _atom_site_fract_x
 _atom_site_fract_y
 _atom_site_fract_z
 _atom_site_occupancy
  Al  Al0  1  -0.00000000  0.00000000  0.50396135  1
  Al  Al1  1  0.66666700  0.33333300  0.37810413  1
  Fe  Fe2  1  0.33333300  0.66666700  0.62672164  1
  S  S3  1  0.33333300  0.66666700  0.54458389  1
  S  S4  1  0.66666700  0.33333300  0.45436239  1
  S  S5  1  0.00000000  0.00000000  0.34389096  1
  S  S6  1  -0.00000000  0.00000000  0.65506964  1
