# generated using pymatgen
data_HfTe3
_symmetry_space_group_name_H-M   'P 1'
_cell_length_a   5.96699030
_cell_length_b   3.91930083
_cell_length_c   26.98799800
_cell_angle_alpha   90.00000000
_cell_angle_beta   97.55679138
_cell_angle_gamma   90.00000000
_symmetry_Int_Tables_number   1
_chemical_formula_structural   HfTe3
_chemical_formula_sum   'Hf2 Te6'
_cell_volume   625.67136246
_cell_formula_units_Z   2
loop_
 _symmetry_equiv_pos_site_id
 _symmetry_equiv_pos_as_xyz
  1  'x, y, z'
loop_
 _atom_site_type_symbol
 _atom_site_label
 _atom_site_symmetry_multiplicity
 _atom_site_fract_x
 _atom_site_fract_y
 _atom_site_fract_z
 _atom_site_occupancy
  Hf  Hf0  1  0.28760664  0.25000000  0.56323592  1
  Hf  Hf1  1  0.71239336  0.75000000  0.43676408  1
  Te  Te2  1  0.56506559  0.75000000  0.62585938  1
  Te  Te3  1  0.76163567  0.25000000  0.51955178  1
  Te  Te4  1  0.23836433  0.75000000  0.48044822  1
  Te  Te5  1  0.08458087  0.75000000  0.62584112  1
  Te  Te6  1  0.43493441  0.25000000  0.37414062  1
  Te  Te7  1  0.91541913  0.25000000  0.37415888  1
