# generated using pymatgen
data_ThTe3
_symmetry_space_group_name_H-M   'P 1'
_cell_length_a   6.25745189
_cell_length_b   4.40942233
_cell_length_c   27.32116500
_cell_angle_alpha   90.00000000
_cell_angle_beta   97.70308507
_cell_angle_gamma   90.00000000
_symmetry_Int_Tables_number   1
_chemical_formula_structural   ThTe3
_chemical_formula_sum   'Th2 Te6'
_cell_volume   747.03604944
_cell_formula_units_Z   2
loop_
 _symmetry_equiv_pos_site_id
 _symmetry_equiv_pos_as_xyz
  1  'x, y, z'
loop_
 _atom_site_type_symbol
 _atom_site_label
 _atom_site_symmetry_multiplicity
 _atom_site_fract_x
 _atom_site_fract_y
 _atom_site_fract_z
 _atom_site_occupancy
  Th  Th0  1  0.28605575  0.25000000  0.56155656  1
  Th  Th1  1  0.71394425  0.75000000  0.43844344  1
  Te  Te2  1  0.55097923  0.75000000  0.63031872  1
  Te  Te3  1  0.76446737  0.25000000  0.52462098  1
  Te  Te4  1  0.23553263  0.75000000  0.47537902  1
  Te  Te5  1  0.10245794  0.75000000  0.63051807  1
  Te  Te6  1  0.44902077  0.25000000  0.36968128  1
  Te  Te7  1  0.89754206  0.25000000  0.36948193  1
