# generated using pymatgen
data_Ag3SnP7
_symmetry_space_group_name_H-M   'P 1'
_cell_length_a   5.10360615
_cell_length_b   6.01376831
_cell_length_c   26.11238700
_cell_angle_alpha   90.00000000
_cell_angle_beta   96.01517056
_cell_angle_gamma   98.99324485
_symmetry_Int_Tables_number   1
_chemical_formula_structural   Ag3SnP7
_chemical_formula_sum   'Ag3 Sn1 P7'
_cell_volume   787.11882667
_cell_formula_units_Z   1
loop_
 _symmetry_equiv_pos_site_id
 _symmetry_equiv_pos_as_xyz
  1  'x, y, z'
loop_
 _atom_site_type_symbol
 _atom_site_label
 _atom_site_symmetry_multiplicity
 _atom_site_fract_x
 _atom_site_fract_y
 _atom_site_fract_z
 _atom_site_occupancy
  Ag  Ag0  1  0.69924176  0.37338938  0.03781526  1
  Ag  Ag1  1  0.55847640  0.38831645  0.22375075  1
  Ag  Ag2  1  0.00478478  0.34938321  0.15515335  1
  Sn  Sn3  1  0.50421391  0.01325277  0.12156404  1
  P  P4  1  0.20646200  0.29295865  0.06315806  1
  P  P5  1  0.01109886  0.99254387  0.19866181  1
  P  P6  1  0.06063253  0.74793410  0.13520963  1
  P  P7  1  0.94885265  0.04468558  0.01479605  1
  P  P8  1  0.77038962  0.77861570  0.06777732  1
  P  P9  1  0.38395328  0.00920277  0.25525335  1
  P  P10  1  0.61679722  0.79769852  0.21366038  1
