# generated using pymatgen
data_ZnC2S2(OF)6
_symmetry_space_group_name_H-M   'P 1'
_cell_length_a   4.92466793
_cell_length_b   4.92466793
_cell_length_c   27.85526900
_cell_angle_alpha   90.00000000
_cell_angle_beta   90.00000000
_cell_angle_gamma   120.00000001
_symmetry_Int_Tables_number   1
_chemical_formula_structural   ZnC2S2(OF)6
_chemical_formula_sum   'Zn1 C2 S2 O6 F6'
_cell_volume   585.04852865
_cell_formula_units_Z   1
loop_
 _symmetry_equiv_pos_site_id
 _symmetry_equiv_pos_as_xyz
  1  'x, y, z'
loop_
 _atom_site_type_symbol
 _atom_site_label
 _atom_site_symmetry_multiplicity
 _atom_site_fract_x
 _atom_site_fract_y
 _atom_site_fract_z
 _atom_site_occupancy
  Zn  Zn0  1  0.66666700  0.33333300  0.49999900  1
  C  C1  1  0.33333300  0.66666700  0.62469736  1
  C  C2  1  0.00000000  0.00000000  0.37530264  1
  S  S3  1  0.33333300  0.66666700  0.55779596  1
  S  S4  1  0.00000000  0.00000000  0.44220404  1
  O  O5  1  0.03336070  0.63956250  0.54512992  1
  O  O6  1  0.60620181  0.96663930  0.54512992  1
  O  O7  1  0.36043750  0.39379819  0.54512992  1
  O  O8  1  0.97289650  0.27286781  0.45486908  1
  O  O9  1  0.72713219  0.70002670  0.45486908  1
  O  O10  1  0.29997330  0.02710350  0.45486908  1
  F  F11  1  0.08042207  0.40440250  0.64081930  1
  F  F12  1  0.59559750  0.67601957  0.64081930  1
  F  F13  1  0.32398043  0.91957793  0.64081930  1
  F  F14  1  0.00935257  0.74708907  0.35918070  1
  F  F15  1  0.73773550  0.99064743  0.35918070  1
  F  F16  1  0.25291093  0.26226450  0.35918070  1
