# generated using pymatgen
data_Nb3SiTe6
_symmetry_space_group_name_H-M   'P 1'
_cell_length_a   6.42944733
_cell_length_b   11.63782123
_cell_length_c   23.82765200
_cell_angle_alpha   90.00000000
_cell_angle_beta   90.00000000
_cell_angle_gamma   89.99999901
_symmetry_Int_Tables_number   1
_chemical_formula_structural   Nb3SiTe6
_chemical_formula_sum   'Nb6 Si2 Te12'
_cell_volume   1782.89830892
_cell_formula_units_Z   2
loop_
 _symmetry_equiv_pos_site_id
 _symmetry_equiv_pos_as_xyz
  1  'x, y, z'
loop_
 _atom_site_type_symbol
 _atom_site_label
 _atom_site_symmetry_multiplicity
 _atom_site_fract_x
 _atom_site_fract_y
 _atom_site_fract_z
 _atom_site_occupancy
  Nb  Nb0  1  0.69736325  0.96685818  0.08032000  1
  Si  Si1  1  0.07621625  0.07466181  0.08032000  1
  Te  Te2  1  0.84890148  0.81776029  0.99969211  1
  Te  Te3  1  0.34890176  0.68223916  0.16094689  1
  Te  Te4  1  0.34890176  0.68223916  0.99969211  1
  Te  Te5  1  0.84890148  0.81776029  0.16094689  1
  Te  Te6  1  0.35581102  0.99717048  0.00317822  1
  Te  Te7  1  0.35581102  0.99717048  0.15746178  1
  Nb  Nb8  1  0.16645711  0.83542638  0.08032000  1
  Nb  Nb9  1  0.46917243  0.18772409  0.08032000  1
  Te  Te10  1  0.79612456  0.15639380  0.00105279  1
  Te  Te11  1  0.79612456  0.15639380  0.15958621  1
  Nb  Nb12  1  0.96917177  0.31227588  0.08032000  1
  Nb  Nb13  1  0.66645765  0.66457350  0.08032000  1
  Nb  Nb14  1  0.19736311  0.53314162  0.08032000  1
  Si  Si15  1  0.57621558  0.42533829  0.08032000  1
  Te  Te16  1  0.29612444  0.34360578  0.15958616  1
  Te  Te17  1  0.29612444  0.34360578  0.00105284  1
  Te  Te18  1  0.85581068  0.50282912  0.15746111  1
  Te  Te19  1  0.85581068  0.50282912  0.00317789  1
