# generated using pymatgen
data_Nb(SeBr)2
_symmetry_space_group_name_H-M   'P 1'
_cell_length_a   6.69522700
_cell_length_b   6.77219280
_cell_length_c   24.64501200
_cell_angle_alpha   97.98070841
_cell_angle_beta   84.33540837
_cell_angle_gamma   119.62465050
_symmetry_Int_Tables_number   1
_chemical_formula_structural   Nb(SeBr)2
_chemical_formula_sum   'Nb2 Se4 Br4'
_cell_volume   961.37457696
_cell_formula_units_Z   2
loop_
 _symmetry_equiv_pos_site_id
 _symmetry_equiv_pos_as_xyz
  1  'x, y, z'
loop_
 _atom_site_type_symbol
 _atom_site_label
 _atom_site_symmetry_multiplicity
 _atom_site_fract_x
 _atom_site_fract_y
 _atom_site_fract_z
 _atom_site_occupancy
  Br  Br0  1  0.51101493  0.94279264  0.15345657  1
  Br  Br1  1  0.48898507  0.05720736  0.02677243  1
  Br  Br2  1  0.90426812  0.88782542  0.02677224  1
  Br  Br3  1  0.09573188  0.11217458  0.15345676  1
  Nb  Nb4  1  0.12630498  0.75259908  0.09011121  1
  Nb  Nb5  1  0.87369502  0.24740092  0.09011779  1
  Se  Se6  1  0.69742963  0.51603766  0.12705422  1
  Se  Se7  1  0.30257037  0.48396234  0.05317578  1
  Se  Se8  1  0.97518289  0.53922719  0.18050686  1
  Se  Se9  1  0.02481711  0.46077281  -0.00027786  1
