# generated using pymatgen
data_Bi14Te13S8
_symmetry_space_group_name_H-M   'P 1'
_cell_length_a   11.26841835
_cell_length_b   11.26841853
_cell_length_c   27.27842900
_cell_angle_alpha   90.00000000
_cell_angle_beta   90.00000000
_cell_angle_gamma   119.99999947
_symmetry_Int_Tables_number   1
_chemical_formula_structural   Bi14Te13S8
_chemical_formula_sum   'Bi14 Te13 S8'
_cell_volume   2999.68685896
_cell_formula_units_Z   1
loop_
 _symmetry_equiv_pos_site_id
 _symmetry_equiv_pos_as_xyz
  1  'x, y, z'
loop_
 _atom_site_type_symbol
 _atom_site_label
 _atom_site_symmetry_multiplicity
 _atom_site_fract_x
 _atom_site_fract_y
 _atom_site_fract_z
 _atom_site_occupancy
  Bi  Bi0  1  0.33333300  0.66666700  0.43251284  1
  Bi  Bi1  1  0.61421395  0.08536259  0.42991767  1
  Bi  Bi2  1  0.76979159  0.81351281  0.43631280  1
  Bi  Bi3  1  0.18648719  0.95627777  0.43631280  1
  Bi  Bi4  1  0.91463741  0.52885136  0.42991767  1
  Bi  Bi5  1  0.47114864  0.38578605  0.42991767  1
  Bi  Bi6  1  0.04372223  0.23020841  0.43631280  1
  Bi  Bi7  1  0.71911905  0.58130441  0.57008233  1
  Bi  Bi8  1  0.86218436  0.28088095  0.57008233  1
  Bi  Bi9  1  0.41869559  0.13781564  0.57008233  1
  Bi  Bi10  1  0.00000000  -0.00000000  0.56748616  1
  Bi  Bi11  1  0.28961077  0.43645859  0.56368720  1
  Bi  Bi12  1  0.14684581  0.71038923  0.56368720  1
  Bi  Bi13  1  0.56354141  0.85315419  0.56368720  1
  Te  Te14  1  0.57544281  0.84670145  0.36567381  1
  Te  Te15  1  0.15329855  0.72874136  0.36567381  1
  Te  Te16  1  0.27125864  0.42455719  0.36567381  1
  Te  Te17  1  0.71934714  0.57688516  0.36700651  1
  Te  Te18  1  0.85753701  0.28065286  0.36700651  1
  Te  Te19  1  0.42311484  0.14246299  0.36700651  1
  Te  Te20  1  0.66666700  0.33333300  0.49999900  1
  Te  Te21  1  0.06207436  0.24210981  0.63432619  1
  Te  Te22  1  0.91021816  0.52420401  0.63299349  1
  Te  Te23  1  0.18003445  0.93792564  0.63432619  1
  Te  Te24  1  0.47579599  0.38601414  0.63299349  1
  Te  Te25  1  0.75789019  0.81996555  0.63432619  1
  Te  Te26  1  0.61398586  0.08978184  0.63299349  1
  S  S27  1  0.00000000  -0.00000000  0.38550199  1
  S  S28  1  0.23848779  0.19467363  0.50093678  1
  S  S29  1  0.80532637  0.04381416  0.50093678  1
  S  S30  1  0.95618584  0.76151221  0.50093678  1
  S  S31  1  0.09484521  0.47199337  0.49906322  1
  S  S32  1  0.52800663  0.62285284  0.49906322  1
  S  S33  1  0.37714716  0.90515479  0.49906322  1
  S  S34  1  0.33333300  0.66666700  0.61449801  1
