# generated using pymatgen
data_Nb(PS4)2
_symmetry_space_group_name_H-M   'P 1'
_cell_length_a   11.73627143
_cell_length_b   11.73627256
_cell_length_c   24.11977700
_cell_angle_alpha   90.00000000
_cell_angle_beta   90.00000000
_cell_angle_gamma   123.15936430
_symmetry_Int_Tables_number   1
_chemical_formula_structural   Nb(PS4)2
_chemical_formula_sum   'Nb2 P4 S16'
_cell_volume   2781.23811491
_cell_formula_units_Z   2
loop_
 _symmetry_equiv_pos_site_id
 _symmetry_equiv_pos_as_xyz
  1  'x, y, z'
loop_
 _atom_site_type_symbol
 _atom_site_label
 _atom_site_symmetry_multiplicity
 _atom_site_fract_x
 _atom_site_fract_y
 _atom_site_fract_z
 _atom_site_occupancy
  Nb  Nb0  1  0.57024651  0.43001401  0.91451885  1
  Nb  Nb1  1  0.43001409  0.57024735  0.91451784  1
  P  P2  1  0.50299195  0.87824337  0.92237353  1
  P  P3  1  0.12174642  0.49660586  0.90691607  1
  P  P4  1  0.87823853  0.50298847  0.92238212  1
  P  P5  1  0.49660553  0.12174688  0.90691307  1
  S  S6  1  0.41002117  0.73915445  0.98244498  1
  S  S7  1  0.26058731  0.58993670  0.84678778  1
  S  S8  1  0.59264049  0.81585702  0.87101746  1
  S  S9  1  0.47807189  0.47807400  -0.00005298  1
  S  S10  1  0.64550207  0.64550205  0.96723666  1
  S  S11  1  0.52259395  0.52259295  0.82907751  1
  S  S12  1  0.35503189  0.35503120  0.86165191  1
  S  S13  1  0.18455097  0.40701632  0.95807739  1
  S  S14  1  0.73915344  0.41002278  0.98245168  1
  S  S15  1  0.58994645  0.26059978  0.84678885  1
  S  S16  1  0.40701240  0.18454541  0.95807586  1
  S  S17  1  0.81586215  0.59264567  0.87102411  1
  S  S18  1  0.36916450  0.92035241  0.87789708  1
  S  S19  1  0.63014796  0.07951988  0.95156867  1
  S  S20  1  0.07951952  0.63014750  0.95157227  1
  S  S21  1  0.92034882  0.36915894  0.87790628  1
