# generated using pymatgen
data_TiCl3
_symmetry_space_group_name_H-M   'P 1'
_cell_length_a   6.00837910
_cell_length_b   6.00837978
_cell_length_c   26.35003800
_cell_angle_alpha   90.00000000
_cell_angle_beta   90.00000000
_cell_angle_gamma   119.99999623
_symmetry_Int_Tables_number   1
_chemical_formula_structural   TiCl3
_chemical_formula_sum   'Ti2 Cl6'
_cell_volume   823.80912281
_cell_formula_units_Z   2
loop_
 _symmetry_equiv_pos_site_id
 _symmetry_equiv_pos_as_xyz
  1  'x, y, z'
loop_
 _atom_site_type_symbol
 _atom_site_label
 _atom_site_symmetry_multiplicity
 _atom_site_fract_x
 _atom_site_fract_y
 _atom_site_fract_z
 _atom_site_occupancy
  Ti  Ti0  1  0.48252400  0.93058200  0.12049400  1
  Ti  Ti1  1  0.14919000  0.26391500  0.12049400  1
  Cl  Cl2  1  0.15924024  0.94063124  0.17381282  1
  Cl  Cl3  1  0.47247376  0.59724800  0.17381282  1
  Cl  Cl4  1  0.81585700  0.25386476  0.17381282  1
  Cl  Cl5  1  0.47247376  0.25386476  0.06717518  1
  Cl  Cl6  1  0.81585700  0.94063124  0.06717518  1
  Cl  Cl7  1  0.15924024  0.59724800  0.06717518  1
