# generated using pymatgen
data_Nb3TeI7
_symmetry_space_group_name_H-M   'P 1'
_cell_length_a   7.69282875
_cell_length_b   7.69283355
_cell_length_c   23.93847800
_cell_angle_alpha   90.00000000
_cell_angle_beta   90.00000000
_cell_angle_gamma   120.00004078
_symmetry_Int_Tables_number   1
_chemical_formula_structural   Nb3TeI7
_chemical_formula_sum   'Nb3 Te1 I7'
_cell_volume   1226.87237756
_cell_formula_units_Z   1
loop_
 _symmetry_equiv_pos_site_id
 _symmetry_equiv_pos_as_xyz
  1  'x, y, z'
loop_
 _atom_site_type_symbol
 _atom_site_label
 _atom_site_symmetry_multiplicity
 _atom_site_fract_x
 _atom_site_fract_y
 _atom_site_fract_z
 _atom_site_occupancy
  I  I0  1  0.49792139  0.50207896  0.14188120  1
  I  I1  1  0.16825205  0.33650458  -0.00054588  1
  I  I2  1  0.66666740  0.33333253  0.01574250  1
  I  I3  1  0.16825275  0.83174891  -0.00054614  1
  I  I4  1  0.49792135  0.99584230  0.14188228  1
  I  I5  1  0.66349723  0.83175023  -0.00054661  1
  I  I6  1  0.00415654  0.50207865  0.14188159  1
  Nb  Nb7  1  0.86750165  0.73500388  0.07793980  1
  Nb  Nb8  1  0.86750191  0.13249694  0.07793978  1
  Nb  Nb9  1  0.26499599  0.13249729  0.07794009  1
  Te  Te10  1  -0.00000025  -0.00000227  0.16577539  1
