# generated using pymatgen
data_UTe3
_symmetry_space_group_name_H-M   'P 1'
_cell_length_a   4.17135225
_cell_length_b   6.08359191
_cell_length_c   26.95338300
_cell_angle_alpha   95.81972606
_cell_angle_beta   90.00000000
_cell_angle_gamma   90.00000000
_symmetry_Int_Tables_number   1
_chemical_formula_structural   UTe3
_chemical_formula_sum   'U2 Te6'
_cell_volume   680.46535279
_cell_formula_units_Z   2
loop_
 _symmetry_equiv_pos_site_id
 _symmetry_equiv_pos_as_xyz
  1  'x, y, z'
loop_
 _atom_site_type_symbol
 _atom_site_label
 _atom_site_symmetry_multiplicity
 _atom_site_fract_x
 _atom_site_fract_y
 _atom_site_fract_z
 _atom_site_occupancy
  U  U0  1  0.75000000  0.72176870  0.06675388  1
  U  U1  1  0.25000000  0.27823130  0.19122512  1
  Te  Te2  1  0.25000000  0.44959220  0.00053860  1
  Te  Te3  1  0.25000000  0.76063521  0.15240037  1
  Te  Te4  1  0.25000000  0.93453867  0.00053761  1
  Te  Te5  1  0.75000000  0.23936479  0.10557863  1
  Te  Te6  1  0.75000000  0.55040780  0.25743940  1
  Te  Te7  1  0.75000000  0.06546133  0.25744039  1
