# generated using pymatgen
data_AgBi(PSe3)2
_symmetry_space_group_name_H-M   'P 1'
_cell_length_a   6.70254080
_cell_length_b   6.70254074
_cell_length_c   23.59795700
_cell_angle_alpha   90.00000000
_cell_angle_beta   90.00000000
_cell_angle_gamma   120.00000511
_symmetry_Int_Tables_number   1
_chemical_formula_structural   AgBi(PSe3)2
_chemical_formula_sum   'Ag1 Bi1 P2 Se6'
_cell_volume   918.08722233
_cell_formula_units_Z   1
loop_
 _symmetry_equiv_pos_site_id
 _symmetry_equiv_pos_as_xyz
  1  'x, y, z'
loop_
 _atom_site_type_symbol
 _atom_site_label
 _atom_site_symmetry_multiplicity
 _atom_site_fract_x
 _atom_site_fract_y
 _atom_site_fract_z
 _atom_site_occupancy
  Ag  Ag0  1  0.33333300  0.66666700  0.48306572  1
  Bi  Bi1  1  -0.00000000  0.00000000  0.50812012  1
  P  P2  1  0.66666700  0.33333300  0.45297518  1
  P  P3  1  0.66666700  0.33333300  0.55065919  1
  Se  Se4  1  0.34181137  0.31190284  0.42318976  1
  Se  Se5  1  0.68809716  0.02990753  0.42318976  1
  Se  Se6  1  0.97009247  0.65818863  0.42318976  1
  Se  Se7  1  0.00374044  0.37750429  0.57639151  1
  Se  Se8  1  0.62249571  0.62623716  0.57639151  1
  Se  Se9  1  0.37376284  -0.00374044  0.57639151  1
