# generated using pymatgen
data_BiI3
_symmetry_space_group_name_H-M   'P 1'
_cell_length_a   7.58884025
_cell_length_b   7.58884025
_cell_length_c   23.64980400
_cell_angle_alpha   90.00000000
_cell_angle_beta   90.00000000
_cell_angle_gamma   119.99999767
_symmetry_Int_Tables_number   1
_chemical_formula_structural   BiI3
_chemical_formula_sum   'Bi2 I6'
_cell_volume   1179.53005042
_cell_formula_units_Z   2
loop_
 _symmetry_equiv_pos_site_id
 _symmetry_equiv_pos_as_xyz
  1  'x, y, z'
loop_
 _atom_site_type_symbol
 _atom_site_label
 _atom_site_symmetry_multiplicity
 _atom_site_fract_x
 _atom_site_fract_y
 _atom_site_fract_z
 _atom_site_occupancy
  Bi  Bi0  1  0.66666600  0.33333400  0.07716400  1
  Bi  Bi1  1  0.33333400  0.66666600  0.07716400  1
  I  I2  1  -0.00000000  0.33633388  -0.00010390  1
  I  I3  1  0.66366612  0.66366612  -0.00010390  1
  I  I4  1  0.33633388  0.33633388  0.15443090  1
  I  I5  1  0.33633388  -0.00000000  -0.00010390  1
  I  I6  1  0.00000000  0.66366612  0.15443090  1
  I  I7  1  0.66366612  0.00000000  0.15443090  1
