# generated using pymatgen
data_YbI2
_symmetry_space_group_name_H-M   'P 1'
_cell_length_a   4.42728581
_cell_length_b   4.42728581
_cell_length_c   23.55418100
_cell_angle_alpha   90.00000000
_cell_angle_beta   90.00000000
_cell_angle_gamma   120.00000400
_symmetry_Int_Tables_number   1
_chemical_formula_structural   YbI2
_chemical_formula_sum   'Yb1 I2'
_cell_volume   399.82849327
_cell_formula_units_Z   1
loop_
 _symmetry_equiv_pos_site_id
 _symmetry_equiv_pos_as_xyz
  1  'x, y, z'
loop_
 _atom_site_type_symbol
 _atom_site_label
 _atom_site_symmetry_multiplicity
 _atom_site_fract_x
 _atom_site_fract_y
 _atom_site_fract_z
 _atom_site_occupancy
  I  I0  1  0.66666600  0.33333400  0.00033807  1
  I  I1  1  0.33333400  0.66666600  0.15055593  1
  Yb  Yb2  1  -0.00000000  0.00000000  0.07544700  1
