# generated using pymatgen
data_Pr4C2Cl5
_symmetry_space_group_name_H-M   'P 1'
_cell_length_a   7.85603036
_cell_length_b   3.92411010
_cell_length_c   25.97243200
_cell_angle_alpha   90.00000000
_cell_angle_beta   90.01269750
_cell_angle_gamma   90.00000000
_symmetry_Int_Tables_number   1
_chemical_formula_structural   Pr4C2Cl5
_chemical_formula_sum   'Pr4 C2 Cl5'
_cell_volume   800.67624627
_cell_formula_units_Z   1
loop_
 _symmetry_equiv_pos_site_id
 _symmetry_equiv_pos_as_xyz
  1  'x, y, z'
loop_
 _atom_site_type_symbol
 _atom_site_label
 _atom_site_symmetry_multiplicity
 _atom_site_fract_x
 _atom_site_fract_y
 _atom_site_fract_z
 _atom_site_occupancy
  Pr  Pr0  1  0.49999871  0.00000000  0.38717452  1
  Pr  Pr1  1  0.71546750  0.50000000  0.50001254  1
  Pr  Pr2  1  0.28453250  0.50000000  0.49998746  1
  Pr  Pr3  1  0.50000129  -0.00000000  0.61282548  1
  C  C4  1  0.49999852  -0.00000000  0.47319717  1
  C  C5  1  0.50000148  -0.00000000  0.52680283  1
  Cl  Cl6  1  0.23531277  0.50000000  0.38415995  1
  Cl  Cl7  1  0.76468295  0.50000000  0.38419397  1
  Cl  Cl8  1  0.76468723  0.50000000  0.61584005  1
  Cl  Cl9  1  0.00000000  -0.00000000  0.50000000  1
  Cl  Cl10  1  0.23531705  0.50000000  0.61580603  1
