# generated using pymatgen
data_HfIN
_symmetry_space_group_name_H-M   'P 1'
_cell_length_a   3.69831186
_cell_length_b   3.69831190
_cell_length_c   28.13560700
_cell_angle_alpha   90.00000000
_cell_angle_beta   90.00000000
_cell_angle_gamma   119.99999970
_symmetry_Int_Tables_number   1
_chemical_formula_structural   HfIN
_chemical_formula_sum   'Hf2 I2 N2'
_cell_volume   333.26828536
_cell_formula_units_Z   2
loop_
 _symmetry_equiv_pos_site_id
 _symmetry_equiv_pos_as_xyz
  1  'x, y, z'
loop_
 _atom_site_type_symbol
 _atom_site_label
 _atom_site_symmetry_multiplicity
 _atom_site_fract_x
 _atom_site_fract_y
 _atom_site_fract_z
 _atom_site_occupancy
  Hf  Hf0  1  0.66666700  0.33333300  0.16892330  1
  Hf  Hf1  1  -0.00000000  -0.00000000  0.25918870  1
  I  I2  1  0.33333300  0.66666700  0.09066710  1
  I  I3  1  0.33333300  0.66666700  0.33744690  1
  N  N4  1  0.00000000  -0.00000000  0.18311141  1
  N  N5  1  0.66666700  0.33333300  0.24500059  1
