# generated using pymatgen
data_ZrI2
_symmetry_space_group_name_H-M   'P 1'
_cell_length_a   3.76295802
_cell_length_b   6.87602213
_cell_length_c   24.41257300
_cell_angle_alpha   90.00000000
_cell_angle_beta   90.00000000
_cell_angle_gamma   90.00000000
_symmetry_Int_Tables_number   1
_chemical_formula_structural   ZrI2
_chemical_formula_sum   'Zr2 I4'
_cell_volume   631.65537223
_cell_formula_units_Z   2
loop_
 _symmetry_equiv_pos_site_id
 _symmetry_equiv_pos_as_xyz
  1  'x, y, z'
loop_
 _atom_site_type_symbol
 _atom_site_label
 _atom_site_symmetry_multiplicity
 _atom_site_fract_x
 _atom_site_fract_y
 _atom_site_fract_z
 _atom_site_occupancy
  I  I0  1  0.00000000  0.88235699  0.15788920  1
  I  I1  1  0.00000000  0.22222527  -0.00004631  1
  I  I2  1  0.50000000  0.72478553  0.02285936  1
  I  I3  1  0.50000000  0.38491413  0.18079227  1
  Zr  Zr4  1  0.50000000  0.11543535  0.08829698  1
  Zr  Zr5  1  0.00000000  0.49170473  0.09244750  1
