# generated using pymatgen
data_RuCl3
_symmetry_space_group_name_H-M   'P 1'
_cell_length_a   5.96157907
_cell_length_b   5.96204885
_cell_length_c   22.68159500
_cell_angle_alpha   90.00000000
_cell_angle_beta   90.00000000
_cell_angle_gamma   119.99667143
_symmetry_Int_Tables_number   1
_chemical_formula_structural   RuCl3
_chemical_formula_sum   'Ru2 Cl6'
_cell_volume   698.19321929
_cell_formula_units_Z   2
loop_
 _symmetry_equiv_pos_site_id
 _symmetry_equiv_pos_as_xyz
  1  'x, y, z'
loop_
 _atom_site_type_symbol
 _atom_site_label
 _atom_site_symmetry_multiplicity
 _atom_site_fract_x
 _atom_site_fract_y
 _atom_site_fract_z
 _atom_site_occupancy
  Cl  Cl0  1  0.11122889  0.87582052  0.88122280  1
  Cl  Cl1  1  0.45787150  0.22245244  0.00052570  1
  Cl  Cl2  1  0.76454329  0.87578032  0.00055482  1
  Cl  Cl3  1  0.11122410  0.56912791  0.00055373  1
  Cl  Cl4  1  0.45786526  0.56908026  0.88122221  1
  Cl  Cl5  1  0.76462355  0.22245295  0.88125020  1
  Ru  Ru6  1  0.44453841  0.88907644  0.94087821  1
  Ru  Ru7  1  0.77791199  0.55582315  0.94087932  1
