# generated using pymatgen
data_TiBr3
_symmetry_space_group_name_H-M   'P 1'
_cell_length_a   6.37945483
_cell_length_b   6.37945483
_cell_length_c   23.01261000
_cell_angle_alpha   90.00000000
_cell_angle_beta   90.00000000
_cell_angle_gamma   119.99999762
_symmetry_Int_Tables_number   1
_chemical_formula_structural   TiBr3
_chemical_formula_sum   'Ti2 Br6'
_cell_volume   811.07992673
_cell_formula_units_Z   2
loop_
 _symmetry_equiv_pos_site_id
 _symmetry_equiv_pos_as_xyz
  1  'x, y, z'
loop_
 _atom_site_type_symbol
 _atom_site_label
 _atom_site_symmetry_multiplicity
 _atom_site_fract_x
 _atom_site_fract_y
 _atom_site_fract_z
 _atom_site_occupancy
  Br  Br0  1  0.34295908  0.34299663  0.13077839  1
  Br  Br1  1  0.34299663  0.00003955  0.00013261  1
  Br  Br2  1  0.65704092  0.65700337  0.00013261  1
  Br  Br3  1  0.00003955  0.65704092  0.13077839  1
  Br  Br4  1  -0.00003955  0.34295908  0.00013261  1
  Br  Br5  1  0.65700337  -0.00003955  0.13077839  1
  Ti  Ti6  1  0.33333400  0.66666600  0.06544186  1
  Ti  Ti7  1  0.66666600  0.33333400  0.06546914  1
