# generated using pymatgen
data_TiCl3
_symmetry_space_group_name_H-M   'P 1'
_cell_length_a   5.99543423
_cell_length_b   5.99543423
_cell_length_c   22.88667500
_cell_angle_alpha   90.57032633
_cell_angle_beta   90.57032633
_cell_angle_gamma   119.68932198
_symmetry_Int_Tables_number   1
_chemical_formula_structural   TiCl3
_chemical_formula_sum   'Ti2 Cl6'
_cell_volume   714.52997428
_cell_formula_units_Z   2
loop_
 _symmetry_equiv_pos_site_id
 _symmetry_equiv_pos_as_xyz
  1  'x, y, z'
loop_
 _atom_site_type_symbol
 _atom_site_label
 _atom_site_symmetry_multiplicity
 _atom_site_fract_x
 _atom_site_fract_y
 _atom_site_fract_z
 _atom_site_occupancy
  Cl  Cl0  1  0.17222246  0.52335898  0.12649606  1
  Cl  Cl1  1  0.47664102  0.82777754  0.99963294  1
  Cl  Cl2  1  0.16408863  0.17213340  0.00260158  1
  Cl  Cl3  1  0.48477228  0.17900208  0.12352824  1
  Cl  Cl4  1  0.82099792  0.51522772  0.00260076  1
  Cl  Cl5  1  0.82786660  0.83591137  0.12352742  1
  Ti  Ti6  1  0.48538765  0.51461235  0.06306500  1
  Ti  Ti7  1  0.16347845  0.83652155  0.06306500  1
