# generated using pymatgen
data_HgBr2
_symmetry_space_group_name_H-M   'P 1'
_cell_length_a   7.05911465
_cell_length_b   7.05911458
_cell_length_c   23.16865600
_cell_angle_alpha   90.00000000
_cell_angle_beta   90.00000000
_cell_angle_gamma   120.00000035
_symmetry_Int_Tables_number   1
_chemical_formula_structural   HgBr2
_chemical_formula_sum   'Hg3 Br6'
_cell_volume   999.84329443
_cell_formula_units_Z   3
loop_
 _symmetry_equiv_pos_site_id
 _symmetry_equiv_pos_as_xyz
  1  'x, y, z'
loop_
 _atom_site_type_symbol
 _atom_site_label
 _atom_site_symmetry_multiplicity
 _atom_site_fract_x
 _atom_site_fract_y
 _atom_site_fract_z
 _atom_site_occupancy
  Br  Br0  1  0.66670798  0.66671626  0.78928771  1
  Br  Br1  1  0.00000828  0.33329202  0.78928771  1
  Br  Br2  1  0.33328374  0.99999172  0.78928771  1
  Br  Br3  1  0.33337249  0.33335920  0.92919814  1
  Br  Br4  1  0.66663880  0.00001129  0.92919814  1
  Br  Br5  1  0.99998671  0.66662551  0.92919814  1
  Hg  Hg6  1  0.33333400  0.66666800  0.85924542  1
  Hg  Hg7  1  -0.00000000  -0.00000000  0.85927636  1
  Hg  Hg8  1  0.66666600  0.33333200  0.85923066  1
