# generated using pymatgen
data_Lu2CCl2
_symmetry_space_group_name_H-M   'P 1'
_cell_length_a   3.59053679
_cell_length_b   3.59053608
_cell_length_c   26.04877600
_cell_angle_alpha   90.00000000
_cell_angle_beta   90.00000000
_cell_angle_gamma   119.99999743
_symmetry_Int_Tables_number   1
_chemical_formula_structural   Lu2CCl2
_chemical_formula_sum   'Lu2 C1 Cl2'
_cell_volume   290.82828336
_cell_formula_units_Z   1
loop_
 _symmetry_equiv_pos_site_id
 _symmetry_equiv_pos_as_xyz
  1  'x, y, z'
loop_
 _atom_site_type_symbol
 _atom_site_label
 _atom_site_symmetry_multiplicity
 _atom_site_fract_x
 _atom_site_fract_y
 _atom_site_fract_z
 _atom_site_occupancy
  Lu  Lu0  1  -0.00000000  0.00000000  0.45040186  1
  Lu  Lu1  1  0.66666700  0.33333300  0.54959714  1
  C  C2  1  0.33333300  0.66666700  0.50000000  1
  Cl  Cl3  1  0.66666700  0.33333300  0.38418471  1
  Cl  Cl4  1  0.00000000  -0.00000000  0.61581529  1
