# generated using pymatgen
data_Re3Se4Cl
_symmetry_space_group_name_H-M   'P 1'
_cell_length_a   6.66412966
_cell_length_b   6.69698967
_cell_length_c   28.22250900
_cell_angle_alpha   96.29033783
_cell_angle_beta   92.21254176
_cell_angle_gamma   86.12817611
_symmetry_Int_Tables_number   1
_chemical_formula_structural   Re3Se4Cl
_chemical_formula_sum   'Re6 Se8 Cl2'
_cell_volume   1248.50010004
_cell_formula_units_Z   2
loop_
 _symmetry_equiv_pos_site_id
 _symmetry_equiv_pos_as_xyz
  1  'x, y, z'
loop_
 _atom_site_type_symbol
 _atom_site_label
 _atom_site_symmetry_multiplicity
 _atom_site_fract_x
 _atom_site_fract_y
 _atom_site_fract_z
 _atom_site_occupancy
  Cl  Cl0  1  0.91231139  0.47304254  0.28579815  1
  Cl  Cl1  1  0.58768530  0.02695327  0.00096899  1
  Re  Re2  1  0.82140894  0.34854456  0.20722054  1
  Re  Re3  1  0.67859166  0.15145574  0.07954570  1
  Re  Re4  1  0.00510830  0.29688715  0.12332281  1
  Re  Re5  1  0.49489195  0.20311335  0.16344285  1
  Re  Re6  1  0.84170254  0.98976581  0.15418083  1
  Re  Re7  1  0.65829734  0.51023609  0.13258555  1
  Se  Se8  1  0.01684494  0.95377570  0.07477196  1
  Se  Se9  1  0.15045510  0.12597040  0.19995282  1
  Se  Se10  1  0.99449790  0.63383585  0.17480843  1
  Se  Se11  1  0.50550253  0.86616569  0.11195857  1
  Se  Se12  1  0.66482045  0.04494035  0.23366280  1
  Se  Se13  1  0.48315516  0.54622405  0.21199476  1
  Se  Se14  1  0.34954587  0.37403025  0.08681364  1
  Se  Se15  1  0.83517763  0.45506120  0.05310359  1
