# generated using pymatgen
data_FeCl3
_symmetry_space_group_name_H-M   'P 1'
_cell_length_a   5.79211034
_cell_length_b   5.79211034
_cell_length_c   22.75789300
_cell_angle_alpha   90.00000000
_cell_angle_beta   90.00000000
_cell_angle_gamma   119.99999651
_symmetry_Int_Tables_number   1
_chemical_formula_structural   FeCl3
_chemical_formula_sum   'Fe2 Cl6'
_cell_volume   661.20533849
_cell_formula_units_Z   2
loop_
 _symmetry_equiv_pos_site_id
 _symmetry_equiv_pos_as_xyz
  1  'x, y, z'
loop_
 _atom_site_type_symbol
 _atom_site_label
 _atom_site_symmetry_multiplicity
 _atom_site_fract_x
 _atom_site_fract_y
 _atom_site_fract_z
 _atom_site_occupancy
  Cl  Cl0  1  0.00001404  0.64234110  0.11699354  1
  Cl  Cl1  1  0.35765890  0.35767194  0.11699354  1
  Cl  Cl2  1  0.64232806  -0.00001404  0.11699354  1
  Cl  Cl3  1  0.64260023  0.64258750  0.00410494  1
  Cl  Cl4  1  -0.00001273  0.35739977  0.00410494  1
  Cl  Cl5  1  0.35741250  0.00001273  0.00410494  1
  Fe  Fe6  1  0.33333400  0.66666600  0.06047871  1
  Fe  Fe7  1  0.66666600  0.33333400  0.06049287  1
