# generated using pymatgen
data_Te2Au
_symmetry_space_group_name_H-M   'P 1'
_cell_length_a   6.92528212
_cell_length_b   3.99851494
_cell_length_c   25.15703932
_cell_angle_alpha   90.00000002
_cell_angle_beta   90.09868539
_cell_angle_gamma   89.99998632
_symmetry_Int_Tables_number   1
_chemical_formula_structural   Te2Au
_chemical_formula_sum   'Te4 Au2'
_cell_volume   696.61861880
_cell_formula_units_Z   2
loop_
 _symmetry_equiv_pos_site_id
 _symmetry_equiv_pos_as_xyz
  1  'x, y, z'
loop_
 _atom_site_type_symbol
 _atom_site_label
 _atom_site_symmetry_multiplicity
 _atom_site_fract_x
 _atom_site_fract_y
 _atom_site_fract_z
 _atom_site_occupancy
  Te  Te0  1  0.52013232  0.10460667  0.16557064  1
  Te  Te1  1  0.02013064  0.60460723  0.16557067  1
  Te  Te2  1  0.68598707  0.60460553  0.03981484  1
  Te  Te3  1  0.18598960  0.10460577  0.03981565  1
  Au  Au4  1  0.85304756  0.10460542  0.10267995  1
  Au  Au5  1  0.35304881  0.60460538  0.10268225  1
