# generated using pymatgen
data_YbBrO
_symmetry_space_group_name_H-M   'P 1'
_cell_length_a   3.65219183
_cell_length_b   3.65219183
_cell_length_c   26.06721300
_cell_angle_alpha   90.00000000
_cell_angle_beta   90.00000000
_cell_angle_gamma   90.00000000
_symmetry_Int_Tables_number   1
_chemical_formula_structural   YbBrO
_chemical_formula_sum   'Yb2 Br2 O2'
_cell_volume   347.69765521
_cell_formula_units_Z   2
loop_
 _symmetry_equiv_pos_site_id
 _symmetry_equiv_pos_as_xyz
  1  'x, y, z'
loop_
 _atom_site_type_symbol
 _atom_site_label
 _atom_site_symmetry_multiplicity
 _atom_site_fract_x
 _atom_site_fract_y
 _atom_site_fract_z
 _atom_site_occupancy
  Yb  Yb0  1  0.50000000  -0.00000000  0.44852561  1
  Yb  Yb1  1  -0.00000000  0.50000000  0.55147439  1
  Br  Br2  1  0.00000000  0.50000000  0.38514278  1
  Br  Br3  1  0.50000000  -0.00000000  0.61485722  1
  O  O4  1  0.00000000  -0.00000000  0.50000000  1
  O  O5  1  0.50000000  0.50000000  0.50000000  1
