# generated using pymatgen
data_Pb2O3
_symmetry_space_group_name_H-M   'P 1'
_cell_length_a   4.77596369
_cell_length_b   4.77596086
_cell_length_c   25.52840000
_cell_angle_alpha   90.00000000
_cell_angle_beta   90.68523156
_cell_angle_gamma   90.00000000
_symmetry_Int_Tables_number   1
_chemical_formula_structural   Pb2O3
_chemical_formula_sum   'Pb4 O6'
_cell_volume   582.25645477
_cell_formula_units_Z   2
loop_
 _symmetry_equiv_pos_site_id
 _symmetry_equiv_pos_as_xyz
  1  'x, y, z'
loop_
 _atom_site_type_symbol
 _atom_site_label
 _atom_site_symmetry_multiplicity
 _atom_site_fract_x
 _atom_site_fract_y
 _atom_site_fract_z
 _atom_site_occupancy
  Pb  Pb0  1  0.75000109  0.75000000  0.49999954  1
  Pb  Pb1  1  0.24999891  0.25000000  0.50000046  1
  Pb  Pb2  1  0.74312434  0.25000000  0.39279451  1
  Pb  Pb3  1  0.25687566  0.75000000  0.60720549  1
  O  O4  1  0.74492232  0.75000000  0.42060073  1
  O  O5  1  0.74918536  0.25000000  0.48749009  1
  O  O6  1  0.25081464  0.75000000  0.51250991  1
  O  O7  1  0.75508531  0.75000000  0.57939638  1
  O  O8  1  0.25507768  0.25000000  0.57939927  1
  O  O9  1  0.24491469  0.25000000  0.42060362  1
