# generated using pymatgen
data_ScHO2
_symmetry_space_group_name_H-M   'P 1'
_cell_length_a   3.27566571
_cell_length_b   4.01123284
_cell_length_c   26.06259400
_cell_angle_alpha   90.00000000
_cell_angle_beta   90.00000000
_cell_angle_gamma   90.00003150
_symmetry_Int_Tables_number   1
_chemical_formula_structural   ScHO2
_chemical_formula_sum   'Sc2 H2 O4'
_cell_volume   342.44835505
_cell_formula_units_Z   2
loop_
 _symmetry_equiv_pos_site_id
 _symmetry_equiv_pos_as_xyz
  1  'x, y, z'
loop_
 _atom_site_type_symbol
 _atom_site_label
 _atom_site_symmetry_multiplicity
 _atom_site_fract_x
 _atom_site_fract_y
 _atom_site_fract_z
 _atom_site_occupancy
  H  H0  1  -0.00000008  0.60261790  0.99537687  1
  H  H1  1  0.49999991  0.10327391  0.23882922  1
  O  O2  1  0.50000004  0.23864914  0.10110356  1
  O  O3  1  1.00000002  0.72940214  0.02711783  1
  O  O4  1  1.00000004  0.73869116  0.13308321  1
  O  O5  1  0.50000001  0.22963722  0.20704788  1
  Sc  Sc6  1  0.50000002  0.73945220  0.07974694  1
  Sc  Sc7  1  1.00000005  0.23947932  0.15442349  1
