# generated using pymatgen
data_Al(HO)3
_symmetry_space_group_name_H-M   'P 1'
_cell_length_a   4.89649598
_cell_length_b   5.15127989
_cell_length_c   24.05588500
_cell_angle_alpha   93.70214021
_cell_angle_beta   89.79892301
_cell_angle_gamma   61.64092296
_symmetry_Int_Tables_number   1
_chemical_formula_structural   Al(HO)3
_chemical_formula_sum   'Al2 H6 O6'
_cell_volume   532.42963582
_cell_formula_units_Z   2
loop_
 _symmetry_equiv_pos_site_id
 _symmetry_equiv_pos_as_xyz
  1  'x, y, z'
loop_
 _atom_site_type_symbol
 _atom_site_label
 _atom_site_symmetry_multiplicity
 _atom_site_fract_x
 _atom_site_fract_y
 _atom_site_fract_z
 _atom_site_occupancy
  Al  Al0  1  0.83635427  0.82717744  0.08311715  1
  Al  Al1  1  0.16364573  0.17282256  0.08310285  1
  H  H2  1  0.89483123  0.53252219  0.16490724  1
  H  H3  1  0.10516877  0.46747781  0.00131276  1
  H  H4  1  0.32277272  0.74748281  0.13769362  1
  H  H5  1  0.67722728  0.25251719  0.02852738  1
  H  H6  1  0.54866333  0.29636368  0.13757731  1
  H  H7  1  0.45133667  0.70363632  0.02864269  1
  O  O8  1  0.84547566  0.51710071  0.12604690  1
  O  O9  1  0.15452434  0.48289929  0.04017310  1
  O  O10  1  0.11976035  0.89503854  0.12654641  1
  O  O11  1  0.88023965  0.10496146  0.03967459  1
  O  O12  1  0.49743829  0.13986394  0.12653031  1
  O  O13  1  0.50256171  0.86013606  0.03968969  1
