# generated using pymatgen
data_Te(HO2)2
_symmetry_space_group_name_H-M   'P 1'
_cell_length_a   4.90116716
_cell_length_b   5.26033992
_cell_length_c   24.19482600
_cell_angle_alpha   93.84763621
_cell_angle_beta   90.00000000
_cell_angle_gamma   90.00000000
_symmetry_Int_Tables_number   1
_chemical_formula_structural   Te(HO2)2
_chemical_formula_sum   'Te2 H4 O8'
_cell_volume   622.38029248
_cell_formula_units_Z   2
loop_
 _symmetry_equiv_pos_site_id
 _symmetry_equiv_pos_as_xyz
  1  'x, y, z'
loop_
 _atom_site_type_symbol
 _atom_site_label
 _atom_site_symmetry_multiplicity
 _atom_site_fract_x
 _atom_site_fract_y
 _atom_site_fract_z
 _atom_site_occupancy
  Te  Te0  1  0.25017282  0.47260907  0.08667078  1
  Te  Te1  1  0.74982718  0.97260907  0.08667078  1
  H  H2  1  0.03504079  0.67587237  0.17118821  1
  H  H3  1  0.47686965  0.57128963  0.00058881  1
  H  H4  1  0.52313035  0.07128963  0.00058881  1
  H  H5  1  0.96495921  0.17587237  0.17118821  1
  O  O6  1  0.10474002  0.50029548  0.16184087  1
  O  O7  1  0.39530361  0.40958807  0.01195722  1
  O  O8  1  0.93659728  0.26755963  0.06069378  1
  O  O9  1  0.43245515  0.17456375  0.11205934  1
  O  O10  1  0.56754485  0.67456375  0.11205934  1
  O  O11  1  0.06340272  0.76755963  0.06069378  1
  O  O12  1  0.60469639  0.90958807  0.01195722  1
  O  O13  1  0.89525998  0.00029548  0.16184087  1
