# generated using pymatgen
data_CdInGaS4
_symmetry_space_group_name_H-M   'P 1'
_cell_length_a   3.88726629
_cell_length_b   3.88726584
_cell_length_c   29.56010700
_cell_angle_alpha   90.00000000
_cell_angle_beta   90.00000000
_cell_angle_gamma   120.00000384
_symmetry_Int_Tables_number   1
_chemical_formula_structural   CdInGaS4
_chemical_formula_sum   'Cd1 In1 Ga1 S4'
_cell_volume   386.83445693
_cell_formula_units_Z   1
loop_
 _symmetry_equiv_pos_site_id
 _symmetry_equiv_pos_as_xyz
  1  'x, y, z'
loop_
 _atom_site_type_symbol
 _atom_site_label
 _atom_site_symmetry_multiplicity
 _atom_site_fract_x
 _atom_site_fract_y
 _atom_site_fract_z
 _atom_site_occupancy
  Cd  Cd0  1  0.00000000  -0.00000000  0.49310956  1
  In  In1  1  0.66666700  0.33333300  0.62296587  1
  Ga  Ga2  1  0.33333300  0.66666700  0.36977636  1
  S  S3  1  0.66666700  0.33333300  0.54182240  1
  S  S4  1  0.33333300  0.66666700  0.44455925  1
  S  S5  1  0.66666700  0.33333300  0.33792886  1
  S  S6  1  0.33333300  0.66666700  0.66248770  1
