# generated using pymatgen
data_Nb3IrSe8
_symmetry_space_group_name_H-M   'P 1'
_cell_length_a   6.93925667
_cell_length_b   6.93936914
_cell_length_c   23.68410400
_cell_angle_alpha   90.51474154
_cell_angle_beta   90.17865181
_cell_angle_gamma   119.66324452
_symmetry_Int_Tables_number   1
_chemical_formula_structural   Nb3IrSe8
_chemical_formula_sum   'Nb3 Ir1 Se8'
_cell_volume   990.94669518
_cell_formula_units_Z   1
loop_
 _symmetry_equiv_pos_site_id
 _symmetry_equiv_pos_as_xyz
  1  'x, y, z'
loop_
 _atom_site_type_symbol
 _atom_site_label
 _atom_site_symmetry_multiplicity
 _atom_site_fract_x
 _atom_site_fract_y
 _atom_site_fract_z
 _atom_site_occupancy
  Nb  Nb0  1  0.47874767  0.47839027  0.49961383  1
  Nb  Nb1  1  0.46579148  0.99969298  0.50061620  1
  Nb  Nb2  1  0.99990729  0.46536972  0.49855209  1
  Ir  Ir3  1  0.04839811  0.04805216  0.49960567  1
  Se  Se4  1  0.34602407  0.18169972  0.57731050  1
  Se  Se5  1  0.32299056  0.66042153  0.57076422  1
  Se  Se6  1  0.85341316  0.69649182  0.55883985  1
  Se  Se7  1  0.17571941  0.33930593  0.42190232  1
  Se  Se8  1  0.65491882  0.31686537  0.42841153  1
  Se  Se9  1  0.69198056  0.84820374  0.44037341  1
  Se  Se10  1  0.83208924  0.15317745  0.56877557  1
  Se  Se11  1  0.14782264  0.82611330  0.43040180  1
