# generated using pymatgen
data_Bi2PbSe4
_symmetry_space_group_name_H-M   'P 1'
_cell_length_a   4.22100243
_cell_length_b   4.22100232
_cell_length_c   30.63984000
_cell_angle_alpha   90.00000000
_cell_angle_beta   90.00000000
_cell_angle_gamma   119.99999318
_symmetry_Int_Tables_number   1
_chemical_formula_structural   Bi2PbSe4
_chemical_formula_sum   'Bi2 Pb1 Se4'
_cell_volume   472.76829838
_cell_formula_units_Z   1
loop_
 _symmetry_equiv_pos_site_id
 _symmetry_equiv_pos_as_xyz
  1  'x, y, z'
loop_
 _atom_site_type_symbol
 _atom_site_label
 _atom_site_symmetry_multiplicity
 _atom_site_fract_x
 _atom_site_fract_y
 _atom_site_fract_z
 _atom_site_occupancy
  Bi  Bi0  1  -0.00000000  0.00000000  0.37574107  1
  Bi  Bi1  1  0.66666700  0.33333300  0.62426093  1
  Pb  Pb2  1  0.33333300  0.66666700  0.50000100  1
  Se  Se3  1  0.33333300  0.66666700  0.32551356  1
  Se  Se4  1  0.66666700  0.33333300  0.43914752  1
  Se  Se5  1  0.00000000  0.00000000  0.56085248  1
  Se  Se6  1  0.33333300  0.66666700  0.67448644  1
