# generated using pymatgen
data_MoO3
_symmetry_space_group_name_H-M   'P 1'
_cell_length_a   3.69688159
_cell_length_b   3.89386033
_cell_length_c   28.49710000
_cell_angle_alpha   90.00000000
_cell_angle_beta   90.00000000
_cell_angle_gamma   90.00000000
_symmetry_Int_Tables_number   1
_chemical_formula_structural   MoO3
_chemical_formula_sum   'Mo2 O6'
_cell_volume   410.21976043
_cell_formula_units_Z   2
loop_
 _symmetry_equiv_pos_site_id
 _symmetry_equiv_pos_as_xyz
  1  'x, y, z'
loop_
 _atom_site_type_symbol
 _atom_site_label
 _atom_site_symmetry_multiplicity
 _atom_site_fract_x
 _atom_site_fract_y
 _atom_site_fract_z
 _atom_site_occupancy
  Mo  Mo0  1  0.25000000  0.43143569  0.32400421  1
  Mo  Mo1  1  0.75000000  0.56856431  0.21980979  1
  O  O2  1  0.25000000  0.46691518  0.38259116  1
  O  O3  1  0.75000000  0.53308482  0.16122184  1
  O  O4  1  0.25000000  0.49776648  0.23883290  1
  O  O5  1  0.75000000  0.50223352  0.30498010  1
  O  O6  1  0.25000000  0.98186671  0.31566138  1
  O  O7  1  0.75000000  0.01813329  0.22815162  1
