# generated using pymatgen
data_ZrNCl
_symmetry_space_group_name_H-M   'P 1'
_cell_length_a   3.62294979
_cell_length_b   3.62295030
_cell_length_c   28.99854900
_cell_angle_alpha   90.00000000
_cell_angle_beta   90.00000000
_cell_angle_gamma   119.99999533
_symmetry_Int_Tables_number   1
_chemical_formula_structural   ZrNCl
_chemical_formula_sum   'Zr2 N2 Cl2'
_cell_volume   329.63370492
_cell_formula_units_Z   2
loop_
 _symmetry_equiv_pos_site_id
 _symmetry_equiv_pos_as_xyz
  1  'x, y, z'
loop_
 _atom_site_type_symbol
 _atom_site_label
 _atom_site_symmetry_multiplicity
 _atom_site_fract_x
 _atom_site_fract_y
 _atom_site_fract_z
 _atom_site_occupancy
  Zr  Zr0  1  0.66666700  0.33333300  0.12111805  1
  Zr  Zr1  1  0.00000000  -0.00000000  0.21221495  1
  N  N2  1  0.00000000  -0.00000000  0.13689804  1
  N  N3  1  0.66666700  0.33333300  0.19643496  1
  Cl  Cl4  1  0.33333300  0.66666700  0.05877220  1
  Cl  Cl5  1  0.33333300  0.66666700  0.27456080  1
