# generated using pymatgen
data_Bi2Te4Pb
_symmetry_space_group_name_H-M   'P 1'
_cell_length_a   4.46591808
_cell_length_b   4.46591799
_cell_length_c   31.41727300
_cell_angle_alpha   90.00000000
_cell_angle_beta   90.00000000
_cell_angle_gamma   120.00000067
_symmetry_Int_Tables_number   1
_chemical_formula_structural   Bi2Te4Pb
_chemical_formula_sum   'Bi2 Te4 Pb1'
_cell_volume   542.65100333
_cell_formula_units_Z   1
loop_
 _symmetry_equiv_pos_site_id
 _symmetry_equiv_pos_as_xyz
  1  'x, y, z'
loop_
 _atom_site_type_symbol
 _atom_site_label
 _atom_site_symmetry_multiplicity
 _atom_site_fract_x
 _atom_site_fract_y
 _atom_site_fract_z
 _atom_site_occupancy
  Bi  Bi0  1  -0.00000000  0.00000000  0.37172336  1
  Bi  Bi1  1  0.66666700  0.33333300  0.62827564  1
  Te  Te2  1  0.33333300  0.66666700  0.31764500  1
  Te  Te3  1  0.66666700  0.33333300  0.43713349  1
  Te  Te4  1  0.00000000  0.00000000  0.56286551  1
  Te  Te5  1  0.33333300  0.66666700  0.68235500  1
  Pb  Pb6  1  0.33333300  0.66666700  0.50000000  1
