# generated using pymatgen
data_PtCl2
_symmetry_space_group_name_H-M   'P 1'
_cell_length_a   4.67868919
_cell_length_b   4.42835181
_cell_length_c   25.52817500
_cell_angle_alpha   103.33527189
_cell_angle_beta   94.26271479
_cell_angle_gamma   104.06913427
_symmetry_Int_Tables_number   1
_chemical_formula_structural   PtCl2
_chemical_formula_sum   'Pt2 Cl4'
_cell_volume   494.42884040
_cell_formula_units_Z   2
loop_
 _symmetry_equiv_pos_site_id
 _symmetry_equiv_pos_as_xyz
  1  'x, y, z'
loop_
 _atom_site_type_symbol
 _atom_site_label
 _atom_site_symmetry_multiplicity
 _atom_site_fract_x
 _atom_site_fract_y
 _atom_site_fract_z
 _atom_site_occupancy
  Pt  Pt0  1  0.78501117  0.71907478  0.47097972  1
  Pt  Pt1  1  0.21497383  0.28091264  0.52898655  1
  Cl  Cl2  1  0.76517201  0.90104895  0.39547526  1
  Cl  Cl3  1  0.74362688  0.46055695  0.54328922  1
  Cl  Cl4  1  0.25638877  0.53945011  0.45667858  1
  Cl  Cl5  1  0.23482734  0.09895457  0.60449265  1
