# generated using pymatgen
data_YbBr3
_symmetry_space_group_name_H-M   'P 1'
_cell_length_a   6.71692066
_cell_length_b   6.71692064
_cell_length_c   22.85872800
_cell_angle_alpha   90.00000000
_cell_angle_beta   90.00000000
_cell_angle_gamma   120.00000010
_symmetry_Int_Tables_number   1
_chemical_formula_structural   YbBr3
_chemical_formula_sum   'Yb2 Br6'
_cell_volume   893.14737751
_cell_formula_units_Z   2
loop_
 _symmetry_equiv_pos_site_id
 _symmetry_equiv_pos_as_xyz
  1  'x, y, z'
loop_
 _atom_site_type_symbol
 _atom_site_label
 _atom_site_symmetry_multiplicity
 _atom_site_fract_x
 _atom_site_fract_y
 _atom_site_fract_z
 _atom_site_occupancy
  Yb  Yb0  1  0.33333300  0.66666700  0.48955668  1
  Yb  Yb1  1  0.66666700  0.33333300  0.51044332  1
  Br  Br2  1  0.30082469  0.33301785  0.57279329  1
  Br  Br3  1  0.03219216  0.69917531  0.57279329  1
  Br  Br4  1  0.66698215  0.96780784  0.57279329  1
  Br  Br5  1  0.33301785  0.03219216  0.42720671  1
  Br  Br6  1  0.96780784  0.30082469  0.42720671  1
  Br  Br7  1  0.69917531  0.66698215  0.42720671  1
