# generated using pymatgen
data_TmClO
_symmetry_space_group_name_H-M   'P 1'
_cell_length_a   3.68911233
_cell_length_b   4.11120666
_cell_length_c   25.83358600
_cell_angle_alpha   90.00000000
_cell_angle_beta   90.00000000
_cell_angle_gamma   90.00000000
_symmetry_Int_Tables_number   1
_chemical_formula_structural   TmClO
_chemical_formula_sum   'Tm2 Cl2 O2'
_cell_volume   391.81033120
_cell_formula_units_Z   2
loop_
 _symmetry_equiv_pos_site_id
 _symmetry_equiv_pos_as_xyz
  1  'x, y, z'
loop_
 _atom_site_type_symbol
 _atom_site_label
 _atom_site_symmetry_multiplicity
 _atom_site_fract_x
 _atom_site_fract_y
 _atom_site_fract_z
 _atom_site_occupancy
  Cl  Cl0  1  0.00000000  0.00000000  0.22588786  1
  Cl  Cl1  1  0.50000000  0.50000000  0.99992614  1
  O  O2  1  0.00000000  0.00000000  0.10240615  1
  O  O3  1  0.50000000  0.50000000  0.12340785  1
  Tm  Tm4  1  0.50000000  0.00000000  0.15308648  1
  Tm  Tm5  1  0.00000000  0.50000000  0.07272752  1
