# generated using pymatgen
data_TiSnO3
_symmetry_space_group_name_H-M   'P 1'
_cell_length_a   5.11501334
_cell_length_b   5.11501357
_cell_length_c   24.41490700
_cell_angle_alpha   90.00000000
_cell_angle_beta   90.00000000
_cell_angle_gamma   120.00000488
_symmetry_Int_Tables_number   1
_chemical_formula_structural   TiSnO3
_chemical_formula_sum   'Ti2 Sn2 O6'
_cell_volume   553.19627270
_cell_formula_units_Z   2
loop_
 _symmetry_equiv_pos_site_id
 _symmetry_equiv_pos_as_xyz
  1  'x, y, z'
loop_
 _atom_site_type_symbol
 _atom_site_label
 _atom_site_symmetry_multiplicity
 _atom_site_fract_x
 _atom_site_fract_y
 _atom_site_fract_z
 _atom_site_occupancy
  Ti  Ti0  1  0.33333300  0.66666700  0.49811636  1
  Ti  Ti1  1  -0.00000000  0.00000000  0.50188464  1
  Sn  Sn2  1  0.66666700  0.33333300  0.40895867  1
  Sn  Sn3  1  0.66666700  0.33333300  0.59104133  1
  O  O4  1  0.02292704  0.68994573  0.45585601  1
  O  O5  1  0.66701769  0.97707296  0.45585601  1
  O  O6  1  0.31005427  0.33298231  0.45585601  1
  O  O7  1  0.02327873  0.33368469  0.54414499  1
  O  O8  1  0.66631531  0.68959404  0.54414499  1
  O  O9  1  0.31040596  0.97672127  0.54414499  1
