# generated using pymatgen
data_TmBrO
_symmetry_space_group_name_H-M   'P 1'
_cell_length_a   3.76078646
_cell_length_b   4.10213454
_cell_length_c   26.17293900
_cell_angle_alpha   90.00000000
_cell_angle_beta   90.00000000
_cell_angle_gamma   90.00000000
_symmetry_Int_Tables_number   1
_chemical_formula_structural   TmBrO
_chemical_formula_sum   'Tm2 Br2 O2'
_cell_volume   403.77652658
_cell_formula_units_Z   2
loop_
 _symmetry_equiv_pos_site_id
 _symmetry_equiv_pos_as_xyz
  1  'x, y, z'
loop_
 _atom_site_type_symbol
 _atom_site_label
 _atom_site_symmetry_multiplicity
 _atom_site_fract_x
 _atom_site_fract_y
 _atom_site_fract_z
 _atom_site_occupancy
  Br  Br0  1  0.00000000  0.50000000  0.00043084  1
  Br  Br1  1  0.50000000  0.00000000  0.23542116  1
  O  O2  1  0.00000000  0.50000000  0.12694761  1
  O  O3  1  0.50000000  0.00000000  0.10890439  1
  Tm  Tm4  1  0.50000000  0.50000000  0.07883961  1
  Tm  Tm5  1  0.00000000  0.00000000  0.15701239  1
