# generated using pymatgen
data_PrBrO
_symmetry_space_group_name_H-M   'P 1'
_cell_length_a   4.04542678
_cell_length_b   4.04542678
_cell_length_c   26.96464800
_cell_angle_alpha   90.00000000
_cell_angle_beta   90.00000000
_cell_angle_gamma   120.00000014
_symmetry_Int_Tables_number   1
_chemical_formula_structural   PrBrO
_chemical_formula_sum   'Pr2 Br2 O2'
_cell_volume   382.16778546
_cell_formula_units_Z   2
loop_
 _symmetry_equiv_pos_site_id
 _symmetry_equiv_pos_as_xyz
  1  'x, y, z'
loop_
 _atom_site_type_symbol
 _atom_site_label
 _atom_site_symmetry_multiplicity
 _atom_site_fract_x
 _atom_site_fract_y
 _atom_site_fract_z
 _atom_site_occupancy
  Br  Br0  1  0.66666600  0.33333400  0.25822711  1
  Br  Br1  1  0.66666600  0.33333400  0.00006089  1
  O  O2  1  -0.00000000  0.00000000  0.16219052  1
  O  O3  1  0.33333400  0.66666600  0.09609648  1
  Pr  Pr4  1  -0.00000000  0.00000000  0.07317452  1
  Pr  Pr5  1  0.33333400  0.66666600  0.18511448  1
