# generated using pymatgen
data_V(CO3)2
_symmetry_space_group_name_H-M   'P 1'
_cell_length_a   4.77582546
_cell_length_b   4.77582500
_cell_length_c   22.22260800
_cell_angle_alpha   90.00000000
_cell_angle_beta   90.00000000
_cell_angle_gamma   120.00000320
_symmetry_Int_Tables_number   1
_chemical_formula_structural   V(CO3)2
_chemical_formula_sum   'V1 C2 O6'
_cell_volume   438.95752000
_cell_formula_units_Z   1
loop_
 _symmetry_equiv_pos_site_id
 _symmetry_equiv_pos_as_xyz
  1  'x, y, z'
loop_
 _atom_site_type_symbol
 _atom_site_label
 _atom_site_symmetry_multiplicity
 _atom_site_fract_x
 _atom_site_fract_y
 _atom_site_fract_z
 _atom_site_occupancy
  V  V0  1  0.33333300  0.66666700  0.50000000  1
  C  C1  1  -0.00000000  -0.00000000  0.54845369  1
  C  C2  1  0.66666700  0.33333300  0.45154631  1
  O  O3  1  0.70529015  0.94017121  0.54904896  1
  O  O4  1  0.43178594  0.03862315  0.45095104  1
  O  O5  1  0.60683821  0.56821406  0.45095104  1
  O  O6  1  0.05982879  0.76511894  0.54904896  1
  O  O7  1  0.23488106  0.29470985  0.54904896  1
  O  O8  1  0.96137685  0.39316179  0.45095104  1
