# generated using pymatgen
data_TiCo3O8
_symmetry_space_group_name_H-M   'P 1'
_cell_length_a   5.71374833
_cell_length_b   5.71374815
_cell_length_c   21.90853200
_cell_angle_alpha   90.00000000
_cell_angle_beta   90.00000000
_cell_angle_gamma   120.00000103
_symmetry_Int_Tables_number   1
_chemical_formula_structural   TiCo3O8
_chemical_formula_sum   'Ti1 Co3 O8'
_cell_volume   619.42125978
_cell_formula_units_Z   1
loop_
 _symmetry_equiv_pos_site_id
 _symmetry_equiv_pos_as_xyz
  1  'x, y, z'
loop_
 _atom_site_type_symbol
 _atom_site_label
 _atom_site_symmetry_multiplicity
 _atom_site_fract_x
 _atom_site_fract_y
 _atom_site_fract_z
 _atom_site_occupancy
  Ti  Ti0  1  0.66666700  0.33333300  0.50000000  1
  Co  Co1  1  0.66666700  0.83333300  0.50000000  1
  Co  Co2  1  0.16666700  0.83333300  0.50000000  1
  Co  Co3  1  0.16666700  0.33333300  0.50000000  1
  O  O4  1  0.83946602  0.67893205  0.54419611  1
  O  O5  1  0.83946602  0.16053398  0.54419611  1
  O  O6  1  0.32106795  0.16053398  0.54419611  1
  O  O7  1  0.01226505  0.50613202  0.45580389  1
  O  O8  1  0.49386798  0.50613202  0.45580389  1
  O  O9  1  0.49386698  0.98773495  0.45580389  1
  O  O10  1  0.33333300  0.66666700  0.54170828  1
  O  O11  1  0.00000000  0.00000000  0.45829172  1
