# generated using pymatgen
data_Fe(CO3)2
_symmetry_space_group_name_H-M   'P 1'
_cell_length_a   4.57721735
_cell_length_b   4.57721752
_cell_length_c   22.32658200
_cell_angle_alpha   90.00000000
_cell_angle_beta   90.00000000
_cell_angle_gamma   120.00000603
_symmetry_Int_Tables_number   1
_chemical_formula_structural   Fe(CO3)2
_chemical_formula_sum   'Fe1 C2 O6'
_cell_volume   405.09411515
_cell_formula_units_Z   1
loop_
 _symmetry_equiv_pos_site_id
 _symmetry_equiv_pos_as_xyz
  1  'x, y, z'
loop_
 _atom_site_type_symbol
 _atom_site_label
 _atom_site_symmetry_multiplicity
 _atom_site_fract_x
 _atom_site_fract_y
 _atom_site_fract_z
 _atom_site_occupancy
  Fe  Fe0  1  0.33333300  0.66666700  0.50000000  1
  C  C1  1  0.00000000  -0.00000000  0.54735644  1
  C  C2  1  0.66666700  0.33333300  0.45264256  1
  O  O3  1  0.70257405  0.96620902  0.54833935  1
  O  O4  1  0.40303303  0.03590805  0.45166065  1
  O  O5  1  0.63287502  0.59696697  0.45166065  1
  O  O6  1  0.03379098  0.73636703  0.54833935  1
  O  O7  1  0.26363297  0.29742595  0.54833935  1
  O  O8  1  0.96409195  0.36712498  0.45166065  1
