# generated using pymatgen
data_TmClO
_symmetry_space_group_name_H-M   'P 1'
_cell_length_a   3.72413943
_cell_length_b   3.72405838
_cell_length_c   26.27756600
_cell_angle_alpha   90.00000000
_cell_angle_beta   90.00000000
_cell_angle_gamma   120.00419379
_symmetry_Int_Tables_number   1
_chemical_formula_structural   TmClO
_chemical_formula_sum   'Tm2 Cl2 O2'
_cell_volume   315.60205741
_cell_formula_units_Z   2
loop_
 _symmetry_equiv_pos_site_id
 _symmetry_equiv_pos_as_xyz
  1  'x, y, z'
loop_
 _atom_site_type_symbol
 _atom_site_label
 _atom_site_symmetry_multiplicity
 _atom_site_fract_x
 _atom_site_fract_y
 _atom_site_fract_z
 _atom_site_occupancy
  Cl  Cl0  1  0.00000051  0.00000120  -0.00019449  1
  Cl  Cl1  1  -0.00000105  -0.00000149  0.76131154  1
  O  O2  1  0.66667230  0.33334643  0.84869085  1
  O  O3  1  0.33332798  0.66665400  0.91240543  1
  Tm  Tm4  1  0.66667908  0.33335868  0.93421286  1
  Tm  Tm5  1  0.33332120  0.66664119  0.82688980  1
