# generated using pymatgen
data_TiGeO3
_symmetry_space_group_name_H-M   'P 1'
_cell_length_a   5.02595158
_cell_length_b   5.02595192
_cell_length_c   24.12162600
_cell_angle_alpha   90.00000000
_cell_angle_beta   90.00000000
_cell_angle_gamma   120.00000423
_symmetry_Int_Tables_number   1
_chemical_formula_structural   TiGeO3
_chemical_formula_sum   'Ti2 Ge2 O6'
_cell_volume   527.68387439
_cell_formula_units_Z   2
loop_
 _symmetry_equiv_pos_site_id
 _symmetry_equiv_pos_as_xyz
  1  'x, y, z'
loop_
 _atom_site_type_symbol
 _atom_site_label
 _atom_site_symmetry_multiplicity
 _atom_site_fract_x
 _atom_site_fract_y
 _atom_site_fract_z
 _atom_site_occupancy
  Ti  Ti0  1  0.66666700  0.33333300  0.50438600  1
  Ti  Ti1  1  0.00000000  0.00000000  0.49561400  1
  Ge  Ge2  1  0.33333300  0.66666700  0.58559020  1
  Ge  Ge3  1  0.33333300  0.66666700  0.41440980  1
  O  O4  1  0.99235568  0.66776633  0.54443931  1
  O  O5  1  0.67541165  0.00764432  0.54443931  1
  O  O6  1  0.33223367  0.32458835  0.54443931  1
  O  O7  1  0.33443333  0.00874465  0.45556069  1
  O  O8  1  0.99125535  0.32568868  0.45556069  1
  O  O9  1  0.67431132  0.66556667  0.45556069  1
