# generated using pymatgen
data_GaHO2
_symmetry_space_group_name_H-M   'P 1'
_cell_length_a   3.04035197
_cell_length_b   3.82328027
_cell_length_c   25.15206600
_cell_angle_alpha   90.00000000
_cell_angle_beta   90.00000000
_cell_angle_gamma   90.00000000
_symmetry_Int_Tables_number   1
_chemical_formula_structural   GaHO2
_chemical_formula_sum   'Ga2 H2 O4'
_cell_volume   292.37057602
_cell_formula_units_Z   2
loop_
 _symmetry_equiv_pos_site_id
 _symmetry_equiv_pos_as_xyz
  1  'x, y, z'
loop_
 _atom_site_type_symbol
 _atom_site_label
 _atom_site_symmetry_multiplicity
 _atom_site_fract_x
 _atom_site_fract_y
 _atom_site_fract_z
 _atom_site_occupancy
  Ga  Ga0  1  0.50000000  0.26342953  0.46343535  1
  Ga  Ga1  1  0.00000000  0.76342953  0.53656465  1
  H  H2  1  0.00000000  0.48001499  0.39118390  1
  H  H3  1  0.50000000  -0.01998501  0.60881610  1
  O  O4  1  0.00000000  0.26360480  0.41190855  1
  O  O5  1  0.00000000  0.26593268  0.51995090  1
  O  O6  1  0.50000000  0.76593268  0.48004910  1
  O  O7  1  0.50000000  0.76360480  0.58809145  1
