# generated using pymatgen
data_LuIO
_symmetry_space_group_name_H-M   'P 1'
_cell_length_a   3.83815587
_cell_length_b   3.83815587
_cell_length_c   25.96329800
_cell_angle_alpha   90.00000000
_cell_angle_beta   90.00000000
_cell_angle_gamma   90.00000000
_symmetry_Int_Tables_number   1
_chemical_formula_structural   LuIO
_chemical_formula_sum   'Lu2 I2 O2'
_cell_volume   382.47678016
_cell_formula_units_Z   2
loop_
 _symmetry_equiv_pos_site_id
 _symmetry_equiv_pos_as_xyz
  1  'x, y, z'
loop_
 _atom_site_type_symbol
 _atom_site_label
 _atom_site_symmetry_multiplicity
 _atom_site_fract_x
 _atom_site_fract_y
 _atom_site_fract_z
 _atom_site_occupancy
  I  I0  1  0.00000000  0.50000000  0.07678176  1
  I  I1  1  0.50000000  0.00000000  0.30430424  1
  Lu  Lu2  1  0.00000000  0.50000000  0.23126057  1
  Lu  Lu3  1  0.50000000  -0.00000000  0.14982543  1
  O  O4  1  0.50000000  0.50000000  0.19054300  1
  O  O5  1  -0.00000000  -0.00000000  0.19054300  1
