# generated using pymatgen
data_B2(CN2)3
_symmetry_space_group_name_H-M   'P 1'
_cell_length_a   8.47030497
_cell_length_b   8.47030415
_cell_length_c   20.51640300
_cell_angle_alpha   90.00000000
_cell_angle_beta   90.00000000
_cell_angle_gamma   119.99999880
_symmetry_Int_Tables_number   1
_chemical_formula_structural   B2(CN2)3
_chemical_formula_sum   'B2 C3 N6'
_cell_volume   1274.76435366
_cell_formula_units_Z   1
loop_
 _symmetry_equiv_pos_site_id
 _symmetry_equiv_pos_as_xyz
  1  'x, y, z'
loop_
 _atom_site_type_symbol
 _atom_site_label
 _atom_site_symmetry_multiplicity
 _atom_site_fract_x
 _atom_site_fract_y
 _atom_site_fract_z
 _atom_site_occupancy
  B  B0  1  0.33333300  0.66666700  0.50001734  1
  B  B1  1  -0.00000000  -0.00000000  0.49998266  1
  C  C2  1  0.24144860  0.33333300  0.50000000  1
  C  C3  1  0.66666700  0.90811560  0.50000000  1
  C  C4  1  0.09188440  0.75855140  0.50000000  1
  N  N5  1  0.33464901  0.49843411  0.50002101  1
  N  N6  1  0.50156589  0.83621589  0.50002101  1
  N  N7  1  0.16378411  0.66535099  0.50002101  1
  N  N8  1  0.16954889  0.16823289  0.49997899  1
  N  N9  1  -0.00131601  0.83045111  0.49997899  1
  N  N10  1  0.83176711  0.00131601  0.49997899  1
