# generated using pymatgen
data_AgBiO2
_symmetry_space_group_name_H-M   'P 1'
_cell_length_a   6.70030037
_cell_length_b   3.52182572
_cell_length_c   23.91897100
_cell_angle_alpha   90.00000000
_cell_angle_beta   95.90005268
_cell_angle_gamma   90.00000000
_symmetry_Int_Tables_number   1
_chemical_formula_structural   AgBiO2
_chemical_formula_sum   'Ag2 Bi2 O4'
_cell_volume   561.43299525
_cell_formula_units_Z   2
loop_
 _symmetry_equiv_pos_site_id
 _symmetry_equiv_pos_as_xyz
  1  'x, y, z'
loop_
 _atom_site_type_symbol
 _atom_site_label
 _atom_site_symmetry_multiplicity
 _atom_site_fract_x
 _atom_site_fract_y
 _atom_site_fract_z
 _atom_site_occupancy
  Ag  Ag0  1  0.42295029  0.75000000  0.45269262  1
  Ag  Ag1  1  0.57704971  0.25000000  0.54730738  1
  Bi  Bi2  1  0.90929523  0.25000000  0.43407519  1
  Bi  Bi3  1  0.09070477  0.75000000  0.56592481  1
  O  O4  1  0.70122538  0.75000000  0.42310051  1
  O  O5  1  0.13306681  0.75000000  0.47704755  1
  O  O6  1  0.29877462  0.25000000  0.57689949  1
  O  O7  1  0.86693319  0.25000000  0.52295245  1
