# generated using pymatgen
data_CaPbI4
_symmetry_space_group_name_H-M   'P 1'
_cell_length_a   4.51273212
_cell_length_b   7.89758672
_cell_length_c   23.66218500
_cell_angle_alpha   89.99589376
_cell_angle_beta   89.68751287
_cell_angle_gamma   89.99823684
_symmetry_Int_Tables_number   1
_chemical_formula_structural   CaPbI4
_chemical_formula_sum   'Ca1 Pb1 I4'
_cell_volume   843.30047097
_cell_formula_units_Z   1
loop_
 _symmetry_equiv_pos_site_id
 _symmetry_equiv_pos_as_xyz
  1  'x, y, z'
loop_
 _atom_site_type_symbol
 _atom_site_label
 _atom_site_symmetry_multiplicity
 _atom_site_fract_x
 _atom_site_fract_y
 _atom_site_fract_z
 _atom_site_occupancy
  Ca  Ca0  1  0.49853448  0.50220098  0.07784541  1
  Pb  Pb1  1  -0.00130994  0.00220520  0.07786574  1
  I  I2  1  0.49632263  0.18123695  0.15625718  1
  I  I3  1  0.99635912  0.66020735  0.15374647  1
  I  I4  1  0.50082590  0.82316877  0.99944910  1
  I  I5  1  0.00073482  0.34416675  0.00193909  1
