# generated using pymatgen
data_Pr3OsI3
_symmetry_space_group_name_H-M   'P 1'
_cell_length_a   4.34520021
_cell_length_b   9.22141552
_cell_length_c   29.72743900
_cell_angle_alpha   93.15520570
_cell_angle_beta   90.00000000
_cell_angle_gamma   90.00000000
_symmetry_Int_Tables_number   1
_chemical_formula_structural   Pr3OsI3
_chemical_formula_sum   'Pr6 Os2 I6'
_cell_volume   1189.34002581
_cell_formula_units_Z   2
loop_
 _symmetry_equiv_pos_site_id
 _symmetry_equiv_pos_as_xyz
  1  'x, y, z'
loop_
 _atom_site_type_symbol
 _atom_site_label
 _atom_site_symmetry_multiplicity
 _atom_site_fract_x
 _atom_site_fract_y
 _atom_site_fract_z
 _atom_site_occupancy
  Pr  Pr0  1  0.75000000  0.88359429  0.02266086  1
  Pr  Pr1  1  0.25000000  0.09906494  0.11530818  1
  Pr  Pr2  1  0.25000000  0.68680782  0.11348223  1
  Pr  Pr3  1  0.75000000  0.90093506  0.21191282  1
  Pr  Pr4  1  0.75000000  0.31319218  0.21373877  1
  Pr  Pr5  1  0.25000000  0.11640571  0.30456014  1
  Os  Os6  1  0.75000000  0.88922991  0.11271667  1
  Os  Os7  1  0.25000000  0.11077009  0.21450333  1
  I  I8  1  0.75000000  0.39502773  0.10562942  1
  I  I9  1  0.25000000  0.60497227  0.22159158  1
  I  I10  1  0.25000000  0.62762586  0.00255883  1
  I  I11  1  0.25000000  0.13077352  0.00054010  1
  I  I12  1  0.75000000  0.86922648  0.32668090  1
  I  I13  1  0.75000000  0.37237414  0.32466217  1
