# generated using pymatgen
data_Ge3Sb2O9
_symmetry_space_group_name_H-M   'P 1'
_cell_length_a   7.21095796
_cell_length_b   7.21095756
_cell_length_c   25.09303500
_cell_angle_alpha   90.00000000
_cell_angle_beta   90.00000000
_cell_angle_gamma   119.99999731
_symmetry_Int_Tables_number   1
_chemical_formula_structural   Ge3Sb2O9
_chemical_formula_sum   'Ge3 Sb2 O9'
_cell_volume   1129.97735175
_cell_formula_units_Z   1
loop_
 _symmetry_equiv_pos_site_id
 _symmetry_equiv_pos_as_xyz
  1  'x, y, z'
loop_
 _atom_site_type_symbol
 _atom_site_label
 _atom_site_symmetry_multiplicity
 _atom_site_fract_x
 _atom_site_fract_y
 _atom_site_fract_z
 _atom_site_occupancy
  Ge  Ge0  1  0.21646006  0.93446398  0.89851700  1
  Ge  Ge1  1  0.71800492  0.78353894  0.89851700  1
  Ge  Ge2  1  0.06553502  0.28199408  0.89851700  1
  Sb  Sb3  1  0.33333300  0.66666600  0.99547550  1
  Sb  Sb4  1  0.33333300  0.66666600  0.80155850  1
  O  O5  1  0.33559397  0.90648033  0.95724392  1
  O  O6  1  0.33559397  0.90648033  0.83979008  1
  O  O7  1  0.93848004  0.73940843  0.89851700  1
  O  O8  1  0.26059057  0.19907061  0.89851700  1
  O  O9  1  0.57088736  0.66440503  0.95724392  1
  O  O10  1  0.09351867  0.42911164  0.95724392  1
  O  O11  1  0.09351867  0.42911164  0.83979008  1
  O  O12  1  0.57088736  0.66440503  0.83979008  1
  O  O13  1  0.80092839  0.06151896  0.89851700  1
