# generated using pymatgen
data_UTe3
_symmetry_space_group_name_H-M   'P 1'
_cell_length_a   4.47647989
_cell_length_b   4.36359091
_cell_length_c   28.82109700
_cell_angle_alpha   90.00000000
_cell_angle_beta   90.00000000
_cell_angle_gamma   90.00164227
_symmetry_Int_Tables_number   1
_chemical_formula_structural   UTe3
_chemical_formula_sum   'U2 Te6'
_cell_volume   562.97767487
_cell_formula_units_Z   2
loop_
 _symmetry_equiv_pos_site_id
 _symmetry_equiv_pos_as_xyz
  1  'x, y, z'
loop_
 _atom_site_type_symbol
 _atom_site_label
 _atom_site_symmetry_multiplicity
 _atom_site_fract_x
 _atom_site_fract_y
 _atom_site_fract_z
 _atom_site_occupancy
  U  U0  1  0.00000050  -0.00094068  0.22539792  1
  U  U1  1  0.50000128  0.49916897  0.08066365  1
  Te  Te2  1  0.49999804  0.49964972  0.19295534  1
  Te  Te3  1  0.00000054  0.50010777  0.30657373  1
  Te  Te4  1  0.49999076  0.00093956  0.30595912  1
  Te  Te5  1  0.00000513  -0.00024997  0.11310767  1
  Te  Te6  1  0.50000508  0.00024189  0.99949070  1
  Te  Te7  1  -0.00000133  0.50108274  0.00010488  1
