# generated using pymatgen
data_ScHCl
_symmetry_space_group_name_H-M   'P 1'
_cell_length_a   3.48724862
_cell_length_b   3.48724890
_cell_length_c   27.72359700
_cell_angle_alpha   90.00000000
_cell_angle_beta   90.00000000
_cell_angle_gamma   120.00000662
_symmetry_Int_Tables_number   1
_chemical_formula_structural   ScHCl
_chemical_formula_sum   'Sc2 H2 Cl2'
_cell_volume   291.97524837
_cell_formula_units_Z   2
loop_
 _symmetry_equiv_pos_site_id
 _symmetry_equiv_pos_as_xyz
  1  'x, y, z'
loop_
 _atom_site_type_symbol
 _atom_site_label
 _atom_site_symmetry_multiplicity
 _atom_site_fract_x
 _atom_site_fract_y
 _atom_site_fract_z
 _atom_site_occupancy
  Sc  Sc0  1  -0.00000000  0.00000000  0.12096694  1
  Sc  Sc1  1  0.66666700  0.33333300  0.21236606  1
  H  H2  1  0.66666700  0.33333300  0.13999587  1
  H  H3  1  -0.00000000  -0.00000000  0.19333713  1
  Cl  Cl4  1  0.33333300  0.66666700  0.06277624  1
  Cl  Cl5  1  0.33333300  0.66666700  0.27055776  1
