# generated using pymatgen
data_Nb3I8
_symmetry_space_group_name_H-M   'P 1'
_cell_length_a   7.65297311
_cell_length_b   7.65297100
_cell_length_c   25.91324800
_cell_angle_alpha   90.00000000
_cell_angle_beta   90.00000000
_cell_angle_gamma   119.99995411
_symmetry_Int_Tables_number   1
_chemical_formula_structural   Nb3I8
_chemical_formula_sum   'Nb3 I8'
_cell_volume   1314.35577884
_cell_formula_units_Z   1
loop_
 _symmetry_equiv_pos_site_id
 _symmetry_equiv_pos_as_xyz
  1  'x, y, z'
loop_
 _atom_site_type_symbol
 _atom_site_label
 _atom_site_symmetry_multiplicity
 _atom_site_fract_x
 _atom_site_fract_y
 _atom_site_fract_z
 _atom_site_occupancy
  Nb  Nb0  1  0.46439772  0.53560256  0.14304535  1
  Nb  Nb1  1  0.46439847  0.92879526  0.14304594  1
  Nb  Nb2  1  0.07120490  0.53560179  0.14304489  1
  I  I3  1  0.33333517  0.66666581  0.05928351  1
  I  I4  1  0.32759323  0.16379664  0.08364485  1
  I  I5  1  0.83620318  0.67240661  0.08364463  1
  I  I6  1  0.83620213  0.16379768  0.08364372  1
  I  I7  1  0.66666689  0.33333389  0.19998578  1
  I  I8  1  0.66632961  0.83316554  0.21717160  1
  I  I9  1  0.16683367  0.33367014  0.21717138  1
  I  I10  1  0.16683404  0.83316507  0.21717033  1
