# generated using pymatgen
data_ZrTiSe4
_symmetry_space_group_name_H-M   'P 1'
_cell_length_a   6.37001643
_cell_length_b   3.67419470
_cell_length_c   26.66073133
_cell_angle_alpha   90.00000000
_cell_angle_beta   90.05282760
_cell_angle_gamma   90.00000000
_symmetry_Int_Tables_number   1
_chemical_formula_structural   ZrTiSe4
_chemical_formula_sum   'Zr1 Ti1 Se4'
_cell_volume   623.98563703
_cell_formula_units_Z   1
loop_
 _symmetry_equiv_pos_site_id
 _symmetry_equiv_pos_as_xyz
  1  'x, y, z'
loop_
 _atom_site_type_symbol
 _atom_site_label
 _atom_site_symmetry_multiplicity
 _atom_site_fract_x
 _atom_site_fract_y
 _atom_site_fract_z
 _atom_site_occupancy
  Zr  Zr0  1  0.01909800  0.90513600  0.12537900  1
  Ti  Ti1  1  0.51909800  0.40513600  0.12537900  1
  Se  Se2  1  0.36458714  0.90513600  0.18293879  1
  Se  Se3  1  0.84039410  0.40513600  0.18484067  1
  Se  Se4  1  0.19780190  0.40513600  0.06591733  1
  Se  Se5  1  0.67360986  0.90513600  0.06781921  1
