# generated using pymatgen
data_TaCoTe2
_symmetry_space_group_name_H-M   'P 1'
_cell_length_a   6.32810183
_cell_length_b   7.76426429
_cell_length_c   24.66446400
_cell_angle_alpha   92.57291037
_cell_angle_beta   90.00000000
_cell_angle_gamma   90.00000000
_symmetry_Int_Tables_number   1
_chemical_formula_structural   TaCoTe2
_chemical_formula_sum   'Ta4 Co4 Te8'
_cell_volume   1210.61881882
_cell_formula_units_Z   4
loop_
 _symmetry_equiv_pos_site_id
 _symmetry_equiv_pos_as_xyz
  1  'x, y, z'
loop_
 _atom_site_type_symbol
 _atom_site_label
 _atom_site_symmetry_multiplicity
 _atom_site_fract_x
 _atom_site_fract_y
 _atom_site_fract_z
 _atom_site_occupancy
  Ta  Ta0  1  0.97794445  0.30250286  0.08987954  1
  Ta  Ta1  1  0.02205555  0.69749714  0.09923746  1
  Ta  Ta2  1  0.52205555  0.80250286  0.08987954  1
  Ta  Ta3  1  0.47794445  0.19749714  0.09923746  1
  Co  Co4  1  0.15049949  0.00740113  0.06360644  1
  Co  Co5  1  0.84950051  0.99259887  0.12551056  1
  Co  Co6  1  0.34950051  0.50740113  0.06360644  1
  Co  Co7  1  0.65049949  0.49259887  0.12551056  1
  Te  Te8  1  0.74592218  0.53156673  0.02386430  1
  Te  Te9  1  0.24592218  0.96843327  0.16525170  1
  Te  Te10  1  0.25407782  0.46843327  0.16525170  1
  Te  Te11  1  0.24971330  0.75170328  0.99990989  1
  Te  Te12  1  0.74971330  0.74829672  0.18920711  1
  Te  Te13  1  0.75407782  0.03156673  0.02386430  1
  Te  Te14  1  0.75028670  0.24829672  0.18920711  1
  Te  Te15  1  0.25028670  0.25170328  0.99990989  1
