# generated using pymatgen
data_Co(ClO4)2
_symmetry_space_group_name_H-M   'P 1'
_cell_length_a   4.77184245
_cell_length_b   4.77184243
_cell_length_c   26.35620800
_cell_angle_alpha   90.00000000
_cell_angle_beta   90.00000000
_cell_angle_gamma   120.00000010
_symmetry_Int_Tables_number   1
_chemical_formula_structural   Co(ClO4)2
_chemical_formula_sum   'Co1 Cl2 O8'
_cell_volume   519.73952915
_cell_formula_units_Z   1
loop_
 _symmetry_equiv_pos_site_id
 _symmetry_equiv_pos_as_xyz
  1  'x, y, z'
loop_
 _atom_site_type_symbol
 _atom_site_label
 _atom_site_symmetry_multiplicity
 _atom_site_fract_x
 _atom_site_fract_y
 _atom_site_fract_z
 _atom_site_occupancy
  Co  Co0  1  0.66666700  0.33333300  0.50000000  1
  Cl  Cl1  1  0.33333300  0.66666700  0.56687542  1
  Cl  Cl2  1  -0.00000000  -0.00000000  0.43312458  1
  O  O3  1  0.61662829  0.96253050  0.54696906  1
  O  O4  1  0.34590121  0.38337171  0.54696906  1
  O  O5  1  0.03746950  0.65409879  0.54696906  1
  O  O6  1  0.29586350  0.01256821  0.45303194  1
  O  O7  1  0.71670471  0.70413650  0.45303194  1
  O  O8  1  0.98743179  0.28329529  0.45303194  1
  O  O9  1  0.33333300  0.66666700  0.62047207  1
  O  O10  1  -0.00000000  0.00000000  0.37952793  1
