# generated using pymatgen
data_Ca2Cu(BrO)2
_symmetry_space_group_name_H-M   'P 1'
_cell_length_a   3.85841993
_cell_length_b   3.85841993
_cell_length_c   26.02933100
_cell_angle_alpha   90.00000000
_cell_angle_beta   90.00000000
_cell_angle_gamma   90.00000000
_symmetry_Int_Tables_number   1
_chemical_formula_structural   Ca2Cu(BrO)2
_chemical_formula_sum   'Ca2 Cu1 Br2 O2'
_cell_volume   387.50917506
_cell_formula_units_Z   1
loop_
 _symmetry_equiv_pos_site_id
 _symmetry_equiv_pos_as_xyz
  1  'x, y, z'
loop_
 _atom_site_type_symbol
 _atom_site_label
 _atom_site_symmetry_multiplicity
 _atom_site_fract_x
 _atom_site_fract_y
 _atom_site_fract_z
 _atom_site_occupancy
  Br  Br0  1  0.00000000  0.00000000  0.23136202  1
  Br  Br1  1  -0.00000000  -0.00000000  0.00027398  1
  Ca  Ca2  1  0.50000000  0.50000000  0.17590466  1
  Ca  Ca3  1  0.50000000  0.50000000  0.05573134  1
  Cu  Cu4  1  0.00000000  0.00000000  0.11581800  1
  O  O5  1  -0.00000000  0.50000000  0.11581800  1
  O  O6  1  0.50000000  0.00000000  0.11581800  1
