# generated using pymatgen
data_Pd(Se4Cl)2
_symmetry_space_group_name_H-M   'P 1'
_cell_length_a   9.07156674
_cell_length_b   8.99479599
_cell_length_c   26.29800700
_cell_angle_alpha   90.00000000
_cell_angle_beta   90.00000000
_cell_angle_gamma   90.00268600
_symmetry_Int_Tables_number   1
_chemical_formula_structural   Pd(Se4Cl)2
_chemical_formula_sum   'Pd2 Se16 Cl4'
_cell_volume   2145.83563931
_cell_formula_units_Z   2
loop_
 _symmetry_equiv_pos_site_id
 _symmetry_equiv_pos_as_xyz
  1  'x, y, z'
loop_
 _atom_site_type_symbol
 _atom_site_label
 _atom_site_symmetry_multiplicity
 _atom_site_fract_x
 _atom_site_fract_y
 _atom_site_fract_z
 _atom_site_occupancy
  Se  Se0  1  0.30275503  0.00759252  0.05574443  1
  Se  Se1  1  0.69724497  0.99240748  0.18374157  1
  Cl  Cl2  1  0.39017368  0.17086233  0.17492597  1
  Cl  Cl3  1  0.60982632  0.82913767  0.06456003  1
  Pd  Pd4  1  0.50000000  -0.00000000  0.11974300  1
  Se  Se5  1  0.12348144  0.15660640  0.09922686  1
  Se  Se6  1  0.40624649  0.18625079  0.99449139  1
  Se  Se7  1  0.87651856  0.84339360  0.14025914  1
  Se  Se8  1  0.59375351  0.81374921  0.24499461  1
  Se  Se9  1  0.91773139  0.10267410  0.04584796  1
  Se  Se10  1  0.41773579  0.39732686  0.04584641  1
  Se  Se11  1  0.08226861  0.89732590  0.19363804  1
  Se  Se12  1  0.58226421  0.60267314  0.19363959  1
  Se  Se13  1  0.90625237  0.31374756  0.99449201  1
  Se  Se14  1  0.62347424  0.34340048  0.09922850  1
  Se  Se15  1  0.09374763  0.68625244  0.24499399  1
  Se  Se16  1  0.37652576  0.65659952  0.14025750  1
  Se  Se17  1  0.80276280  0.49240399  0.05574352  1
  Se  Se18  1  0.19723720  0.50759601  0.18374248  1
  Pd  Pd19  1  0.00000000  0.50000000  0.11974300  1
  Cl  Cl20  1  0.89016928  0.32913340  0.17492670  1
  Cl  Cl21  1  0.10983072  0.67086660  0.06455930  1
