# generated using pymatgen
data_HgI2
_symmetry_space_group_name_H-M   'P 1'
_cell_length_a   8.83457802
_cell_length_b   8.83402400
_cell_length_c   26.75390300
_cell_angle_alpha   90.00000000
_cell_angle_beta   90.00000000
_cell_angle_gamma   90.00000000
_symmetry_Int_Tables_number   1
_chemical_formula_structural   HgI2
_chemical_formula_sum   'Hg4 I8'
_cell_volume   2088.00499572
_cell_formula_units_Z   4
loop_
 _symmetry_equiv_pos_site_id
 _symmetry_equiv_pos_as_xyz
  1  'x, y, z'
loop_
 _atom_site_type_symbol
 _atom_site_label
 _atom_site_symmetry_multiplicity
 _atom_site_fract_x
 _atom_site_fract_y
 _atom_site_fract_z
 _atom_site_occupancy
  I  I0  1  0.76863507  0.23129621  0.12623557  1
  I  I1  1  0.23136493  0.23129621  0.12623557  1
  I  I2  1  0.50000000  -0.00000027  0.99926018  1
  I  I3  1  0.50000000  0.49999783  0.00106585  1
  Hg  Hg4  1  0.50000000  0.24933669  0.06798832  1
  Hg  Hg5  1  0.75064199  0.49999811  0.18444629  1
  Hg  Hg6  1  0.24935801  0.49999811  0.18444629  1
  Hg  Hg7  1  0.50000000  0.75066426  0.06798859  1
  I  I8  1  0.00000000  0.50001351  0.25316629  1
  I  I9  1  0.50000000  0.50001512  0.25138239  1
  I  I10  1  0.76864683  0.76869161  0.12623033  1
  I  I11  1  0.23135317  0.76869161  0.12623033  1
