# generated using pymatgen
data_CoO2
_symmetry_space_group_name_H-M   'P 1'
_cell_length_a   2.81691695
_cell_length_b   2.81696292
_cell_length_c   21.93888900
_cell_angle_alpha   93.57369896
_cell_angle_beta   86.52821615
_cell_angle_gamma   119.99964744
_symmetry_Int_Tables_number   1
_chemical_formula_structural   CoO2
_chemical_formula_sum   'Co1 O2'
_cell_volume   150.38531191
_cell_formula_units_Z   1
loop_
 _symmetry_equiv_pos_site_id
 _symmetry_equiv_pos_as_xyz
  1  'x, y, z'
loop_
 _atom_site_type_symbol
 _atom_site_label
 _atom_site_symmetry_multiplicity
 _atom_site_fract_x
 _atom_site_fract_y
 _atom_site_fract_z
 _atom_site_occupancy
  Co  Co0  1  0.00371483  0.50322194  0.04303293  1
  O  O1  1  0.68341816  0.82235169  0.00033535  1
  O  O2  1  0.32401101  0.18409037  0.08573172  1
