# generated using pymatgen
data_Ba(BSe3)2
_symmetry_space_group_name_H-M   'P 1'
_cell_length_a   6.49944521
_cell_length_b   6.49944521
_cell_length_c   44.61925800
_cell_angle_alpha   90.00000000
_cell_angle_beta   90.00000000
_cell_angle_gamma   108.48210366
_symmetry_Int_Tables_number   1
_chemical_formula_structural   Ba(BSe3)2
_chemical_formula_sum   'Ba1 B2 Se6'
_cell_volume   1787.62683958
_cell_formula_units_Z   1
loop_
 _symmetry_equiv_pos_site_id
 _symmetry_equiv_pos_as_xyz
  1  'x, y, z'
loop_
 _atom_site_type_symbol
 _atom_site_label
 _atom_site_symmetry_multiplicity
 _atom_site_fract_x
 _atom_site_fract_y
 _atom_site_fract_z
 _atom_site_occupancy
  B  B0  1  0.98809635  0.14180032  0.98415798  1
  B  B1  1  0.14180032  0.98809635  0.98415798  1
  Ba  Ba2  1  0.45238090  0.45238090  0.99613859  1
  Se  Se3  1  0.93769046  0.38850415  0.99986791  1
  Se  Se4  1  0.06589785  0.70436777  0.48709593  1
  Se  Se5  1  0.70436777  0.06589785  0.48709593  1
  Se  Se6  1  0.95869175  0.95869175  0.51046047  1
  Se  Se7  1  0.86256946  0.86256946  0.96167030  1
  Se  Se8  1  0.38850415  0.93769046  0.99986791  1
