# generated using pymatgen
data_FeI2
_symmetry_space_group_name_H-M   'P 1'
_cell_length_a   3.98952716
_cell_length_b   3.98952700
_cell_length_c   27.29005400
_cell_angle_alpha   90.00000000
_cell_angle_beta   90.00000000
_cell_angle_gamma   119.99999324
_symmetry_Int_Tables_number   1
_chemical_formula_structural   FeI2
_chemical_formula_sum   'Fe1 I2'
_cell_volume   376.16457252
_cell_formula_units_Z   1
loop_
 _symmetry_equiv_pos_site_id
 _symmetry_equiv_pos_as_xyz
  1  'x, y, z'
loop_
 _atom_site_type_symbol
 _atom_site_label
 _atom_site_symmetry_multiplicity
 _atom_site_fract_x
 _atom_site_fract_y
 _atom_site_fract_z
 _atom_site_occupancy
  Fe  Fe0  1  0.43347400  0.04937600  0.13356600  1
  I  I1  1  0.76680700  0.71604300  0.19314569  1
  I  I2  1  0.10014200  0.38270900  0.07398631  1
