# generated using pymatgen
data_Sb2TeSe2
_symmetry_space_group_name_H-M   'P 1'
_cell_length_a   4.14440770
_cell_length_b   4.14440750
_cell_length_c   30.71750100
_cell_angle_alpha   90.00000000
_cell_angle_beta   90.00000000
_cell_angle_gamma   120.00000214
_symmetry_Int_Tables_number   1
_chemical_formula_structural   Sb2TeSe2
_chemical_formula_sum   'Sb2 Te1 Se2'
_cell_volume   456.92132372
_cell_formula_units_Z   1
loop_
 _symmetry_equiv_pos_site_id
 _symmetry_equiv_pos_as_xyz
  1  'x, y, z'
loop_
 _atom_site_type_symbol
 _atom_site_label
 _atom_site_symmetry_multiplicity
 _atom_site_fract_x
 _atom_site_fract_y
 _atom_site_fract_z
 _atom_site_occupancy
  Sb  Sb0  1  0.33333104  0.66666896  0.26496321  1
  Sb  Sb1  1  -0.00000831  0.00000831  0.40171766  1
  Se  Se2  1  -0.00000609  0.00000609  0.21572230  1
  Se  Se3  1  0.33332813  0.66667187  0.45096345  1
  Te  Te4  1  0.66665524  0.33334476  0.33333337  1
