# generated using pymatgen
data_YCBr
_symmetry_space_group_name_H-M   'P 1'
_cell_length_a   3.78264479
_cell_length_b   3.96563485
_cell_length_c   26.63701700
_cell_angle_alpha   86.10085161
_cell_angle_beta   85.78889892
_cell_angle_gamma   61.51949292
_symmetry_Int_Tables_number   1
_chemical_formula_structural   YCBr
_chemical_formula_sum   'Y2 C2 Br2'
_cell_volume   350.01838100
_cell_formula_units_Z   2
loop_
 _symmetry_equiv_pos_site_id
 _symmetry_equiv_pos_as_xyz
  1  'x, y, z'
loop_
 _atom_site_type_symbol
 _atom_site_label
 _atom_site_symmetry_multiplicity
 _atom_site_fract_x
 _atom_site_fract_y
 _atom_site_fract_z
 _atom_site_occupancy
  Br  Br0  1  0.79419915  0.40597148  0.00130091  1
  Br  Br1  1  0.45500760  0.34482355  0.74949486  1
  C  C2  1  0.19717815  0.71542915  0.88974122  1
  C  C3  1  0.05202476  0.03536646  0.86105446  1
  Y  Y4  1  0.47866781  0.11006908  0.93068299  1
  Y  Y5  1  0.77053554  0.64072729  0.82011256  1
