# generated using pymatgen
data_Al2Si4O11
_symmetry_space_group_name_H-M   'P 1'
_cell_length_a   5.24324695
_cell_length_b   5.24340544
_cell_length_c   26.87922700
_cell_angle_alpha   94.61831339
_cell_angle_beta   91.76110796
_cell_angle_gamma   61.38755218
_symmetry_Int_Tables_number   1
_chemical_formula_structural   Al2Si4O11
_chemical_formula_sum   'Al2 Si4 O11'
_cell_volume   646.59959935
_cell_formula_units_Z   1
loop_
 _symmetry_equiv_pos_site_id
 _symmetry_equiv_pos_as_xyz
  1  'x, y, z'
loop_
 _atom_site_type_symbol
 _atom_site_label
 _atom_site_symmetry_multiplicity
 _atom_site_fract_x
 _atom_site_fract_y
 _atom_site_fract_z
 _atom_site_occupancy
  Al  Al0  1  0.31263286  0.81261736  0.12673220  1
  Al  Al1  1  0.68736714  0.18738264  0.12673380  1
  O  O2  1  0.50000000  -0.00000000  0.12673300  1
  O  O3  1  0.00859662  0.90939911  0.08325275  1
  O  O4  1  0.99140338  0.09060089  0.17021425  1
  O  O5  1  0.57384269  0.47463267  0.08325313  1
  O  O6  1  0.42615731  0.52536733  0.17021287  1
  O  O7  1  0.78092195  0.13968432  0.99887222  1
  O  O8  1  0.31100189  0.66975431  0.99887251  1
  O  O9  1  0.84023798  0.61624295  0.01389090  1
  O  O10  1  0.21907805  0.86031568  0.25459478  1
  O  O11  1  0.68899811  0.33024569  0.25459449  1
  O  O12  1  0.15976202  0.38375705  0.23957610  1
  Si  Si13  1  0.98408814  0.82967283  0.02314121  1
  Si  Si14  1  0.01591186  0.17032717  0.23032579  1
  Si  Si15  1  0.63038285  0.47594750  0.02314024  1
  Si  Si16  1  0.36961715  0.52405250  0.23032576  1
