# generated using pymatgen
data_CrGeTe3
_symmetry_space_group_name_H-M   'P 1'
_cell_length_a   6.89864668
_cell_length_b   6.89864668
_cell_length_c   23.44460300
_cell_angle_alpha   90.00000000
_cell_angle_beta   90.00000000
_cell_angle_gamma   120.00000312
_symmetry_Int_Tables_number   1
_chemical_formula_structural   CrGeTe3
_chemical_formula_sum   'Cr2 Ge2 Te6'
_cell_volume   966.27625221
_cell_formula_units_Z   2
loop_
 _symmetry_equiv_pos_site_id
 _symmetry_equiv_pos_as_xyz
  1  'x, y, z'
loop_
 _atom_site_type_symbol
 _atom_site_label
 _atom_site_symmetry_multiplicity
 _atom_site_fract_x
 _atom_site_fract_y
 _atom_site_fract_z
 _atom_site_occupancy
  Te  Te0  1  0.37371265  0.37370913  0.14728448  1
  Te  Te1  1  -0.00000351  0.62628735  0.14728448  1
  Te  Te2  1  0.62629087  0.00000351  0.14728448  1
  Te  Te3  1  0.62628735  0.62629087  0.99964052  1
  Te  Te4  1  0.00000351  0.37371265  0.99964052  1
  Te  Te5  1  0.37370913  -0.00000351  0.99964052  1
  Cr  Cr6  1  0.66666700  0.33333300  0.07346296  1
  Cr  Cr7  1  0.33333300  0.66666700  0.07346204  1
  Ge  Ge8  1  -0.00000000  -0.00000000  0.12504820  1
  Ge  Ge9  1  -0.00000000  -0.00000000  0.02187680  1
