# generated using pymatgen
data_HgPSe3
_symmetry_space_group_name_H-M   'P 1'
_cell_length_a   6.71235265
_cell_length_b   6.82176287
_cell_length_c   24.41249300
_cell_angle_alpha   87.58643024
_cell_angle_beta   85.08961230
_cell_angle_gamma   57.80565549
_symmetry_Int_Tables_number   1
_chemical_formula_structural   HgPSe3
_chemical_formula_sum   'Hg2 P2 Se6'
_cell_volume   942.49577255
_cell_formula_units_Z   2
loop_
 _symmetry_equiv_pos_site_id
 _symmetry_equiv_pos_as_xyz
  1  'x, y, z'
loop_
 _atom_site_type_symbol
 _atom_site_label
 _atom_site_symmetry_multiplicity
 _atom_site_fract_x
 _atom_site_fract_y
 _atom_site_fract_z
 _atom_site_occupancy
  Hg  Hg0  1  0.37302477  0.83489805  0.11378242  1
  Hg  Hg1  1  0.62697523  0.16510195  0.06814258  1
  P  P2  1  0.98659269  0.52389936  0.04330150  1
  P  P3  1  0.01340731  0.47610064  0.13862350  1
  Se  Se4  1  0.63684729  0.58104721  0.02571787  1
  Se  Se5  1  0.98328958  0.17278286  0.16241670  1
  Se  Se6  1  0.72674731  0.78877510  0.17929373  1
  Se  Se7  1  0.36315271  0.41895279  0.15620713  1
  Se  Se8  1  0.01671042  0.82721714  0.01950830  1
  Se  Se9  1  0.27325269  0.21122490  0.00263127  1
