# generated using pymatgen
data_CaPbI4
_symmetry_space_group_name_H-M   'P 1'
_cell_length_a   7.89680822
_cell_length_b   4.51255999
_cell_length_c   25.00026444
_cell_angle_alpha   90.00000000
_cell_angle_beta   90.26352761
_cell_angle_gamma   90.00000000
_symmetry_Int_Tables_number   1
_chemical_formula_structural   CaPbI4
_chemical_formula_sum   'Ca1 Pb1 I4'
_cell_volume   890.87052133
_cell_formula_units_Z   1
loop_
 _symmetry_equiv_pos_site_id
 _symmetry_equiv_pos_as_xyz
  1  'x, y, z'
loop_
 _atom_site_type_symbol
 _atom_site_label
 _atom_site_symmetry_multiplicity
 _atom_site_fract_x
 _atom_site_fract_y
 _atom_site_fract_z
 _atom_site_occupancy
  Ca  Ca0  1  0.00233600  0.87297800  0.16045500  1
  Pb  Pb1  1  0.50233600  0.37297700  0.16045500  1
  I  I2  1  0.84537102  0.37297700  0.23230208  1
  I  I3  1  0.32439171  0.87297800  0.23467103  1
  I  I4  1  0.68028029  0.87297800  0.08623797  1
  I  I5  1  0.15930098  0.37297700  0.08860692  1
