# generated using pymatgen
data_YBr3
_symmetry_space_group_name_H-M   'P 1'
_cell_length_a   7.09099938
_cell_length_b   7.09099938
_cell_length_c   23.31585700
_cell_angle_alpha   94.33927482
_cell_angle_beta   94.33927482
_cell_angle_gamma   119.98130600
_symmetry_Int_Tables_number   1
_chemical_formula_structural   YBr3
_chemical_formula_sum   'Y2 Br6'
_cell_volume   1003.80942105
_cell_formula_units_Z   2
loop_
 _symmetry_equiv_pos_site_id
 _symmetry_equiv_pos_as_xyz
  1  'x, y, z'
loop_
 _atom_site_type_symbol
 _atom_site_label
 _atom_site_symmetry_multiplicity
 _atom_site_fract_x
 _atom_site_fract_y
 _atom_site_fract_z
 _atom_site_occupancy
  Br  Br0  1  0.95742741  0.60568299  0.14045558  1
  Br  Br1  1  0.88859651  0.88859651  0.00182561  1
  Br  Br2  1  0.25371349  0.25371349  0.14048439  1
  Br  Br3  1  0.53662601  0.18488159  0.00185342  1
  Br  Br4  1  0.60568299  0.95742741  0.14045558  1
  Br  Br5  1  0.18488159  0.53662601  0.00185342  1
  Y  Y6  1  0.23784982  0.90446018  0.07115500  1
  Y  Y7  1  0.90446018  0.23784982  0.07115500  1
