# generated using pymatgen
data_NdIO
_symmetry_space_group_name_H-M   'P 1'
_cell_length_a   4.07565725
_cell_length_b   4.07565725
_cell_length_c   29.62954900
_cell_angle_alpha   90.00000000
_cell_angle_beta   90.00000000
_cell_angle_gamma   90.00000000
_symmetry_Int_Tables_number   1
_chemical_formula_structural   NdIO
_chemical_formula_sum   'Nd2 I2 O2'
_cell_volume   492.17590547
_cell_formula_units_Z   2
loop_
 _symmetry_equiv_pos_site_id
 _symmetry_equiv_pos_as_xyz
  1  'x, y, z'
loop_
 _atom_site_type_symbol
 _atom_site_label
 _atom_site_symmetry_multiplicity
 _atom_site_fract_x
 _atom_site_fract_y
 _atom_site_fract_z
 _atom_site_occupancy
  Nd  Nd0  1  0.67864500  0.17864500  0.20220216  1
  Nd  Nd1  1  0.17864500  0.67864500  0.12279584  1
  I  I2  1  0.17864500  0.67864500  0.26617945  1
  I  I3  1  0.67864500  0.17864500  0.05881855  1
  O  O4  1  0.67864500  0.67864500  0.16249900  1
  O  O5  1  0.17864500  0.17864500  0.16249900  1
