# generated using pymatgen
data_HoBrO
_symmetry_space_group_name_H-M   'P 1'
_cell_length_a   3.80992420
_cell_length_b   3.80992376
_cell_length_c   30.07938200
_cell_angle_alpha   90.00000000
_cell_angle_beta   90.00000000
_cell_angle_gamma   120.00000376
_symmetry_Int_Tables_number   1
_chemical_formula_structural   HoBrO
_chemical_formula_sum   'Ho2 Br2 O2'
_cell_volume   378.12217295
_cell_formula_units_Z   2
loop_
 _symmetry_equiv_pos_site_id
 _symmetry_equiv_pos_as_xyz
  1  'x, y, z'
loop_
 _atom_site_type_symbol
 _atom_site_label
 _atom_site_symmetry_multiplicity
 _atom_site_fract_x
 _atom_site_fract_y
 _atom_site_fract_z
 _atom_site_occupancy
  Ho  Ho0  1  -0.00000000  0.00000000  0.11948283  1
  Ho  Ho1  1  0.66666700  0.33333300  0.21385017  1
  Br  Br2  1  0.33333300  0.66666700  0.05575326  1
  Br  Br3  1  0.33333300  0.66666700  0.27757974  1
  O  O4  1  0.66666700  0.33333300  0.13840260  1
  O  O5  1  -0.00000000  0.00000000  0.19493040  1
