# generated using pymatgen
data_CrP2S7
_symmetry_space_group_name_H-M   'P 1'
_cell_length_a   6.31915338
_cell_length_b   6.31915338
_cell_length_c   23.54818300
_cell_angle_alpha   94.89906596
_cell_angle_beta   94.89906596
_cell_angle_gamma   94.79155547
_symmetry_Int_Tables_number   1
_chemical_formula_structural   CrP2S7
_chemical_formula_sum   'Cr1 P2 S7'
_cell_volume   929.54588979
_cell_formula_units_Z   1
loop_
 _symmetry_equiv_pos_site_id
 _symmetry_equiv_pos_as_xyz
  1  'x, y, z'
loop_
 _atom_site_type_symbol
 _atom_site_label
 _atom_site_symmetry_multiplicity
 _atom_site_fract_x
 _atom_site_fract_y
 _atom_site_fract_z
 _atom_site_occupancy
  Cr  Cr0  1  0.49183516  0.50816484  0.07533900  1
  P  P1  1  0.65593395  0.95529213  0.05388824  1
  P  P2  1  0.04470787  0.34406605  0.09678976  1
  S  S3  1  0.53214775  0.19447580  0.01356121  1
  S  S4  1  0.80552420  0.46785225  0.13711579  1
  S  S5  1  0.14030800  0.49353326  0.02853088  1
  S  S6  1  0.31818019  0.36872830  0.15060511  1
  S  S7  1  0.63127170  0.68181981  0.00007289  1
  S  S8  1  0.50646674  0.85969200  0.12214712  1
  S  S9  1  0.99311846  0.00688154  0.07533900  1
