# generated using pymatgen
data_CoTeO4
_symmetry_space_group_name_H-M   'P 1'
_cell_length_a   3.09232748
_cell_length_b   5.41888560
_cell_length_c   21.92374600
_cell_angle_alpha   94.05676741
_cell_angle_beta   90.00000000
_cell_angle_gamma   90.00000000
_symmetry_Int_Tables_number   1
_chemical_formula_structural   CoTeO4
_chemical_formula_sum   'Co1 Te1 O4'
_cell_volume   366.45504969
_cell_formula_units_Z   1
loop_
 _symmetry_equiv_pos_site_id
 _symmetry_equiv_pos_as_xyz
  1  'x, y, z'
loop_
 _atom_site_type_symbol
 _atom_site_label
 _atom_site_symmetry_multiplicity
 _atom_site_fract_x
 _atom_site_fract_y
 _atom_site_fract_z
 _atom_site_occupancy
  Co  Co0  1  0.50000000  0.54999100  0.04999100  1
  Te  Te1  1  0.00000000  0.04999100  0.04999100  1
  O  O2  1  0.00000000  0.74491142  0.09118118  1
  O  O3  1  0.00000000  0.35507058  0.00880082  1
  O  O4  1  0.50000000  0.21090215  0.09936152  1
  O  O5  1  0.50000000  0.88907985  0.00062048  1
