# generated using pymatgen
data_As2Se3
_symmetry_space_group_name_H-M   'P 1'
_cell_length_a   4.37828534
_cell_length_b   12.87086871
_cell_length_c   26.96760000
_cell_angle_alpha   90.00000000
_cell_angle_beta   90.00000000
_cell_angle_gamma   109.88515180
_symmetry_Int_Tables_number   1
_chemical_formula_structural   As2Se3
_chemical_formula_sum   'As4 Se6'
_cell_volume   1429.07788008
_cell_formula_units_Z   2
loop_
 _symmetry_equiv_pos_site_id
 _symmetry_equiv_pos_as_xyz
  1  'x, y, z'
loop_
 _atom_site_type_symbol
 _atom_site_label
 _atom_site_symmetry_multiplicity
 _atom_site_fract_x
 _atom_site_fract_y
 _atom_site_fract_z
 _atom_site_occupancy
  As  As0  1  0.37421765  0.76129932  0.12721343  1
  As  As1  1  0.37421765  0.26129932  0.07613357  1
  As  As2  1  0.09559771  0.98267115  0.07611539  1
  As  As3  1  0.09559771  0.48267115  0.12723161  1
  Se  Se4  1  0.87470249  0.90640274  0.15566319  1
  Se  Se5  1  0.87470249  0.40640274  0.04768481  1
  Se  Se6  1  0.30590457  0.83755976  0.04766376  1
  Se  Se7  1  0.30590457  0.33755976  0.15568424  1
  Se  Se8  1  0.56697758  0.62196704  0.08697106  1
  Se  Se9  1  0.56697758  0.12196704  0.11637694  1
