# generated using pymatgen
data_YTe3
_symmetry_space_group_name_H-M   'P 1'
_cell_length_a   4.34990235
_cell_length_b   4.34993177
_cell_length_c   30.96781700
_cell_angle_alpha   90.00000000
_cell_angle_beta   90.00000000
_cell_angle_gamma   90.00000000
_symmetry_Int_Tables_number   1
_chemical_formula_structural   YTe3
_chemical_formula_sum   'Y2 Te6'
_cell_volume   585.96617123
_cell_formula_units_Z   2
loop_
 _symmetry_equiv_pos_site_id
 _symmetry_equiv_pos_as_xyz
  1  'x, y, z'
loop_
 _atom_site_type_symbol
 _atom_site_label
 _atom_site_symmetry_multiplicity
 _atom_site_fract_x
 _atom_site_fract_y
 _atom_site_fract_z
 _atom_site_occupancy
  Y  Y0  1  0.00000000  0.75000000  0.14317648  1
  Y  Y1  1  0.50000000  0.25000000  0.27609452  1
  Te  Te2  1  -0.00000000  0.25000000  0.06216832  1
  Te  Te3  1  0.50000000  0.75000000  0.06215799  1
  Te  Te4  1  0.50000000  0.25000000  0.17282242  1
  Te  Te5  1  -0.00000000  0.75000000  0.24644858  1
  Te  Te6  1  -0.00000000  0.25000000  0.35711301  1
  Te  Te7  1  0.50000000  0.75000000  0.35710268  1
