# generated using pymatgen
data_SiAs2
_symmetry_space_group_name_H-M   'P 1'
_cell_length_a   3.69043185
_cell_length_b   10.36402360
_cell_length_c   26.20600300
_cell_angle_alpha   90.00000000
_cell_angle_beta   90.00000000
_cell_angle_gamma   90.00000000
_symmetry_Int_Tables_number   1
_chemical_formula_structural   SiAs2
_chemical_formula_sum   'Si4 As8'
_cell_volume   1002.31993846
_cell_formula_units_Z   4
loop_
 _symmetry_equiv_pos_site_id
 _symmetry_equiv_pos_as_xyz
  1  'x, y, z'
loop_
 _atom_site_type_symbol
 _atom_site_label
 _atom_site_symmetry_multiplicity
 _atom_site_fract_x
 _atom_site_fract_y
 _atom_site_fract_z
 _atom_site_occupancy
  As  As0  1  0.50000000  0.89114435  0.19386964  1
  As  As1  1  0.50000000  0.94778966  0.03604339  1
  As  As2  1  0.00000000  0.65628876  0.08897603  1
  As  As3  1  0.00000000  0.76145996  0.23404222  1
  As  As4  1  0.00000000  0.26145996  0.00277378  1
  As  As5  1  0.00000000  0.15628876  0.14784097  1
  As  As6  1  0.50000000  0.44778966  0.20077261  1
  As  As7  1  0.50000000  0.39114435  0.04294636  1
  Si  Si8  1  0.50000000  0.79920607  0.10685891  1
  Si  Si9  1  0.00000000  0.08201120  0.06124190  1
  Si  Si10  1  0.00000000  0.58201120  0.17557410  1
  Si  Si11  1  0.50000000  0.29920607  0.12995709  1
