# generated using pymatgen
data_SnO2
_symmetry_space_group_name_H-M   'P 1'
_cell_length_a   3.22979492
_cell_length_b   3.22973458
_cell_length_c   32.56801037
_cell_angle_alpha   90.12239327
_cell_angle_beta   89.94190073
_cell_angle_gamma   119.99958486
_symmetry_Int_Tables_number   1
_chemical_formula_structural   SnO2
_chemical_formula_sum   'Sn1 O2'
_cell_volume   294.21476513
_cell_formula_units_Z   1
loop_
 _symmetry_equiv_pos_site_id
 _symmetry_equiv_pos_as_xyz
  1  'x, y, z'
loop_
 _atom_site_type_symbol
 _atom_site_label
 _atom_site_symmetry_multiplicity
 _atom_site_fract_x
 _atom_site_fract_y
 _atom_site_fract_z
 _atom_site_occupancy
  Sn  Sn0  1  0.00197560  0.99166287  0.18937552  1
  O  O1  1  0.33533396  0.65900973  0.22026193  1
  O  O2  1  0.66862044  0.32431340  0.15845255  1
