# generated using pymatgen
data_PdSeO3
_symmetry_space_group_name_H-M   'P 1'
_cell_length_a   3.94386149
_cell_length_b   6.40904478
_cell_length_c   26.26216000
_cell_angle_alpha   90.00000000
_cell_angle_beta   96.04045387
_cell_angle_gamma   90.00000000
_symmetry_Int_Tables_number   1
_chemical_formula_structural   PdSeO3
_chemical_formula_sum   'Pd2 Se2 O6'
_cell_volume   660.12687465
_cell_formula_units_Z   2
loop_
 _symmetry_equiv_pos_site_id
 _symmetry_equiv_pos_as_xyz
  1  'x, y, z'
loop_
 _atom_site_type_symbol
 _atom_site_label
 _atom_site_symmetry_multiplicity
 _atom_site_fract_x
 _atom_site_fract_y
 _atom_site_fract_z
 _atom_site_occupancy
  Pd  Pd0  1  0.50000000  0.00000000  0.11922400  1
  Pd  Pd1  1  0.50000000  0.50000000  0.11922400  1
  Se  Se2  1  0.95134402  0.25000000  0.04150361  1
  Se  Se3  1  0.04865598  0.75000000  0.19694439  1
  O  O4  1  0.20948356  0.03625401  0.05091371  1
  O  O5  1  0.20948356  0.46374599  0.05091371  1
  O  O6  1  0.78785387  0.25000000  0.10475734  1
  O  O7  1  0.21214613  0.75000000  0.13369066  1
  O  O8  1  0.79051644  0.96374599  0.18753429  1
  O  O9  1  0.79051644  0.53625401  0.18753429  1
