# generated using pymatgen
data_HfSe3
_symmetry_space_group_name_H-M   'P 1'
_cell_length_a   5.43559807
_cell_length_b   3.73235072
_cell_length_c   26.34552000
_cell_angle_alpha   90.00000000
_cell_angle_beta   96.19478247
_cell_angle_gamma   90.00000000
_symmetry_Int_Tables_number   1
_chemical_formula_structural   HfSe3
_chemical_formula_sum   'Hf2 Se6'
_cell_volume   531.36529992
_cell_formula_units_Z   2
loop_
 _symmetry_equiv_pos_site_id
 _symmetry_equiv_pos_as_xyz
  1  'x, y, z'
loop_
 _atom_site_type_symbol
 _atom_site_label
 _atom_site_symmetry_multiplicity
 _atom_site_fract_x
 _atom_site_fract_y
 _atom_site_fract_z
 _atom_site_occupancy
  Hf  Hf0  1  0.72047177  0.75000000  0.44352049  1
  Hf  Hf1  1  0.27952823  0.25000000  0.55647951  1
  Se  Se2  1  0.90883417  0.25000000  0.38195451  1
  Se  Se3  1  0.46772983  0.25000000  0.38196288  1
  Se  Se4  1  0.24000502  0.75000000  0.48087554  1
  Se  Se5  1  0.75999498  0.25000000  0.51912446  1
  Se  Se6  1  0.09116583  0.75000000  0.61804549  1
  Se  Se7  1  0.53227017  0.75000000  0.61803712  1
