# generated using pymatgen
data_Nb2O5
_symmetry_space_group_name_H-M   'P 1'
_cell_length_a   3.86044016
_cell_length_b   6.48358948
_cell_length_c   24.14684400
_cell_angle_alpha   89.74307086
_cell_angle_beta   90.00000000
_cell_angle_gamma   107.32113311
_symmetry_Int_Tables_number   1
_chemical_formula_structural   Nb2O5
_chemical_formula_sum   'Nb2 O5'
_cell_volume   576.96912459
_cell_formula_units_Z   1
loop_
 _symmetry_equiv_pos_site_id
 _symmetry_equiv_pos_as_xyz
  1  'x, y, z'
loop_
 _atom_site_type_symbol
 _atom_site_label
 _atom_site_symmetry_multiplicity
 _atom_site_fract_x
 _atom_site_fract_y
 _atom_site_fract_z
 _atom_site_occupancy
  Nb  Nb0  1  0.14881916  0.29764324  0.11058710  1
  Nb  Nb1  1  0.85126859  0.70252576  0.06115925  1
  O  O2  1  0.14627624  0.29256047  0.18238615  1
  O  O3  1  0.00014623  0.00029414  0.08570773  1
  O  O4  1  0.68437738  0.36875651  0.08940279  1
  O  O5  1  0.31584613  0.63168270  0.08249384  1
  O  O6  1  0.85326627  0.70653918  0.98935513  1
