# generated using pymatgen
data_Ba2N
_symmetry_space_group_name_H-M   'P 1'
_cell_length_a   3.97197688
_cell_length_b   3.97197684
_cell_length_c   25.82609900
_cell_angle_alpha   90.00000000
_cell_angle_beta   90.00000000
_cell_angle_gamma   119.99560550
_symmetry_Int_Tables_number   1
_chemical_formula_structural   Ba2N
_chemical_formula_sum   'Ba2 N1'
_cell_volume   352.87597540
_cell_formula_units_Z   1
loop_
 _symmetry_equiv_pos_site_id
 _symmetry_equiv_pos_as_xyz
  1  'x, y, z'
loop_
 _atom_site_type_symbol
 _atom_site_label
 _atom_site_symmetry_multiplicity
 _atom_site_fract_x
 _atom_site_fract_y
 _atom_site_fract_z
 _atom_site_occupancy
  Ba  Ba0  1  0.00000455  -0.00000455  0.23575894  1
  Ba  Ba1  1  0.33331913  0.66668087  0.35341045  1
  N  N2  1  0.66667631  0.33332369  0.29458061  1
