# generated using pymatgen
data_Ba2ZrS4
_symmetry_space_group_name_H-M   'P 1'
_cell_length_a   4.91750598
_cell_length_b   4.91750598
_cell_length_c   25.88990000
_cell_angle_alpha   90.00000000
_cell_angle_beta   90.00000000
_cell_angle_gamma   90.00000000
_symmetry_Int_Tables_number   1
_chemical_formula_structural   Ba2ZrS4
_chemical_formula_sum   'Ba2 Zr1 S4'
_cell_volume   626.06606842
_cell_formula_units_Z   1
loop_
 _symmetry_equiv_pos_site_id
 _symmetry_equiv_pos_as_xyz
  1  'x, y, z'
loop_
 _atom_site_type_symbol
 _atom_site_label
 _atom_site_symmetry_multiplicity
 _atom_site_fract_x
 _atom_site_fract_y
 _atom_site_fract_z
 _atom_site_occupancy
  Ba  Ba0  1  0.00000000  0.00000000  0.22052194  1
  Ba  Ba1  1  0.00000000  -0.00000000  0.39322706  1
  S  S2  1  0.50000000  0.50000000  0.20622127  1
  S  S3  1  0.50000000  -0.00000000  0.30687400  1
  S  S4  1  0.00000000  0.50000000  0.30687400  1
  S  S5  1  0.50000000  0.50000000  0.40752773  1
  Zr  Zr6  1  0.50000000  0.50000000  0.30687400  1
