# generated using pymatgen
data_NaCo2O3
_symmetry_space_group_name_H-M   'P 1'
_cell_length_a   5.92375012
_cell_length_b   5.92375012
_cell_length_c   5.16113421
_cell_angle_alpha   90.00000000
_cell_angle_beta   90.00000000
_cell_angle_gamma   119.88892751
_symmetry_Int_Tables_number   1
_chemical_formula_structural   NaCo2O3
_chemical_formula_sum   'Na2 Co4 O6'
_cell_volume   157.01973400
_cell_formula_units_Z   2
loop_
 _symmetry_equiv_pos_site_id
 _symmetry_equiv_pos_as_xyz
  1  'x, y, z'
loop_
 _atom_site_type_symbol
 _atom_site_label
 _atom_site_symmetry_multiplicity
 _atom_site_fract_x
 _atom_site_fract_y
 _atom_site_fract_z
 _atom_site_occupancy
  Na  Na0  1  0.32695874  0.32695874  0.99527117  1
  Na  Na1  1  0.67304126  0.67304126  0.49527117  1
  Co  Co2  1  0.32921511  0.99440165  0.50788433  1
  Co  Co3  1  0.00559835  0.67078489  0.00788433  1
  Co  Co4  1  0.99440165  0.32921511  0.50788433  1
  Co  Co5  1  0.67078489  0.00559835  0.00788433  1
  O  O6  1  0.05062909  0.66332117  0.38998940  1
  O  O7  1  0.33667883  0.94937091  0.88998940  1
  O  O8  1  0.28130974  0.28130974  0.46988238  1
  O  O9  1  0.71869026  0.71869026  0.96988238  1
  O  O10  1  0.66332117  0.05062909  0.38998940  1
  O  O11  1  0.94937091  0.33667883  0.88998940  1
