# generated using pymatgen
data_B4C
_symmetry_space_group_name_H-M   'P 1'
_cell_length_a   5.11881543
_cell_length_b   5.11891082
_cell_length_c   25.45908682
_cell_angle_alpha   65.66527184
_cell_angle_beta   65.66567369
_cell_angle_gamma   65.56535696
_symmetry_Int_Tables_number   1
_chemical_formula_structural   B4C
_chemical_formula_sum   'B56 C14'
_cell_volume   529.39668056
_cell_formula_units_Z   14
loop_
 _symmetry_equiv_pos_site_id
 _symmetry_equiv_pos_as_xyz
  1  'x, y, z'
loop_
 _atom_site_type_symbol
 _atom_site_label
 _atom_site_symmetry_multiplicity
 _atom_site_fract_x
 _atom_site_fract_y
 _atom_site_fract_z
 _atom_site_occupancy
  B  B0  1  0.99481547  0.32880910  0.99841240  1
  B  B1  1  0.99541714  0.99784637  0.06568819  1
  B  B2  1  0.32756083  0.99561456  0.99856395  1
  B  B3  1  0.00428287  0.33544466  0.19993269  1
  B  B4  1  0.00509688  0.00636832  0.26597447  1
  B  B5  1  0.20245270  0.19989859  0.13535610  1
  B  B6  1  0.19360327  0.67454285  0.03785538  1
  B  B7  1  0.34879043  0.00502608  0.19982664  1
  B  B8  1  0.67386531  0.19493473  0.03786884  1
  B  B9  1  0.00126528  0.00062602  0.46799031  1
  B  B10  1  0.20304059  0.68451293  0.24018919  1
  B  B11  1  0.19714256  0.20010518  0.33681916  1
  B  B12  1  0.32208739  0.80087012  0.15988663  1
  B  B13  1  0.32940584  0.00031517  0.40113694  1
  B  B14  1  0.67995032  0.20119698  0.24037586  1
  B  B15  1  0.79520565  0.79465239  0.06250192  1
  B  B16  1  0.79970516  0.31755691  0.15979200  1
  B  B17  1  0.00813224  0.33876388  0.60270353  1
  B  B18  1  0.20395288  0.20339561  0.53790098  1
  B  B19  1  0.19858653  0.67770880  0.44036032  1
  B  B20  1  0.31495053  0.79630402  0.36007523  1
  B  B21  1  0.33782105  0.00849743  0.60288339  1
  B  B22  1  0.68221240  0.19961362  0.44043381  1
  B  B23  1  0.79825191  0.31929299  0.35990031  1
  B  B24  1  0.79945789  0.80237869  0.26340121  1
  B  B25  1  0.99884627  0.99815809  0.13220651  1
  B  B26  1  0.99926378  0.67019064  0.19905051  1
  B  B27  1  0.00135558  0.33142853  0.80103746  1
  B  B28  1  0.20601596  0.68760688  0.64269517  1
  B  B29  1  0.20023372  0.20064161  0.73675170  1
  B  B30  1  0.32384985  0.80597130  0.56246084  1
  B  B31  1  0.66415535  0.99524057  0.40022853  1
  B  B32  1  0.33103651  0.00176648  0.80104068  1
  B  B33  1  0.68703997  0.20671222  0.64271681  1
  B  B34  1  0.80478655  0.32443826  0.56246068  1
  B  B35  1  0.79941457  0.79667420  0.46479655  1
  B  B36  1  0.99326387  0.99448031  0.33418630  1
  B  B37  1  0.99460196  0.65073795  0.40032858  1
  B  B38  1  0.20006205  0.68152922  0.83983329  1
  B  B39  1  0.19485594  0.19553540  0.93407113  1
  B  B40  1  0.31782546  0.80182221  0.75965374  1
  B  B41  1  0.67179974  0.00411464  0.60206477  1
  B  B42  1  0.68113575  0.20046082  0.83983176  1
  B  B43  1  0.80144100  0.31819995  0.75965299  1
  B  B44  1  0.80586944  0.80646348  0.66592000  1
  B  B45  1  0.00042650  0.00284162  0.53473556  1
  B  B46  1  0.00339619  0.67293043  0.60191620  1
  B  B47  1  0.31377816  0.79565447  0.95744322  1
  B  B48  1  0.66709416  0.99747222  0.79926436  1
  B  B49  1  0.80137869  0.80180708  0.86340670  1
  B  B50  1  0.79486237  0.31450581  0.95742286  1
  B  B51  1  0.99944319  0.99986789  0.73136656  1
  B  B52  1  0.99706399  0.66749521  0.79926367  1
  B  B53  1  0.66044536  0.99296944  0.99745072  1
  B  B54  1  0.99260269  0.66146899  0.99726730  1
  B  B55  1  0.99422381  0.99477104  0.92922229  1
  C  C56  1  0.36757229  0.36856683  0.07215359  1
  C  C57  1  0.99793539  0.32140420  0.40088695  1
  C  C58  1  0.37462600  0.37953408  0.27613662  1
  C  C59  1  0.62611254  0.62549696  0.12469425  1
  C  C60  1  0.00608791  0.00652545  0.66618879  1
  C  C61  1  0.67820876  0.00175672  0.19927185  1
  C  C62  1  0.37521343  0.37451403  0.47564519  1
  C  C63  1  0.61990826  0.62485987  0.32407758  1
  C  C64  1  0.99939297  0.99989710  0.86421778  1
  C  C65  1  0.38260922  0.38319211  0.67820903  1
  C  C66  1  0.63051574  0.63147642  0.52799926  1
  C  C67  1  0.37287756  0.37326551  0.87482895  1
  C  C68  1  0.62676621  0.62713079  0.72596905  1
  C  C69  1  0.62355519  0.62415196  0.92414222  1
