# generated using pymatgen
data_Mg6CdBi
_symmetry_space_group_name_H-M   'P 1'
_cell_length_a   6.41852148
_cell_length_b   6.41852097
_cell_length_c   5.41801485
_cell_angle_alpha   90.00000000
_cell_angle_beta   90.00000000
_cell_angle_gamma   121.41972949
_symmetry_Int_Tables_number   1
_chemical_formula_structural   Mg6CdBi
_chemical_formula_sum   'Mg6 Cd1 Bi1'
_cell_volume   190.47948469
_cell_formula_units_Z   1
loop_
 _symmetry_equiv_pos_site_id
 _symmetry_equiv_pos_as_xyz
  1  'x, y, z'
loop_
 _atom_site_type_symbol
 _atom_site_label
 _atom_site_symmetry_multiplicity
 _atom_site_fract_x
 _atom_site_fract_y
 _atom_site_fract_z
 _atom_site_occupancy
  Mg  Mg0  1  0.16365821  0.83120786  0.25000000  1
  Mg  Mg1  1  0.66879214  0.33634179  0.25000000  1
  Mg  Mg2  1  0.66815222  0.83184778  0.25000000  1
  Mg  Mg3  1  0.33615769  0.66170061  0.75000000  1
  Mg  Mg4  1  0.83829939  0.16384231  0.75000000  1
  Mg  Mg5  1  0.83234202  0.66765798  0.75000000  1
  Cd  Cd6  1  0.15182934  0.34817066  0.25000000  1
  Bi  Bi7  1  0.34076899  0.15923101  0.75000000  1
