# generated using pymatgen
data_Na3CoO3
_symmetry_space_group_name_H-M   'P 1'
_cell_length_a   9.06203095
_cell_length_b   9.23015847
_cell_length_c   4.51600582
_cell_angle_alpha   90.00000000
_cell_angle_beta   90.00000000
_cell_angle_gamma   89.95997811
_symmetry_Int_Tables_number   1
_chemical_formula_structural   Na3CoO3
_chemical_formula_sum   'Na12 Co4 O12'
_cell_volume   377.73661603
_cell_formula_units_Z   4
loop_
 _symmetry_equiv_pos_site_id
 _symmetry_equiv_pos_as_xyz
  1  'x, y, z'
loop_
 _atom_site_type_symbol
 _atom_site_label
 _atom_site_symmetry_multiplicity
 _atom_site_fract_x
 _atom_site_fract_y
 _atom_site_fract_z
 _atom_site_occupancy
  Na  Na0  1  0.12995987  0.62688199  0.00000000  1
  Na  Na1  1  0.12640092  0.37027832  0.50000000  1
  Na  Na2  1  0.14473399  0.85513653  0.50000000  1
  Na  Na3  1  0.35565373  0.35556902  0.00000000  1
  Na  Na4  1  0.37356238  0.87003909  0.00000000  1
  Na  Na5  1  0.37065789  0.12706431  0.50000000  1
  Na  Na6  1  0.62981750  0.87329726  0.50000000  1
  Na  Na7  1  0.62663918  0.13017110  0.00000000  1
  Na  Na8  1  0.64461797  0.64420513  0.00000000  1
  Na  Na9  1  0.85491898  0.14489363  0.50000000  1
  Na  Na10  1  0.87319750  0.62933369  0.50000000  1
  Na  Na11  1  0.86974202  0.37306401  0.00000000  1
  Co  Co12  1  0.11377232  0.11424560  0.00000000  1
  Co  Co13  1  0.38635839  0.61424162  0.50000000  1
  Co  Co14  1  0.61336844  0.38620386  0.50000000  1
  Co  Co15  1  0.88671447  0.88627833  0.00000000  1
  O  O16  1  0.09211718  0.90304735  0.00000000  1
  O  O17  1  0.10592904  0.31182806  0.00000000  1
  O  O18  1  0.19111474  0.60583373  0.50000000  1
  O  O19  1  0.30918099  0.10577887  0.00000000  1
  O  O20  1  0.39384438  0.81188804  0.50000000  1
  O  O21  1  0.40807540  0.40312202  0.50000000  1
  O  O22  1  0.59179177  0.59695847  0.50000000  1
  O  O23  1  0.60646639  0.18808101  0.50000000  1
  O  O24  1  0.69114842  0.89394437  0.00000000  1
  O  O25  1  0.80868510  0.39383737  0.50000000  1
  O  O26  1  0.89349921  0.68781704  0.00000000  1
  O  O27  1  0.90807283  0.09700120  0.00000000  1
