# generated using pymatgen
data_CaAc3
_symmetry_space_group_name_H-M   'P 1'
_cell_length_a   7.99914353
_cell_length_b   7.99914332
_cell_length_c   6.42188052
_cell_angle_alpha   90.00000000
_cell_angle_beta   90.00000000
_cell_angle_gamma   119.99999667
_symmetry_Int_Tables_number   1
_chemical_formula_structural   CaAc3
_chemical_formula_sum   'Ca2 Ac6'
_cell_volume   355.86054150
_cell_formula_units_Z   2
loop_
 _symmetry_equiv_pos_site_id
 _symmetry_equiv_pos_as_xyz
  1  'x, y, z'
loop_
 _atom_site_type_symbol
 _atom_site_label
 _atom_site_symmetry_multiplicity
 _atom_site_fract_x
 _atom_site_fract_y
 _atom_site_fract_z
 _atom_site_occupancy
  Ca  Ca0  1  0.33333300  0.66666700  0.75000000  1
  Ca  Ca1  1  0.66666700  0.33333300  0.24999900  1
  Ac  Ac2  1  0.16699769  0.33399637  0.24999900  1
  Ac  Ac3  1  0.66600363  0.83300131  0.24999900  1
  Ac  Ac4  1  0.16699769  0.83300131  0.24999900  1
  Ac  Ac5  1  0.83300131  0.66600363  0.75000000  1
  Ac  Ac6  1  0.33399737  0.16699769  0.75000000  1
  Ac  Ac7  1  0.83300131  0.16699769  0.75000000  1
