# generated using pymatgen
data_MnCoO4
_symmetry_space_group_name_H-M   'P 1'
_cell_length_a   5.23790157
_cell_length_b   4.35457390
_cell_length_c   5.24423895
_cell_angle_alpha   90.38135482
_cell_angle_beta   108.41014393
_cell_angle_gamma   33.83645596
_symmetry_Int_Tables_number   1
_chemical_formula_structural   MnCoO4
_chemical_formula_sum   'Mn1 Co1 O4'
_cell_volume   55.30307225
_cell_formula_units_Z   1
loop_
 _symmetry_equiv_pos_site_id
 _symmetry_equiv_pos_as_xyz
  1  'x, y, z'
loop_
 _atom_site_type_symbol
 _atom_site_label
 _atom_site_symmetry_multiplicity
 _atom_site_fract_x
 _atom_site_fract_y
 _atom_site_fract_z
 _atom_site_occupancy
  Mn  Mn0  1  0.49912679  0.50597548  0.00510227  1
  Co  Co1  1  0.49896695  0.00618294  0.50514989  1
  O  O2  1  0.18908547  0.12533748  0.69526430  1
  O  O3  1  0.19967498  0.00579473  0.20546970  1
  O  O4  1  0.79804668  0.00666120  0.80470788  1
  O  O5  1  0.80824413  0.88702017  0.31442295  1
