# generated using pymatgen
data_VCrO4
_symmetry_space_group_name_H-M   'P 1'
_cell_length_a   6.09190444
_cell_length_b   5.81688803
_cell_length_c   5.81688761
_cell_angle_alpha   59.76397794
_cell_angle_beta   58.42330446
_cell_angle_gamma   58.42330704
_symmetry_Int_Tables_number   1
_chemical_formula_structural   VCrO4
_chemical_formula_sum   'V2 Cr2 O8'
_cell_volume   141.94040244
_cell_formula_units_Z   2
loop_
 _symmetry_equiv_pos_site_id
 _symmetry_equiv_pos_as_xyz
  1  'x, y, z'
loop_
 _atom_site_type_symbol
 _atom_site_label
 _atom_site_symmetry_multiplicity
 _atom_site_fract_x
 _atom_site_fract_y
 _atom_site_fract_z
 _atom_site_occupancy
  V  V0  1  0.12583449  0.12416551  0.12416551  1
  V  V1  1  0.87416551  0.87583449  0.87583449  1
  Cr  Cr2  1  0.00000000  0.50000000  0.50000000  1
  Cr  Cr3  1  0.50000000  0.50000000  0.50000000  1
  O  O4  1  0.22304914  0.24969451  0.24969451  1
  O  O5  1  0.24653662  0.27022567  0.73670008  1
  O  O6  1  0.24653662  0.73670008  0.27022567  1
  O  O7  1  0.22243817  0.75030549  0.75030549  1
  O  O8  1  0.77756183  0.24969451  0.24969451  1
  O  O9  1  0.75346338  0.26329992  0.72977433  1
  O  O10  1  0.75346338  0.72977433  0.26329992  1
  O  O11  1  0.77695086  0.75030549  0.75030549  1
