# generated using pymatgen
data_BaCO3
_symmetry_space_group_name_H-M   'P 1'
_cell_length_a   5.46667677
_cell_length_b   9.97365599
_cell_length_c   8.88267681
_cell_angle_alpha   26.73043203
_cell_angle_beta   52.64210048
_cell_angle_gamma   57.05126046
_symmetry_Int_Tables_number   1
_chemical_formula_structural   BaCO3
_chemical_formula_sum   'Ba2 C2 O6'
_cell_volume   173.14875425
_cell_formula_units_Z   2
loop_
 _symmetry_equiv_pos_site_id
 _symmetry_equiv_pos_as_xyz
  1  'x, y, z'
loop_
 _atom_site_type_symbol
 _atom_site_label
 _atom_site_symmetry_multiplicity
 _atom_site_fract_x
 _atom_site_fract_y
 _atom_site_fract_z
 _atom_site_occupancy
  Ba  Ba0  1  0.50982541  0.99742595  0.50354939  1
  Ba  Ba1  1  0.51023272  0.49626791  0.50736195  1
  C  C2  1  0.00184200  0.00134293  0.99687741  1
  C  C3  1  0.99684494  0.49901756  0.00047471  1
  O  O4  1  0.23966979  0.99817710  0.00006522  1
  O  O5  1  0.00399773  0.36212663  0.00510346  1
  O  O6  1  0.23951396  0.50006510  0.99413582  1
  O  O7  1  0.01386221  0.14138455  0.72337092  1
  O  O8  1  0.74616365  0.63623949  0.99859015  1
  O  O9  1  0.74942459  0.86520578  0.26663897  1
