# generated using pymatgen
data_Ca2Fe2O5
_symmetry_space_group_name_H-M   'P 1'
_cell_length_a   3.93576819
_cell_length_b   5.46231891
_cell_length_c   10.49044923
_cell_angle_alpha   89.99576594
_cell_angle_beta   90.00016128
_cell_angle_gamma   90.00008024
_symmetry_Int_Tables_number   1
_chemical_formula_structural   Ca2Fe2O5
_chemical_formula_sum   'Ca4 Fe4 O10'
_cell_volume   225.52809362
_cell_formula_units_Z   2
loop_
 _symmetry_equiv_pos_site_id
 _symmetry_equiv_pos_as_xyz
  1  'x, y, z'
loop_
 _atom_site_type_symbol
 _atom_site_label
 _atom_site_symmetry_multiplicity
 _atom_site_fract_x
 _atom_site_fract_y
 _atom_site_fract_z
 _atom_site_occupancy
  Ca  Ca0  1  0.50000290  0.22155797  0.88460312  1
  Ca  Ca1  1  0.49999883  0.77839949  0.11542273  1
  Ca  Ca2  1  0.49999601  0.72169140  0.61540435  1
  Ca  Ca3  1  0.50000539  0.27851459  0.38457533  1
  Fe  Fe4  1  0.00000359  0.23837746  0.63577492  1
  Fe  Fe5  1  0.00000364  0.76163057  0.36418510  1
  Fe  Fe6  1  -0.00000307  0.26159866  0.13581513  1
  Fe  Fe7  1  0.99999927  0.73833166  0.86422426  1
  O  O8  1  0.00000061  0.50005711  0.50002229  1
  O  O9  1  -0.00000304  0.10581021  0.29881944  1
  O  O10  1  -0.00000110  0.60576605  0.20123114  1
  O  O11  1  0.99999982  0.39424155  0.79874353  1
  O  O12  1  0.50000260  0.29632619  0.10696221  1
  O  O13  1  0.49999581  0.70367277  0.89304916  1
  O  O14  1  0.99999880  0.89425960  0.70124189  1
  O  O15  1  0.50000351  0.20355004  0.60687892  1
  O  O16  1  0.00000399  0.99996775  0.00002535  1
  O  O17  1  0.50000046  0.79624591  0.39302111  1
