# generated using pymatgen
data_RbGe2N3
_symmetry_space_group_name_H-M   'P 1'
_cell_length_a   5.92220406
_cell_length_b   6.08722208
_cell_length_c   5.38652812
_cell_angle_alpha   90.00000000
_cell_angle_beta   90.00000000
_cell_angle_gamma   120.92610125
_symmetry_Int_Tables_number   1
_chemical_formula_structural   RbGe2N3
_chemical_formula_sum   'Rb2 Ge4 N6'
_cell_volume   166.57626385
_cell_formula_units_Z   2
loop_
 _symmetry_equiv_pos_site_id
 _symmetry_equiv_pos_as_xyz
  1  'x, y, z'
loop_
 _atom_site_type_symbol
 _atom_site_label
 _atom_site_symmetry_multiplicity
 _atom_site_fract_x
 _atom_site_fract_y
 _atom_site_fract_z
 _atom_site_occupancy
  Rb  Rb0  1  0.00000000  0.65189377  0.48062955  1
  Rb  Rb1  1  0.00000000  0.34810623  0.98062955  1
  Ge  Ge2  1  0.34792009  0.31360372  0.49302524  1
  Ge  Ge3  1  0.65207991  0.96568463  0.49302524  1
  Ge  Ge4  1  0.65207991  0.68639628  0.99302524  1
  Ge  Ge5  1  0.34792009  0.03431537  0.99302524  1
  N  N6  1  0.48187662  0.35766694  0.82558645  1
  N  N7  1  0.51812338  0.87579032  0.82558645  1
  N  N8  1  0.51812338  0.64233306  0.32558645  1
  N  N9  1  0.48187662  0.12420968  0.32558645  1
  N  N10  1  0.00000000  0.81625747  0.97014907  1
  N  N11  1  1.00000000  0.18374253  0.47014907  1
