# generated using pymatgen
data_Li3NbO4
_symmetry_space_group_name_H-M   'P 1'
_cell_length_a   5.89241634
_cell_length_b   7.86776755
_cell_length_c   5.21392853
_cell_angle_alpha   29.04456494
_cell_angle_beta   55.59319957
_cell_angle_gamma   41.50212298
_symmetry_Int_Tables_number   1
_chemical_formula_structural   Li3NbO4
_chemical_formula_sum   'Li3 Nb1 O4'
_cell_volume   74.68030677
_cell_formula_units_Z   1
loop_
 _symmetry_equiv_pos_site_id
 _symmetry_equiv_pos_as_xyz
  1  'x, y, z'
loop_
 _atom_site_type_symbol
 _atom_site_label
 _atom_site_symmetry_multiplicity
 _atom_site_fract_x
 _atom_site_fract_y
 _atom_site_fract_z
 _atom_site_occupancy
  Li  Li0  1  0.24998454  0.50000000  0.00000000  1
  Li  Li1  1  0.75001546  0.50000000  0.00000000  1
  Li  Li2  1  0.50000000  0.00000000  0.00000000  1
  Nb  Nb3  1  0.00000000  0.00000000  0.00000000  1
  O  O4  1  0.22552708  0.99994035  0.54906515  1
  O  O5  1  0.77447292  0.00005965  0.45093485  1
  O  O6  1  0.50000000  0.50000000  0.50000000  1
  O  O7  1  0.00000000  0.50000000  0.50000000  1
