# generated using pymatgen
data_Mn(CO3)2
_symmetry_space_group_name_H-M   'P 1'
_cell_length_a   4.68200990
_cell_length_b   5.99198730
_cell_length_c   4.68200906
_cell_angle_alpha   67.00261675
_cell_angle_beta   120.00000634
_cell_angle_gamma   112.99738773
_symmetry_Int_Tables_number   1
_chemical_formula_structural   Mn(CO3)2
_chemical_formula_sum   'Mn1 C2 O6'
_cell_volume   101.52061423
_cell_formula_units_Z   1
loop_
 _symmetry_equiv_pos_site_id
 _symmetry_equiv_pos_as_xyz
  1  'x, y, z'
loop_
 _atom_site_type_symbol
 _atom_site_label
 _atom_site_symmetry_multiplicity
 _atom_site_fract_x
 _atom_site_fract_y
 _atom_site_fract_z
 _atom_site_occupancy
  Mn  Mn0  1  0.50000000  0.50000000  0.50000000  1
  C  C1  1  0.23479119  0.70437257  0.76520881  1
  C  C2  1  0.76520881  0.29562743  0.23479119  1
  O  O3  1  0.05495989  0.28975161  0.27206614  1
  O  O4  1  0.49314215  0.71024839  0.05495989  1
  O  O5  1  0.27206614  0.71024839  0.50685785  1
  O  O6  1  0.72793386  0.28975161  0.49314215  1
  O  O7  1  0.50685785  0.28975161  0.94504011  1
  O  O8  1  0.94504011  0.71024839  0.72793386  1
