# generated using pymatgen
data_FeOF
_symmetry_space_group_name_H-M   'P 1'
_cell_length_a   6.11822477
_cell_length_b   4.76494575
_cell_length_c   4.76494575
_cell_angle_alpha   90.00000000
_cell_angle_beta   90.00000000
_cell_angle_gamma   90.00000000
_symmetry_Int_Tables_number   1
_chemical_formula_structural   FeOF
_chemical_formula_sum   'Fe4 O4 F4'
_cell_volume   138.91250688
_cell_formula_units_Z   4
loop_
 _symmetry_equiv_pos_site_id
 _symmetry_equiv_pos_as_xyz
  1  'x, y, z'
loop_
 _atom_site_type_symbol
 _atom_site_label
 _atom_site_symmetry_multiplicity
 _atom_site_fract_x
 _atom_site_fract_y
 _atom_site_fract_z
 _atom_site_occupancy
  Fe  Fe0  1  0.00000000  0.03392420  0.03392420  1
  Fe  Fe1  1  0.25000000  0.46607580  0.53392420  1
  Fe  Fe2  1  0.50000000  0.96607580  0.96607580  1
  Fe  Fe3  1  0.75000000  0.53392420  0.46607580  1
  O  O4  1  0.25000000  0.17996816  0.82003184  1
  O  O5  1  0.50000000  0.67996816  0.67996816  1
  O  O6  1  0.75000000  0.82003184  0.17996816  1
  O  O7  1  0.00000000  0.32003184  0.32003184  1
  F  F8  1  0.25000000  0.79374167  0.20625833  1
  F  F9  1  0.50000000  0.29374167  0.29374167  1
  F  F10  1  0.75000000  0.20625833  0.79374167  1
  F  F11  1  0.00000000  0.70625833  0.70625833  1
