# generated using pymatgen
data_CeFeO3
_symmetry_space_group_name_H-M   'P 1'
_cell_length_a   5.46703430
_cell_length_b   5.78395001
_cell_length_c   7.77724953
_cell_angle_alpha   89.99571229
_cell_angle_beta   89.98573968
_cell_angle_gamma   89.99307838
_symmetry_Int_Tables_number   1
_chemical_formula_structural   CeFeO3
_chemical_formula_sum   'Ce4 Fe4 O12'
_cell_volume   245.92481038
_cell_formula_units_Z   4
loop_
 _symmetry_equiv_pos_site_id
 _symmetry_equiv_pos_as_xyz
  1  'x, y, z'
loop_
 _atom_site_type_symbol
 _atom_site_label
 _atom_site_symmetry_multiplicity
 _atom_site_fract_x
 _atom_site_fract_y
 _atom_site_fract_z
 _atom_site_occupancy
  Ce  Ce0  1  0.02470204  0.91625393  0.74996070  1
  Ce  Ce1  1  0.47533929  0.41629055  0.74991510  1
  Ce  Ce2  1  0.52464468  0.58366755  0.25007517  1
  Ce  Ce3  1  0.97532412  0.08373268  0.25003503  1
  Fe  Fe4  1  -0.00004553  0.49992349  0.00000980  1
  Fe  Fe5  1  0.00000926  0.49991551  0.50001416  1
  Fe  Fe6  1  0.49995605  0.00009972  -0.00001978  1
  Fe  Fe7  1  0.50004665  0.00014598  0.50002310  1
  O  O8  1  0.13590743  0.45300312  0.25013396  1
  O  O9  1  0.18199599  0.18105630  0.56813825  1
  O  O10  1  0.18194899  0.18120372  0.93185496  1
  O  O11  1  0.31802879  0.68104961  0.56818318  1
  O  O12  1  0.31799426  0.68104756  0.93183849  1
  O  O13  1  0.36388752  0.95315101  0.25001030  1
  O  O14  1  0.63603483  0.04695506  0.74998706  1
  O  O15  1  0.68206718  0.31886313  0.06805603  1
  O  O16  1  0.68203528  0.31885792  0.43191900  1
  O  O17  1  0.81811130  0.81885131  0.06810032  1
  O  O18  1  0.81806359  0.81899750  0.43190269  1
  O  O19  1  0.86394829  0.54693433  0.74986248  1
