# generated using pymatgen
data_Nb4N3
_symmetry_space_group_name_H-M   'P 1'
_cell_length_a   4.42921056
_cell_length_b   4.42921088
_cell_length_c   5.36496593
_cell_angle_alpha   114.38023511
_cell_angle_beta   114.38023698
_cell_angle_gamma   89.99999518
_symmetry_Int_Tables_number   1
_chemical_formula_structural   Nb4N3
_chemical_formula_sum   'Nb4 N3'
_cell_volume   85.45373002
_cell_formula_units_Z   1
loop_
 _symmetry_equiv_pos_site_id
 _symmetry_equiv_pos_as_xyz
  1  'x, y, z'
loop_
 _atom_site_type_symbol
 _atom_site_label
 _atom_site_symmetry_multiplicity
 _atom_site_fract_x
 _atom_site_fract_y
 _atom_site_fract_z
 _atom_site_occupancy
  Nb  Nb0  1  0.50000000  0.00000000  0.00000000  1
  Nb  Nb1  1  0.74612241  0.74612241  0.49224483  1
  Nb  Nb2  1  0.25387759  0.25387759  0.50775517  1
  Nb  Nb3  1  0.00000000  0.50000000  0.00000000  1
  N  N4  1  0.75000000  0.25000000  0.50000000  1
  N  N5  1  0.25000000  0.75000000  0.50000000  1
  N  N6  1  0.00000000  0.00000000  0.00000000  1
