# generated using pymatgen
data_KBi2F7
_symmetry_space_group_name_H-M   'P 1'
_cell_length_a   3.98382409
_cell_length_b   4.35498755
_cell_length_c   12.69076492
_cell_angle_alpha   61.86138903
_cell_angle_beta   64.36947306
_cell_angle_gamma   62.32985968
_symmetry_Int_Tables_number   1
_chemical_formula_structural   KBi2F7
_chemical_formula_sum   'K1 Bi2 F7'
_cell_volume   165.39681855
_cell_formula_units_Z   1
loop_
 _symmetry_equiv_pos_site_id
 _symmetry_equiv_pos_as_xyz
  1  'x, y, z'
loop_
 _atom_site_type_symbol
 _atom_site_label
 _atom_site_symmetry_multiplicity
 _atom_site_fract_x
 _atom_site_fract_y
 _atom_site_fract_z
 _atom_site_occupancy
  K  K0  1  0.05668669  0.01164239  0.32943637  1
  Bi  Bi1  1  0.02767087  0.87580533  0.02265418  1
  Bi  Bi2  1  0.91016508  0.13949494  0.66171657  1
  F  F3  1  0.59770233  0.56609284  0.10961209  1
  F  F4  1  0.82597478  0.77470683  0.22251815  1
  F  F5  1  0.27521159  0.29003895  0.74346042  1
  F  F6  1  0.71150603  0.44726792  0.48529704  1
  F  F7  1  0.70352254  0.74868850  0.63760338  1
  F  F8  1  0.36445477  0.29690261  0.01505771  1
  F  F9  1  0.81310532  0.84935968  0.86797709  1
