# generated using pymatgen
data_Li(NiS)2
_symmetry_space_group_name_H-M   'P 1'
_cell_length_a   3.68428933
_cell_length_b   3.68396903
_cell_length_c   5.96492387
_cell_angle_alpha   89.97665724
_cell_angle_beta   90.00000000
_cell_angle_gamma   120.00287620
_symmetry_Int_Tables_number   1
_chemical_formula_structural   Li(NiS)2
_chemical_formula_sum   'Li1 Ni2 S2'
_cell_volume   70.11203953
_cell_formula_units_Z   1
loop_
 _symmetry_equiv_pos_site_id
 _symmetry_equiv_pos_as_xyz
  1  'x, y, z'
loop_
 _atom_site_type_symbol
 _atom_site_label
 _atom_site_symmetry_multiplicity
 _atom_site_fract_x
 _atom_site_fract_y
 _atom_site_fract_z
 _atom_site_occupancy
  Li  Li0  1  0.00009480  0.00000000  0.00000000  1
  Ni  Ni1  1  0.33338955  0.66693105  0.36357331  1
  Ni  Ni2  1  0.66645850  0.33306895  0.63642669  1
  S  S3  1  0.33336166  0.66686818  0.74107807  1
  S  S4  1  0.66649448  0.33313182  0.25892193  1
