# generated using pymatgen
data_CaMg6Zr
_symmetry_space_group_name_H-M   'P 1'
_cell_length_a   6.47285485
_cell_length_b   9.13390423
_cell_length_c   4.66217859
_cell_angle_alpha   90.00000000
_cell_angle_beta   90.00000000
_cell_angle_gamma   134.87437141
_symmetry_Int_Tables_number   1
_chemical_formula_structural   CaMg6Zr
_chemical_formula_sum   'Ca1 Mg6 Zr1'
_cell_volume   195.33334746
_cell_formula_units_Z   1
loop_
 _symmetry_equiv_pos_site_id
 _symmetry_equiv_pos_as_xyz
  1  'x, y, z'
loop_
 _atom_site_type_symbol
 _atom_site_label
 _atom_site_symmetry_multiplicity
 _atom_site_fract_x
 _atom_site_fract_y
 _atom_site_fract_z
 _atom_site_occupancy
  Ca  Ca0  1  0.24991301  0.37495600  0.25000000  1
  Mg  Mg1  1  0.75017601  0.37535621  0.25000000  1
  Mg  Mg2  1  0.75017601  0.87481880  0.25000000  1
  Mg  Mg3  1  0.25034614  0.10990137  0.75000000  1
  Mg  Mg4  1  0.25034614  0.64044578  0.75000000  1
  Mg  Mg5  1  0.72266832  0.11133516  0.75000000  1
  Mg  Mg6  1  0.77683913  0.63842007  0.75000000  1
  Zr  Zr7  1  0.24953523  0.87476762  0.25000000  1
