# generated using pymatgen
data_GdBO3
_symmetry_space_group_name_H-M   'P 1'
_cell_length_a   5.27793416
_cell_length_b   5.27799230
_cell_length_c   6.52335800
_cell_angle_alpha   90.00199080
_cell_angle_beta   89.99499157
_cell_angle_gamma   119.99990195
_symmetry_Int_Tables_number   1
_chemical_formula_structural   GdBO3
_chemical_formula_sum   'Gd2 B2 O6'
_cell_volume   157.37472804
_cell_formula_units_Z   2
loop_
 _symmetry_equiv_pos_site_id
 _symmetry_equiv_pos_as_xyz
  1  'x, y, z'
loop_
 _atom_site_type_symbol
 _atom_site_label
 _atom_site_symmetry_multiplicity
 _atom_site_fract_x
 _atom_site_fract_y
 _atom_site_fract_z
 _atom_site_occupancy
  Gd  Gd0  1  0.99999775  0.99999762  0.49999994  1
  Gd  Gd1  1  0.00000140  0.99999874  -0.00000001  1
  B  B2  1  0.33332792  0.66665821  0.25002466  1
  B  B3  1  0.66667241  0.33334231  0.74997490  1
  O  O4  1  0.18157684  0.81840562  0.25000029  1
  O  O5  1  0.18157863  0.36316143  0.25001888  1
  O  O6  1  0.63682809  0.81840695  0.25004578  1
  O  O7  1  0.81842474  0.18159641  0.74999921  1
  O  O8  1  0.81842056  0.63683846  0.74998108  1
  O  O9  1  0.36317265  0.18159424  0.74995427  1
