# generated using pymatgen
data_Ba2Pd2O5
_symmetry_space_group_name_H-M   'P 1'
_cell_length_a   8.46084654
_cell_length_b   4.09555129
_cell_length_c   4.09557200
_cell_angle_alpha   90.00001147
_cell_angle_beta   89.99999862
_cell_angle_gamma   90.00000158
_symmetry_Int_Tables_number   1
_chemical_formula_structural   Ba2Pd2O5
_chemical_formula_sum   'Ba2 Pd2 O5'
_cell_volume   141.91906863
_cell_formula_units_Z   1
loop_
 _symmetry_equiv_pos_site_id
 _symmetry_equiv_pos_as_xyz
  1  'x, y, z'
loop_
 _atom_site_type_symbol
 _atom_site_label
 _atom_site_symmetry_multiplicity
 _atom_site_fract_x
 _atom_site_fract_y
 _atom_site_fract_z
 _atom_site_occupancy
  Ba  Ba0  1  0.99999945  0.99999960  0.99999977  1
  Ba  Ba1  1  0.50000183  0.99999988  0.99999981  1
  Pd  Pd2  1  0.25171849  0.49999860  0.49999868  1
  Pd  Pd3  1  0.74828557  0.49999896  0.49999894  1
  O  O4  1  0.21769096  0.49999819  0.99999908  1
  O  O5  1  0.78231053  0.49999824  0.99999934  1
  O  O6  1  0.49999193  0.49999800  0.49999811  1
  O  O7  1  0.21769118  0.99999924  0.49999834  1
  O  O8  1  0.78231007  0.99999929  0.49999792  1
