# generated using pymatgen
data_Hf5N5O2
_symmetry_space_group_name_H-M   'P 1'
_cell_length_a   3.06914242
_cell_length_b   5.40231322
_cell_length_c   9.16992795
_cell_angle_alpha   74.84992208
_cell_angle_beta   90.00000000
_cell_angle_gamma   73.49744086
_symmetry_Int_Tables_number   1
_chemical_formula_structural   Hf5N5O2
_chemical_formula_sum   'Hf5 N5 O2'
_cell_volume   140.25861896
_cell_formula_units_Z   1
loop_
 _symmetry_equiv_pos_site_id
 _symmetry_equiv_pos_as_xyz
  1  'x, y, z'
loop_
 _atom_site_type_symbol
 _atom_site_label
 _atom_site_symmetry_multiplicity
 _atom_site_fract_x
 _atom_site_fract_y
 _atom_site_fract_z
 _atom_site_occupancy
  Hf  Hf0  1  0.10932802  0.78134397  0.92003039  1
  Hf  Hf1  1  0.69848755  0.60302490  0.29957995  1
  Hf  Hf2  1  0.30635257  0.38729487  0.70210563  1
  Hf  Hf3  1  0.88778823  0.22442253  0.08143116  1
  Hf  Hf4  1  0.98944126  0.02111848  0.50625676  1
  N  N5  1  0.50835272  0.98329455  0.01463464  1
  N  N6  1  0.74041523  0.51916954  0.85609004  1
  N  N7  1  0.26603964  0.46791972  0.15201689  1
  N  N8  1  0.33815873  0.32368254  0.44697920  1
  N  N9  1  0.95493878  0.09012345  0.71636463  1
  O  O10  1  0.04564646  0.90870608  0.29462006  1
  O  O11  1  0.65378081  0.69243937  0.55182064  1
