# generated using pymatgen
data_VFeO4
_symmetry_space_group_name_H-M   'P 1'
_cell_length_a   5.80526858
_cell_length_b   5.80526826
_cell_length_c   5.80526825
_cell_angle_alpha   119.08832436
_cell_angle_beta   115.56650818
_cell_angle_gamma   94.71987223
_symmetry_Int_Tables_number   1
_chemical_formula_structural   VFeO4
_chemical_formula_sum   'V2 Fe2 O8'
_cell_volume   143.24978655
_cell_formula_units_Z   2
loop_
 _symmetry_equiv_pos_site_id
 _symmetry_equiv_pos_as_xyz
  1  'x, y, z'
loop_
 _atom_site_type_symbol
 _atom_site_label
 _atom_site_symmetry_multiplicity
 _atom_site_fract_x
 _atom_site_fract_y
 _atom_site_fract_z
 _atom_site_occupancy
  V  V0  1  0.36242084  0.61242084  0.75000000  1
  V  V1  1  0.63757916  0.38757916  0.25000000  1
  Fe  Fe2  1  0.00000000  0.00000000  0.00000000  1
  Fe  Fe3  1  0.50000000  0.00000000  0.50000000  1
  O  O4  1  0.24705370  0.22784112  0.48078741  1
  O  O5  1  0.27363087  0.74194354  0.53168733  1
  O  O6  1  0.71025622  0.74194354  0.96831267  1
  O  O7  1  0.75294630  0.23373371  0.98078741  1
  O  O8  1  0.24705370  0.76626629  0.01921259  1
  O  O9  1  0.28974378  0.25805646  0.03168733  1
  O  O10  1  0.72636913  0.25805646  0.46831267  1
  O  O11  1  0.75294630  0.77215888  0.51921259  1
