# generated using pymatgen
data_Cd(CO2)2
_symmetry_space_group_name_H-M   'P 1'
_cell_length_a   5.41188441
_cell_length_b   6.00057159
_cell_length_c   5.90610282
_cell_angle_alpha   112.92674766
_cell_angle_beta   90.00000000
_cell_angle_gamma   90.00000000
_symmetry_Int_Tables_number   1
_chemical_formula_structural   Cd(CO2)2
_chemical_formula_sum   'Cd2 C4 O8'
_cell_volume   176.64586974
_cell_formula_units_Z   2
loop_
 _symmetry_equiv_pos_site_id
 _symmetry_equiv_pos_as_xyz
  1  'x, y, z'
loop_
 _atom_site_type_symbol
 _atom_site_label
 _atom_site_symmetry_multiplicity
 _atom_site_fract_x
 _atom_site_fract_y
 _atom_site_fract_z
 _atom_site_occupancy
  Cd  Cd0  1  0.00000000  0.00000000  0.00000000  1
  Cd  Cd1  1  0.50000000  0.50000000  0.50000000  1
  C  C2  1  0.88235076  0.08216556  0.53791194  1
  C  C3  1  0.11764924  0.91783444  0.46208806  1
  C  C4  1  0.61764924  0.58216556  0.03791194  1
  C  C5  1  0.38235076  0.41783444  0.96208806  1
  O  O6  1  0.27866315  0.38621323  0.76065878  1
  O  O7  1  0.69275868  0.67516523  0.88907577  1
  O  O8  1  0.30724132  0.32483477  0.11092423  1
  O  O9  1  0.80724132  0.17516523  0.38907577  1
  O  O10  1  0.72133685  0.61378677  0.23934122  1
  O  O11  1  0.77866315  0.11378677  0.73934122  1
  O  O12  1  0.19275868  0.82483477  0.61092423  1
  O  O13  1  0.22133685  0.88621323  0.26065878  1
