# generated using pymatgen
data_VO2
_symmetry_space_group_name_H-M   'P 1'
_cell_length_a   2.93799323
_cell_length_b   4.94963118
_cell_length_c   9.35738283
_cell_angle_alpha   90.03499559
_cell_angle_beta   87.58380402
_cell_angle_gamma   89.62455403
_symmetry_Int_Tables_number   1
_chemical_formula_structural   VO2
_chemical_formula_sum   'V4 O8'
_cell_volume   135.95095174
_cell_formula_units_Z   4
loop_
 _symmetry_equiv_pos_site_id
 _symmetry_equiv_pos_as_xyz
  1  'x, y, z'
loop_
 _atom_site_type_symbol
 _atom_site_label
 _atom_site_symmetry_multiplicity
 _atom_site_fract_x
 _atom_site_fract_y
 _atom_site_fract_z
 _atom_site_occupancy
  V  V0  1  0.23907349  0.42288952  0.63811760  1
  V  V1  1  0.24382519  0.08127824  0.14011465  1
  V  V2  1  0.75192919  0.58180975  0.36357040  1
  V  V3  1  0.76255914  0.92859875  0.86683020  1
  O  O4  1  0.74107595  0.29529088  0.52291387  1
  O  O5  1  0.26607271  0.79474611  0.97818992  1
  O  O6  1  0.75654325  0.20501783  0.02232644  1
  O  O7  1  0.25678132  0.71090424  0.47366641  1
  O  O8  1  0.73509778  0.88223078  0.23364699  1
  O  O9  1  0.77404900  0.60720332  0.73813182  1
  O  O10  1  0.23470129  0.10509625  0.76069946  1
  O  O11  1  0.23829168  0.38493432  0.26179223  1
