# generated using pymatgen
data_SmRhC2
_symmetry_space_group_name_H-M   'P 1'
_cell_length_a   3.63957231
_cell_length_b   4.05776377
_cell_length_c   4.05776377
_cell_angle_alpha   108.95499022
_cell_angle_beta   90.00000000
_cell_angle_gamma   90.00000000
_symmetry_Int_Tables_number   1
_chemical_formula_structural   SmRhC2
_chemical_formula_sum   'Sm1 Rh1 C2'
_cell_volume   56.67757517
_cell_formula_units_Z   1
loop_
 _symmetry_equiv_pos_site_id
 _symmetry_equiv_pos_as_xyz
  1  'x, y, z'
loop_
 _atom_site_type_symbol
 _atom_site_label
 _atom_site_symmetry_multiplicity
 _atom_site_fract_x
 _atom_site_fract_y
 _atom_site_fract_z
 _atom_site_occupancy
  C  C0  1  0.50000000  0.45742112  0.82887054  1
  C  C1  1  0.50000000  0.17112946  0.54257888  1
  Rh  Rh2  1  0.50000000  0.62505913  0.37494087  1
  Sm  Sm3  1  0.00000000  0.00069029  0.99930971  1
