# generated using pymatgen
data_DyHO2
_symmetry_space_group_name_H-M   'P 1'
_cell_length_a   3.52982276
_cell_length_b   3.52985674
_cell_length_c   9.22438361
_cell_angle_alpha   90.00161286
_cell_angle_beta   89.99911153
_cell_angle_gamma   120.00022010
_symmetry_Int_Tables_number   1
_chemical_formula_structural   DyHO2
_chemical_formula_sum   'Dy2 H2 O4'
_cell_volume   99.53527093
_cell_formula_units_Z   2
loop_
 _symmetry_equiv_pos_site_id
 _symmetry_equiv_pos_as_xyz
  1  'x, y, z'
loop_
 _atom_site_type_symbol
 _atom_site_label
 _atom_site_symmetry_multiplicity
 _atom_site_fract_x
 _atom_site_fract_y
 _atom_site_fract_z
 _atom_site_occupancy
  Dy  Dy0  1  0.00000085  0.00011740  0.00000000  1
  Dy  Dy1  1  0.99999994  0.99999199  0.49999994  1
  H  H2  1  0.33332024  0.66666779  0.25000082  1
  H  H3  1  0.66667959  0.33335506  0.74999921  1
  O  O4  1  0.33333370  0.66672911  0.11709432  1
  O  O5  1  0.33332334  0.66662805  0.38290910  1
  O  O6  1  0.66666761  0.33338088  0.88290566  1
  O  O7  1  0.66667573  0.33333071  0.61709095  1
