# generated using pymatgen
data_TlFeS2
_symmetry_space_group_name_H-M   'P 1'
_cell_length_a   5.09845389
_cell_length_b   6.50470507
_cell_length_c   6.84423718
_cell_angle_alpha   115.51122735
_cell_angle_beta   90.00000000
_cell_angle_gamma   113.07309097
_symmetry_Int_Tables_number   1
_chemical_formula_structural   TlFeS2
_chemical_formula_sum   'Tl2 Fe2 S4'
_cell_volume   184.52917699
_cell_formula_units_Z   2
loop_
 _symmetry_equiv_pos_site_id
 _symmetry_equiv_pos_as_xyz
  1  'x, y, z'
loop_
 _atom_site_type_symbol
 _atom_site_label
 _atom_site_symmetry_multiplicity
 _atom_site_fract_x
 _atom_site_fract_y
 _atom_site_fract_z
 _atom_site_occupancy
  S  S0  1  0.34338435  0.68676870  0.93352448  1
  S  S1  1  0.65661565  0.31323130  0.06647552  1
  S  S2  1  0.04032161  0.08064321  0.27479302  1
  S  S3  1  0.95967839  0.91935679  0.72520698  1
  Fe  Fe4  1  0.25055736  0.00000000  0.00000000  1
  Fe  Fe5  1  0.74944264  0.00000000  0.00000000  1
  Tl  Tl6  1  0.68263624  0.36527249  0.64079540  1
  Tl  Tl7  1  0.31736376  0.63472751  0.35920460  1
