# generated using pymatgen
data_Hf3N4
_symmetry_space_group_name_H-M   'P 1'
_cell_length_a   3.40918986
_cell_length_b   8.63881210
_cell_length_c   3.40918967
_cell_angle_alpha   90.00000174
_cell_angle_beta   60.00000135
_cell_angle_gamma   101.38018324
_symmetry_Int_Tables_number   1
_chemical_formula_structural   Hf3N4
_chemical_formula_sum   'Hf3 N4'
_cell_volume   84.66641862
_cell_formula_units_Z   1
loop_
 _symmetry_equiv_pos_site_id
 _symmetry_equiv_pos_as_xyz
  1  'x, y, z'
loop_
 _atom_site_type_symbol
 _atom_site_label
 _atom_site_symmetry_multiplicity
 _atom_site_fract_x
 _atom_site_fract_y
 _atom_site_fract_z
 _atom_site_occupancy
  Hf  Hf0  1  0.44398169  0.66597154  0.77800915  1
  Hf  Hf1  1  0.55601831  0.33402846  0.22199085  1
  Hf  Hf2  1  0.00000000  0.00000000  0.00000000  1
  N  N3  1  0.24376917  0.86565276  0.37811541  1
  N  N4  1  0.73547234  0.60320901  0.13226333  1
  N  N5  1  0.26452766  0.39679099  0.86773667  1
  N  N6  1  0.75623083  0.13434724  0.62188459  1
