# generated using pymatgen
data_VZnF4
_symmetry_space_group_name_H-M   'P 1'
_cell_length_a   5.68482713
_cell_length_b   5.20146232
_cell_length_c   5.87162536
_cell_angle_alpha   104.30881244
_cell_angle_beta   109.58808220
_cell_angle_gamma   89.77054753
_symmetry_Int_Tables_number   1
_chemical_formula_structural   VZnF4
_chemical_formula_sum   'V2 Zn2 F8'
_cell_volume   157.90584754
_cell_formula_units_Z   2
loop_
 _symmetry_equiv_pos_site_id
 _symmetry_equiv_pos_as_xyz
  1  'x, y, z'
loop_
 _atom_site_type_symbol
 _atom_site_label
 _atom_site_symmetry_multiplicity
 _atom_site_fract_x
 _atom_site_fract_y
 _atom_site_fract_z
 _atom_site_occupancy
  V  V0  1  0.99955694  0.49544697  0.99634850  1
  V  V1  1  0.49943595  0.99531125  0.99615509  1
  Zn  Zn2  1  0.33382542  0.30308894  0.55920671  1
  Zn  Zn3  1  0.66538900  0.68747723  0.43323310  1
  F  F4  1  0.04229916  0.30328150  0.27713218  1
  F  F5  1  0.66212272  0.21314906  0.80519282  1
  F  F6  1  0.95648612  0.68836771  0.71607717  1
  F  F7  1  0.20805034  0.21941275  0.81655132  1
  F  F8  1  0.33695230  0.77784867  0.18750373  1
  F  F9  1  0.55123647  0.29287605  0.32925909  1
  F  F10  1  0.79086096  0.77139188  0.17580090  1
  F  F11  1  0.44755763  0.69787300  0.66298740  1
