# generated using pymatgen
data_LiCuS2
_symmetry_space_group_name_H-M   'P 1'
_cell_length_a   4.23037112
_cell_length_b   3.42110553
_cell_length_c   6.05899330
_cell_angle_alpha   89.96326469
_cell_angle_beta   64.99174111
_cell_angle_gamma   66.04778909
_symmetry_Int_Tables_number   1
_chemical_formula_structural   LiCuS2
_chemical_formula_sum   'Li1 Cu1 S2'
_cell_volume   71.05994330
_cell_formula_units_Z   1
loop_
 _symmetry_equiv_pos_site_id
 _symmetry_equiv_pos_as_xyz
  1  'x, y, z'
loop_
 _atom_site_type_symbol
 _atom_site_label
 _atom_site_symmetry_multiplicity
 _atom_site_fract_x
 _atom_site_fract_y
 _atom_site_fract_z
 _atom_site_occupancy
  Li  Li0  1  0.99972836  0.50193502  0.00060770  1
  Cu  Cu1  1  0.99928214  0.50116144  0.50081491  1
  S  S2  1  0.74605298  0.12799394  0.76627263  1
  S  S3  1  0.25263651  0.87452960  0.23543377  1
