# generated using pymatgen
data_TiOF
_symmetry_space_group_name_H-M   'P 1'
_cell_length_a   5.09870472
_cell_length_b   4.98775975
_cell_length_c   5.21102773
_cell_angle_alpha   90.00000000
_cell_angle_beta   102.20097016
_cell_angle_gamma   90.00000000
_symmetry_Int_Tables_number   1
_chemical_formula_structural   TiOF
_chemical_formula_sum   'Ti4 O4 F4'
_cell_volume   129.52887081
_cell_formula_units_Z   4
loop_
 _symmetry_equiv_pos_site_id
 _symmetry_equiv_pos_as_xyz
  1  'x, y, z'
loop_
 _atom_site_type_symbol
 _atom_site_label
 _atom_site_symmetry_multiplicity
 _atom_site_fract_x
 _atom_site_fract_y
 _atom_site_fract_z
 _atom_site_occupancy
  Ti  Ti0  1  0.31423837  0.46157977  0.70655680  1
  Ti  Ti1  1  0.31423837  0.03842023  0.20655680  1
  Ti  Ti2  1  0.68576163  0.96157977  0.79344320  1
  Ti  Ti3  1  0.68576163  0.53842023  0.29344320  1
  O  O4  1  0.44447088  0.74607283  0.98864554  1
  O  O5  1  0.44447088  0.75392717  0.48864554  1
  O  O6  1  0.55552912  0.24607283  0.51135446  1
  O  O7  1  0.55552912  0.25392717  0.01135446  1
  F  F8  1  0.05551717  0.18022622  0.85052654  1
  F  F9  1  0.05551717  0.31977378  0.35052654  1
  F  F10  1  0.94448283  0.68022622  0.64947346  1
  F  F11  1  0.94448283  0.81977378  0.14947346  1
