# generated using pymatgen
data_FeOF
_symmetry_space_group_name_H-M   'P 1'
_cell_length_a   4.79254245
_cell_length_b   9.58299290
_cell_length_c   3.07269222
_cell_angle_alpha   90.00000000
_cell_angle_beta   90.00000000
_cell_angle_gamma   91.36441291
_symmetry_Int_Tables_number   1
_chemical_formula_structural   FeOF
_chemical_formula_sum   'Fe4 O4 F4'
_cell_volume   141.07921799
_cell_formula_units_Z   4
loop_
 _symmetry_equiv_pos_site_id
 _symmetry_equiv_pos_as_xyz
  1  'x, y, z'
loop_
 _atom_site_type_symbol
 _atom_site_label
 _atom_site_symmetry_multiplicity
 _atom_site_fract_x
 _atom_site_fract_y
 _atom_site_fract_z
 _atom_site_occupancy
  Fe  Fe0  1  0.00000000  0.00000000  0.00000000  1
  Fe  Fe1  1  0.00000000  0.50000000  0.00000000  1
  Fe  Fe2  1  0.57307387  0.24795949  0.50000000  1
  Fe  Fe3  1  0.42692613  0.75204051  0.50000000  1
  O  O4  1  0.18205883  0.90474687  0.50000000  1
  O  O5  1  0.28758224  0.64495303  0.00000000  1
  O  O6  1  0.71241776  0.35504697  0.00000000  1
  O  O7  1  0.81794117  0.09525313  0.50000000  1
  F  F8  1  0.19848683  0.40273867  0.50000000  1
  F  F9  1  0.32352169  0.16159296  0.00000000  1
  F  F10  1  0.67647831  0.83840704  0.00000000  1
  F  F11  1  0.80151317  0.59726133  0.50000000  1
