# generated using pymatgen
data_MnNbO4
_symmetry_space_group_name_H-M   'P 1'
_cell_length_a   5.77907062
_cell_length_b   5.77907045
_cell_length_c   5.77907064
_cell_angle_alpha   140.54699173
_cell_angle_beta   140.54699231
_cell_angle_gamma   57.02370177
_symmetry_Int_Tables_number   1
_chemical_formula_structural   MnNbO4
_chemical_formula_sum   'Mn1 Nb1 O4'
_cell_volume   77.28769241
_cell_formula_units_Z   1
loop_
 _symmetry_equiv_pos_site_id
 _symmetry_equiv_pos_as_xyz
  1  'x, y, z'
loop_
 _atom_site_type_symbol
 _atom_site_label
 _atom_site_symmetry_multiplicity
 _atom_site_fract_x
 _atom_site_fract_y
 _atom_site_fract_z
 _atom_site_occupancy
  Mn  Mn0  1  0.75000000  0.25000000  0.50000000  1
  Nb  Nb1  1  0.00000000  0.00000000  0.00000000  1
  O  O2  1  0.53280120  0.03280120  0.50000000  1
  O  O3  1  0.20210523  0.20210523  0.00000000  1
  O  O4  1  0.96719880  0.46719880  0.50000000  1
  O  O5  1  0.79789477  0.79789477  0.00000000  1
