# generated using pymatgen
data_LiFeO2
_symmetry_space_group_name_H-M   'P 1'
_cell_length_a   10.24565538
_cell_length_b   10.24565530
_cell_length_c   14.54137088
_cell_angle_alpha   19.46103861
_cell_angle_beta   19.46103766
_cell_angle_gamma   33.41185617
_symmetry_Int_Tables_number   1
_chemical_formula_structural   LiFeO2
_chemical_formula_sum   'Li4 Fe4 O8'
_cell_volume   147.80658768
_cell_formula_units_Z   4
loop_
 _symmetry_equiv_pos_site_id
 _symmetry_equiv_pos_as_xyz
  1  'x, y, z'
loop_
 _atom_site_type_symbol
 _atom_site_label
 _atom_site_symmetry_multiplicity
 _atom_site_fract_x
 _atom_site_fract_y
 _atom_site_fract_z
 _atom_site_occupancy
  Li  Li0  1  0.50000000  0.50000000  0.00000000  1
  Li  Li1  1  0.00000000  0.50000000  0.50000000  1
  Li  Li2  1  0.50000000  0.00000000  0.50000000  1
  Li  Li3  1  0.50000000  0.50000000  0.50000000  1
  Fe  Fe4  1  0.00000000  0.00000000  0.00000000  1
  Fe  Fe5  1  0.00000000  0.50000000  0.00000000  1
  Fe  Fe6  1  0.50000000  0.00000000  0.00000000  1
  Fe  Fe7  1  0.00000000  0.00000000  0.50000000  1
  O  O8  1  0.02335311  0.02335311  0.22664279  1
  O  O9  1  0.98231809  0.48218988  0.27658603  1
  O  O10  1  0.48218988  0.98231809  0.27658603  1
  O  O11  1  0.97664689  0.97664689  0.77335721  1
  O  O12  1  0.50189403  0.50189403  0.24797214  1
  O  O13  1  0.01768191  0.51781012  0.72341397  1
  O  O14  1  0.51781012  0.01768191  0.72341397  1
  O  O15  1  0.49810597  0.49810597  0.75202786  1
