# generated using pymatgen
data_MnVO4
_symmetry_space_group_name_H-M   'P 1'
_cell_length_a   5.82314963
_cell_length_b   5.93619707
_cell_length_c   5.93619707
_cell_angle_alpha   60.42475522
_cell_angle_beta   60.62797998
_cell_angle_gamma   60.62797998
_symmetry_Int_Tables_number   1
_chemical_formula_structural   MnVO4
_chemical_formula_sum   'Mn2 V2 O8'
_cell_volume   146.93257136
_cell_formula_units_Z   2
loop_
 _symmetry_equiv_pos_site_id
 _symmetry_equiv_pos_as_xyz
  1  'x, y, z'
loop_
 _atom_site_type_symbol
 _atom_site_label
 _atom_site_symmetry_multiplicity
 _atom_site_fract_x
 _atom_site_fract_y
 _atom_site_fract_z
 _atom_site_occupancy
  Mn  Mn0  1  0.50000000  0.00000000  0.50000000  1
  Mn  Mn1  1  0.50000000  0.50000000  0.00000000  1
  V  V2  1  0.11796836  0.13203164  0.13203164  1
  V  V3  1  0.88203164  0.86796836  0.86796836  1
  O  O4  1  0.72887696  0.24530564  0.24530564  1
  O  O5  1  0.28051177  0.24530564  0.24530564  1
  O  O6  1  0.76437236  0.20942143  0.76183384  1
  O  O7  1  0.76437236  0.76183384  0.20942143  1
  O  O8  1  0.23562764  0.79057857  0.23816616  1
  O  O9  1  0.23562764  0.23816616  0.79057857  1
  O  O10  1  0.27112304  0.75469436  0.75469436  1
  O  O11  1  0.71948823  0.75469436  0.75469436  1
