# generated using pymatgen
data_NaMg7
_symmetry_space_group_name_H-M   'P 1'
_cell_length_a   6.45385565
_cell_length_b   6.45385511
_cell_length_c   5.29958926
_cell_angle_alpha   90.00000000
_cell_angle_beta   90.00000000
_cell_angle_gamma   120.00000269
_symmetry_Int_Tables_number   1
_chemical_formula_structural   NaMg7
_chemical_formula_sum   'Na1 Mg7'
_cell_volume   191.16628052
_cell_formula_units_Z   1
loop_
 _symmetry_equiv_pos_site_id
 _symmetry_equiv_pos_as_xyz
  1  'x, y, z'
loop_
 _atom_site_type_symbol
 _atom_site_label
 _atom_site_symmetry_multiplicity
 _atom_site_fract_x
 _atom_site_fract_y
 _atom_site_fract_z
 _atom_site_occupancy
  Na  Na0  1  0.16666700  0.33333300  0.25000000  1
  Mg  Mg1  1  0.16737814  0.83368857  0.25000000  1
  Mg  Mg2  1  0.66631143  0.33262186  0.25000000  1
  Mg  Mg3  1  0.66631143  0.83368857  0.25000000  1
  Mg  Mg4  1  0.33403703  0.16596297  0.75000000  1
  Mg  Mg5  1  0.33403703  0.66807505  0.75000000  1
  Mg  Mg6  1  0.83192495  0.16596297  0.75000000  1
  Mg  Mg7  1  0.83333300  0.66666700  0.75000000  1
