# generated using pymatgen
data_TiReN3
_symmetry_space_group_name_H-M   'P 1'
_cell_length_a   5.10440003
_cell_length_b   5.10439999
_cell_length_c   5.57519315
_cell_angle_alpha   62.75618764
_cell_angle_beta   62.75618908
_cell_angle_gamma   59.99999720
_symmetry_Int_Tables_number   1
_chemical_formula_structural   TiReN3
_chemical_formula_sum   'Ti2 Re2 N6'
_cell_volume   106.78808834
_cell_formula_units_Z   2
loop_
 _symmetry_equiv_pos_site_id
 _symmetry_equiv_pos_as_xyz
  1  'x, y, z'
loop_
 _atom_site_type_symbol
 _atom_site_label
 _atom_site_symmetry_multiplicity
 _atom_site_fract_x
 _atom_site_fract_y
 _atom_site_fract_z
 _atom_site_occupancy
  Ti  Ti0  1  0.99381091  0.99381091  0.01856726  1
  Ti  Ti1  1  0.49381091  0.49381091  0.51856726  1
  Re  Re2  1  0.29837115  0.29837115  0.10488654  1
  Re  Re3  1  0.79837115  0.79837115  0.60488654  1
  N  N4  1  0.41206388  0.07125018  0.81047206  1
  N  N5  1  0.70621388  0.41206388  0.81047206  1
  N  N6  1  0.91206388  0.20621388  0.31047206  1
  N  N7  1  0.57125018  0.91206388  0.31047206  1
  N  N8  1  0.07125018  0.70621388  0.81047206  1
  N  N9  1  0.20621388  0.57125018  0.31047206  1
