# generated using pymatgen
data_Al2O3
_symmetry_space_group_name_H-M   'P 1'
_cell_length_a   5.57054233
_cell_length_b   8.37093177
_cell_length_c   5.48333668
_cell_angle_alpha   90.00000000
_cell_angle_beta   58.24086418
_cell_angle_gamma   90.00000000
_symmetry_Int_Tables_number   1
_chemical_formula_structural   Al2O3
_chemical_formula_sum   'Al8 O12'
_cell_volume   217.40633084
_cell_formula_units_Z   4
loop_
 _symmetry_equiv_pos_site_id
 _symmetry_equiv_pos_as_xyz
  1  'x, y, z'
loop_
 _atom_site_type_symbol
 _atom_site_label
 _atom_site_symmetry_multiplicity
 _atom_site_fract_x
 _atom_site_fract_y
 _atom_site_fract_z
 _atom_site_occupancy
  Al  Al0  1  0.94822600  0.04251062  0.28442115  1
  Al  Al1  1  0.94822600  0.45748938  0.78442115  1
  Al  Al2  1  0.53578381  0.34366012  0.70458853  1
  Al  Al3  1  0.46421619  0.84366012  0.79541147  1
  Al  Al4  1  0.53578381  0.15633988  0.20458853  1
  Al  Al5  1  0.46421619  0.65633988  0.29541147  1
  Al  Al6  1  0.05177400  0.54251062  0.21557885  1
  Al  Al7  1  0.05177400  0.95748938  0.71557885  1
  O  O8  1  0.17545964  0.10881023  0.43020151  1
  O  O9  1  0.31898703  0.70526570  0.08135512  1
  O  O10  1  0.17545964  0.39118977  0.93020151  1
  O  O11  1  0.24968089  0.48087610  0.42152760  1
  O  O12  1  0.75031911  0.98087610  0.07847240  1
  O  O13  1  0.31898703  0.79473430  0.58135512  1
  O  O14  1  0.68101297  0.20526570  0.41864488  1
  O  O15  1  0.24968089  0.01912390  0.92152760  1
  O  O16  1  0.75031911  0.51912390  0.57847240  1
  O  O17  1  0.82454036  0.60881023  0.06979849  1
  O  O18  1  0.68101297  0.29473430  0.91864488  1
  O  O19  1  0.82454036  0.89118977  0.56979849  1
