# generated using pymatgen
data_NiPO4
_symmetry_space_group_name_H-M   'P 1'
_cell_length_a   4.76523721
_cell_length_b   4.76523721
_cell_length_c   6.41187073
_cell_angle_alpha   90.00000000
_cell_angle_beta   90.00000000
_cell_angle_gamma   66.25059990
_symmetry_Int_Tables_number   1
_chemical_formula_structural   NiPO4
_chemical_formula_sum   'Ni2 P2 O8'
_cell_volume   133.26764297
_cell_formula_units_Z   2
loop_
 _symmetry_equiv_pos_site_id
 _symmetry_equiv_pos_as_xyz
  1  'x, y, z'
loop_
 _atom_site_type_symbol
 _atom_site_label
 _atom_site_symmetry_multiplicity
 _atom_site_fract_x
 _atom_site_fract_y
 _atom_site_fract_z
 _atom_site_occupancy
  O  O0  1  0.75209498  0.75209609  0.54783815  1
  O  O1  1  0.70972384  0.22037056  0.24999952  1
  O  O2  1  0.22037013  0.70972493  0.24999952  1
  O  O3  1  0.29027519  0.77962919  0.75000017  1
  O  O4  1  0.75209498  0.75209609  0.95216219  1
  O  O5  1  0.24790528  0.24790602  0.45216153  1
  O  O6  1  0.77962890  0.29027481  0.75000017  1
  O  O7  1  0.24790528  0.24790602  0.04783750  1
  P  P8  1  0.35443965  0.35443755  0.24999952  1
  P  P9  1  0.64556151  0.64556224  0.75000017  1
  Ni  Ni10  1  0.00000000  0.00000000  0.50000065  1
  Ni  Ni11  1  0.00000000  0.00000000  0.00000000  1
