# generated using pymatgen
data_FeP2O7
_symmetry_space_group_name_H-M   'P 1'
_cell_length_a   5.23609255
_cell_length_b   5.23609248
_cell_length_c   4.60804535
_cell_angle_alpha   81.79712523
_cell_angle_beta   98.20287460
_cell_angle_gamma   79.47961155
_symmetry_Int_Tables_number   1
_chemical_formula_structural   FeP2O7
_chemical_formula_sum   'Fe1 P2 O7'
_cell_volume   121.08053808
_cell_formula_units_Z   1
loop_
 _symmetry_equiv_pos_site_id
 _symmetry_equiv_pos_as_xyz
  1  'x, y, z'
loop_
 _atom_site_type_symbol
 _atom_site_label
 _atom_site_symmetry_multiplicity
 _atom_site_fract_x
 _atom_site_fract_y
 _atom_site_fract_z
 _atom_site_occupancy
  Fe  Fe0  1  0.11049028  0.11049028  0.00000000  1
  P  P1  1  0.26735701  0.66271121  0.58849739  1
  P  P2  1  0.66271121  0.26735701  0.41150261  1
  O  O3  1  0.54689454  0.54689454  0.50000000  1
  O  O4  1  0.84979664  0.32965083  0.19694614  1
  O  O5  1  0.43418150  0.15875629  0.26568673  1
  O  O6  1  0.32965083  0.84979664  0.80305386  1
  O  O7  1  0.15875629  0.43418150  0.73431327  1
  O  O8  1  0.08454607  0.80235064  0.29756241  1
  O  O9  1  0.80235064  0.08454607  0.70243759  1
