# generated using pymatgen
data_CuPO4
_symmetry_space_group_name_H-M   'P 1'
_cell_length_a   5.51129531
_cell_length_b   6.07291619
_cell_length_c   5.51134157
_cell_angle_alpha   77.14238352
_cell_angle_beta   59.38011599
_cell_angle_gamma   102.85791426
_symmetry_Int_Tables_number   1
_chemical_formula_structural   CuPO4
_chemical_formula_sum   'Cu2 P2 O8'
_cell_volume   141.81883663
_cell_formula_units_Z   2
loop_
 _symmetry_equiv_pos_site_id
 _symmetry_equiv_pos_as_xyz
  1  'x, y, z'
loop_
 _atom_site_type_symbol
 _atom_site_label
 _atom_site_symmetry_multiplicity
 _atom_site_fract_x
 _atom_site_fract_y
 _atom_site_fract_z
 _atom_site_occupancy
  Cu  Cu0  1  0.52606952  0.75000097  0.52606995  1
  Cu  Cu1  1  0.77613614  0.25000023  0.77613469  1
  P  P2  1  0.88929666  0.74999967  0.88929915  1
  P  P3  1  0.13920282  0.25000131  0.13920107  1
  O  O4  1  0.24253650  0.43149037  0.82214737  1
  O  O5  1  0.71990775  0.61366124  0.24058657  1
  O  O6  1  0.24058410  0.88634024  0.71990783  1
  O  O7  1  0.35413157  0.11362524  0.10621572  1
  O  O8  1  0.10622032  0.38637258  0.35413179  1
  O  O9  1  0.81109651  0.56853473  0.75368783  1
  O  O10  1  0.82214506  0.06850838  0.24253629  1
  O  O11  1  0.75368606  0.93146504  0.81109475  1
