# generated using pymatgen
data_FeGe2
_symmetry_space_group_name_H-M   'P 1'
_cell_length_a   6.64425035
_cell_length_b   6.64424985
_cell_length_c   8.24499699
_cell_angle_alpha   90.00000000
_cell_angle_beta   90.00000000
_cell_angle_gamma   104.86121569
_symmetry_Int_Tables_number   1
_chemical_formula_structural   FeGe2
_chemical_formula_sum   'Fe8 Ge16'
_cell_volume   351.80882685
_cell_formula_units_Z   8
loop_
 _symmetry_equiv_pos_site_id
 _symmetry_equiv_pos_as_xyz
  1  'x, y, z'
loop_
 _atom_site_type_symbol
 _atom_site_label
 _atom_site_symmetry_multiplicity
 _atom_site_fract_x
 _atom_site_fract_y
 _atom_site_fract_z
 _atom_site_occupancy
  Fe  Fe0  1  0.69663528  0.69663528  0.68760147  1
  Fe  Fe1  1  0.30336472  0.30336472  0.31239853  1
  Fe  Fe2  1  0.28165272  0.71834728  0.50000000  1
  Fe  Fe3  1  0.78165272  0.21834728  0.00000000  1
  Fe  Fe4  1  0.19663528  0.19663528  0.81239853  1
  Fe  Fe5  1  0.71834728  0.28165272  0.50000000  1
  Fe  Fe6  1  0.21834728  0.78165272  0.00000000  1
  Fe  Fe7  1  0.80336472  0.80336472  0.18760147  1
  Ge  Ge8  1  0.35507906  0.10075082  0.54413428  1
  Ge  Ge9  1  0.91350178  0.16589192  0.26880771  1
  Ge  Ge10  1  0.10075082  0.35507906  0.54413428  1
  Ge  Ge11  1  0.41350178  0.66589192  0.23119229  1
  Ge  Ge12  1  0.83410808  0.08649822  0.73119229  1
  Ge  Ge13  1  0.89924918  0.64492094  0.45586572  1
  Ge  Ge14  1  0.64492094  0.89924918  0.45586572  1
  Ge  Ge15  1  0.60075082  0.85507906  0.95586572  1
  Ge  Ge16  1  0.33410808  0.58649822  0.76880771  1
  Ge  Ge17  1  0.66589192  0.41350178  0.23119229  1
  Ge  Ge18  1  0.39924918  0.14492094  0.04413428  1
  Ge  Ge19  1  0.08649822  0.83410808  0.73119229  1
  Ge  Ge20  1  0.58649822  0.33410808  0.76880771  1
  Ge  Ge21  1  0.16589192  0.91350178  0.26880771  1
  Ge  Ge22  1  0.14492094  0.39924918  0.04413428  1
  Ge  Ge23  1  0.85507906  0.60075082  0.95586572  1
