# generated using pymatgen
data_LiCaMg6
_symmetry_space_group_name_H-M   'P 1'
_cell_length_a   6.62848746
_cell_length_b   6.62848689
_cell_length_c   5.24735760
_cell_angle_alpha   90.00000000
_cell_angle_beta   90.00000000
_cell_angle_gamma   120.47904563
_symmetry_Int_Tables_number   1
_chemical_formula_structural   LiCaMg6
_chemical_formula_sum   'Li1 Ca1 Mg6'
_cell_volume   198.69338585
_cell_formula_units_Z   1
loop_
 _symmetry_equiv_pos_site_id
 _symmetry_equiv_pos_as_xyz
  1  'x, y, z'
loop_
 _atom_site_type_symbol
 _atom_site_label
 _atom_site_symmetry_multiplicity
 _atom_site_fract_x
 _atom_site_fract_y
 _atom_site_fract_z
 _atom_site_occupancy
  Li  Li0  1  0.33751206  0.16248794  0.75000000  1
  Ca  Ca1  1  0.16888799  0.33111201  0.25000000  1
  Mg  Mg2  1  0.17405754  0.83709314  0.25000000  1
  Mg  Mg3  1  0.66290686  0.32594246  0.25000000  1
  Mg  Mg4  1  0.66364615  0.83635385  0.25000000  1
  Mg  Mg5  1  0.33663115  0.67612888  0.75000000  1
  Mg  Mg6  1  0.82387112  0.16336885  0.75000000  1
  Mg  Mg7  1  0.83248712  0.66751288  0.75000000  1
