# generated using pymatgen
data_FeOF
_symmetry_space_group_name_H-M   'P 1'
_cell_length_a   5.95995921
_cell_length_b   5.19461020
_cell_length_c   5.19381337
_cell_angle_alpha   96.21945908
_cell_angle_beta   67.23240922
_cell_angle_gamma   67.03605035
_symmetry_Int_Tables_number   1
_chemical_formula_structural   FeOF
_chemical_formula_sum   'Fe4 O4 F4'
_cell_volume   129.99513665
_cell_formula_units_Z   4
loop_
 _symmetry_equiv_pos_site_id
 _symmetry_equiv_pos_as_xyz
  1  'x, y, z'
loop_
 _atom_site_type_symbol
 _atom_site_label
 _atom_site_symmetry_multiplicity
 _atom_site_fract_x
 _atom_site_fract_y
 _atom_site_fract_z
 _atom_site_occupancy
  Fe  Fe0  1  0.24954827  0.92200494  0.07739970  1
  Fe  Fe1  1  0.75311249  0.66889206  0.32353547  1
  Fe  Fe2  1  0.25374737  0.32444935  0.67058988  1
  Fe  Fe3  1  0.75013059  0.07437618  0.92116779  1
  O  O4  1  0.52293240  0.98442682  0.73685559  1
  O  O5  1  0.98102927  0.25768846  0.00667847  1
  O  O6  1  0.02276745  0.73679971  0.98720104  1
  O  O7  1  0.48024795  0.00712622  0.25814472  1
  F  F8  1  0.49656689  0.49768681  0.00318106  1
  F  F9  1  0.00677410  0.49834755  0.49372946  1
  F  F10  1  0.50443765  0.49556997  0.49684455  1
  F  F11  1  0.99631558  0.00340093  0.49996826  1
