# generated using pymatgen
data_Al2O3
_symmetry_space_group_name_H-M   'P 1'
_cell_length_a   5.63871166
_cell_length_b   5.63349603
_cell_length_c   10.09561684
_cell_angle_alpha   108.19418695
_cell_angle_beta   85.08857286
_cell_angle_gamma   59.59533210
_symmetry_Int_Tables_number   1
_chemical_formula_structural   Al2O3
_chemical_formula_sum   'Al10 O15'
_cell_volume   250.87550473
_cell_formula_units_Z   5
loop_
 _symmetry_equiv_pos_site_id
 _symmetry_equiv_pos_as_xyz
  1  'x, y, z'
loop_
 _atom_site_type_symbol
 _atom_site_label
 _atom_site_symmetry_multiplicity
 _atom_site_fract_x
 _atom_site_fract_y
 _atom_site_fract_z
 _atom_site_occupancy
  Al  Al0  1  0.46467863  0.79036976  0.12165950  1
  Al  Al1  1  0.90588243  0.09483456  0.01535194  1
  Al  Al2  1  0.61331259  0.33839268  0.31321635  1
  Al  Al3  1  0.14114348  0.32555161  0.32928780  1
  Al  Al4  1  0.12304695  0.74717425  0.63103430  1
  Al  Al5  1  0.51173041  0.92109938  0.82392071  1
  Al  Al6  1  0.83708324  0.33639187  0.55784686  1
  Al  Al7  1  0.53104134  0.98660412  0.49537746  1
  Al  Al8  1  0.01964735  0.41892658  0.82630753  1
  Al  Al9  1  0.51067596  0.40556408  0.82053453  1
  O  O10  1  0.61814491  0.48260856  0.16955881  1
  O  O11  1  0.74495272  0.57445119  0.42998589  1
  O  O12  1  0.07389255  0.07097275  0.18180288  1
  O  O13  1  0.51425544  0.08709288  0.20435138  1
  O  O14  1  0.22578469  0.58944825  0.43446943  1
  O  O15  1  0.44778158  0.62567473  0.69069899  1
  O  O16  1  0.90757721  0.61862214  0.69062744  1
  O  O17  1  0.71463004  0.13166706  0.43826978  1
  O  O18  1  0.21264220  0.11607079  0.44333961  1
  O  O19  1  0.12130241  0.67298780  0.92379998  1
  O  O20  1  0.41940843  0.14226364  0.69621079  1
  O  O21  1  0.91155927  0.15512008  0.68935350  1
  O  O22  1  0.61704093  0.66207827  0.92651498  1
  O  O23  1  0.63516009  0.15293605  0.91432105  1
  O  O24  1  0.12762415  0.17309794  0.92215750  1
