# generated using pymatgen
data_RbCoN
_symmetry_space_group_name_H-M   'P 1'
_cell_length_a   10.88834499
_cell_length_b   3.49525682
_cell_length_c   6.48448988
_cell_angle_alpha   90.00000000
_cell_angle_beta   90.00000000
_cell_angle_gamma   90.00000000
_symmetry_Int_Tables_number   1
_chemical_formula_structural   RbCoN
_chemical_formula_sum   'Rb4 Co4 N4'
_cell_volume   246.78387620
_cell_formula_units_Z   4
loop_
 _symmetry_equiv_pos_site_id
 _symmetry_equiv_pos_as_xyz
  1  'x, y, z'
loop_
 _atom_site_type_symbol
 _atom_site_label
 _atom_site_symmetry_multiplicity
 _atom_site_fract_x
 _atom_site_fract_y
 _atom_site_fract_z
 _atom_site_occupancy
  Rb  Rb0  1  0.66288708  0.25000000  0.07876122  1
  Rb  Rb1  1  0.16288708  0.25000000  0.42123878  1
  Rb  Rb2  1  0.33711292  0.75000000  0.92123878  1
  Rb  Rb3  1  0.83711292  0.75000000  0.57876122  1
  Co  Co4  1  0.54454379  0.25000000  0.59329527  1
  Co  Co5  1  0.04454379  0.25000000  0.90670473  1
  Co  Co6  1  0.45545621  0.75000000  0.40670473  1
  Co  Co7  1  0.95545621  0.75000000  0.09329527  1
  N  N8  1  0.93468624  0.25000000  0.14160053  1
  N  N9  1  0.43468624  0.25000000  0.35839947  1
  N  N10  1  0.06531376  0.75000000  0.85839947  1
  N  N11  1  0.56531376  0.75000000  0.64160053  1
