# generated using pymatgen
data_SmGe2
_symmetry_space_group_name_H-M   'P 1'
_cell_length_a   4.08889690
_cell_length_b   4.08889689
_cell_length_c   8.69448689
_cell_angle_alpha   103.60005710
_cell_angle_beta   103.60005706
_cell_angle_gamma   90.00000006
_symmetry_Int_Tables_number   1
_chemical_formula_structural   SmGe2
_chemical_formula_sum   'Sm2 Ge4'
_cell_volume   137.09089562
_cell_formula_units_Z   2
loop_
 _symmetry_equiv_pos_site_id
 _symmetry_equiv_pos_as_xyz
  1  'x, y, z'
loop_
 _atom_site_type_symbol
 _atom_site_label
 _atom_site_symmetry_multiplicity
 _atom_site_fract_x
 _atom_site_fract_y
 _atom_site_fract_z
 _atom_site_occupancy
  Ge  Ge0  1  0.70402750  0.95402750  0.90805499  1
  Ge  Ge1  1  0.45402750  0.20402750  0.40805499  1
  Ge  Ge2  1  0.54597250  0.79597250  0.59194501  1
  Ge  Ge3  1  0.29597250  0.04597250  0.09194501  1
  Sm  Sm4  1  0.87500000  0.62500000  0.25000000  1
  Sm  Sm5  1  0.12500000  0.37500000  0.75000000  1
