# generated using pymatgen
data_LiFeF4
_symmetry_space_group_name_H-M   'P 1'
_cell_length_a   5.20941913
_cell_length_b   5.07091361
_cell_length_c   5.55805447
_cell_angle_alpha   90.00000000
_cell_angle_beta   104.29067061
_cell_angle_gamma   90.00000000
_symmetry_Int_Tables_number   1
_chemical_formula_structural   LiFeF4
_chemical_formula_sum   'Li2 Fe2 F8'
_cell_volume   142.28108162
_cell_formula_units_Z   2
loop_
 _symmetry_equiv_pos_site_id
 _symmetry_equiv_pos_as_xyz
  1  'x, y, z'
loop_
 _atom_site_type_symbol
 _atom_site_label
 _atom_site_symmetry_multiplicity
 _atom_site_fract_x
 _atom_site_fract_y
 _atom_site_fract_z
 _atom_site_occupancy
  Li  Li0  1  0.50000000  0.67250370  0.25000000  1
  Li  Li1  1  0.50000000  0.32749630  0.75000000  1
  Fe  Fe2  1  0.00000000  0.18633639  0.25000000  1
  Fe  Fe3  1  0.00000000  0.81366361  0.75000000  1
  F  F4  1  0.23208380  0.97310098  0.10204467  1
  F  F5  1  0.25144369  0.45397773  0.37255413  1
  F  F6  1  0.23208380  0.02689902  0.60204467  1
  F  F7  1  0.25144369  0.54602227  0.87255413  1
  F  F8  1  0.74855631  0.45397773  0.12744587  1
  F  F9  1  0.76791620  0.97310098  0.39795533  1
  F  F10  1  0.74855631  0.54602227  0.62744587  1
  F  F11  1  0.76791620  0.02689902  0.89795533  1
