# generated using pymatgen
data_ZrBiO4
_symmetry_space_group_name_H-M   'P 1'
_cell_length_a   5.32620843
_cell_length_b   6.59814543
_cell_length_c   5.32620941
_cell_angle_alpha   66.19569313
_cell_angle_beta   90.00000081
_cell_angle_gamma   66.19569471
_symmetry_Int_Tables_number   1
_chemical_formula_structural   ZrBiO4
_chemical_formula_sum   'Zr2 Bi2 O8'
_cell_volume   153.69150948
_cell_formula_units_Z   2
loop_
 _symmetry_equiv_pos_site_id
 _symmetry_equiv_pos_as_xyz
  1  'x, y, z'
loop_
 _atom_site_type_symbol
 _atom_site_label
 _atom_site_symmetry_multiplicity
 _atom_site_fract_x
 _atom_site_fract_y
 _atom_site_fract_z
 _atom_site_occupancy
  Zr  Zr0  1  0.12500000  0.25000000  0.87500000  1
  Zr  Zr1  1  0.87500000  0.75000000  0.12500000  1
  Bi  Bi2  1  0.62500000  0.25000000  0.37500000  1
  Bi  Bi3  1  0.37500000  0.75000000  0.62500000  1
  O  O4  1  0.46182228  0.04147282  0.74090251  1
  O  O5  1  0.99670590  0.04147282  0.21762467  1
  O  O6  1  0.25909749  0.45852718  0.00329410  1
  O  O7  1  0.78237533  0.45852718  0.53817772  1
  O  O8  1  0.21762467  0.54147282  0.46182228  1
  O  O9  1  0.74090251  0.54147282  0.99670590  1
  O  O10  1  0.00329410  0.95852718  0.78237533  1
  O  O11  1  0.53817772  0.95852718  0.25909749  1
