# generated using pymatgen
data_Na2O
_symmetry_space_group_name_H-M   'P 1'
_cell_length_a   6.19425281
_cell_length_b   7.21866638
_cell_length_c   7.21895917
_cell_angle_alpha   95.98067380
_cell_angle_beta   64.59330061
_cell_angle_gamma   149.08497211
_symmetry_Int_Tables_number   1
_chemical_formula_structural   Na2O
_chemical_formula_sum   'Na6 O3'
_cell_volume   123.22298843
_cell_formula_units_Z   3
loop_
 _symmetry_equiv_pos_site_id
 _symmetry_equiv_pos_as_xyz
  1  'x, y, z'
loop_
 _atom_site_type_symbol
 _atom_site_label
 _atom_site_symmetry_multiplicity
 _atom_site_fract_x
 _atom_site_fract_y
 _atom_site_fract_z
 _atom_site_occupancy
  Na  Na0  1  0.10797584  0.85238409  0.06918697  1
  Na  Na1  1  0.17351764  0.76698154  0.65934045  1
  Na  Na2  1  0.14829104  0.48992768  0.93666384  1
  Na  Na3  1  0.34158329  0.66469218  0.25657665  1
  Na  Na4  1  0.95502141  0.01925689  0.40746209  1
  Na  Na5  1  0.31096936  0.24293048  0.67811678  1
  O  O6  1  0.52455275  0.19096310  0.33440961  1
  O  O7  1  0.93024168  0.26329042  0.66777699  1
  O  O8  1  0.39399699  0.39376961  0.00111361  1
