# generated using pymatgen
data_V3FeO8
_symmetry_space_group_name_H-M   'P 1'
_cell_length_a   5.56451357
_cell_length_b   7.36062321
_cell_length_c   5.47957455
_cell_angle_alpha   89.82316502
_cell_angle_beta   90.25728774
_cell_angle_gamma   90.27697459
_symmetry_Int_Tables_number   1
_chemical_formula_structural   V3FeO8
_chemical_formula_sum   'V3 Fe1 O8'
_cell_volume   224.42805185
_cell_formula_units_Z   1
loop_
 _symmetry_equiv_pos_site_id
 _symmetry_equiv_pos_as_xyz
  1  'x, y, z'
loop_
 _atom_site_type_symbol
 _atom_site_label
 _atom_site_symmetry_multiplicity
 _atom_site_fract_x
 _atom_site_fract_y
 _atom_site_fract_z
 _atom_site_occupancy
  V  V0  1  0.07171116  0.12204024  0.00386927  1
  V  V1  1  0.42779523  0.62604186  0.50346603  1
  V  V2  1  0.57459488  0.37578341  0.00262094  1
  Fe  Fe3  1  0.92782781  0.87503892  0.50306367  1
  O  O4  1  0.03154199  0.07350178  0.31268874  1
  O  O5  1  0.12716382  0.67542590  0.43840932  1
  O  O6  1  0.37097454  0.17290292  0.93890998  1
  O  O7  1  0.46788206  0.57629269  0.81173864  1
  O  O8  1  0.52254990  0.44034931  0.33491930  1
  O  O9  1  0.60626114  0.81486630  0.43226234  1
  O  O10  1  0.89759023  0.31162014  0.93302728  1
  O  O11  1  0.97410825  0.93613452  0.83342348  1
