# generated using pymatgen
data_Na2Ti9O19
_symmetry_space_group_name_H-M   'P 1'
_cell_length_a   3.78078955
_cell_length_b   6.56026763
_cell_length_c   15.78901979
_cell_angle_alpha   83.70041238
_cell_angle_beta   83.12356939
_cell_angle_gamma   106.74772103
_symmetry_Int_Tables_number   1
_chemical_formula_structural   Na2Ti9O19
_chemical_formula_sum   'Na2 Ti9 O19'
_cell_volume   367.99689207
_cell_formula_units_Z   1
loop_
 _symmetry_equiv_pos_site_id
 _symmetry_equiv_pos_as_xyz
  1  'x, y, z'
loop_
 _atom_site_type_symbol
 _atom_site_label
 _atom_site_symmetry_multiplicity
 _atom_site_fract_x
 _atom_site_fract_y
 _atom_site_fract_z
 _atom_site_occupancy
  Na  Na0  1  0.00064578  0.00102698  0.99973541  1
  Na  Na1  1  0.21141206  0.91945078  0.49662665  1
  Ti  Ti2  1  0.23795773  0.34150375  0.86558829  1
  Ti  Ti3  1  0.76368585  0.66173964  0.13436794  1
  Ti  Ti4  1  0.51437901  0.72933436  0.70057635  1
  Ti  Ti5  1  0.48987713  0.27818657  0.29843231  1
  Ti  Ti6  1  0.21608991  0.13099483  0.69881501  1
  Ti  Ti7  1  0.78605026  0.87468676  0.30258625  1
  Ti  Ti8  1  0.91781667  0.71684479  0.88121145  1
  Ti  Ti9  1  0.08306345  0.28502237  0.11889547  1
  Ti  Ti10  1  0.49519600  0.49028773  0.49989574  1
  O  O11  1  0.33171072  0.40435109  0.74092965  1
  O  O12  1  0.67080593  0.60101626  0.25940440  1
  O  O13  1  0.32139055  0.23037678  0.58759568  1
  O  O14  1  0.68344804  0.77976894  0.41287286  1
  O  O15  1  0.76293643  0.40011676  0.87424390  1
  O  O16  1  0.23793038  0.60188725  0.12602650  1
  O  O17  1  0.41539088  0.68381738  0.85303562  1
  O  O18  1  0.58513367  0.31835067  0.14808334  1
  O  O19  1  0.67078289  0.04714927  0.70558349  1
  O  O20  1  0.33231412  0.96116233  0.29653409  1
  O  O21  1  0.56088066  0.71236225  0.59060093  1
  O  O22  1  0.44489618  0.29910650  0.40931415  1
  O  O23  1  0.00971136  0.51917900  0.49975627  1
  O  O24  1  0.09495129  0.04960081  0.85969822  1
  O  O25  1  0.90691523  0.95362307  0.13979261  1
  O  O26  1  0.02725052  0.78265741  0.72815638  1
  O  O27  1  0.97665661  0.22470957  0.27139635  1
  O  O28  1  0.84221802  0.67956356  0.99512752  1
  O  O29  1  0.15850267  0.32212253  0.00511719  1
