# generated using pymatgen
data_TiCu3O4
_symmetry_space_group_name_H-M   'P 1'
_cell_length_a   6.08988564
_cell_length_b   6.08988569
_cell_length_c   17.08462683
_cell_angle_alpha   24.54463405
_cell_angle_beta   24.54463306
_cell_angle_gamma   28.34473104
_symmetry_Int_Tables_number   1
_chemical_formula_structural   TiCu3O4
_chemical_formula_sum   'Ti1 Cu3 O4'
_cell_volume   104.11867678
_cell_formula_units_Z   1
loop_
 _symmetry_equiv_pos_site_id
 _symmetry_equiv_pos_as_xyz
  1  'x, y, z'
loop_
 _atom_site_type_symbol
 _atom_site_label
 _atom_site_symmetry_multiplicity
 _atom_site_fract_x
 _atom_site_fract_y
 _atom_site_fract_z
 _atom_site_occupancy
  Ti  Ti0  1  0.43139834  0.43139834  0.87433840  1
  Cu  Cu1  1  0.96421947  0.96421947  0.02925014  1
  Cu  Cu2  1  0.02105835  0.02105835  0.64587480  1
  Cu  Cu3  1  0.65091005  0.65091005  0.40659072  1
  O  O4  1  0.01216533  0.01216533  0.10409240  1
  O  O5  1  0.11413032  0.11413032  0.69096192  1
  O  O6  1  0.95067806  0.95067806  0.58598175  1
  O  O7  1  0.85543908  0.85543908  0.99624187  1
