# generated using pymatgen
data_Ca5Mg
_symmetry_space_group_name_H-M   'P 1'
_cell_length_a   3.81680192
_cell_length_b   3.81680217
_cell_length_c   18.73763552
_cell_angle_alpha   90.00000000
_cell_angle_beta   90.00000000
_cell_angle_gamma   119.99999785
_symmetry_Int_Tables_number   1
_chemical_formula_structural   Ca5Mg
_chemical_formula_sum   'Ca5 Mg1'
_cell_volume   236.39849113
_cell_formula_units_Z   1
loop_
 _symmetry_equiv_pos_site_id
 _symmetry_equiv_pos_as_xyz
  1  'x, y, z'
loop_
 _atom_site_type_symbol
 _atom_site_label
 _atom_site_symmetry_multiplicity
 _atom_site_fract_x
 _atom_site_fract_y
 _atom_site_fract_z
 _atom_site_occupancy
  Ca  Ca0  1  0.66666700  0.33333300  0.85284413  1
  Ca  Ca1  1  0.00000000  0.00000000  0.67535523  1
  Ca  Ca2  1  0.66666700  0.33333300  0.50000000  1
  Ca  Ca3  1  0.00000000  0.00000000  0.32464477  1
  Ca  Ca4  1  0.66666700  0.33333300  0.14715587  1
  Mg  Mg5  1  0.00000000  0.00000000  0.00000000  1
