# generated using pymatgen
data_Zn2Ni3O5
_symmetry_space_group_name_H-M   'P 1'
_cell_length_a   5.21544613
_cell_length_b   4.26075146
_cell_length_c   5.23622254
_cell_angle_alpha   113.97019856
_cell_angle_beta   80.20412402
_cell_angle_gamma   114.12636015
_symmetry_Int_Tables_number   1
_chemical_formula_structural   Zn2Ni3O5
_chemical_formula_sum   'Zn2 Ni3 O5'
_cell_volume   97.03394527
_cell_formula_units_Z   1
loop_
 _symmetry_equiv_pos_site_id
 _symmetry_equiv_pos_as_xyz
  1  'x, y, z'
loop_
 _atom_site_type_symbol
 _atom_site_label
 _atom_site_symmetry_multiplicity
 _atom_site_fract_x
 _atom_site_fract_y
 _atom_site_fract_z
 _atom_site_occupancy
  Zn  Zn0  1  0.00008797  0.00205801  0.00078489  1
  Zn  Zn1  1  0.79791847  0.20028575  0.60019662  1
  Ni  Ni2  1  0.39928605  0.60040900  0.80017844  1
  Ni  Ni3  1  0.20021034  0.80135252  0.40003687  1
  Ni  Ni4  1  0.59766423  0.40083634  0.20113476  1
  O  O5  1  0.00250963  0.50669932  0.00776135  1
  O  O6  1  0.39898960  0.10043573  0.80026476  1
  O  O7  1  0.20541554  0.30739239  0.40646823  1
  O  O8  1  0.79616724  0.69606256  0.59376154  1
  O  O9  1  0.59233193  0.89576438  0.19530654  1
