# generated using pymatgen
data_Fe4O5F3
_symmetry_space_group_name_H-M   'P 1'
_cell_length_a   5.64000113
_cell_length_b   5.64000113
_cell_length_c   5.64000113
_cell_angle_alpha   69.24593248
_cell_angle_beta   102.65173308
_cell_angle_gamma   64.74686318
_symmetry_Int_Tables_number   1
_chemical_formula_structural   Fe4O5F3
_chemical_formula_sum   'Fe4 O5 F3'
_cell_volume   136.42354701
_cell_formula_units_Z   1
loop_
 _symmetry_equiv_pos_site_id
 _symmetry_equiv_pos_as_xyz
  1  'x, y, z'
loop_
 _atom_site_type_symbol
 _atom_site_label
 _atom_site_symmetry_multiplicity
 _atom_site_fract_x
 _atom_site_fract_y
 _atom_site_fract_z
 _atom_site_occupancy
  Fe  Fe0  1  0.73874635  0.75000000  0.48874635  1
  Fe  Fe1  1  0.27809688  0.25000000  0.52809688  1
  Fe  Fe2  1  0.49896056  0.49120447  0.99016503  1
  Fe  Fe3  1  0.98136951  0.00879553  0.99016503  1
  O  O4  1  0.56297420  0.25000000  0.81297420  1
  O  O5  1  0.49478712  0.81168340  0.69569656  1
  O  O6  1  0.00737996  0.29909055  0.69569656  1
  O  O7  1  0.49478712  0.20090945  0.30647051  1
  O  O8  1  0.00737996  0.68831660  0.30647051  1
  F  F9  1  0.05477686  0.75000000  0.80477686  1
  F  F10  1  0.94246111  0.25000000  0.19246111  1
  F  F11  1  0.43828138  0.75000000  0.18828138  1
