# generated using pymatgen
data_Li3V2O6
_symmetry_space_group_name_H-M   'P 1'
_cell_length_a   6.57432322
_cell_length_b   5.09131040
_cell_length_c   9.68408858
_cell_angle_alpha   84.79646898
_cell_angle_beta   41.16492509
_cell_angle_gamma   50.61295230
_symmetry_Int_Tables_number   1
_chemical_formula_structural   Li3V2O6
_chemical_formula_sum   'Li3 V2 O6'
_cell_volume   107.03095681
_cell_formula_units_Z   1
loop_
 _symmetry_equiv_pos_site_id
 _symmetry_equiv_pos_as_xyz
  1  'x, y, z'
loop_
 _atom_site_type_symbol
 _atom_site_label
 _atom_site_symmetry_multiplicity
 _atom_site_fract_x
 _atom_site_fract_y
 _atom_site_fract_z
 _atom_site_occupancy
  Li  Li0  1  0.01071897  0.49823963  0.99581352  1
  Li  Li1  1  0.30649995  0.49611184  0.34797164  1
  Li  Li2  1  0.70369997  0.49880140  0.64534498  1
  V  V3  1  0.17687224  0.98584401  0.16689355  1
  V  V4  1  0.82463372  0.02435291  0.83251276  1
  O  O5  1  0.35736926  0.15771974  0.19140328  1
  O  O6  1  0.67073445  0.83237720  0.79766247  1
  O  O7  1  0.20383223  0.66721265  0.03483663  1
  O  O8  1  0.58092851  0.30225984  0.57321148  1
  O  O9  1  0.41974002  0.70089038  0.42505097  1
  O  O10  1  0.84327569  0.28151140  0.94154573  1
