# generated using pymatgen
data_LiCoS2
_symmetry_space_group_name_H-M   'P 1'
_cell_length_a   7.80428184
_cell_length_b   3.41253178
_cell_length_c   4.50180657
_cell_angle_alpha   89.99674812
_cell_angle_beta   90.00207151
_cell_angle_gamma   89.53750939
_symmetry_Int_Tables_number   1
_chemical_formula_structural   LiCoS2
_chemical_formula_sum   'Li2 Co2 S4'
_cell_volume   119.88982628
_cell_formula_units_Z   2
loop_
 _symmetry_equiv_pos_site_id
 _symmetry_equiv_pos_as_xyz
  1  'x, y, z'
loop_
 _atom_site_type_symbol
 _atom_site_label
 _atom_site_symmetry_multiplicity
 _atom_site_fract_x
 _atom_site_fract_y
 _atom_site_fract_z
 _atom_site_occupancy
  Li  Li0  1  0.12406488  0.01575317  0.25208714  1
  Li  Li1  1  0.87593937  0.98424405  0.75197432  1
  Co  Co2  1  0.37012560  0.75725714  0.74954977  1
  Co  Co3  1  0.62991214  0.24275537  0.24954972  1
  S  S4  1  0.17413590  0.25994122  0.75016872  1
  S  S5  1  0.44397376  0.75091098  0.24996247  1
  S  S6  1  0.55600693  0.24908024  0.74995859  1
  S  S7  1  0.82584142  0.74005783  0.25012328  1
