# generated using pymatgen
data_MgH2
_symmetry_space_group_name_H-M   'P 1'
_cell_length_a   3.11332935
_cell_length_b   5.30076798
_cell_length_c   5.99679548
_cell_angle_alpha   90.00000000
_cell_angle_beta   90.00000000
_cell_angle_gamma   90.00000000
_symmetry_Int_Tables_number   1
_chemical_formula_structural   MgH2
_chemical_formula_sum   'Mg4 H8'
_cell_volume   98.96533487
_cell_formula_units_Z   4
loop_
 _symmetry_equiv_pos_site_id
 _symmetry_equiv_pos_as_xyz
  1  'x, y, z'
loop_
 _atom_site_type_symbol
 _atom_site_label
 _atom_site_symmetry_multiplicity
 _atom_site_fract_x
 _atom_site_fract_y
 _atom_site_fract_z
 _atom_site_occupancy
  H  H0  1  0.25000000  0.47739387  0.83308812  1
  H  H1  1  0.75000000  0.52260613  0.16691188  1
  H  H2  1  0.25000000  0.97739387  0.66691188  1
  H  H3  1  0.75000000  0.02260613  0.33308812  1
  H  H4  1  0.75000000  0.63910294  0.57465643  1
  H  H5  1  0.25000000  0.36089706  0.42534357  1
  H  H6  1  0.75000000  0.13910294  0.92534357  1
  H  H7  1  0.25000000  0.86089706  0.07465643  1
  Mg  Mg8  1  0.25000000  0.74848410  0.39674144  1
  Mg  Mg9  1  0.75000000  0.25151590  0.60325856  1
  Mg  Mg10  1  0.25000000  0.24848410  0.10325856  1
  Mg  Mg11  1  0.75000000  0.75151590  0.89674144  1
