# generated using pymatgen
data_Sr2Mn3(SbO)2
_symmetry_space_group_name_H-M   'P 1'
_cell_length_a   4.34505271
_cell_length_b   4.34505272
_cell_length_c   10.73211478
_cell_angle_alpha   101.67922769
_cell_angle_beta   101.67922771
_cell_angle_gamma   90.00000000
_symmetry_Int_Tables_number   1
_chemical_formula_structural   Sr2Mn3(SbO)2
_chemical_formula_sum   'Sr2 Mn3 Sb2 O2'
_cell_volume   194.13630842
_cell_formula_units_Z   1
loop_
 _symmetry_equiv_pos_site_id
 _symmetry_equiv_pos_as_xyz
  1  'x, y, z'
loop_
 _atom_site_type_symbol
 _atom_site_label
 _atom_site_symmetry_multiplicity
 _atom_site_fract_x
 _atom_site_fract_y
 _atom_site_fract_z
 _atom_site_occupancy
  O  O0  1  0.99999913  0.49999944  0.00000024  1
  O  O1  1  0.50000086  0.99999999  0.00000042  1
  Mn  Mn2  1  0.00000000  0.00000000  0.00000000  1
  Mn  Mn3  1  0.75000033  0.25000094  0.50000021  1
  Mn  Mn4  1  0.25000110  0.75000039  0.50000022  1
  Sr  Sr5  1  0.42160919  0.42160891  0.84321781  1
  Sr  Sr6  1  0.57839225  0.57839242  0.15678262  1
  Sb  Sb7  1  0.83911593  0.83911574  0.67823239  1
  Sb  Sb8  1  0.16088292  0.16088311  0.32176669  1
