# generated using pymatgen
data_Sr2ZnCu2(SO)2
_symmetry_space_group_name_H-M   'P 1'
_cell_length_a   4.03286971
_cell_length_b   4.03286970
_cell_length_c   9.36401820
_cell_angle_alpha   102.43539483
_cell_angle_beta   102.43539481
_cell_angle_gamma   90.00000003
_symmetry_Int_Tables_number   1
_chemical_formula_structural   Sr2ZnCu2(SO)2
_chemical_formula_sum   'Sr2 Zn1 Cu2 S2 O2'
_cell_volume   145.06283679
_cell_formula_units_Z   1
loop_
 _symmetry_equiv_pos_site_id
 _symmetry_equiv_pos_as_xyz
  1  'x, y, z'
loop_
 _atom_site_type_symbol
 _atom_site_label
 _atom_site_symmetry_multiplicity
 _atom_site_fract_x
 _atom_site_fract_y
 _atom_site_fract_z
 _atom_site_occupancy
  O  O0  1  0.50000000  0.00000000  0.00000000  1
  O  O1  1  0.00000000  0.50000000  0.00000000  1
  S  S2  1  0.82604614  0.82604614  0.65209228  1
  S  S3  1  0.17395386  0.17395386  0.34790772  1
  Cu  Cu4  1  0.75000000  0.25000000  0.50000000  1
  Cu  Cu5  1  0.25000000  0.75000000  0.50000000  1
  Zn  Zn6  1  0.00000000  0.00000000  0.00000000  1
  Sr  Sr7  1  0.59238977  0.59238977  0.18477955  1
  Sr  Sr8  1  0.40761023  0.40761023  0.81522045  1
