# generated using pymatgen
data_Be2RhAu
_symmetry_space_group_name_H-M   'P 1'
_cell_length_a   4.05214007
_cell_length_b   4.05216080
_cell_length_c   4.05218354
_cell_angle_alpha   60.00045556
_cell_angle_beta   60.00057257
_cell_angle_gamma   60.00059554
_symmetry_Int_Tables_number   1
_chemical_formula_structural   Be2RhAu
_chemical_formula_sum   'Be2 Rh1 Au1'
_cell_volume   47.04901764
_cell_formula_units_Z   1
loop_
 _symmetry_equiv_pos_site_id
 _symmetry_equiv_pos_as_xyz
  1  'x, y, z'
loop_
 _atom_site_type_symbol
 _atom_site_label
 _atom_site_symmetry_multiplicity
 _atom_site_fract_x
 _atom_site_fract_y
 _atom_site_fract_z
 _atom_site_occupancy
  Be  Be0  1  0.49999891  0.49999846  0.49999982  1
  Be  Be1  1  0.00000125  0.99999934  0.00000036  1
  Rh  Rh2  1  0.75000088  0.75000248  0.75000040  1
  Au  Au3  1  0.24999996  0.25000072  0.25000042  1
