# generated using pymatgen
data_Li4NbO4
_symmetry_space_group_name_H-M   'P 1'
_cell_length_a   5.71635896
_cell_length_b   5.71635896
_cell_length_c   5.71635896
_cell_angle_alpha   94.87688302
_cell_angle_beta   94.87688302
_cell_angle_gamma   146.09567215
_symmetry_Int_Tables_number   1
_chemical_formula_structural   Li4NbO4
_chemical_formula_sum   'Li4 Nb1 O4'
_cell_volume   99.66669761
_cell_formula_units_Z   1
loop_
 _symmetry_equiv_pos_site_id
 _symmetry_equiv_pos_as_xyz
  1  'x, y, z'
loop_
 _atom_site_type_symbol
 _atom_site_label
 _atom_site_symmetry_multiplicity
 _atom_site_fract_x
 _atom_site_fract_y
 _atom_site_fract_z
 _atom_site_occupancy
  Li  Li0  1  0.84119569  0.66363216  0.50482784  1
  Li  Li1  1  0.66363216  0.15880431  0.82243647  1
  Li  Li2  1  0.33636784  0.84119569  0.17756353  1
  Li  Li3  1  0.15880431  0.33636784  0.49517216  1
  Nb  Nb4  1  0.00000000  0.00000000  0.00000000  1
  O  O5  1  0.92181094  0.24271064  0.16452158  1
  O  O6  1  0.24271064  0.07818906  0.32089870  1
  O  O7  1  0.75728936  0.92181094  0.67910130  1
  O  O8  1  0.07818906  0.75728936  0.83547842  1
