# generated using pymatgen
data_YAl3O6
_symmetry_space_group_name_H-M   'P 1'
_cell_length_a   7.39284775
_cell_length_b   7.39284775
_cell_length_c   5.88754678
_cell_angle_alpha   65.26392040
_cell_angle_beta   65.26392040
_cell_angle_gamma   77.78849942
_symmetry_Int_Tables_number   1
_chemical_formula_structural   YAl3O6
_chemical_formula_sum   'Y2 Al6 O12'
_cell_volume   265.17945972
_cell_formula_units_Z   2
loop_
 _symmetry_equiv_pos_site_id
 _symmetry_equiv_pos_as_xyz
  1  'x, y, z'
loop_
 _atom_site_type_symbol
 _atom_site_label
 _atom_site_symmetry_multiplicity
 _atom_site_fract_x
 _atom_site_fract_y
 _atom_site_fract_z
 _atom_site_occupancy
  Y  Y0  1  0.26114626  0.73885374  0.25000000  1
  Y  Y1  1  0.73885374  0.26114626  0.75000000  1
  Al  Al2  1  0.20808144  0.35689142  0.18994666  1
  Al  Al3  1  0.82675401  0.17324599  0.25000000  1
  Al  Al4  1  0.35689142  0.20808144  0.68994666  1
  Al  Al5  1  0.64310858  0.79191856  0.31005334  1
  Al  Al6  1  0.17324599  0.82675401  0.75000000  1
  Al  Al7  1  0.79191856  0.64310858  0.81005334  1
  O  O8  1  0.38764582  0.27513011  0.93320240  1
  O  O9  1  0.84383383  0.38697531  0.96084575  1
  O  O10  1  0.78754821  0.00678649  0.12520351  1
  O  O11  1  0.27513011  0.38764582  0.43320240  1
  O  O12  1  0.99321351  0.21245179  0.37479649  1
  O  O13  1  0.61302469  0.15616617  0.53915425  1
  O  O14  1  0.38697531  0.84383383  0.46084575  1
  O  O15  1  0.00678649  0.78754821  0.62520351  1
  O  O16  1  0.72486989  0.61235418  0.56679760  1
  O  O17  1  0.21245179  0.99321351  0.87479649  1
  O  O18  1  0.15616617  0.61302469  0.03915425  1
  O  O19  1  0.61235418  0.72486989  0.06679760  1
