# generated using pymatgen
data_TiMn2O6
_symmetry_space_group_name_H-M   'P 1'
_cell_length_a   15.07540933
_cell_length_b   9.60612540
_cell_length_c   9.60612551
_cell_angle_alpha   17.70700242
_cell_angle_beta   17.08931954
_cell_angle_gamma   17.08931782
_symmetry_Int_Tables_number   1
_chemical_formula_structural   TiMn2O6
_chemical_formula_sum   'Ti1 Mn2 O6'
_cell_volume   107.19590867
_cell_formula_units_Z   1
loop_
 _symmetry_equiv_pos_site_id
 _symmetry_equiv_pos_as_xyz
  1  'x, y, z'
loop_
 _atom_site_type_symbol
 _atom_site_label
 _atom_site_symmetry_multiplicity
 _atom_site_fract_x
 _atom_site_fract_y
 _atom_site_fract_z
 _atom_site_occupancy
  Ti  Ti0  1  0.66666700  0.00000000  0.00000000  1
  Mn  Mn1  1  0.99691830  0.00236816  0.00236816  1
  Mn  Mn2  1  0.33641470  0.99763184  0.99763184  1
  O  O3  1  0.23444915  0.27335451  0.27335451  1
  O  O4  1  0.57961208  0.26477148  0.26477148  1
  O  O5  1  0.09888385  0.72664549  0.72664549  1
  O  O6  1  0.91813635  0.26045606  0.26045606  1
  O  O7  1  0.41519665  0.73954394  0.73954394  1
  O  O8  1  0.75372092  0.73522852  0.73522852  1
