# generated using pymatgen
data_RbOsO3
_symmetry_space_group_name_H-M   'P 1'
_cell_length_a   3.97350359
_cell_length_b   3.97368882
_cell_length_c   3.97509715
_cell_angle_alpha   89.99929930
_cell_angle_beta   89.99927362
_cell_angle_gamma   90.00005306
_symmetry_Int_Tables_number   1
_chemical_formula_structural   RbOsO3
_chemical_formula_sum   'Rb1 Os1 O3'
_cell_volume   62.76466444
_cell_formula_units_Z   1
loop_
 _symmetry_equiv_pos_site_id
 _symmetry_equiv_pos_as_xyz
  1  'x, y, z'
loop_
 _atom_site_type_symbol
 _atom_site_label
 _atom_site_symmetry_multiplicity
 _atom_site_fract_x
 _atom_site_fract_y
 _atom_site_fract_z
 _atom_site_occupancy
  Rb  Rb0  1  0.00014246  0.01134537  0.00229913  1
  Os  Os1  1  0.49997541  0.51217285  0.50216950  1
  O  O2  1  0.00001551  0.51285459  0.50266723  1
  O  O3  1  0.49954172  0.01232634  0.50094799  1
  O  O4  1  0.50032390  0.51129786  0.00191515  1
