# generated using pymatgen
data_LiB
_symmetry_space_group_name_H-M   'P 1'
_cell_length_a   3.07966932
_cell_length_b   5.71539689
_cell_length_c   6.15039540
_cell_angle_alpha   90.00000000
_cell_angle_beta   90.00000000
_cell_angle_gamma   90.00000000
_symmetry_Int_Tables_number   1
_chemical_formula_structural   LiB
_chemical_formula_sum   'Li4 B4'
_cell_volume   108.25638424
_cell_formula_units_Z   4
loop_
 _symmetry_equiv_pos_site_id
 _symmetry_equiv_pos_as_xyz
  1  'x, y, z'
loop_
 _atom_site_type_symbol
 _atom_site_label
 _atom_site_symmetry_multiplicity
 _atom_site_fract_x
 _atom_site_fract_y
 _atom_site_fract_z
 _atom_site_occupancy
  Li  Li0  1  0.25000000  0.24221331  0.25665149  1
  Li  Li1  1  0.75000000  0.75778669  0.74334851  1
  Li  Li2  1  0.75000000  0.74221331  0.24334851  1
  Li  Li3  1  0.25000000  0.25778669  0.75665149  1
  B  B4  1  0.25000000  0.52691379  0.49929494  1
  B  B5  1  0.75000000  0.47308621  0.50070506  1
  B  B6  1  0.75000000  0.02691379  0.00070506  1
  B  B7  1  0.25000000  0.97308621  0.99929494  1
