# generated using pymatgen
data_Mg6ZnBi
_symmetry_space_group_name_H-M   'P 1'
_cell_length_a   6.33111826
_cell_length_b   6.33111776
_cell_length_c   5.33895838
_cell_angle_alpha   90.00000000
_cell_angle_beta   90.00000000
_cell_angle_gamma   121.00624290
_symmetry_Int_Tables_number   1
_chemical_formula_structural   Mg6ZnBi
_chemical_formula_sum   'Mg6 Zn1 Bi1'
_cell_volume   183.42330359
_cell_formula_units_Z   1
loop_
 _symmetry_equiv_pos_site_id
 _symmetry_equiv_pos_as_xyz
  1  'x, y, z'
loop_
 _atom_site_type_symbol
 _atom_site_label
 _atom_site_symmetry_multiplicity
 _atom_site_fract_x
 _atom_site_fract_y
 _atom_site_fract_z
 _atom_site_occupancy
  Mg  Mg0  1  0.16326193  0.82509167  0.25000000  1
  Mg  Mg1  1  0.67490833  0.33673807  0.25000000  1
  Mg  Mg2  1  0.66802314  0.83197686  0.25000000  1
  Mg  Mg3  1  0.33364911  0.65847595  0.75000000  1
  Mg  Mg4  1  0.84152405  0.16635089  0.75000000  1
  Mg  Mg5  1  0.83264933  0.66735067  0.75000000  1
  Zn  Zn6  1  0.15017272  0.34982728  0.25000000  1
  Bi  Bi7  1  0.33581139  0.16418861  0.75000000  1
