# generated using pymatgen
data_CoCu2O3
_symmetry_space_group_name_H-M   'P 1'
_cell_length_a   3.34675940
_cell_length_b   3.94128855
_cell_length_c   9.63143083
_cell_angle_alpha   90.00000000
_cell_angle_beta   90.00000000
_cell_angle_gamma   90.00000000
_symmetry_Int_Tables_number   1
_chemical_formula_structural   CoCu2O3
_chemical_formula_sum   'Co2 Cu4 O6'
_cell_volume   127.04381699
_cell_formula_units_Z   2
loop_
 _symmetry_equiv_pos_site_id
 _symmetry_equiv_pos_as_xyz
  1  'x, y, z'
loop_
 _atom_site_type_symbol
 _atom_site_label
 _atom_site_symmetry_multiplicity
 _atom_site_fract_x
 _atom_site_fract_y
 _atom_site_fract_z
 _atom_site_occupancy
  O  O0  1  0.89031008  0.25000100  0.41024427  1
  O  O1  1  0.89031008  0.25000100  0.08975573  1
  O  O2  1  0.10969092  0.75000000  0.58975573  1
  O  O3  1  0.10969092  0.75000000  0.91024527  1
  O  O4  1  0.48988945  0.75000000  0.25000000  1
  O  O5  1  0.51011155  0.25000100  0.75000000  1
  Co  Co6  1  0.69421837  0.75000000  0.75000000  1
  Co  Co7  1  0.30577963  0.25000100  0.25000000  1
  Cu  Cu8  1  0.18659836  0.25000100  0.91433623  1
  Cu  Cu9  1  0.18659836  0.25000100  0.58566377  1
  Cu  Cu10  1  0.81340264  0.75000000  0.08566377  1
  Cu  Cu11  1  0.81340264  0.75000000  0.41433723  1
