# generated using pymatgen
data_NaCuO2
_symmetry_space_group_name_H-M   'P 1'
_cell_length_a   2.79490796
_cell_length_b   5.97476528
_cell_length_c   7.10464826
_cell_angle_alpha   90.00000000
_cell_angle_beta   90.00000000
_cell_angle_gamma   103.52635596
_symmetry_Int_Tables_number   1
_chemical_formula_structural   NaCuO2
_chemical_formula_sum   'Na2 Cu2 O4'
_cell_volume   115.34916249
_cell_formula_units_Z   2
loop_
 _symmetry_equiv_pos_site_id
 _symmetry_equiv_pos_as_xyz
  1  'x, y, z'
loop_
 _atom_site_type_symbol
 _atom_site_label
 _atom_site_symmetry_multiplicity
 _atom_site_fract_x
 _atom_site_fract_y
 _atom_site_fract_z
 _atom_site_occupancy
  Na  Na0  1  0.60806040  0.21612180  0.38648181  1
  Na  Na1  1  0.39193960  0.78387820  0.88648181  1
  Cu  Cu2  1  0.14523742  0.29047483  0.98595275  1
  Cu  Cu3  1  0.85476258  0.70952517  0.48595275  1
  O  O4  1  0.55264684  0.10529269  0.07096988  1
  O  O5  1  0.73689611  0.47379222  0.90340656  1
  O  O6  1  0.26310389  0.52620778  0.40340656  1
  O  O7  1  0.44735316  0.89470731  0.57096988  1
