# generated using pymatgen
data_SrTa2H2O7
_symmetry_space_group_name_H-M   'P 1'
_cell_length_a   3.98444895
_cell_length_b   3.98444858
_cell_length_c   9.90515488
_cell_angle_alpha   101.60305528
_cell_angle_beta   101.60305181
_cell_angle_gamma   89.99999859
_symmetry_Int_Tables_number   1
_chemical_formula_structural   SrTa2H2O7
_chemical_formula_sum   'Sr1 Ta2 H2 O7'
_cell_volume   150.75703097
_cell_formula_units_Z   1
loop_
 _symmetry_equiv_pos_site_id
 _symmetry_equiv_pos_as_xyz
  1  'x, y, z'
loop_
 _atom_site_type_symbol
 _atom_site_label
 _atom_site_symmetry_multiplicity
 _atom_site_fract_x
 _atom_site_fract_y
 _atom_site_fract_z
 _atom_site_occupancy
  Sr  Sr0  1  -0.00000000  -0.00000000  -0.00000000  1
  Ta  Ta1  1  0.60947822  0.60947822  0.21895643  1
  Ta  Ta2  1  0.39052178  0.39052178  0.78104357  1
  H  H3  1  0.75961113  0.75961113  0.51922127  1
  H  H4  1  0.24038887  0.24038887  0.48077873  1
  O  O5  1  0.50000000  0.50000000  -0.00000000  1
  O  O6  1  0.29123255  0.29123255  0.58246511  1
  O  O7  1  0.70876745  0.70876745  0.41753489  1
  O  O8  1  0.40131328  0.90131328  0.80262555  1
  O  O9  1  0.90131328  0.40131328  0.80262555  1
  O  O10  1  0.09868672  0.59868672  0.19737445  1
  O  O11  1  0.59868672  0.09868672  0.19737445  1
