# generated using pymatgen
data_Nd2NiIr
_symmetry_space_group_name_H-M   'P 1'
_cell_length_a   5.00590018
_cell_length_b   5.00589532
_cell_length_c   5.00589800
_cell_angle_alpha   60.00005668
_cell_angle_beta   59.99996762
_cell_angle_gamma   59.99998486
_symmetry_Int_Tables_number   1
_chemical_formula_structural   Nd2NiIr
_chemical_formula_sum   'Nd2 Ni1 Ir1'
_cell_volume   88.70150268
_cell_formula_units_Z   1
loop_
 _symmetry_equiv_pos_site_id
 _symmetry_equiv_pos_as_xyz
  1  'x, y, z'
loop_
 _atom_site_type_symbol
 _atom_site_label
 _atom_site_symmetry_multiplicity
 _atom_site_fract_x
 _atom_site_fract_y
 _atom_site_fract_z
 _atom_site_occupancy
  Nd  Nd0  1  0.99999969  0.00000014  -0.00000006  1
  Nd  Nd1  1  0.49999940  0.49999854  0.49999948  1
  Ni  Ni2  1  0.75000111  0.75000112  0.75000051  1
  Ir  Ir3  1  0.24999979  0.25000021  0.25000006  1
