# generated using pymatgen
data_FeAs2O7
_symmetry_space_group_name_H-M   'P 1'
_cell_length_a   5.33954921
_cell_length_b   5.33954921
_cell_length_c   4.83616972
_cell_angle_alpha   81.66796974
_cell_angle_beta   98.33203028
_cell_angle_gamma   79.30833568
_symmetry_Int_Tables_number   1
_chemical_formula_structural   FeAs2O7
_chemical_formula_sum   'Fe1 As2 O7'
_cell_volume   131.94992425
_cell_formula_units_Z   1
loop_
 _symmetry_equiv_pos_site_id
 _symmetry_equiv_pos_as_xyz
  1  'x, y, z'
loop_
 _atom_site_type_symbol
 _atom_site_label
 _atom_site_symmetry_multiplicity
 _atom_site_fract_x
 _atom_site_fract_y
 _atom_site_fract_z
 _atom_site_occupancy
  O  O0  1  0.82773635  0.05055570  0.71844893  1
  O  O1  1  0.86305243  0.34454530  0.16638868  1
  O  O2  1  0.42284674  0.13268937  0.27263515  1
  O  O3  1  0.05055570  0.82773635  0.28155107  1
  O  O4  1  0.34454530  0.86305243  0.83361132  1
  O  O5  1  0.13268937  0.42284674  0.72736485  1
  O  O6  1  0.56082615  0.56082615  0.50000000  1
  Fe  Fe7  1  0.11513305  0.11513305  0.00000000  1
  As  As8  1  0.67621573  0.25384918  0.40802162  1
  As  As9  1  0.25384918  0.67621573  0.59197838  1
