# generated using pymatgen
data_Li4Fe3O8
_symmetry_space_group_name_H-M   'P 1'
_cell_length_a   10.31907131
_cell_length_b   10.31906880
_cell_length_c   14.63392487
_cell_angle_alpha   19.01531975
_cell_angle_beta   19.01530965
_cell_angle_gamma   32.77911568
_symmetry_Int_Tables_number   1
_chemical_formula_structural   Li4Fe3O8
_chemical_formula_sum   'Li4 Fe3 O8'
_cell_volume   143.26436605
_cell_formula_units_Z   1
loop_
 _symmetry_equiv_pos_site_id
 _symmetry_equiv_pos_as_xyz
  1  'x, y, z'
loop_
 _atom_site_type_symbol
 _atom_site_label
 _atom_site_symmetry_multiplicity
 _atom_site_fract_x
 _atom_site_fract_y
 _atom_site_fract_z
 _atom_site_occupancy
  Li  Li0  1  0.00000185  0.99999480  0.00000180  1
  Li  Li1  1  -0.00000131  0.50000361  0.49999712  1
  Li  Li2  1  0.49999888  0.99999257  0.50000635  1
  Li  Li3  1  0.50000866  0.50000190  0.49999319  1
  Fe  Fe4  1  0.99997829  0.50000268  0.00001165  1
  Fe  Fe5  1  0.49996977  -0.00004271  0.00004843  1
  Fe  Fe6  1  0.50002435  0.49999960  -0.00001126  1
  O  O7  1  0.00001552  0.00001953  0.24799073  1
  O  O8  1  0.00004568  0.47495091  0.28105767  1
  O  O9  1  0.47493676  0.00004380  0.28107153  1
  O  O10  1  0.99998824  -0.00001187  0.75200080  1
  O  O11  1  0.52509495  0.52509962  0.23092626  1
  O  O12  1  0.99995802  0.52507134  0.71892114  1
  O  O13  1  0.52506664  0.99995719  0.71892629  1
  O  O14  1  0.47491470  0.47491703  0.76905730  1
