# generated using pymatgen
data_NaHCO2
_symmetry_space_group_name_H-M   'P 1'
_cell_length_a   4.67552687
_cell_length_b   4.67552687
_cell_length_c   6.23459197
_cell_angle_alpha   107.33094254
_cell_angle_beta   107.33094251
_cell_angle_gamma   95.24816341
_symmetry_Int_Tables_number   1
_chemical_formula_structural   NaHCO2
_chemical_formula_sum   'Na2 H2 C2 O4'
_cell_volume   121.74450898
_cell_formula_units_Z   2
loop_
 _symmetry_equiv_pos_site_id
 _symmetry_equiv_pos_as_xyz
  1  'x, y, z'
loop_
 _atom_site_type_symbol
 _atom_site_label
 _atom_site_symmetry_multiplicity
 _atom_site_fract_x
 _atom_site_fract_y
 _atom_site_fract_z
 _atom_site_occupancy
  H  H0  1  0.43770356  0.56229644  0.25000000  1
  H  H1  1  0.56229644  0.43770356  0.75000000  1
  C  C2  1  0.27657766  0.72342234  0.25000000  1
  C  C3  1  0.72342234  0.27657766  0.75000000  1
  O  O4  1  0.32962482  0.94550379  0.18030989  1
  O  O5  1  0.05449621  0.67037518  0.31969011  1
  O  O6  1  0.94550379  0.32962482  0.68030989  1
  O  O7  1  0.67037518  0.05449621  0.81969011  1
  Na  Na8  1  0.86252788  0.13747212  0.25000000  1
  Na  Na9  1  0.13747212  0.86252788  0.75000000  1
