# generated using pymatgen
data_KTiO3
_symmetry_space_group_name_H-M   'P 1'
_cell_length_a   3.69171787
_cell_length_b   3.69172174
_cell_length_c   5.76689714
_cell_angle_alpha   90.00051064
_cell_angle_beta   89.99999079
_cell_angle_gamma   90.00005122
_symmetry_Int_Tables_number   1
_chemical_formula_structural   KTiO3
_chemical_formula_sum   'K1 Ti1 O3'
_cell_volume   78.59585959
_cell_formula_units_Z   1
loop_
 _symmetry_equiv_pos_site_id
 _symmetry_equiv_pos_as_xyz
  1  'x, y, z'
loop_
 _atom_site_type_symbol
 _atom_site_label
 _atom_site_symmetry_multiplicity
 _atom_site_fract_x
 _atom_site_fract_y
 _atom_site_fract_z
 _atom_site_occupancy
  K  K0  1  -0.00000734  0.00000085  0.99627669  1
  Ti  Ti1  1  0.50000160  0.50000003  0.49476128  1
  O  O2  1  0.00000124  0.50000088  0.60587413  1
  O  O3  1  0.50000335  0.00000436  0.60587166  1
  O  O4  1  0.50000115  0.49999387  0.19461524  1
