# generated using pymatgen
data_Na5Co2S5
_symmetry_space_group_name_H-M   'P 1'
_cell_length_a   5.52524728
_cell_length_b   7.18833226
_cell_length_c   7.18833276
_cell_angle_alpha   81.50621105
_cell_angle_beta   67.39843545
_cell_angle_gamma   67.39843748
_symmetry_Int_Tables_number   1
_chemical_formula_structural   Na5Co2S5
_chemical_formula_sum   'Na5 Co2 S5'
_cell_volume   243.33208272
_cell_formula_units_Z   1
loop_
 _symmetry_equiv_pos_site_id
 _symmetry_equiv_pos_as_xyz
  1  'x, y, z'
loop_
 _atom_site_type_symbol
 _atom_site_label
 _atom_site_symmetry_multiplicity
 _atom_site_fract_x
 _atom_site_fract_y
 _atom_site_fract_z
 _atom_site_occupancy
  Na  Na0  1  0.15368124  1.00000000  0.39183051  1
  Na  Na1  1  0.54551176  0.00000000  0.60816949  1
  Na  Na2  1  0.54551176  0.60816949  0.00000000  1
  Na  Na3  1  0.15368124  0.39183051  1.00000000  1
  Na  Na4  1  0.93131819  1.00000000  0.00000000  1
  Co  Co5  1  0.73637644  0.50000000  0.50000000  1
  Co  Co6  1  0.23637644  0.50000000  0.50000000  1
  S  S7  1  0.30501612  0.68060226  0.68060226  1
  S  S8  1  0.66622065  0.31939774  0.31939774  1
  S  S9  1  0.98561838  0.68060226  0.31939774  1
  S  S10  1  0.44606940  1.00000000  0.00000000  1
  S  S11  1  0.98561838  0.31939774  0.68060226  1
