# generated using pymatgen
data_Al2O3
_symmetry_space_group_name_H-M   'P 1'
_cell_length_a   5.28746523
_cell_length_b   11.55338107
_cell_length_c   3.40005919
_cell_angle_alpha   90.00000000
_cell_angle_beta   110.17178239
_cell_angle_gamma   90.00000000
_symmetry_Int_Tables_number   1
_chemical_formula_structural   Al2O3
_chemical_formula_sum   'Al8 O12'
_cell_volume   194.96326252
_cell_formula_units_Z   4
loop_
 _symmetry_equiv_pos_site_id
 _symmetry_equiv_pos_as_xyz
  1  'x, y, z'
loop_
 _atom_site_type_symbol
 _atom_site_label
 _atom_site_symmetry_multiplicity
 _atom_site_fract_x
 _atom_site_fract_y
 _atom_site_fract_z
 _atom_site_occupancy
  Al  Al0  1  0.19068263  0.83753327  0.57750529  1
  Al  Al1  1  0.21326416  0.55547268  0.37418836  1
  Al  Al2  1  0.28673584  0.05547268  0.12581164  1
  Al  Al3  1  0.30931737  0.33753327  0.92249471  1
  Al  Al4  1  0.69068263  0.66246673  0.07750529  1
  Al  Al5  1  0.71326416  0.94452732  0.87418836  1
  Al  Al6  1  0.78673584  0.44452732  0.62581164  1
  Al  Al7  1  0.80931737  0.16246673  0.42249471  1
  O  O8  1  0.06095948  0.88534434  0.00517266  1
  O  O9  1  0.04102785  0.69567438  0.37941913  1
  O  O10  1  0.31589912  0.00178120  0.64242849  1
  O  O11  1  0.18410088  0.50178120  0.85757151  1
  O  O12  1  0.43904052  0.38534434  0.49482734  1
  O  O13  1  0.45897215  0.19567438  0.12058087  1
  O  O14  1  0.54102785  0.80432562  0.87941913  1
  O  O15  1  0.56095948  0.61465566  0.50517266  1
  O  O16  1  0.81589912  0.49821880  0.14242849  1
  O  O17  1  0.68410088  0.99821880  0.35757151  1
  O  O18  1  0.95897215  0.30432562  0.62058087  1
  O  O19  1  0.93904052  0.11465566  0.99482734  1
