# generated using pymatgen
data_LiV3O8
_symmetry_space_group_name_H-M   'P 1'
_cell_length_a   5.56679799
_cell_length_b   5.56679799
_cell_length_c   5.94774493
_cell_angle_alpha   90.02131215
_cell_angle_beta   90.02131215
_cell_angle_gamma   59.98025923
_symmetry_Int_Tables_number   1
_chemical_formula_structural   LiV3O8
_chemical_formula_sum   'Li1 V3 O8'
_cell_volume   159.59064367
_cell_formula_units_Z   1
loop_
 _symmetry_equiv_pos_site_id
 _symmetry_equiv_pos_as_xyz
  1  'x, y, z'
loop_
 _atom_site_type_symbol
 _atom_site_label
 _atom_site_symmetry_multiplicity
 _atom_site_fract_x
 _atom_site_fract_y
 _atom_site_fract_z
 _atom_site_occupancy
  Li  Li0  1  0.00000714  0.99999286  0.00000000  1
  V  V1  1  0.33356653  0.33355321  0.77564567  1
  V  V2  1  0.66644679  0.66643347  0.22435433  1
  V  V3  1  0.99999790  0.00000210  0.50000000  1
  O  O4  1  0.15667412  0.68805961  0.68997224  1
  O  O5  1  0.31194039  0.84332588  0.31002776  1
  O  O6  1  0.33294126  0.33309436  0.05105664  1
  O  O7  1  0.66690564  0.66705874  0.94894336  1
  O  O8  1  0.84330953  0.84332533  0.31180877  1
  O  O9  1  0.15667467  0.15669047  0.68819123  1
  O  O10  1  0.68813022  0.15660619  0.69004515  1
  O  O11  1  0.84339381  0.31186978  0.30995485  1
