# generated using pymatgen
data_LiFe2F6
_symmetry_space_group_name_H-M   'P 1'
_cell_length_a   4.75621974
_cell_length_b   4.75621974
_cell_length_c   9.41684122
_cell_angle_alpha   90.00000000
_cell_angle_beta   90.00000000
_cell_angle_gamma   90.00000000
_symmetry_Int_Tables_number   1
_chemical_formula_structural   LiFe2F6
_chemical_formula_sum   'Li2 Fe4 F12'
_cell_volume   213.02426221
_cell_formula_units_Z   2
loop_
 _symmetry_equiv_pos_site_id
 _symmetry_equiv_pos_as_xyz
  1  'x, y, z'
loop_
 _atom_site_type_symbol
 _atom_site_label
 _atom_site_symmetry_multiplicity
 _atom_site_fract_x
 _atom_site_fract_y
 _atom_site_fract_z
 _atom_site_occupancy
  Li  Li0  1  0.00000000  0.00000000  0.66587496  1
  Li  Li1  1  0.50000000  0.50000000  0.16587496  1
  Fe  Fe2  1  0.00000000  0.00000000  0.33518422  1
  Fe  Fe3  1  0.50000000  0.50000000  0.83518422  1
  Fe  Fe4  1  0.00000000  0.00000000  0.00157721  1
  Fe  Fe5  1  0.50000000  0.50000000  0.50157721  1
  F  F6  1  0.69527621  0.69527621  0.65667023  1
  F  F7  1  0.80472379  0.19527621  0.15667023  1
  F  F8  1  0.19527621  0.80472379  0.15667023  1
  F  F9  1  0.30472379  0.30472379  0.65667023  1
  F  F10  1  0.29084530  0.29084530  0.00295143  1
  F  F11  1  0.20915470  0.79084530  0.50295143  1
  F  F12  1  0.79084530  0.20915470  0.50295143  1
  F  F13  1  0.70915470  0.70915470  0.00295143  1
  F  F14  1  0.30625782  0.30625782  0.34261064  1
  F  F15  1  0.19374218  0.80625782  0.84261064  1
  F  F16  1  0.80625782  0.19374218  0.84261064  1
  F  F17  1  0.69374218  0.69374218  0.34261064  1
