# generated using pymatgen
data_Mg6AlBi
_symmetry_space_group_name_H-M   'P 1'
_cell_length_a   6.37433957
_cell_length_b   6.37433906
_cell_length_c   5.32373074
_cell_angle_alpha   90.00000000
_cell_angle_beta   90.00000000
_cell_angle_gamma   120.85739083
_symmetry_Int_Tables_number   1
_chemical_formula_structural   Mg6AlBi
_chemical_formula_sum   'Mg6 Al1 Bi1'
_cell_volume   185.69478607
_cell_formula_units_Z   1
loop_
 _symmetry_equiv_pos_site_id
 _symmetry_equiv_pos_as_xyz
  1  'x, y, z'
loop_
 _atom_site_type_symbol
 _atom_site_label
 _atom_site_symmetry_multiplicity
 _atom_site_fract_x
 _atom_site_fract_y
 _atom_site_fract_z
 _atom_site_occupancy
  Mg  Mg0  1  0.16294010  0.82650462  0.25000000  1
  Mg  Mg1  1  0.67349538  0.33705990  0.25000000  1
  Mg  Mg2  1  0.66765580  0.83234420  0.25000000  1
  Mg  Mg3  1  0.33265812  0.66020757  0.75000000  1
  Mg  Mg4  1  0.83979243  0.16734188  0.75000000  1
  Mg  Mg5  1  0.83204544  0.66795456  0.75000000  1
  Al  Al6  1  0.15691212  0.34308788  0.25000000  1
  Bi  Bi7  1  0.33450061  0.16549939  0.75000000  1
