# generated using pymatgen
data_Na2Si3O7
_symmetry_space_group_name_H-M   'P 1'
_cell_length_a   4.90549844
_cell_length_b   5.12904564
_cell_length_c   11.70504037
_cell_angle_alpha   100.72773674
_cell_angle_beta   90.00000000
_cell_angle_gamma   118.56841063
_symmetry_Int_Tables_number   1
_chemical_formula_structural   Na2Si3O7
_chemical_formula_sum   'Na4 Si6 O14'
_cell_volume   252.77181751
_cell_formula_units_Z   2
loop_
 _symmetry_equiv_pos_site_id
 _symmetry_equiv_pos_as_xyz
  1  'x, y, z'
loop_
 _atom_site_type_symbol
 _atom_site_label
 _atom_site_symmetry_multiplicity
 _atom_site_fract_x
 _atom_site_fract_y
 _atom_site_fract_z
 _atom_site_occupancy
  O  O0  1  0.64770414  0.00000000  0.75000000  1
  O  O1  1  0.35229586  0.00000000  0.25000000  1
  O  O2  1  0.74437615  0.75412308  0.91086999  1
  O  O3  1  0.99025307  0.24587692  0.58913001  1
  O  O4  1  0.25562385  0.24587692  0.08913001  1
  O  O5  1  0.00974693  0.75412308  0.41086999  1
  O  O6  1  0.41047883  0.72970567  0.53660035  1
  O  O7  1  0.68077316  0.27029433  0.96339965  1
  O  O8  1  0.58952117  0.27029433  0.46339965  1
  O  O9  1  0.31922684  0.72970567  0.03660035  1
  O  O10  1  0.79674806  0.71816473  0.12727344  1
  O  O11  1  0.07858333  0.28183527  0.37272656  1
  O  O12  1  0.20325194  0.28183527  0.87272656  1
  O  O13  1  0.92141667  0.71816473  0.62727344  1
  Na  Na14  1  0.43984539  0.29251766  0.68193274  1
  Na  Na15  1  0.14732772  0.70748234  0.81806726  1
  Na  Na16  1  0.56015461  0.70748234  0.31806726  1
  Na  Na17  1  0.85267228  0.29251766  0.18193274  1
  Si  Si18  1  0.50000000  0.50000000  0.00000000  1
  Si  Si19  1  0.00000000  0.50000000  0.50000000  1
  Si  Si20  1  0.74073676  0.91368622  0.61518175  1
  Si  Si21  1  0.82705054  0.08631378  0.88481825  1
  Si  Si22  1  0.25926324  0.08631378  0.38481825  1
  Si  Si23  1  0.17294946  0.91368622  0.11518175  1
