# generated using pymatgen
data_NiAu3
_symmetry_space_group_name_H-M   'P 1'
_cell_length_a   5.66973346
_cell_length_b   5.66973319
_cell_length_c   4.68889747
_cell_angle_alpha   90.00000000
_cell_angle_beta   90.00000000
_cell_angle_gamma   119.99998409
_symmetry_Int_Tables_number   1
_chemical_formula_structural   NiAu3
_chemical_formula_sum   'Ni2 Au6'
_cell_volume   130.53491846
_cell_formula_units_Z   2
loop_
 _symmetry_equiv_pos_site_id
 _symmetry_equiv_pos_as_xyz
  1  'x, y, z'
loop_
 _atom_site_type_symbol
 _atom_site_label
 _atom_site_symmetry_multiplicity
 _atom_site_fract_x
 _atom_site_fract_y
 _atom_site_fract_z
 _atom_site_occupancy
  Ni  Ni0  1  0.66666500  0.33333100  0.24999800  1
  Ni  Ni1  1  0.33333300  0.66666700  0.75000100  1
  Au  Au2  1  0.83007545  0.66015190  0.75000100  1
  Au  Au3  1  0.33984710  0.16992455  0.75000100  1
  Au  Au4  1  0.83007645  0.16992455  0.75000100  1
  Au  Au5  1  0.66014890  0.83007445  0.24999800  1
  Au  Au6  1  0.16992555  0.83007445  0.24999800  1
  Au  Au7  1  0.16992455  0.33985010  0.24999800  1
