# generated using pymatgen
data_In2AgSe4
_symmetry_space_group_name_H-M   'P 1'
_cell_length_a   5.97482531
_cell_length_b   5.97482531
_cell_length_c   7.20465651
_cell_angle_alpha   114.49729328
_cell_angle_beta   114.49729328
_cell_angle_gamma   90.00000000
_symmetry_Int_Tables_number   1
_chemical_formula_structural   In2AgSe4
_chemical_formula_sum   'In2 Ag1 Se4'
_cell_volume   208.33333302
_cell_formula_units_Z   1
loop_
 _symmetry_equiv_pos_site_id
 _symmetry_equiv_pos_as_xyz
  1  'x, y, z'
loop_
 _atom_site_type_symbol
 _atom_site_label
 _atom_site_symmetry_multiplicity
 _atom_site_fract_x
 _atom_site_fract_y
 _atom_site_fract_z
 _atom_site_occupancy
  In  In0  1  0.25000000  0.75000000  0.50000000  1
  In  In1  1  0.00000000  0.00000000  0.00000000  1
  Ag  Ag2  1  0.50000000  0.50000000  -0.00000000  1
  Se  Se3  1  0.40355867  0.36573328  0.26924779  1
  Se  Se4  1  0.86568912  0.90351451  0.26924779  1
  Se  Se5  1  0.09648549  0.59644133  0.73075221  1
  Se  Se6  1  0.63426672  0.13431088  0.73075221  1
