# generated using pymatgen
data_Al6C3N2
_symmetry_space_group_name_H-M   'P 1'
_cell_length_a   13.63915515
_cell_length_b   13.63915515
_cell_length_c   13.63915514
_cell_angle_alpha   13.79483671
_cell_angle_beta   13.79483671
_cell_angle_gamma   13.79483670
_symmetry_Int_Tables_number   1
_chemical_formula_structural   Al6C3N2
_chemical_formula_sum   'Al6 C3 N2'
_cell_volume   125.53524070
_cell_formula_units_Z   1
loop_
 _symmetry_equiv_pos_site_id
 _symmetry_equiv_pos_as_xyz
  1  'x, y, z'
loop_
 _atom_site_type_symbol
 _atom_site_label
 _atom_site_symmetry_multiplicity
 _atom_site_fract_x
 _atom_site_fract_y
 _atom_site_fract_z
 _atom_site_occupancy
  C  C0  1  0.99967256  0.99967256  0.99967256  1
  C  C1  1  0.13457859  0.13457859  0.13457859  1
  C  C2  1  0.86476664  0.86476664  0.86476664  1
  N  N3  1  0.73608233  0.73608233  0.73608233  1
  N  N4  1  0.26326201  0.26326201  0.26326201  1
  Al  Al5  1  0.30836879  0.30836879  0.30836879  1
  Al  Al6  1  0.91241887  0.91241887  0.91241887  1
  Al  Al7  1  0.18911373  0.18911373  0.18911373  1
  Al  Al8  1  0.81023723  0.81023723  0.81023723  1
  Al  Al9  1  0.08692570  0.08692570  0.08692570  1
  Al  Al10  1  0.69097355  0.69097355  0.69097355  1
