# generated using pymatgen
data_Cr(CoO3)2
_symmetry_space_group_name_H-M   'P 1'
_cell_length_a   6.47155047
_cell_length_b   2.84744626
_cell_length_c   5.79993427
_cell_angle_alpha   90.19160440
_cell_angle_beta   103.41381281
_cell_angle_gamma   77.09334935
_symmetry_Int_Tables_number   1
_chemical_formula_structural   Cr(CoO3)2
_chemical_formula_sum   'Cr1 Co2 O6'
_cell_volume   101.20295518
_cell_formula_units_Z   1
loop_
 _symmetry_equiv_pos_site_id
 _symmetry_equiv_pos_as_xyz
  1  'x, y, z'
loop_
 _atom_site_type_symbol
 _atom_site_label
 _atom_site_symmetry_multiplicity
 _atom_site_fract_x
 _atom_site_fract_y
 _atom_site_fract_z
 _atom_site_occupancy
  Cr  Cr0  1  0.33334418  0.33250178  0.33681328  1
  Co  Co1  1  0.99792434  0.00004475  0.99848175  1
  Co  Co2  1  0.67219839  0.66231416  0.67037227  1
  O  O3  1  0.01435151  0.49346741  0.21554875  1
  O  O4  1  0.36116902  0.81902861  0.56463104  1
  O  O5  1  0.69352090  0.15331885  0.88925832  1
  O  O6  1  0.30796094  0.84340349  0.10966435  1
  O  O7  1  0.65255530  0.17047252  0.45292686  1
  O  O8  1  0.97729943  0.50892843  0.77873938  1
