# generated using pymatgen
data_VCl2O
_symmetry_space_group_name_H-M   'P 1'
_cell_length_a   7.00121293
_cell_length_b   3.75120069
_cell_length_c   6.58108704
_cell_angle_alpha   106.58763885
_cell_angle_beta   105.38447656
_cell_angle_gamma   89.99812341
_symmetry_Int_Tables_number   1
_chemical_formula_structural   VCl2O
_chemical_formula_sum   'V2 Cl4 O2'
_cell_volume   159.17353159
_cell_formula_units_Z   2
loop_
 _symmetry_equiv_pos_site_id
 _symmetry_equiv_pos_as_xyz
  1  'x, y, z'
loop_
 _atom_site_type_symbol
 _atom_site_label
 _atom_site_symmetry_multiplicity
 _atom_site_fract_x
 _atom_site_fract_y
 _atom_site_fract_z
 _atom_site_occupancy
  V  V0  1  0.00004457  0.93686371  0.00021048  1
  V  V1  1  0.49995543  0.06313629  0.99978952  1
  Cl  Cl2  1  0.18196004  0.86362194  0.72762786  1
  Cl  Cl3  1  0.31803996  0.13637806  0.27237214  1
  Cl  Cl4  1  0.68232320  0.86366960  0.72762096  1
  Cl  Cl5  1  0.81767680  0.13633040  0.27237904  1
  O  O6  1  0.49991006  0.51387049  0.99954209  1
  O  O7  1  0.00008994  0.48612951  0.00045791  1
