# generated using pymatgen
data_LiTi3O4
_symmetry_space_group_name_H-M   'P 1'
_cell_length_a   5.15920100
_cell_length_b   5.95085485
_cell_length_c   6.07588299
_cell_angle_alpha   120.72027741
_cell_angle_beta   53.92293746
_cell_angle_gamma   150.12854182
_symmetry_Int_Tables_number   1
_chemical_formula_structural   LiTi3O4
_chemical_formula_sum   'Li1 Ti3 O4'
_cell_volume   75.08995330
_cell_formula_units_Z   1
loop_
 _symmetry_equiv_pos_site_id
 _symmetry_equiv_pos_as_xyz
  1  'x, y, z'
loop_
 _atom_site_type_symbol
 _atom_site_label
 _atom_site_symmetry_multiplicity
 _atom_site_fract_x
 _atom_site_fract_y
 _atom_site_fract_z
 _atom_site_occupancy
  Li  Li0  1  0.99993460  0.49997471  0.99999171  1
  Ti  Ti1  1  0.00004845  0.49995310  0.49993349  1
  Ti  Ti2  1  0.99974276  0.99979075  0.99992845  1
  Ti  Ti3  1  0.99950879  0.99979971  0.49989451  1
  O  O4  1  0.50061192  0.00076878  0.75550765  1
  O  O5  1  0.52148285  0.49982645  0.23901390  1
  O  O6  1  0.49895655  0.99909487  0.24455934  1
  O  O7  1  0.47815908  0.49981963  0.76068594  1
