# generated using pymatgen
data_HfCrO3
_symmetry_space_group_name_H-M   'P 1'
_cell_length_a   4.90680388
_cell_length_b   5.32920548
_cell_length_c   9.36186262
_cell_angle_alpha   90.00000000
_cell_angle_beta   90.00000000
_cell_angle_gamma   90.00000000
_symmetry_Int_Tables_number   1
_chemical_formula_structural   HfCrO3
_chemical_formula_sum   'Hf4 Cr4 O12'
_cell_volume   244.80677328
_cell_formula_units_Z   4
loop_
 _symmetry_equiv_pos_site_id
 _symmetry_equiv_pos_as_xyz
  1  'x, y, z'
loop_
 _atom_site_type_symbol
 _atom_site_label
 _atom_site_symmetry_multiplicity
 _atom_site_fract_x
 _atom_site_fract_y
 _atom_site_fract_z
 _atom_site_occupancy
  Hf  Hf0  1  0.04829705  0.95641258  0.75000000  1
  Hf  Hf1  1  0.45170295  0.45641258  0.75000000  1
  Hf  Hf2  1  0.54829705  0.54358742  0.25000000  1
  Hf  Hf3  1  0.95170295  0.04358742  0.25000000  1
  Cr  Cr4  1  0.00000000  0.50000000  0.00000000  1
  Cr  Cr5  1  0.00000000  0.50000000  0.50000000  1
  Cr  Cr6  1  0.50000000  0.00000000  0.00000000  1
  Cr  Cr7  1  0.50000000  0.00000000  0.50000000  1
  O  O8  1  0.19367778  0.35983646  0.25000000  1
  O  O9  1  0.21401911  0.22121268  0.60426231  1
  O  O10  1  0.21401911  0.22121268  0.89573769  1
  O  O11  1  0.28598089  0.72121268  0.60426231  1
  O  O12  1  0.28598089  0.72121268  0.89573769  1
  O  O13  1  0.30632222  0.85983746  0.25000000  1
  O  O14  1  0.69367778  0.14016354  0.75000000  1
  O  O15  1  0.71401911  0.27878732  0.10426231  1
  O  O16  1  0.71401911  0.27878732  0.39573769  1
  O  O17  1  0.78598089  0.77878732  0.10426231  1
  O  O18  1  0.78598089  0.77878732  0.39573769  1
  O  O19  1  0.80632222  0.64016254  0.75000000  1
