# generated using pymatgen
data_P2O3
_symmetry_space_group_name_H-M   'P 1'
_cell_length_a   6.66116588
_cell_length_b   7.18438437
_cell_length_c   8.48709118
_cell_angle_alpha   90.00000000
_cell_angle_beta   90.00000000
_cell_angle_gamma   108.35236472
_symmetry_Int_Tables_number   1
_chemical_formula_structural   P2O3
_chemical_formula_sum   'P8 O12'
_cell_volume   385.50328978
_cell_formula_units_Z   4
loop_
 _symmetry_equiv_pos_site_id
 _symmetry_equiv_pos_as_xyz
  1  'x, y, z'
loop_
 _atom_site_type_symbol
 _atom_site_label
 _atom_site_symmetry_multiplicity
 _atom_site_fract_x
 _atom_site_fract_y
 _atom_site_fract_z
 _atom_site_occupancy
  O  O0  1  0.81876730  0.97016072  0.25000000  1
  O  O1  1  0.18123270  0.02983928  0.75000000  1
  O  O2  1  0.18874353  0.33976092  0.90076278  1
  O  O3  1  0.81125647  0.66023908  0.40076278  1
  O  O4  1  0.81125647  0.66023908  0.09923722  1
  O  O5  1  0.18874353  0.33976092  0.59923722  1
  O  O6  1  0.51346257  0.22237270  0.90070169  1
  O  O7  1  0.48653743  0.77762730  0.40070169  1
  O  O8  1  0.52120442  0.53259991  0.75000000  1
  O  O9  1  0.47879558  0.46740009  0.25000000  1
  O  O10  1  0.51346257  0.22237270  0.59929831  1
  O  O11  1  0.48653743  0.77762730  0.09929831  1
  P  P12  1  0.25147419  0.13468456  0.92486232  1
  P  P13  1  0.74852581  0.86531544  0.42486232  1
  P  P14  1  0.74852581  0.86531544  0.07513768  1
  P  P15  1  0.25147419  0.13468456  0.57513768  1
  P  P16  1  0.36148125  0.64075735  0.25000000  1
  P  P17  1  0.63851875  0.35924265  0.75000000  1
  P  P18  1  0.73964321  0.50430241  0.25000000  1
  P  P19  1  0.26035679  0.49569759  0.75000000  1
