# generated using pymatgen
data_ZnCuAs
_symmetry_space_group_name_H-M   'P 1'
_cell_length_a   4.14954400
_cell_length_b   16.75035523
_cell_length_c   7.22979231
_cell_angle_alpha   30.31759950
_cell_angle_beta   55.10820568
_cell_angle_gamma   60.40947248
_symmetry_Int_Tables_number   1
_chemical_formula_structural   ZnCuAs
_chemical_formula_sum   'Zn4 Cu4 As4'
_cell_volume   208.06596366
_cell_formula_units_Z   4
loop_
 _symmetry_equiv_pos_site_id
 _symmetry_equiv_pos_as_xyz
  1  'x, y, z'
loop_
 _atom_site_type_symbol
 _atom_site_label
 _atom_site_symmetry_multiplicity
 _atom_site_fract_x
 _atom_site_fract_y
 _atom_site_fract_z
 _atom_site_occupancy
  Zn  Zn0  1  -0.05632421  0.00817965  -0.04809174  1
  Zn  Zn1  1  -0.05632421  0.24182035  0.98462686  1
  Zn  Zn2  1  0.00652722  0.50848661  0.95130308  1
  Zn  Zn3  1  0.00652722  0.74151339  -0.01475047  1
  Cu  Cu4  1  0.43099511  0.23757796  0.50505758  1
  Cu  Cu5  1  0.50790813  0.50884828  0.45550490  1
  Cu  Cu6  1  0.50790813  0.74115172  0.49089801  1
  Cu  Cu7  1  0.43099511  0.01242205  0.45536940  1
  As  As8  1  0.19301367  -0.01161077  0.24668159  1
  As  As9  1  0.19301367  0.26161077  0.20023851  1
  As  As10  1  0.25118007  0.49079991  0.23828132  1
  As  As11  1  0.25118007  0.75920009  0.20148095  1
