# generated using pymatgen
data_Y2Al3Si2
_symmetry_space_group_name_H-M   'P 1'
_cell_length_a   4.05117656
_cell_length_b   5.48591711
_cell_length_c   6.63690714
_cell_angle_alpha   100.23600642
_cell_angle_beta   90.00000000
_cell_angle_gamma   111.66839688
_symmetry_Int_Tables_number   1
_chemical_formula_structural   Y2Al3Si2
_chemical_formula_sum   'Y2 Al3 Si2'
_cell_volume   134.54906901
_cell_formula_units_Z   1
loop_
 _symmetry_equiv_pos_site_id
 _symmetry_equiv_pos_as_xyz
  1  'x, y, z'
loop_
 _atom_site_type_symbol
 _atom_site_label
 _atom_site_symmetry_multiplicity
 _atom_site_fract_x
 _atom_site_fract_y
 _atom_site_fract_z
 _atom_site_occupancy
  Al  Al0  1  0.69428409  0.38856818  0.86668549  1
  Al  Al1  1  0.00000000  0.00000000  0.00000000  1
  Al  Al2  1  0.30571591  0.61143182  0.13331451  1
  Si  Si3  1  0.90721065  0.81442129  0.35961936  1
  Si  Si4  1  0.09278935  0.18557871  0.64038064  1
  Y  Y5  1  0.38023290  0.76046579  0.67812568  1
  Y  Y6  1  0.61976710  0.23953421  0.32187432  1
