# generated using pymatgen
data_NaCoO2
_symmetry_space_group_name_H-M   'P 1'
_cell_length_a   2.82027974
_cell_length_b   6.34463488
_cell_length_c   4.76012793
_cell_angle_alpha   90.01694287
_cell_angle_beta   89.99942943
_cell_angle_gamma   90.00264941
_symmetry_Int_Tables_number   1
_chemical_formula_structural   NaCoO2
_chemical_formula_sum   'Na2 Co2 O4'
_cell_volume   85.17603659
_cell_formula_units_Z   2
loop_
 _symmetry_equiv_pos_site_id
 _symmetry_equiv_pos_as_xyz
  1  'x, y, z'
loop_
 _atom_site_type_symbol
 _atom_site_label
 _atom_site_symmetry_multiplicity
 _atom_site_fract_x
 _atom_site_fract_y
 _atom_site_fract_z
 _atom_site_occupancy
  Na  Na0  1  0.25000259  0.12685652  0.24997164  1
  Na  Na1  1  0.74999925  0.87319846  0.75006055  1
  Co  Co2  1  0.25000007  0.62306315  0.25011540  1
  Co  Co3  1  0.74999048  0.37686899  0.74981000  1
  O  O4  1  0.25000987  0.57954478  0.74970524  1
  O  O5  1  0.24999398  0.17326522  0.75021868  1
  O  O6  1  0.75000891  0.42041347  0.25063256  1
  O  O7  1  0.74999484  0.82678942  0.24948593  1
