# generated using pymatgen
data_V2CoO6
_symmetry_space_group_name_H-M   'P 1'
_cell_length_a   5.42588676
_cell_length_b   5.52210188
_cell_length_c   5.34887703
_cell_angle_alpha   56.15542455
_cell_angle_beta   56.66901504
_cell_angle_gamma   54.40840145
_symmetry_Int_Tables_number   1
_chemical_formula_structural   V2CoO6
_chemical_formula_sum   'V2 Co1 O6'
_cell_volume   102.03974455
_cell_formula_units_Z   1
loop_
 _symmetry_equiv_pos_site_id
 _symmetry_equiv_pos_as_xyz
  1  'x, y, z'
loop_
 _atom_site_type_symbol
 _atom_site_label
 _atom_site_symmetry_multiplicity
 _atom_site_fract_x
 _atom_site_fract_y
 _atom_site_fract_z
 _atom_site_occupancy
  V  V0  1  0.97696661  0.98423111  0.00380125  1
  V  V1  1  0.49185030  0.46791184  0.49683776  1
  Co  Co2  1  0.70366186  0.70124432  0.69727719  1
  O  O3  1  0.13221620  0.75154964  0.39330430  1
  O  O4  1  0.40630763  0.13328976  0.74846996  1
  O  O5  1  0.75631909  0.38351945  0.14296574  1
  O  O6  1  0.27197703  0.67663169  0.85094296  1
  O  O7  1  0.66198939  0.86962663  0.25143739  1
  O  O8  1  0.84951190  0.28279554  0.66496345  1
