# generated using pymatgen
data_CoP2O7
_symmetry_space_group_name_H-M   'P 1'
_cell_length_a   4.56061102
_cell_length_b   5.23627546
_cell_length_c   5.23506338
_cell_angle_alpha   78.76976517
_cell_angle_beta   82.99433027
_cell_angle_gamma   96.69196472
_symmetry_Int_Tables_number   1
_chemical_formula_structural   CoP2O7
_chemical_formula_sum   'Co1 P2 O7'
_cell_volume   120.43706374
_cell_formula_units_Z   1
loop_
 _symmetry_equiv_pos_site_id
 _symmetry_equiv_pos_as_xyz
  1  'x, y, z'
loop_
 _atom_site_type_symbol
 _atom_site_label
 _atom_site_symmetry_multiplicity
 _atom_site_fract_x
 _atom_site_fract_y
 _atom_site_fract_z
 _atom_site_occupancy
  Co  Co0  1  0.72413509  0.93823857  0.54850268  1
  P  P1  1  0.13534023  0.80258688  0.00117272  1
  P  P2  1  0.31164864  0.39305771  0.41007906  1
  O  O3  1  0.22343666  0.52102462  0.12875040  1
  O  O4  1  0.42571589  0.97086545  0.85666002  1
  O  O5  1  0.02124627  0.24869580  0.57900777  1
  O  O6  1  0.98466411  0.91787655  0.21720543  1
  O  O7  1  0.52488669  0.19936543  0.34235657  1
  O  O8  1  0.46037657  0.60936516  0.52509847  1
  O  O9  1  0.92451885  0.73522184  0.80638787  1
