# generated using pymatgen
data_Na2CS3
_symmetry_space_group_name_H-M   'P 1'
_cell_length_a   6.00436651
_cell_length_b   6.00436652
_cell_length_c   8.62865119
_cell_angle_alpha   75.48971442
_cell_angle_beta   75.48971440
_cell_angle_gamma   64.35388129
_symmetry_Int_Tables_number   1
_chemical_formula_structural   Na2CS3
_chemical_formula_sum   'Na4 C2 S6'
_cell_volume   267.86841581
_cell_formula_units_Z   2
loop_
 _symmetry_equiv_pos_site_id
 _symmetry_equiv_pos_as_xyz
  1  'x, y, z'
loop_
 _atom_site_type_symbol
 _atom_site_label
 _atom_site_symmetry_multiplicity
 _atom_site_fract_x
 _atom_site_fract_y
 _atom_site_fract_z
 _atom_site_occupancy
  C  C0  1  0.91132572  0.08867428  0.25000000  1
  C  C1  1  0.08867428  0.91132572  0.75000000  1
  Na  Na2  1  0.43121582  0.83307967  0.39105653  1
  Na  Na3  1  0.16692033  0.56878418  0.10894347  1
  Na  Na4  1  0.83307967  0.43121582  0.89105653  1
  Na  Na5  1  0.56878418  0.16692033  0.60894347  1
  S  S6  1  0.64145513  0.35854487  0.25000000  1
  S  S7  1  0.35854487  0.64145513  0.75000000  1
  S  S8  1  0.91722000  0.82166043  0.38539003  1
  S  S9  1  0.17833957  0.08278000  0.11460997  1
  S  S10  1  0.08278000  0.17833957  0.61460997  1
  S  S11  1  0.82166043  0.91722000  0.88539003  1
