# generated using pymatgen
data_Mg6ZnBi
_symmetry_space_group_name_H-M   'P 1'
_cell_length_a   6.29082791
_cell_length_b   6.41551008
_cell_length_c   5.30409776
_cell_angle_alpha   90.00000000
_cell_angle_beta   90.00000000
_cell_angle_gamma   120.65782957
_symmetry_Int_Tables_number   1
_chemical_formula_structural   Mg6ZnBi
_chemical_formula_sum   'Mg6 Zn1 Bi1'
_cell_volume   184.14672202
_cell_formula_units_Z   1
loop_
 _symmetry_equiv_pos_site_id
 _symmetry_equiv_pos_as_xyz
  1  'x, y, z'
loop_
 _atom_site_type_symbol
 _atom_site_label
 _atom_site_symmetry_multiplicity
 _atom_site_fract_x
 _atom_site_fract_y
 _atom_site_fract_z
 _atom_site_occupancy
  Mg  Mg0  1  0.66768386  0.33327805  0.25000000  1
  Mg  Mg1  1  0.66768386  0.83440481  0.25000000  1
  Mg  Mg2  1  0.33328827  0.17385931  0.75000000  1
  Mg  Mg3  1  0.33328827  0.65942996  0.75000000  1
  Mg  Mg4  1  0.83718006  0.16859053  0.75000000  1
  Mg  Mg5  1  0.82894030  0.66447065  0.75000000  1
  Zn  Zn6  1  0.16437019  0.33218459  0.25000000  1
  Bi  Bi7  1  0.16756521  0.83378210  0.25000000  1
