# generated using pymatgen
data_LiNiS2
_symmetry_space_group_name_H-M   'P 1'
_cell_length_a   3.42555846
_cell_length_b   6.85372217
_cell_length_c   5.75880263
_cell_angle_alpha   90.03173932
_cell_angle_beta   89.79830917
_cell_angle_gamma   120.02456208
_symmetry_Int_Tables_number   1
_chemical_formula_structural   LiNiS2
_chemical_formula_sum   'Li2 Ni2 S4'
_cell_volume   117.06041222
_cell_formula_units_Z   2
loop_
 _symmetry_equiv_pos_site_id
 _symmetry_equiv_pos_as_xyz
  1  'x, y, z'
loop_
 _atom_site_type_symbol
 _atom_site_label
 _atom_site_symmetry_multiplicity
 _atom_site_fract_x
 _atom_site_fract_y
 _atom_site_fract_z
 _atom_site_occupancy
  Li  Li0  1  0.00682018  0.74896961  0.00097929  1
  Li  Li1  1  0.97991370  0.24344357  0.00011098  1
  Ni  Ni2  1  0.99431742  0.24808038  0.50023336  1
  Ni  Ni3  1  0.99862362  0.74727772  0.50056749  1
  S  S4  1  0.32694844  0.08028229  0.71228660  1
  S  S5  1  0.33204537  0.58039223  0.71221943  1
  S  S6  1  0.66517930  0.91460419  0.28870878  1
  S  S7  1  0.66007396  0.41448402  0.28828006  1
