# generated using pymatgen
data_TiNbN2
_symmetry_space_group_name_H-M   'P 1'
_cell_length_a   6.17529984
_cell_length_b   8.15977898
_cell_length_c   5.33363640
_cell_angle_alpha   29.22546646
_cell_angle_beta   54.62669265
_cell_angle_gamma   40.81733673
_symmetry_Int_Tables_number   1
_chemical_formula_structural   TiNbN2
_chemical_formula_sum   'Ti2 Nb2 N4'
_cell_volume   82.92372422
_cell_formula_units_Z   2
loop_
 _symmetry_equiv_pos_site_id
 _symmetry_equiv_pos_as_xyz
  1  'x, y, z'
loop_
 _atom_site_type_symbol
 _atom_site_label
 _atom_site_symmetry_multiplicity
 _atom_site_fract_x
 _atom_site_fract_y
 _atom_site_fract_z
 _atom_site_occupancy
  Ti  Ti0  1  0.00000000  0.00000000  -0.00000000  1
  Ti  Ti1  1  0.75000000  0.50000000  -0.00000000  1
  Nb  Nb2  1  0.25000000  0.50000000  -0.00000000  1
  Nb  Nb3  1  0.50000000  -0.00000000  -0.00000000  1
  N  N4  1  0.24285536  0.00000000  0.51428929  1
  N  N5  1  0.50714464  0.50000000  0.48571071  1
  N  N6  1  0.99285536  0.50000000  0.51428929  1
  N  N7  1  0.75714464  1.00000000  0.48571071  1
