# generated using pymatgen
data_Mo2S3
_symmetry_space_group_name_H-M   'P 1'
_cell_length_a   3.20985655
_cell_length_b   6.17036390
_cell_length_c   8.70627263
_cell_angle_alpha   102.95757287
_cell_angle_beta   90.00000000
_cell_angle_gamma   90.00000000
_symmetry_Int_Tables_number   1
_chemical_formula_structural   Mo2S3
_chemical_formula_sum   'Mo4 S6'
_cell_volume   168.04543407
_cell_formula_units_Z   2
loop_
 _symmetry_equiv_pos_site_id
 _symmetry_equiv_pos_as_xyz
  1  'x, y, z'
loop_
 _atom_site_type_symbol
 _atom_site_label
 _atom_site_symmetry_multiplicity
 _atom_site_fract_x
 _atom_site_fract_y
 _atom_site_fract_z
 _atom_site_occupancy
  Mo  Mo0  1  0.75000000  0.68747204  0.99087902  1
  Mo  Mo1  1  0.25000000  0.31252796  0.00912098  1
  Mo  Mo2  1  0.75000000  0.89253532  0.37358645  1
  Mo  Mo3  1  0.25000000  0.10746468  0.62641355  1
  S  S4  1  0.75000000  0.49327371  0.19646712  1
  S  S5  1  0.25000000  0.50672629  0.80353288  1
  S  S6  1  0.75000000  0.02626510  0.84219470  1
  S  S7  1  0.25000000  0.97373490  0.15780530  1
  S  S8  1  0.75000000  0.27347002  0.48674992  1
  S  S9  1  0.25000000  0.72652998  0.51325008  1
