# generated using pymatgen
data_Na2CoS2
_symmetry_space_group_name_H-M   'P 1'
_cell_length_a   5.57174572
_cell_length_b   6.37198370
_cell_length_c   7.11297765
_cell_angle_alpha   116.60615260
_cell_angle_beta   113.05487976
_cell_angle_gamma   89.99604454
_symmetry_Int_Tables_number   1
_chemical_formula_structural   Na2CoS2
_chemical_formula_sum   'Na4 Co2 S4'
_cell_volume   202.98490858
_cell_formula_units_Z   2
loop_
 _symmetry_equiv_pos_site_id
 _symmetry_equiv_pos_as_xyz
  1  'x, y, z'
loop_
 _atom_site_type_symbol
 _atom_site_label
 _atom_site_symmetry_multiplicity
 _atom_site_fract_x
 _atom_site_fract_y
 _atom_site_fract_z
 _atom_site_occupancy
  Na  Na0  1  0.85670523  0.51350130  0.71333534  1
  Na  Na1  1  0.64336933  0.80031440  0.28683090  1
  Na  Na2  1  0.14329477  0.48649870  0.28666466  1
  Na  Na3  1  0.35663067  0.19968560  0.71316910  1
  Co  Co4  1  0.25000100  0.99998523  0.99998588  1
  Co  Co5  1  0.74999900  0.00001477  0.00001412  1
  S  S6  1  0.10984412  0.90330648  0.21972396  1
  S  S7  1  0.60988060  0.31636530  0.21982414  1
  S  S8  1  0.89015588  0.09669352  0.78027604  1
  S  S9  1  0.39011940  0.68363470  0.78017586  1
