# generated using pymatgen
data_ScAl2Ni
_symmetry_space_group_name_H-M   'P 1'
_cell_length_a   4.01131750
_cell_length_b   5.17674734
_cell_length_c   6.68600099
_cell_angle_alpha   90.00000000
_cell_angle_beta   90.00000000
_cell_angle_gamma   112.79505923
_symmetry_Int_Tables_number   1
_chemical_formula_structural   ScAl2Ni
_chemical_formula_sum   'Sc2 Al4 Ni2'
_cell_volume   127.99489267
_cell_formula_units_Z   2
loop_
 _symmetry_equiv_pos_site_id
 _symmetry_equiv_pos_as_xyz
  1  'x, y, z'
loop_
 _atom_site_type_symbol
 _atom_site_label
 _atom_site_symmetry_multiplicity
 _atom_site_fract_x
 _atom_site_fract_y
 _atom_site_fract_z
 _atom_site_occupancy
  Al  Al0  1  0.14594168  0.29188335  0.94926657  1
  Al  Al1  1  0.85405832  0.70811665  0.05073343  1
  Al  Al2  1  0.85405832  0.70811665  0.44926657  1
  Al  Al3  1  0.14594168  0.29188335  0.55073343  1
  Sc  Sc4  1  0.43287584  0.86575167  0.75000000  1
  Sc  Sc5  1  0.56712416  0.13424833  0.25000000  1
  Ni  Ni6  1  0.71048257  0.42096515  0.75000000  1
  Ni  Ni7  1  0.28951743  0.57903485  0.25000000  1
