# generated using pymatgen
data_Mn3VO8
_symmetry_space_group_name_H-M   'P 1'
_cell_length_a   10.19678711
_cell_length_b   10.18788572
_cell_length_c   14.41436866
_cell_angle_alpha   19.55434635
_cell_angle_beta   19.37457795
_cell_angle_gamma   33.57342655
_symmetry_Int_Tables_number   1
_chemical_formula_structural   Mn3VO8
_chemical_formula_sum   'Mn3 V1 O8'
_cell_volume   143.75953215
_cell_formula_units_Z   1
loop_
 _symmetry_equiv_pos_site_id
 _symmetry_equiv_pos_as_xyz
  1  'x, y, z'
loop_
 _atom_site_type_symbol
 _atom_site_label
 _atom_site_symmetry_multiplicity
 _atom_site_fract_x
 _atom_site_fract_y
 _atom_site_fract_z
 _atom_site_occupancy
  Mn  Mn0  1  0.00000000  0.50000100  0.00000000  1
  Mn  Mn1  1  0.50000100  0.00000000  0.00000000  1
  Mn  Mn2  1  0.49999900  0.49999900  0.00000100  1
  V  V3  1  0.00000000  0.99999900  0.00000100  1
  O  O4  1  0.00004567  0.00191491  0.26569481  1
  O  O5  1  0.99915665  0.49320832  0.27254496  1
  O  O6  1  0.49918243  0.00192408  0.26541647  1
  O  O7  1  0.99995533  0.99808609  0.73430419  1
  O  O8  1  0.50079051  0.50372361  0.26380324  1
  O  O9  1  0.00084335  0.50679168  0.72745504  1
  O  O10  1  0.50081757  0.99807492  0.73458353  1
  O  O11  1  0.49920949  0.49627639  0.73619576  1
