# generated using pymatgen
data_LiAl5O8
_symmetry_space_group_name_H-M   'P 1'
_cell_length_a   7.98736707
_cell_length_b   7.98736707
_cell_length_c   7.98736707
_cell_angle_alpha   90.00000000
_cell_angle_beta   90.00000000
_cell_angle_gamma   90.00000000
_symmetry_Int_Tables_number   1
_chemical_formula_structural   LiAl5O8
_chemical_formula_sum   'Li4 Al20 O32'
_cell_volume   509.57830561
_cell_formula_units_Z   4
loop_
 _symmetry_equiv_pos_site_id
 _symmetry_equiv_pos_as_xyz
  1  'x, y, z'
loop_
 _atom_site_type_symbol
 _atom_site_label
 _atom_site_symmetry_multiplicity
 _atom_site_fract_x
 _atom_site_fract_y
 _atom_site_fract_z
 _atom_site_occupancy
  Al  Al0  1  0.99762173  0.99762173  0.99762173  1
  Al  Al1  1  0.00237827  0.49762173  0.50237827  1
  Al  Al2  1  0.11872608  0.62500000  0.13127392  1
  Al  Al3  1  0.12500000  0.36872608  0.88127392  1
  Al  Al4  1  0.13127392  0.11872608  0.62500000  1
  Al  Al5  1  0.24762173  0.74762173  0.75237827  1
  Al  Al6  1  0.25237827  0.25237827  0.25237827  1
  Al  Al7  1  0.36872608  0.88127392  0.12500000  1
  Al  Al8  1  0.37500000  0.63127392  0.38127392  1
  Al  Al9  1  0.38127392  0.37500000  0.63127392  1
  Al  Al10  1  0.49762173  0.50237827  0.00237827  1
  Al  Al11  1  0.50237827  0.00237827  0.49762173  1
  Al  Al12  1  0.61872608  0.87500000  0.86872608  1
  Al  Al13  1  0.62500000  0.13127392  0.11872608  1
  Al  Al14  1  0.63127392  0.38127392  0.37500000  1
  Al  Al15  1  0.74762173  0.75237827  0.24762173  1
  Al  Al16  1  0.75237827  0.24762173  0.74762173  1
  Al  Al17  1  0.86872608  0.61872608  0.87500000  1
  Al  Al18  1  0.87500000  0.86872608  0.61872608  1
  Al  Al19  1  0.88127392  0.12500000  0.36872608  1
  Li  Li20  1  0.12500000  0.87500000  0.37500000  1
  Li  Li21  1  0.37500000  0.12500000  0.87500000  1
  Li  Li22  1  0.62500000  0.62500000  0.62500000  1
  Li  Li23  1  0.87500000  0.37500000  0.12500000  1
  O  O24  1  0.61449357  0.88550643  0.11449357  1
  O  O25  1  0.61547376  0.61471719  0.36689417  1
  O  O26  1  0.86449357  0.86449357  0.86449357  1
  O  O27  1  0.86547376  0.11689417  0.13528281  1
  O  O28  1  0.86689417  0.88452624  0.38528281  1
  O  O29  1  0.88528281  0.63310583  0.11547376  1
  O  O30  1  0.11449357  0.61449357  0.88550643  1
  O  O31  1  0.11471719  0.13310583  0.38452624  1
  O  O32  1  0.11547376  0.88528281  0.63310583  1
  O  O33  1  0.11689417  0.13528281  0.86547376  1
  O  O34  1  0.13310583  0.38452624  0.11471719  1
  O  O35  1  0.13528281  0.86547376  0.11689417  1
  O  O36  1  0.36449357  0.63550643  0.13550643  1
  O  O37  1  0.36471719  0.13452624  0.61689417  1
  O  O38  1  0.36547376  0.38310583  0.86471719  1
  O  O39  1  0.36689417  0.61547376  0.61471719  1
  O  O40  1  0.38310583  0.86471719  0.36547376  1
  O  O41  1  0.38452624  0.11471719  0.13310583  1
  O  O42  1  0.38528281  0.86689417  0.88452624  1
  O  O43  1  0.38550643  0.38550643  0.38550643  1
  O  O44  1  0.61471719  0.36689417  0.61547376  1
  O  O45  1  0.61689417  0.36471719  0.13452624  1
  O  O46  1  0.63310583  0.11547376  0.88528281  1
  O  O47  1  0.63452624  0.88310583  0.63528281  1
  O  O48  1  0.63528281  0.63452624  0.88310583  1
  O  O49  1  0.63550643  0.13550643  0.36449357  1
  O  O50  1  0.86471719  0.36547376  0.38310583  1
  O  O51  1  0.88310583  0.63528281  0.63452624  1
  O  O52  1  0.88452624  0.38528281  0.86689417  1
  O  O53  1  0.88550643  0.11449357  0.61449357  1
  O  O54  1  0.13452624  0.61689417  0.36471719  1
  O  O55  1  0.13550643  0.36449357  0.63550643  1
