# generated using pymatgen
data_YbAgS2
_symmetry_space_group_name_H-M   'P 1'
_cell_length_a   5.55018426
_cell_length_b   5.55018426
_cell_length_c   6.67889842
_cell_angle_alpha   114.55090057
_cell_angle_beta   114.55090062
_cell_angle_gamma   90.00000003
_symmetry_Int_Tables_number   1
_chemical_formula_structural   YbAgS2
_chemical_formula_sum   'Yb2 Ag2 S4'
_cell_volume   166.47402005
_cell_formula_units_Z   2
loop_
 _symmetry_equiv_pos_site_id
 _symmetry_equiv_pos_as_xyz
  1  'x, y, z'
loop_
 _atom_site_type_symbol
 _atom_site_label
 _atom_site_symmetry_multiplicity
 _atom_site_fract_x
 _atom_site_fract_y
 _atom_site_fract_z
 _atom_site_occupancy
  S  S0  1  0.11496213  0.36496213  0.22992427  1
  S  S1  1  0.36496213  0.11496213  0.72992427  1
  S  S2  1  0.63503787  0.88503787  0.27007573  1
  S  S3  1  0.88503787  0.63503787  0.77007573  1
  Ag  Ag4  1  0.87500000  0.12500000  0.75000000  1
  Ag  Ag5  1  0.12500000  0.87500000  0.25000000  1
  Yb  Yb6  1  0.62500000  0.37500000  0.25000000  1
  Yb  Yb7  1  0.37500000  0.62500000  0.75000000  1
