# generated using pymatgen
data_SmMnSbO
_symmetry_space_group_name_H-M   'P 1'
_cell_length_a   4.20942555
_cell_length_b   4.20940705
_cell_length_c   9.66695518
_cell_angle_alpha   89.99976615
_cell_angle_beta   89.99936768
_cell_angle_gamma   90.00000476
_symmetry_Int_Tables_number   1
_chemical_formula_structural   SmMnSbO
_chemical_formula_sum   'Sm2 Mn2 Sb2 O2'
_cell_volume   171.29057289
_cell_formula_units_Z   2
loop_
 _symmetry_equiv_pos_site_id
 _symmetry_equiv_pos_as_xyz
  1  'x, y, z'
loop_
 _atom_site_type_symbol
 _atom_site_label
 _atom_site_symmetry_multiplicity
 _atom_site_fract_x
 _atom_site_fract_y
 _atom_site_fract_z
 _atom_site_occupancy
  O  O0  1  0.24999293  0.75000109  0.00000243  1
  O  O1  1  0.74999227  0.25000106  0.00000101  1
  Mn  Mn2  1  0.75002630  0.24999271  0.50000313  1
  Mn  Mn3  1  0.25000686  0.75000311  0.49999131  1
  Sb  Sb4  1  0.25000365  0.25000103  0.69396657  1
  Sb  Sb5  1  0.74999317  0.74999792  0.30603299  1
  Sm  Sm6  1  0.74999596  0.75000207  0.89033446  1
  Sm  Sm7  1  0.24998886  0.25000101  0.10966809  1
