# generated using pymatgen
data_KTcO4
_symmetry_space_group_name_H-M   'P 1'
_cell_length_a   5.78901161
_cell_length_b   5.78901162
_cell_length_c   7.72253687
_cell_angle_alpha   112.01274432
_cell_angle_beta   112.01274433
_cell_angle_gamma   90.00000002
_symmetry_Int_Tables_number   1
_chemical_formula_structural   KTcO4
_chemical_formula_sum   'K2 Tc2 O8'
_cell_volume   219.45351927
_cell_formula_units_Z   2
loop_
 _symmetry_equiv_pos_site_id
 _symmetry_equiv_pos_as_xyz
  1  'x, y, z'
loop_
 _atom_site_type_symbol
 _atom_site_label
 _atom_site_symmetry_multiplicity
 _atom_site_fract_x
 _atom_site_fract_y
 _atom_site_fract_z
 _atom_site_occupancy
  O  O0  1  0.91134383  0.32844232  0.59844268  1
  O  O1  1  0.27000036  0.41134383  0.09844268  1
  O  O2  1  0.82844232  0.18709885  0.09844268  1
  O  O3  1  0.68709885  0.77000036  0.59844268  1
  O  O4  1  0.31290115  0.22999964  0.40155732  1
  O  O5  1  0.17155768  0.81290115  0.90155732  1
  O  O6  1  0.72999964  0.58865617  0.90155732  1
  O  O7  1  0.08865617  0.67155768  0.40155732  1
  K  K8  1  0.37500000  0.12500000  0.75000000  1
  K  K9  1  0.62500000  0.87500000  0.25000000  1
  Tc  Tc10  1  0.87500000  0.62500000  0.75000000  1
  Tc  Tc11  1  0.12500000  0.37500000  0.25000000  1
