# generated using pymatgen
data_AlCoO3
_symmetry_space_group_name_H-M   'P 1'
_cell_length_a   4.85975374
_cell_length_b   5.32559569
_cell_length_c   4.96477669
_cell_angle_alpha   87.24563438
_cell_angle_beta   59.51778309
_cell_angle_gamma   116.01964496
_symmetry_Int_Tables_number   1
_chemical_formula_structural   AlCoO3
_chemical_formula_sum   'Al2 Co2 O6'
_cell_volume   93.23910281
_cell_formula_units_Z   2
loop_
 _symmetry_equiv_pos_site_id
 _symmetry_equiv_pos_as_xyz
  1  'x, y, z'
loop_
 _atom_site_type_symbol
 _atom_site_label
 _atom_site_symmetry_multiplicity
 _atom_site_fract_x
 _atom_site_fract_y
 _atom_site_fract_z
 _atom_site_occupancy
  Al  Al0  1  0.30894016  0.45589822  0.84486687  1
  Al  Al1  1  0.69975837  0.54902336  0.15070070  1
  Co  Co2  1  0.30422902  0.94769240  0.34465138  1
  Co  Co3  1  0.69804833  0.06487375  0.66227001  1
  O  O4  1  0.79953312  0.73701972  0.75767707  1
  O  O5  1  0.81161376  0.25634519  0.95623595  1
  O  O6  1  0.49037651  0.73301942  0.43474611  1
  O  O7  1  0.50126863  0.27306377  0.56279909  1
  O  O8  1  0.18862353  0.73552192  0.04001896  1
  O  O9  1  0.19760856  0.24754222  0.24603287  1
