# generated using pymatgen
data_NaMg6Al
_symmetry_space_group_name_H-M   'P 1'
_cell_length_a   6.41112774
_cell_length_b   6.41112721
_cell_length_c   5.15433842
_cell_angle_alpha   90.00000000
_cell_angle_beta   90.00000000
_cell_angle_gamma   119.85103965
_symmetry_Int_Tables_number   1
_chemical_formula_structural   NaMg6Al
_chemical_formula_sum   'Na1 Mg6 Al1'
_cell_volume   183.74787131
_cell_formula_units_Z   1
loop_
 _symmetry_equiv_pos_site_id
 _symmetry_equiv_pos_as_xyz
  1  'x, y, z'
loop_
 _atom_site_type_symbol
 _atom_site_label
 _atom_site_symmetry_multiplicity
 _atom_site_fract_x
 _atom_site_fract_y
 _atom_site_fract_z
 _atom_site_occupancy
  Na  Na0  1  0.33179992  0.16820008  0.75000000  1
  Mg  Mg1  1  0.16343107  0.82906038  0.25000000  1
  Mg  Mg2  1  0.67093962  0.33656893  0.25000000  1
  Mg  Mg3  1  0.66695672  0.83304328  0.25000000  1
  Mg  Mg4  1  0.32855929  0.65957887  0.75000000  1
  Mg  Mg5  1  0.84042113  0.17144071  0.75000000  1
  Mg  Mg6  1  0.83450268  0.66549732  0.75000000  1
  Al  Al7  1  0.16338957  0.33661043  0.25000000  1
