# generated using pymatgen
data_Ga3Fe
_symmetry_space_group_name_H-M   'P 1'
_cell_length_a   6.26757621
_cell_length_b   6.26682023
_cell_length_c   6.58098223
_cell_angle_alpha   89.98866976
_cell_angle_beta   89.99767123
_cell_angle_gamma   90.01639497
_symmetry_Int_Tables_number   1
_chemical_formula_structural   Ga3Fe
_chemical_formula_sum   'Ga12 Fe4'
_cell_volume   258.48631258
_cell_formula_units_Z   4
loop_
 _symmetry_equiv_pos_site_id
 _symmetry_equiv_pos_as_xyz
  1  'x, y, z'
loop_
 _atom_site_type_symbol
 _atom_site_label
 _atom_site_symmetry_multiplicity
 _atom_site_fract_x
 _atom_site_fract_y
 _atom_site_fract_z
 _atom_site_occupancy
  Ga  Ga0  1  0.34426610  0.65572158  0.76297479  1
  Ga  Ga1  1  0.15563040  0.15558045  0.73685138  1
  Ga  Ga2  1  0.65575071  0.34430276  0.23681031  1
  Ga  Ga3  1  0.65571945  0.34420689  0.76318520  1
  Ga  Ga4  1  0.49991416  0.99997113  0.00005762  1
  Ga  Ga5  1  0.84432880  0.84443222  0.26317282  1
  Ga  Ga6  1  0.00001108  0.50012760  0.49996772  1
  Ga  Ga7  1  0.15577767  0.15571079  0.26325150  1
  Ga  Ga8  1  0.34423052  0.65575926  0.23684381  1
  Ga  Ga9  1  0.84438421  0.84421065  0.73672822  1
  Ga  Ga10  1  0.49995020  0.00008926  0.50004064  1
  Ga  Ga11  1  0.00008069  0.49995070  0.00009990  1
  Fe  Fe12  1  0.84372051  0.15634514  0.50004209  1
  Fe  Fe13  1  0.15627571  0.84362443  0.50001483  1
  Fe  Fe14  1  0.34369651  0.34364924  0.00001317  1
  Fe  Fe15  1  0.65626428  0.65631791  -0.00005400  1
