# generated using pymatgen
data_MgFe2O5
_symmetry_space_group_name_H-M   'P 1'
_cell_length_a   5.25542846
_cell_length_b   5.25542846
_cell_length_c   9.75593650
_cell_angle_alpha   90.00000000
_cell_angle_beta   90.00000000
_cell_angle_gamma   43.77883390
_symmetry_Int_Tables_number   1
_chemical_formula_structural   MgFe2O5
_chemical_formula_sum   'Mg2 Fe4 O10'
_cell_volume   186.42914114
_cell_formula_units_Z   2
loop_
 _symmetry_equiv_pos_site_id
 _symmetry_equiv_pos_as_xyz
  1  'x, y, z'
loop_
 _atom_site_type_symbol
 _atom_site_label
 _atom_site_symmetry_multiplicity
 _atom_site_fract_x
 _atom_site_fract_y
 _atom_site_fract_z
 _atom_site_occupancy
  Mg  Mg0  1  0.20470267  0.20470267  0.25000000  1
  Mg  Mg1  1  0.79529733  0.79529733  0.75000000  1
  Fe  Fe2  1  0.13863945  0.13863945  0.56115728  1
  Fe  Fe3  1  0.13863945  0.13863945  0.93884272  1
  Fe  Fe4  1  0.86136055  0.86136055  0.06115728  1
  Fe  Fe5  1  0.86136055  0.86136055  0.43884272  1
  O  O6  1  0.04674091  0.04674091  0.11466264  1
  O  O7  1  0.04674091  0.04674091  0.38533736  1
  O  O8  1  0.30952194  0.30952194  0.05659005  1
  O  O9  1  0.30952194  0.30952194  0.44340995  1
  O  O10  1  0.78478973  0.78478973  0.25000000  1
  O  O11  1  0.21521027  0.21521027  0.75000000  1
  O  O12  1  0.69047806  0.69047806  0.55659005  1
  O  O13  1  0.95325909  0.95325909  0.61466264  1
  O  O14  1  0.69047806  0.69047806  0.94340995  1
  O  O15  1  0.95325909  0.95325909  0.88533736  1
