# generated using pymatgen
data_La(BiO2)2
_symmetry_space_group_name_H-M   'P 1'
_cell_length_a   4.03073639
_cell_length_b   9.57634107
_cell_length_c   4.03073661
_cell_angle_alpha   102.14888969
_cell_angle_beta   60.00000191
_cell_angle_gamma   102.14889123
_symmetry_Int_Tables_number   1
_chemical_formula_structural   La(BiO2)2
_chemical_formula_sum   'La1 Bi2 O4'
_cell_volume   130.70176273
_cell_formula_units_Z   1
loop_
 _symmetry_equiv_pos_site_id
 _symmetry_equiv_pos_as_xyz
  1  'x, y, z'
loop_
 _atom_site_type_symbol
 _atom_site_label
 _atom_site_symmetry_multiplicity
 _atom_site_fract_x
 _atom_site_fract_y
 _atom_site_fract_z
 _atom_site_occupancy
  La  La0  1  0.00000000  0.00000000  0.00000000  1
  Bi  Bi1  1  0.22273021  0.66819163  0.22273021  1
  Bi  Bi2  1  0.77726979  0.33180837  0.77726979  1
  O  O3  1  0.29996055  0.89988166  0.29996055  1
  O  O4  1  0.09569722  0.28709266  0.09569722  1
  O  O5  1  0.70003945  0.10011834  0.70003945  1
  O  O6  1  0.90430278  0.71290734  0.90430278  1
