# generated using pymatgen
data_NbO2
_symmetry_space_group_name_H-M   'P 1'
_cell_length_a   3.98746901
_cell_length_b   6.85026605
_cell_length_c   6.90766543
_cell_angle_alpha   73.13490035
_cell_angle_beta   89.91952712
_cell_angle_gamma   73.44498942
_symmetry_Int_Tables_number   1
_chemical_formula_structural   NbO2
_chemical_formula_sum   'Nb4 O8'
_cell_volume   172.40353304
_cell_formula_units_Z   4
loop_
 _symmetry_equiv_pos_site_id
 _symmetry_equiv_pos_as_xyz
  1  'x, y, z'
loop_
 _atom_site_type_symbol
 _atom_site_label
 _atom_site_symmetry_multiplicity
 _atom_site_fract_x
 _atom_site_fract_y
 _atom_site_fract_z
 _atom_site_occupancy
  Nb  Nb0  1  0.10248055  0.79732798  0.70653355  1
  Nb  Nb1  1  0.20077876  0.60651963  0.28920467  1
  Nb  Nb2  1  0.80183706  0.39048629  0.70992447  1
  Nb  Nb3  1  0.89940181  0.19980827  0.29260620  1
  O  O4  1  0.06213623  0.88360454  0.36224171  1
  O  O5  1  0.63888551  0.72352797  0.69288950  1
  O  O6  1  0.14219224  0.72234772  0.00281388  1
  O  O7  1  0.25996318  0.47717748  0.65192784  1
  O  O8  1  0.74199376  0.52085003  0.34726393  1
  O  O9  1  0.85847001  0.27568430  0.99626434  1
  O  O10  1  0.36313878  0.27360244  0.30630316  1
  O  O11  1  0.94121013  0.11351134  0.63657073  1
