# generated using pymatgen
data_TlHCO2
_symmetry_space_group_name_H-M   'P 1'
_cell_length_a   6.07319234
_cell_length_b   7.14380821
_cell_length_c   8.06035036
_cell_angle_alpha   90.00000000
_cell_angle_beta   90.00000000
_cell_angle_gamma   90.00000000
_symmetry_Int_Tables_number   1
_chemical_formula_structural   TlHCO2
_chemical_formula_sum   'Tl4 H4 C4 O8'
_cell_volume   349.70411429
_cell_formula_units_Z   4
loop_
 _symmetry_equiv_pos_site_id
 _symmetry_equiv_pos_as_xyz
  1  'x, y, z'
loop_
 _atom_site_type_symbol
 _atom_site_label
 _atom_site_symmetry_multiplicity
 _atom_site_fract_x
 _atom_site_fract_y
 _atom_site_fract_z
 _atom_site_occupancy
  Tl  Tl0  1  0.46679332  0.50778059  0.99357343  1
  Tl  Tl1  1  0.96679332  0.99221941  0.49357343  1
  Tl  Tl2  1  0.03320668  0.00778059  0.99357343  1
  Tl  Tl3  1  0.53320668  0.49221941  0.49357343  1
  H  H4  1  0.49256722  0.93587354  0.24150152  1
  H  H5  1  0.50743278  0.06412646  0.74150152  1
  H  H6  1  0.99256722  0.56412646  0.74150152  1
  H  H7  1  0.00743278  0.43587354  0.24150152  1
  C  C8  1  0.00070726  0.40828555  0.74024289  1
  C  C9  1  0.99929274  0.59171445  0.24024289  1
  C  C10  1  0.50070726  0.09171445  0.24024289  1
  C  C11  1  0.49929274  0.90828555  0.74024289  1
  O  O12  1  0.84422378  0.32155023  0.66881001  1
  O  O13  1  0.34422378  0.17844977  0.16881001  1
  O  O14  1  0.65577622  0.82155023  0.66881001  1
  O  O15  1  0.15577622  0.67844977  0.16881001  1
  O  O16  1  0.16483190  0.33143667  0.81037216  1
  O  O17  1  0.33516810  0.83143667  0.81037216  1
  O  O18  1  0.83516810  0.66856333  0.31037216  1
  O  O19  1  0.66483190  0.16856333  0.31037216  1
