# generated using pymatgen
data_KMnO2
_symmetry_space_group_name_H-M   'P 1'
_cell_length_a   2.91137590
_cell_length_b   6.54911312
_cell_length_c   6.68705185
_cell_angle_alpha   90.00939674
_cell_angle_beta   90.00029066
_cell_angle_gamma   90.00008087
_symmetry_Int_Tables_number   1
_chemical_formula_structural   KMnO2
_chemical_formula_sum   'K2 Mn2 O4'
_cell_volume   127.50154843
_cell_formula_units_Z   2
loop_
 _symmetry_equiv_pos_site_id
 _symmetry_equiv_pos_as_xyz
  1  'x, y, z'
loop_
 _atom_site_type_symbol
 _atom_site_label
 _atom_site_symmetry_multiplicity
 _atom_site_fract_x
 _atom_site_fract_y
 _atom_site_fract_z
 _atom_site_occupancy
  K  K0  1  0.49999540  0.00011600  0.49998419  1
  K  K1  1  0.00000564  0.49987787  0.99997550  1
  Mn  Mn2  1  0.49999415  0.50013999  0.49998681  1
  Mn  Mn3  1  0.00000759  0.99987036  0.00000232  1
  O  O4  1  0.99999764  0.34193638  0.38773392  1
  O  O5  1  0.49999907  0.15803113  0.88773943  1
  O  O6  1  0.00000057  0.65828937  0.61231527  1
  O  O7  1  0.50000094  0.84173890  0.11231057  1
