# generated using pymatgen
data_LiMg6Bi
_symmetry_space_group_name_H-M   'P 1'
_cell_length_a   6.45208114
_cell_length_b   6.28645415
_cell_length_c   5.28058042
_cell_angle_alpha   90.00000000
_cell_angle_beta   90.00000000
_cell_angle_gamma   119.15440989
_symmetry_Int_Tables_number   1
_chemical_formula_structural   LiMg6Bi
_chemical_formula_sum   'Li1 Mg6 Bi1'
_cell_volume   187.04911674
_cell_formula_units_Z   1
loop_
 _symmetry_equiv_pos_site_id
 _symmetry_equiv_pos_as_xyz
  1  'x, y, z'
loop_
 _atom_site_type_symbol
 _atom_site_label
 _atom_site_symmetry_multiplicity
 _atom_site_fract_x
 _atom_site_fract_y
 _atom_site_fract_z
 _atom_site_occupancy
  Li  Li0  1  0.16608073  0.33303986  0.25000000  1
  Mg  Mg1  1  0.66721881  0.33258971  0.25000000  1
  Mg  Mg2  1  0.66721881  0.83462811  0.25000000  1
  Mg  Mg3  1  0.33645270  0.17563341  0.75000000  1
  Mg  Mg4  1  0.33645270  0.66082029  0.75000000  1
  Mg  Mg5  1  0.83500150  0.16750125  0.75000000  1
  Mg  Mg6  1  0.82485347  0.66242724  0.75000000  1
  Bi  Bi7  1  0.16672127  0.83336013  0.25000000  1
