# generated using pymatgen
data_Fe2O3
_symmetry_space_group_name_H-M   'P 1'
_cell_length_a   5.17271118
_cell_length_b   5.32473535
_cell_length_c   7.52444136
_cell_angle_alpha   90.00000000
_cell_angle_beta   90.00000000
_cell_angle_gamma   90.00000000
_symmetry_Int_Tables_number   1
_chemical_formula_structural   Fe2O3
_chemical_formula_sum   'Fe8 O12'
_cell_volume   207.24808172
_cell_formula_units_Z   4
loop_
 _symmetry_equiv_pos_site_id
 _symmetry_equiv_pos_as_xyz
  1  'x, y, z'
loop_
 _atom_site_type_symbol
 _atom_site_label
 _atom_site_symmetry_multiplicity
 _atom_site_fract_x
 _atom_site_fract_y
 _atom_site_fract_z
 _atom_site_occupancy
  Fe  Fe0  1  0.24834520  0.53137193  0.11202967  1
  Fe  Fe1  1  0.25165480  0.03137193  0.38797033  1
  Fe  Fe2  1  0.25165480  0.46862807  0.61202967  1
  Fe  Fe3  1  0.24834520  0.96862807  0.88797033  1
  Fe  Fe4  1  0.75165480  0.46862807  0.88797033  1
  Fe  Fe5  1  0.74834520  0.96862807  0.61202967  1
  Fe  Fe6  1  0.74834520  0.53137193  0.38797033  1
  Fe  Fe7  1  0.75165480  0.03137193  0.11202967  1
  O  O8  1  0.39272056  0.60306498  0.84668666  1
  O  O9  1  0.10727944  0.10306498  0.65331334  1
  O  O10  1  0.10727944  0.39693502  0.34668666  1
  O  O11  1  0.39272056  0.89693502  0.15331334  1
  O  O12  1  0.60727944  0.39693502  0.15331334  1
  O  O13  1  0.89272056  0.89693502  0.34668666  1
  O  O14  1  0.89272056  0.60306498  0.65331334  1
  O  O15  1  0.60727944  0.10306498  0.84668666  1
  O  O16  1  0.95190989  0.75000000  -0.00000000  1
  O  O17  1  0.54809011  0.25000000  0.50000000  1
  O  O18  1  0.04809011  0.25000000  0.00000000  1
  O  O19  1  0.45190989  0.75000000  0.50000000  1
