# generated using pymatgen
data_FeRe
_symmetry_space_group_name_H-M   'P 1'
_cell_length_a   2.68875311
_cell_length_b   2.68867432
_cell_length_c   4.13992934
_cell_angle_alpha   89.98632206
_cell_angle_beta   90.01409472
_cell_angle_gamma   119.99193168
_symmetry_Int_Tables_number   1
_chemical_formula_structural   FeRe
_chemical_formula_sum   'Fe1 Re1'
_cell_volume   25.92077434
_cell_formula_units_Z   1
loop_
 _symmetry_equiv_pos_site_id
 _symmetry_equiv_pos_as_xyz
  1  'x, y, z'
loop_
 _atom_site_type_symbol
 _atom_site_label
 _atom_site_symmetry_multiplicity
 _atom_site_fract_x
 _atom_site_fract_y
 _atom_site_fract_z
 _atom_site_occupancy
  Fe  Fe0  1  0.66668268  0.33332166  0.74997160  1
  Re  Re1  1  0.33331932  0.66668134  0.25002940  1
