# generated using pymatgen
data_YAlO3
_symmetry_space_group_name_H-M   'P 1'
_cell_length_a   3.48856820
_cell_length_b   3.48856820
_cell_length_c   11.48382006
_cell_angle_alpha   90.00000000
_cell_angle_beta   90.00000000
_cell_angle_gamma   120.00000003
_symmetry_Int_Tables_number   1
_chemical_formula_structural   YAlO3
_chemical_formula_sum   'Y2 Al2 O6'
_cell_volume   121.03513122
_cell_formula_units_Z   2
loop_
 _symmetry_equiv_pos_site_id
 _symmetry_equiv_pos_as_xyz
  1  'x, y, z'
loop_
 _atom_site_type_symbol
 _atom_site_label
 _atom_site_symmetry_multiplicity
 _atom_site_fract_x
 _atom_site_fract_y
 _atom_site_fract_z
 _atom_site_occupancy
  O  O0  1  0.33333333  0.66666667  0.40829102  1
  O  O1  1  0.66666667  0.33333333  0.90829102  1
  O  O2  1  0.66666667  0.33333333  0.59170898  1
  O  O3  1  0.33333333  0.66666667  0.09170898  1
  O  O4  1  0.00000000  0.00000000  0.25000000  1
  O  O5  1  0.00000000  0.00000000  0.75000000  1
  Al  Al6  1  0.66666667  0.33333333  0.75000000  1
  Al  Al7  1  0.33333333  0.66666667  0.25000000  1
  Y  Y8  1  0.00000000  0.00000000  0.50000000  1
  Y  Y9  1  0.00000000  0.00000000  0.00000000  1
