# generated using pymatgen
data_YbH2
_symmetry_space_group_name_H-M   'P 1'
_cell_length_a   5.77732301
_cell_length_b   3.54151482
_cell_length_c   6.70668647
_cell_angle_alpha   90.00000000
_cell_angle_beta   90.00000000
_cell_angle_gamma   90.00000000
_symmetry_Int_Tables_number   1
_chemical_formula_structural   YbH2
_chemical_formula_sum   'Yb4 H8'
_cell_volume   137.22199125
_cell_formula_units_Z   4
loop_
 _symmetry_equiv_pos_site_id
 _symmetry_equiv_pos_as_xyz
  1  'x, y, z'
loop_
 _atom_site_type_symbol
 _atom_site_label
 _atom_site_symmetry_multiplicity
 _atom_site_fract_x
 _atom_site_fract_y
 _atom_site_fract_z
 _atom_site_occupancy
  Yb  Yb0  1  0.23941134  0.25000000  0.11158935  1
  Yb  Yb1  1  0.73941234  0.25000000  0.38840965  1
  Yb  Yb2  1  0.26058866  0.74999800  0.61158935  1
  Yb  Yb3  1  0.76058966  0.74999800  0.88840965  1
  H  H4  1  0.85243230  0.25000000  0.07156847  1
  H  H5  1  0.52704878  0.74999800  0.18269988  1
  H  H6  1  0.02704878  0.74999800  0.31729912  1
  H  H7  1  0.35243330  0.25000000  0.42843253  1
  H  H8  1  0.64756570  0.74999800  0.57156847  1
  H  H9  1  0.97295122  0.25000000  0.68269988  1
  H  H10  1  0.47295222  0.25000000  0.81730012  1
  H  H11  1  0.14756670  0.74999800  0.92843153  1
