# generated using pymatgen
data_Cu(SbO2)2
_symmetry_space_group_name_H-M   'P 1'
_cell_length_a   8.91462397
_cell_length_b   8.91456607
_cell_length_c   5.89161634
_cell_angle_alpha   89.99927049
_cell_angle_beta   89.99959394
_cell_angle_gamma   89.99973758
_symmetry_Int_Tables_number   1
_chemical_formula_structural   Cu(SbO2)2
_chemical_formula_sum   'Cu4 Sb8 O16'
_cell_volume   468.20677626
_cell_formula_units_Z   4
loop_
 _symmetry_equiv_pos_site_id
 _symmetry_equiv_pos_as_xyz
  1  'x, y, z'
loop_
 _atom_site_type_symbol
 _atom_site_label
 _atom_site_symmetry_multiplicity
 _atom_site_fract_x
 _atom_site_fract_y
 _atom_site_fract_z
 _atom_site_occupancy
  Cu  Cu0  1  0.00000557  0.50000535  0.24999621  1
  Cu  Cu1  1  0.00000652  0.50000172  0.75000535  1
  Cu  Cu2  1  0.49999962  0.00000022  0.24999308  1
  Cu  Cu3  1  0.50000014  0.00001374  0.74998819  1
  Sb  Sb4  1  0.15233557  0.81106900  0.50003008  1
  Sb  Sb5  1  0.18893492  0.15230099  0.00000169  1
  Sb  Sb6  1  0.31105908  0.65233888  0.00003046  1
  Sb  Sb7  1  0.34764571  0.31106082  0.49999430  1
  Sb  Sb8  1  0.65229110  0.68893302  0.50000531  1
  Sb  Sb9  1  0.68896746  0.34766168  0.99999434  1
  Sb  Sb10  1  0.81103956  0.84766249  0.99999909  1
  Sb  Sb11  1  0.84771390  0.18894174  0.49999740  1
  O  O12  1  0.09117392  0.61920074  0.00000825  1
  O  O13  1  0.11919647  0.59118220  0.50000575  1
  O  O14  1  0.19638591  0.30356241  0.25000431  1
  O  O15  1  0.19638947  0.30356625  0.74999433  1
  O  O16  1  0.30354958  0.80363755  0.24997506  1
  O  O17  1  0.30362848  0.80355340  0.74998052  1
  O  O18  1  0.38079685  0.09117603  0.49999312  1
  O  O19  1  0.40882557  0.11919798  0.00000641  1
  O  O20  1  0.59115639  0.88079911  0.99999444  1
  O  O21  1  0.61918066  0.90882290  0.50000504  1
  O  O22  1  0.69646026  0.19639791  0.24998876  1
  O  O23  1  0.69646074  0.19639297  0.75001009  1
  O  O24  1  0.80355318  0.69639855  0.24999811  1
  O  O25  1  0.80355268  0.69639907  0.75000354  1
  O  O26  1  0.88081292  0.40883269  0.49999237  1
  O  O27  1  0.90884678  0.38080060  0.00000140  1
