# generated using pymatgen
data_Ta2CuO6
_symmetry_space_group_name_H-M   'P 1'
_cell_length_a   5.64067744
_cell_length_b   5.55157614
_cell_length_c   5.56039813
_cell_angle_alpha   55.46517977
_cell_angle_beta   56.14461717
_cell_angle_gamma   56.14580688
_symmetry_Int_Tables_number   1
_chemical_formula_structural   Ta2CuO6
_chemical_formula_sum   'Ta2 Cu1 O6'
_cell_volume   111.46473073
_cell_formula_units_Z   1
loop_
 _symmetry_equiv_pos_site_id
 _symmetry_equiv_pos_as_xyz
  1  'x, y, z'
loop_
 _atom_site_type_symbol
 _atom_site_label
 _atom_site_symmetry_multiplicity
 _atom_site_fract_x
 _atom_site_fract_y
 _atom_site_fract_z
 _atom_site_occupancy
  Ta  Ta0  1  0.99826910  0.99573788  0.99426479  1
  Ta  Ta1  1  0.50297376  0.50542800  0.50364550  1
  Cu  Cu2  1  0.75180599  0.76612658  0.73209100  1
  O  O3  1  0.12814201  0.73744886  0.38026016  1
  O  O4  1  0.37359204  0.11744433  0.76422350  1
  O  O5  1  0.74855179  0.38586336  0.11507503  1
  O  O6  1  0.24790111  0.65661446  0.84349794  1
  O  O7  1  0.65810499  0.84295255  0.25918464  1
  O  O8  1  0.84146021  0.24318298  0.65775842  1
