# generated using pymatgen
data_Mg6AlSb
_symmetry_space_group_name_H-M   'P 1'
_cell_length_a   6.28873840
_cell_length_b   6.28873791
_cell_length_c   5.24870091
_cell_angle_alpha   90.00000000
_cell_angle_beta   90.00000000
_cell_angle_gamma   120.92792882
_symmetry_Int_Tables_number   1
_chemical_formula_structural   Mg6AlSb
_chemical_formula_sum   'Mg6 Al1 Sb1'
_cell_volume   178.06240010
_cell_formula_units_Z   1
loop_
 _symmetry_equiv_pos_site_id
 _symmetry_equiv_pos_as_xyz
  1  'x, y, z'
loop_
 _atom_site_type_symbol
 _atom_site_label
 _atom_site_symmetry_multiplicity
 _atom_site_fract_x
 _atom_site_fract_y
 _atom_site_fract_z
 _atom_site_occupancy
  Mg  Mg0  1  0.16514160  0.83172329  0.25000000  1
  Mg  Mg1  1  0.66827671  0.33485840  0.25000000  1
  Mg  Mg2  1  0.66757480  0.83242520  0.25000000  1
  Mg  Mg3  1  0.33311155  0.66011261  0.75000000  1
  Mg  Mg4  1  0.83988739  0.16688845  0.75000000  1
  Mg  Mg5  1  0.83221362  0.66778638  0.75000000  1
  Al  Al6  1  0.15881378  0.34118622  0.25000000  1
  Sb  Sb7  1  0.33498055  0.16501945  0.75000000  1
