# generated using pymatgen
data_ErNbOs2
_symmetry_space_group_name_H-M   'P 1'
_cell_length_a   4.63470557
_cell_length_b   4.63469669
_cell_length_c   4.63470031
_cell_angle_alpha   59.99995438
_cell_angle_beta   60.00014091
_cell_angle_gamma   59.99975896
_symmetry_Int_Tables_number   1
_chemical_formula_structural   ErNbOs2
_chemical_formula_sum   'Er1 Nb1 Os2'
_cell_volume   70.39627013
_cell_formula_units_Z   1
loop_
 _symmetry_equiv_pos_site_id
 _symmetry_equiv_pos_as_xyz
  1  'x, y, z'
loop_
 _atom_site_type_symbol
 _atom_site_label
 _atom_site_symmetry_multiplicity
 _atom_site_fract_x
 _atom_site_fract_y
 _atom_site_fract_z
 _atom_site_occupancy
  Er  Er0  1  0.25000228  0.24999344  0.25000146  1
  Nb  Nb1  1  0.75000084  0.75000238  0.74999938  1
  Os  Os2  1  0.99999931  0.00000263  0.99999754  1
  Os  Os3  1  0.49999758  0.50000155  0.50000162  1
