# generated using pymatgen
data_B2S3
_symmetry_space_group_name_H-M   'P 1'
_cell_length_a   5.45657083
_cell_length_b   5.45657208
_cell_length_c   8.37706407
_cell_angle_alpha   109.00710154
_cell_angle_beta   70.99290265
_cell_angle_gamma   119.99999238
_symmetry_Int_Tables_number   1
_chemical_formula_structural   B2S3
_chemical_formula_sum   'B4 S6'
_cell_volume   200.14768904
_cell_formula_units_Z   2
loop_
 _symmetry_equiv_pos_site_id
 _symmetry_equiv_pos_as_xyz
  1  'x, y, z'
loop_
 _atom_site_type_symbol
 _atom_site_label
 _atom_site_symmetry_multiplicity
 _atom_site_fract_x
 _atom_site_fract_y
 _atom_site_fract_z
 _atom_site_occupancy
  B  B0  1  0.58358700  0.41641200  0.24923700  1
  B  B1  1  0.91641200  0.08358700  0.25076200  1
  B  B2  1  0.08358700  0.91641300  0.74923800  1
  B  B3  1  0.41641200  0.58358700  0.75076300  1
  S  S4  1  0.91833459  0.41833359  0.25000000  1
  S  S5  1  0.24999900  0.08166541  0.25000000  1
  S  S6  1  0.58166641  0.75000100  0.25000000  1
  S  S7  1  0.41833259  0.25000000  0.75000000  1
  S  S8  1  0.74999800  0.91833059  0.75000000  1
  S  S9  1  0.08166641  0.58166641  0.75000000  1
