# generated using pymatgen
data_Mn3NiO4
_symmetry_space_group_name_H-M   'P 1'
_cell_length_a   3.14062447
_cell_length_b   5.42842407
_cell_length_c   5.42842407
_cell_angle_alpha   70.43232034
_cell_angle_beta   90.00000000
_cell_angle_gamma   90.00000000
_symmetry_Int_Tables_number   1
_chemical_formula_structural   Mn3NiO4
_chemical_formula_sum   'Mn3 Ni1 O4'
_cell_volume   87.20233070
_cell_formula_units_Z   1
loop_
 _symmetry_equiv_pos_site_id
 _symmetry_equiv_pos_as_xyz
  1  'x, y, z'
loop_
 _atom_site_type_symbol
 _atom_site_label
 _atom_site_symmetry_multiplicity
 _atom_site_fract_x
 _atom_site_fract_y
 _atom_site_fract_z
 _atom_site_occupancy
  Mn  Mn0  1  0.00000000  0.50000000  0.50000000  1
  Mn  Mn1  1  0.50000000  0.00000000  0.50000000  1
  Mn  Mn2  1  0.50000000  0.50000000  0.00000000  1
  Ni  Ni3  1  0.00000000  0.00000000  0.00000000  1
  O  O4  1  0.00000000  0.75311795  0.75311795  1
  O  O5  1  0.50000000  0.24088238  0.75911762  1
  O  O6  1  0.50000000  0.75911762  0.24088238  1
  O  O7  1  0.00000000  0.24688205  0.24688205  1
