# generated using pymatgen
data_HC
_symmetry_space_group_name_H-M   'P 1'
_cell_length_a   4.86191141
_cell_length_b   6.00038026
_cell_length_c   6.10339040
_cell_angle_alpha   60.55674966
_cell_angle_beta   82.07503539
_cell_angle_gamma   73.71078900
_symmetry_Int_Tables_number   1
_chemical_formula_structural   HC
_chemical_formula_sum   'H8 C8'
_cell_volume   148.83459010
_cell_formula_units_Z   8
loop_
 _symmetry_equiv_pos_site_id
 _symmetry_equiv_pos_as_xyz
  1  'x, y, z'
loop_
 _atom_site_type_symbol
 _atom_site_label
 _atom_site_symmetry_multiplicity
 _atom_site_fract_x
 _atom_site_fract_y
 _atom_site_fract_z
 _atom_site_occupancy
  H  H0  1  0.27361459  0.95895756  0.40417276  1
  H  H1  1  0.72638541  0.63686969  0.40417276  1
  H  H2  1  0.72638541  0.04104244  0.59582724  1
  H  H3  1  0.27361459  0.36313031  0.59582724  1
  H  H4  1  0.83688168  0.45085243  0.83452613  1
  H  H5  1  0.16311832  0.71462144  0.83452613  1
  H  H6  1  0.16311832  0.54914757  0.16547387  1
  H  H7  1  0.83688168  0.28537856  0.16547387  1
  C  C8  1  0.23910257  0.18194928  1.00000000  1
  C  C9  1  0.76089743  0.81805072  0.00000000  1
  C  C10  1  0.96830240  0.38058757  0.00000000  1
  C  C11  1  0.03169760  0.61941243  1.00000000  1
  C  C12  1  0.37214763  0.97684351  0.22576675  1
  C  C13  1  0.62785237  0.79738974  0.22576675  1
  C  C14  1  0.62785237  0.02315649  0.77423325  1
  C  C15  1  0.37214763  0.20261026  0.77423325  1
