# generated using pymatgen
data_Mg2Mn3O6
_symmetry_space_group_name_H-M   'P 1'
_cell_length_a   2.94672698
_cell_length_b   5.46622134
_cell_length_c   7.99669580
_cell_angle_alpha   101.30438415
_cell_angle_beta   100.63673412
_cell_angle_gamma   89.99939461
_symmetry_Int_Tables_number   1
_chemical_formula_structural   Mg2Mn3O6
_chemical_formula_sum   'Mg2 Mn3 O6'
_cell_volume   124.04980413
_cell_formula_units_Z   1
loop_
 _symmetry_equiv_pos_site_id
 _symmetry_equiv_pos_as_xyz
  1  'x, y, z'
loop_
 _atom_site_type_symbol
 _atom_site_label
 _atom_site_symmetry_multiplicity
 _atom_site_fract_x
 _atom_site_fract_y
 _atom_site_fract_z
 _atom_site_occupancy
  Mg  Mg0  1  0.82422018  0.91228046  0.64827931  1
  Mg  Mg1  1  0.17575122  0.08766272  0.35164443  1
  Mn  Mn2  1  0.00016453  0.00007978  0.00013379  1
  Mn  Mn3  1  0.35376456  0.41369114  0.70706637  1
  Mn  Mn4  1  0.64629064  0.58623134  0.29301427  1
  O  O5  1  0.59194253  0.91273867  0.18434146  1
  O  O6  1  0.40806520  0.08729700  0.81559766  1
  O  O7  1  0.10024189  0.36462392  0.20107694  1
  O  O8  1  0.89973807  0.63542262  0.79889245  1
  O  O9  1  0.23036073  0.76057510  0.46071423  1
  O  O10  1  0.76963445  0.23940326  0.53923808  1
