# generated using pymatgen
data_Mg6CdNi
_symmetry_space_group_name_H-M   'P 1'
_cell_length_a   6.12448925
_cell_length_b   6.19939369
_cell_length_c   4.84934024
_cell_angle_alpha   90.00000000
_cell_angle_beta   90.00000000
_cell_angle_gamma   120.40541197
_symmetry_Int_Tables_number   1
_chemical_formula_structural   Mg6CdNi
_chemical_formula_sum   'Mg6 Cd1 Ni1'
_cell_volume   158.79750197
_cell_formula_units_Z   1
loop_
 _symmetry_equiv_pos_site_id
 _symmetry_equiv_pos_as_xyz
  1  'x, y, z'
loop_
 _atom_site_type_symbol
 _atom_site_label
 _atom_site_symmetry_multiplicity
 _atom_site_fract_x
 _atom_site_fract_y
 _atom_site_fract_z
 _atom_site_occupancy
  Mg  Mg0  1  0.66848249  0.33301794  0.25000000  1
  Mg  Mg1  1  0.66848249  0.83546355  0.25000000  1
  Mg  Mg2  1  0.32434705  0.17459637  0.75000000  1
  Mg  Mg3  1  0.32434705  0.64975168  0.75000000  1
  Mg  Mg4  1  0.84862027  0.17431063  0.75000000  1
  Mg  Mg5  1  0.83327764  0.66663932  0.75000000  1
  Cd  Cd6  1  0.16705461  0.83352680  0.25000000  1
  Ni  Ni7  1  0.16538842  0.33269371  0.25000000  1
