# generated using pymatgen
data_Mg6CdNi
_symmetry_space_group_name_H-M   'P 1'
_cell_length_a   6.14909153
_cell_length_b   6.14909108
_cell_length_c   4.90633489
_cell_angle_alpha   90.00000000
_cell_angle_beta   90.00000000
_cell_angle_gamma   120.08603081
_symmetry_Int_Tables_number   1
_chemical_formula_structural   Mg6CdNi
_chemical_formula_sum   'Mg6 Cd1 Ni1'
_cell_volume   160.52125967
_cell_formula_units_Z   1
loop_
 _symmetry_equiv_pos_site_id
 _symmetry_equiv_pos_as_xyz
  1  'x, y, z'
loop_
 _atom_site_type_symbol
 _atom_site_label
 _atom_site_symmetry_multiplicity
 _atom_site_fract_x
 _atom_site_fract_y
 _atom_site_fract_z
 _atom_site_occupancy
  Mg  Mg0  1  0.16581895  0.83384335  0.25000000  1
  Mg  Mg1  1  0.66615665  0.33418105  0.25000000  1
  Mg  Mg2  1  0.66685392  0.83314608  0.25000000  1
  Mg  Mg3  1  0.32715918  0.64678733  0.75000000  1
  Mg  Mg4  1  0.85321267  0.17284082  0.75000000  1
  Mg  Mg5  1  0.83273295  0.66726705  0.75000000  1
  Cd  Cd6  1  0.33042808  0.16957192  0.75000000  1
  Ni  Ni7  1  0.15763760  0.34236240  0.25000000  1
