# generated using pymatgen
data_Be12Ag
_symmetry_space_group_name_H-M   'P 1'
_cell_length_a   4.26306039
_cell_length_b   5.62572475
_cell_length_c   5.62572475
_cell_angle_alpha   81.74624133
_cell_angle_beta   67.73506365
_cell_angle_gamma   67.73506354
_symmetry_Int_Tables_number   1
_chemical_formula_structural   Be12Ag
_chemical_formula_sum   'Be12 Ag1'
_cell_volume   115.55177799
_cell_formula_units_Z   1
loop_
 _symmetry_equiv_pos_site_id
 _symmetry_equiv_pos_as_xyz
  1  'x, y, z'
loop_
 _atom_site_type_symbol
 _atom_site_label
 _atom_site_symmetry_multiplicity
 _atom_site_fract_x
 _atom_site_fract_y
 _atom_site_fract_z
 _atom_site_occupancy
  Be  Be0  1  0.50000000  0.00000000  0.50000000  1
  Be  Be1  1  0.00000000  0.50000000  0.00000000  1
  Be  Be2  1  0.50000000  0.50000000  0.00000000  1
  Be  Be3  1  0.00000000  0.00000000  0.50000000  1
  Be  Be4  1  0.35321461  0.64678539  0.64678539  1
  Be  Be5  1  0.00000000  0.35321461  0.64678539  1
  Be  Be6  1  0.00000000  0.64678539  0.35321461  1
  Be  Be7  1  0.64678539  0.35321461  0.35321461  1
  Be  Be8  1  0.26550062  0.23449938  0.23449938  1
  Be  Be9  1  0.50000000  0.76550062  0.23449938  1
  Be  Be10  1  0.50000000  0.23449938  0.76550062  1
  Be  Be11  1  0.73449938  0.76550062  0.76550062  1
  Ag  Ag12  1  0.00000000  0.00000000  0.00000000  1
