# generated using pymatgen
data_ZnBi
_symmetry_space_group_name_H-M   'P 1'
_cell_length_a   6.58626256
_cell_length_b   8.13597997
_cell_length_c   8.46817815
_cell_angle_alpha   90.00000000
_cell_angle_beta   90.00000000
_cell_angle_gamma   90.00000000
_symmetry_Int_Tables_number   1
_chemical_formula_structural   ZnBi
_chemical_formula_sum   'Zn8 Bi8'
_cell_volume   453.77325614
_cell_formula_units_Z   8
loop_
 _symmetry_equiv_pos_site_id
 _symmetry_equiv_pos_as_xyz
  1  'x, y, z'
loop_
 _atom_site_type_symbol
 _atom_site_label
 _atom_site_symmetry_multiplicity
 _atom_site_fract_x
 _atom_site_fract_y
 _atom_site_fract_z
 _atom_site_occupancy
  Zn  Zn0  1  0.45927808  0.10481050  0.87515063  1
  Zn  Zn1  1  0.95927808  0.39518950  0.12484937  1
  Zn  Zn2  1  0.54072192  0.60481050  0.62484937  1
  Zn  Zn3  1  0.04072192  0.89518950  0.37515063  1
  Zn  Zn4  1  0.54072192  0.89518950  0.12484937  1
  Zn  Zn5  1  0.04072192  0.60481050  0.87515063  1
  Zn  Zn6  1  0.45927808  0.39518950  0.37515063  1
  Zn  Zn7  1  0.95927808  0.10481050  0.62484937  1
  Bi  Bi8  1  0.14563542  0.08651619  0.11271136  1
  Bi  Bi9  1  0.64563542  0.41348381  0.88728864  1
  Bi  Bi10  1  0.85436458  0.58651619  0.38728864  1
  Bi  Bi11  1  0.35436458  0.91348381  0.61271136  1
  Bi  Bi12  1  0.85436458  0.91348381  0.88728864  1
  Bi  Bi13  1  0.35436458  0.58651619  0.11271136  1
  Bi  Bi14  1  0.14563542  0.41348381  0.61271136  1
  Bi  Bi15  1  0.64563542  0.08651619  0.38728864  1
