# generated using pymatgen
data_LiMg6Si
_symmetry_space_group_name_H-M   'P 1'
_cell_length_a   6.21243848
_cell_length_b   6.21243800
_cell_length_c   4.96144938
_cell_angle_alpha   90.00000000
_cell_angle_beta   90.00000000
_cell_angle_gamma   120.00132841
_symmetry_Int_Tables_number   1
_chemical_formula_structural   LiMg6Si
_chemical_formula_sum   'Li1 Mg6 Si1'
_cell_volume   165.82788112
_cell_formula_units_Z   1
loop_
 _symmetry_equiv_pos_site_id
 _symmetry_equiv_pos_as_xyz
  1  'x, y, z'
loop_
 _atom_site_type_symbol
 _atom_site_label
 _atom_site_symmetry_multiplicity
 _atom_site_fract_x
 _atom_site_fract_y
 _atom_site_fract_z
 _atom_site_occupancy
  Li  Li0  1  0.16968062  0.33031938  0.25000000  1
  Mg  Mg1  1  0.17026530  0.84134568  0.25000000  1
  Mg  Mg2  1  0.65865432  0.32973470  0.25000000  1
  Mg  Mg3  1  0.66582689  0.83417311  0.25000000  1
  Mg  Mg4  1  0.33296311  0.66216269  0.75000000  1
  Mg  Mg5  1  0.83783731  0.16703689  0.75000000  1
  Mg  Mg6  1  0.83251132  0.66748868  0.75000000  1
  Si  Si7  1  0.33226113  0.16773887  0.75000000  1
