# generated using pymatgen
data_YGe2
_symmetry_space_group_name_H-M   'P 1'
_cell_length_a   3.99503133
_cell_length_b   3.99503133
_cell_length_c   8.79228729
_cell_angle_alpha   103.13166421
_cell_angle_beta   103.13166420
_cell_angle_gamma   89.99999996
_symmetry_Int_Tables_number   1
_chemical_formula_structural   YGe2
_chemical_formula_sum   'Y2 Ge4'
_cell_volume   132.88707546
_cell_formula_units_Z   2
loop_
 _symmetry_equiv_pos_site_id
 _symmetry_equiv_pos_as_xyz
  1  'x, y, z'
loop_
 _atom_site_type_symbol
 _atom_site_label
 _atom_site_symmetry_multiplicity
 _atom_site_fract_x
 _atom_site_fract_y
 _atom_site_fract_z
 _atom_site_occupancy
  Ge  Ge0  1  0.70298592  0.95298592  0.90597183  1
  Ge  Ge1  1  0.45298592  0.20298592  0.40597183  1
  Ge  Ge2  1  0.54701408  0.79701408  0.59402817  1
  Ge  Ge3  1  0.29701408  0.04701408  0.09402817  1
  Y  Y4  1  0.87500000  0.62500000  0.25000000  1
  Y  Y5  1  0.12500000  0.37500000  0.75000000  1
