# generated using pymatgen
data_Mg6TiCd
_symmetry_space_group_name_H-M   'P 1'
_cell_length_a   6.33758597
_cell_length_b   6.27977180
_cell_length_c   4.98136128
_cell_angle_alpha   90.00000000
_cell_angle_beta   90.00000000
_cell_angle_gamma   119.69869374
_symmetry_Int_Tables_number   1
_chemical_formula_structural   Mg6TiCd
_chemical_formula_sum   'Mg6 Ti1 Cd1'
_cell_volume   172.20945636
_cell_formula_units_Z   1
loop_
 _symmetry_equiv_pos_site_id
 _symmetry_equiv_pos_as_xyz
  1  'x, y, z'
loop_
 _atom_site_type_symbol
 _atom_site_label
 _atom_site_symmetry_multiplicity
 _atom_site_fract_x
 _atom_site_fract_y
 _atom_site_fract_z
 _atom_site_occupancy
  Mg  Mg0  1  0.66531432  0.33004814  0.25000000  1
  Mg  Mg1  1  0.66531432  0.83526518  0.25000000  1
  Mg  Mg2  1  0.32993167  0.17039032  0.75000000  1
  Mg  Mg3  1  0.32993167  0.65954235  0.75000000  1
  Mg  Mg4  1  0.84156005  0.17078052  0.75000000  1
  Mg  Mg5  1  0.83449393  0.66724746  0.75000000  1
  Ti  Ti6  1  0.16425438  0.33212669  0.25000000  1
  Cd  Cd7  1  0.16919967  0.83459933  0.25000000  1
