# generated using pymatgen
data_Ta2Al
_symmetry_space_group_name_H-M   'P 1'
_cell_length_a   5.41383242
_cell_length_b   9.92245041
_cell_length_c   9.92233932
_cell_angle_alpha   89.99489792
_cell_angle_beta   89.99976823
_cell_angle_gamma   90.00013927
_symmetry_Int_Tables_number   1
_chemical_formula_structural   Ta2Al
_chemical_formula_sum   'Ta20 Al10'
_cell_volume   533.01302105
_cell_formula_units_Z   10
loop_
 _symmetry_equiv_pos_site_id
 _symmetry_equiv_pos_as_xyz
  1  'x, y, z'
loop_
 _atom_site_type_symbol
 _atom_site_label
 _atom_site_symmetry_multiplicity
 _atom_site_fract_x
 _atom_site_fract_y
 _atom_site_fract_z
 _atom_site_occupancy
  Ta  Ta0  1  0.75163822  0.18857791  0.18857219  1
  Ta  Ta1  1  0.49999980  0.56222615  0.76295096  1
  Ta  Ta2  1  0.49999563  0.23702972  0.43776338  1
  Ta  Ta3  1  0.99999971  0.06224953  0.73703999  1
  Ta  Ta4  1  0.25162306  0.68855533  0.31143437  1
  Ta  Ta5  1  0.50000123  0.09684950  0.90316008  1
  Ta  Ta6  1  -0.00000002  0.93776614  0.26295489  1
  Ta  Ta7  1  0.74837756  0.68855433  0.31143397  1
  Ta  Ta8  1  0.25162722  0.31142857  0.68856957  1
  Ta  Ta9  1  0.24835908  0.18858046  0.18857275  1
  Ta  Ta10  1  0.00000093  0.59683908  0.59685882  1
  Ta  Ta11  1  0.50000094  0.43775703  0.23704212  1
  Ta  Ta12  1  0.99999887  0.26296918  0.93775621  1
  Ta  Ta13  1  0.24836920  0.81144271  0.81143171  1
  Ta  Ta14  1  0.99999932  0.40313229  0.40314642  1
  Ta  Ta15  1  0.50000050  0.90319116  0.09682372  1
  Ta  Ta16  1  0.00000006  0.73706414  0.06224482  1
  Ta  Ta17  1  0.74837282  0.31142801  0.68856896  1
  Ta  Ta18  1  0.75163090  0.81144357  0.81143302  1
  Ta  Ta19  1  0.50000283  0.76292825  0.56223898  1
  Al  Al20  1  0.99999439  0.13610715  0.46525017  1
  Al  Al21  1  0.00000045  0.53473921  0.86390374  1
  Al  Al22  1  0.49999956  0.36385698  0.96531712  1
  Al  Al23  1  0.50000080  0.96531079  0.36385599  1
  Al  Al24  1  0.49999902  0.03467868  0.63614635  1
  Al  Al25  1  0.00000016  0.46525329  0.13611428  1
  Al  Al26  1  0.00000326  0.86389388  0.53473442  1
  Al  Al27  1  0.50000040  0.63614968  0.03468104  1
  Al  Al28  1  0.00000102  0.00002804  0.00000141  1
  Al  Al29  1  0.50000009  0.49996926  0.49999854  1
