# generated using pymatgen
data_ScI2
_symmetry_space_group_name_H-M   'P 1'
_cell_length_a   7.23998660
_cell_length_b   7.24001306
_cell_length_c   4.10657201
_cell_angle_alpha   89.99979989
_cell_angle_beta   90.00052367
_cell_angle_gamma   90.00090811
_symmetry_Int_Tables_number   1
_chemical_formula_structural   ScI2
_chemical_formula_sum   'Sc2 I4'
_cell_volume   215.25663886
_cell_formula_units_Z   2
loop_
 _symmetry_equiv_pos_site_id
 _symmetry_equiv_pos_as_xyz
  1  'x, y, z'
loop_
 _atom_site_type_symbol
 _atom_site_label
 _atom_site_symmetry_multiplicity
 _atom_site_fract_x
 _atom_site_fract_y
 _atom_site_fract_z
 _atom_site_occupancy
  Sc  Sc0  1  0.99999659  0.00000109  0.00000080  1
  Sc  Sc1  1  0.49999973  0.50000030  0.49999702  1
  I  I2  1  0.29326744  0.29326627  0.00000034  1
  I  I3  1  0.70673376  0.70673221  0.99999969  1
  I  I4  1  0.79326642  0.20673298  0.49999895  1
  I  I5  1  0.20673407  0.79326515  0.50000019  1
