# generated using pymatgen
data_RbGe3
_symmetry_space_group_name_H-M   'P 1'
_cell_length_a   7.51291330
_cell_length_b   7.51291304
_cell_length_c   4.94776530
_cell_angle_alpha   90.00000000
_cell_angle_beta   90.00000000
_cell_angle_gamma   120.00000116
_symmetry_Int_Tables_number   1
_chemical_formula_structural   RbGe3
_chemical_formula_sum   'Rb2 Ge6'
_cell_volume   241.85577170
_cell_formula_units_Z   2
loop_
 _symmetry_equiv_pos_site_id
 _symmetry_equiv_pos_as_xyz
  1  'x, y, z'
loop_
 _atom_site_type_symbol
 _atom_site_label
 _atom_site_symmetry_multiplicity
 _atom_site_fract_x
 _atom_site_fract_y
 _atom_site_fract_z
 _atom_site_occupancy
  Rb  Rb0  1  0.33333400  0.66666700  0.75000000  1
  Rb  Rb1  1  0.66666600  0.33333200  0.24999900  1
  Ge  Ge2  1  0.11758168  0.23516335  0.24999900  1
  Ge  Ge3  1  0.76483765  0.88241932  0.24999900  1
  Ge  Ge4  1  0.11758168  0.88241932  0.24999900  1
  Ge  Ge5  1  0.88241832  0.76483665  0.75000000  1
  Ge  Ge6  1  0.23516235  0.11758068  0.75000000  1
  Ge  Ge7  1  0.88241832  0.11758068  0.75000000  1
