# generated using pymatgen
data_Mg6ZnNi
_symmetry_space_group_name_H-M   'P 1'
_cell_length_a   6.03939592
_cell_length_b   6.03939548
_cell_length_c   4.83225504
_cell_angle_alpha   90.00000000
_cell_angle_beta   90.00000000
_cell_angle_gamma   119.80664572
_symmetry_Int_Tables_number   1
_chemical_formula_structural   Mg6ZnNi
_chemical_formula_sum   'Mg6 Zn1 Ni1'
_cell_volume   152.93620938
_cell_formula_units_Z   1
loop_
 _symmetry_equiv_pos_site_id
 _symmetry_equiv_pos_as_xyz
  1  'x, y, z'
loop_
 _atom_site_type_symbol
 _atom_site_label
 _atom_site_symmetry_multiplicity
 _atom_site_fract_x
 _atom_site_fract_y
 _atom_site_fract_z
 _atom_site_occupancy
  Mg  Mg0  1  0.17190184  0.85555001  0.25000000  1
  Mg  Mg1  1  0.64444999  0.32809816  0.25000000  1
  Mg  Mg2  1  0.66614005  0.83385995  0.25000000  1
  Mg  Mg3  1  0.33219813  0.65500622  0.75000000  1
  Mg  Mg4  1  0.84499378  0.16780187  0.75000000  1
  Mg  Mg5  1  0.83439456  0.66560544  0.75000000  1
  Zn  Zn6  1  0.17098147  0.32901853  0.25000000  1
  Ni  Ni7  1  0.33494017  0.16505983  0.75000000  1
