# generated using pymatgen
data_Mg7Ti
_symmetry_space_group_name_H-M   'P 1'
_cell_length_a   6.36111501
_cell_length_b   6.36111450
_cell_length_c   5.04641670
_cell_angle_alpha   90.00000000
_cell_angle_beta   90.00000000
_cell_angle_gamma   120.00000272
_symmetry_Int_Tables_number   1
_chemical_formula_structural   Mg7Ti
_chemical_formula_sum   'Mg7 Ti1'
_cell_volume   176.83987089
_cell_formula_units_Z   1
loop_
 _symmetry_equiv_pos_site_id
 _symmetry_equiv_pos_as_xyz
  1  'x, y, z'
loop_
 _atom_site_type_symbol
 _atom_site_label
 _atom_site_symmetry_multiplicity
 _atom_site_fract_x
 _atom_site_fract_y
 _atom_site_fract_z
 _atom_site_occupancy
  Mg  Mg0  1  0.16939432  0.83469666  0.25000000  1
  Mg  Mg1  1  0.66530334  0.33060568  0.25000000  1
  Mg  Mg2  1  0.66530334  0.83469666  0.25000000  1
  Mg  Mg3  1  0.32915942  0.17084058  0.75000000  1
  Mg  Mg4  1  0.32915942  0.65831984  0.75000000  1
  Mg  Mg5  1  0.84168016  0.17084058  0.75000000  1
  Mg  Mg6  1  0.83333300  0.66666700  0.75000000  1
  Ti  Ti7  1  0.16666700  0.33333300  0.25000000  1
