# generated using pymatgen
data_Li3CuO3
_symmetry_space_group_name_H-M   'P 1'
_cell_length_a   3.62957033
_cell_length_b   8.79586064
_cell_length_c   8.79586064
_cell_angle_alpha   90.00000000
_cell_angle_beta   90.00000000
_cell_angle_gamma   90.00000000
_symmetry_Int_Tables_number   1
_chemical_formula_structural   Li3CuO3
_chemical_formula_sum   'Li12 Cu4 O12'
_cell_volume   280.80956442
_cell_formula_units_Z   4
loop_
 _symmetry_equiv_pos_site_id
 _symmetry_equiv_pos_as_xyz
  1  'x, y, z'
loop_
 _atom_site_type_symbol
 _atom_site_label
 _atom_site_symmetry_multiplicity
 _atom_site_fract_x
 _atom_site_fract_y
 _atom_site_fract_z
 _atom_site_occupancy
  Li  Li0  1  0.50000000  0.66533111  0.33466889  1
  Li  Li1  1  0.00000000  0.83466889  0.83466889  1
  Li  Li2  1  0.50000000  0.33466889  0.66533111  1
  Li  Li3  1  0.00000000  0.16533111  0.16533111  1
  Li  Li4  1  0.00000000  0.60300590  0.14149340  1
  Li  Li5  1  0.50000000  0.35850660  0.10300590  1
  Li  Li6  1  0.50000000  0.64149340  0.89699410  1
  Li  Li7  1  0.00000000  0.39699410  0.85850660  1
  Li  Li8  1  0.50000000  0.10300590  0.35850660  1
  Li  Li9  1  0.50000000  0.89699410  0.64149340  1
  Li  Li10  1  0.00000000  0.14149340  0.60300590  1
  Li  Li11  1  0.00000000  0.85850660  0.39699410  1
  O  O12  1  0.00000000  0.39895316  0.60104684  1
  O  O13  1  0.50000000  0.89895316  0.89895316  1
  O  O14  1  0.00000000  0.60104684  0.39895316  1
  O  O15  1  0.50000000  0.10104684  0.10104684  1
  O  O16  1  0.00000000  0.17706893  0.38708319  1
  O  O17  1  0.50000000  0.11291681  0.67706893  1
  O  O18  1  0.50000000  0.88708319  0.32293107  1
  O  O19  1  0.00000000  0.82293107  0.61291681  1
  O  O20  1  0.50000000  0.67706893  0.11291681  1
  O  O21  1  0.50000000  0.32293107  0.88708319  1
  O  O22  1  0.00000000  0.38708319  0.17706893  1
  O  O23  1  0.00000000  0.61291681  0.82293107  1
  Cu  Cu24  1  0.00000000  0.61362353  0.61362353  1
  Cu  Cu25  1  0.50000000  0.88637647  0.11362353  1
  Cu  Cu26  1  0.50000000  0.11362353  0.88637647  1
  Cu  Cu27  1  0.00000000  0.38637647  0.38637647  1
