# generated using pymatgen
data_Li4TiO4
_symmetry_space_group_name_H-M   'P 1'
_cell_length_a   5.47659698
_cell_length_b   5.47659698
_cell_length_c   6.20379774
_cell_angle_alpha   90.00000000
_cell_angle_beta   90.00000000
_cell_angle_gamma   93.77648551
_symmetry_Int_Tables_number   1
_chemical_formula_structural   Li4TiO4
_chemical_formula_sum   'Li8 Ti2 O8'
_cell_volume   185.66717753
_cell_formula_units_Z   2
loop_
 _symmetry_equiv_pos_site_id
 _symmetry_equiv_pos_as_xyz
  1  'x, y, z'
loop_
 _atom_site_type_symbol
 _atom_site_label
 _atom_site_symmetry_multiplicity
 _atom_site_fract_x
 _atom_site_fract_y
 _atom_site_fract_z
 _atom_site_occupancy
  Li  Li0  1  0.15954059  0.84045941  0.00000000  1
  Li  Li1  1  0.84045941  0.15954059  0.50000000  1
  Li  Li2  1  0.84045941  0.15954059  0.00000000  1
  Li  Li3  1  0.15954059  0.84045941  0.50000000  1
  Li  Li4  1  0.58395489  0.87648817  0.25000000  1
  Li  Li5  1  0.41604511  0.12351183  0.75000000  1
  Li  Li6  1  0.87648817  0.58395489  0.25000000  1
  Li  Li7  1  0.12351183  0.41604511  0.75000000  1
  O  O8  1  0.27000730  0.66426460  0.25000000  1
  O  O9  1  0.72999270  0.33573540  0.75000000  1
  O  O10  1  0.20294064  0.20294064  0.00297216  1
  O  O11  1  0.79705936  0.79705936  0.50297216  1
  O  O12  1  0.20294064  0.20294064  0.49702784  1
  O  O13  1  0.79705936  0.79705936  0.99702784  1
  O  O14  1  0.66426460  0.27000730  0.25000000  1
  O  O15  1  0.33573540  0.72999270  0.75000000  1
  Ti  Ti16  1  0.34012626  0.34012626  0.25000000  1
  Ti  Ti17  1  0.65987374  0.65987374  0.75000000  1
