# generated using pymatgen
data_Mg6MnCd
_symmetry_space_group_name_H-M   'P 1'
_cell_length_a   6.26095459
_cell_length_b   6.26079668
_cell_length_c   4.96888636
_cell_angle_alpha   90.00000000
_cell_angle_beta   90.00000000
_cell_angle_gamma   119.99917080
_symmetry_Int_Tables_number   1
_chemical_formula_structural   Mg6MnCd
_chemical_formula_sum   'Mg6 Mn1 Cd1'
_cell_volume   168.67995590
_cell_formula_units_Z   1
loop_
 _symmetry_equiv_pos_site_id
 _symmetry_equiv_pos_as_xyz
  1  'x, y, z'
loop_
 _atom_site_type_symbol
 _atom_site_label
 _atom_site_symmetry_multiplicity
 _atom_site_fract_x
 _atom_site_fract_y
 _atom_site_fract_z
 _atom_site_occupancy
  Mg  Mg0  1  0.66692634  0.33244060  0.25000000  1
  Mg  Mg1  1  0.66692634  0.83448474  0.25000000  1
  Mg  Mg2  1  0.32917737  0.17104164  0.75000000  1
  Mg  Mg3  1  0.32917737  0.65813673  0.75000000  1
  Mg  Mg4  1  0.84224437  0.17112268  0.75000000  1
  Mg  Mg5  1  0.83367511  0.66683806  0.75000000  1
  Mn  Mn6  1  0.16481260  0.33240580  0.25000000  1
  Cd  Cd7  1  0.16706049  0.83352975  0.25000000  1
