# generated using pymatgen
data_Mg6ZnNi
_symmetry_space_group_name_H-M   'P 1'
_cell_length_a   6.03776380
_cell_length_b   6.14940179
_cell_length_c   4.76506391
_cell_angle_alpha   90.00000000
_cell_angle_beta   90.00000000
_cell_angle_gamma   120.61355601
_symmetry_Int_Tables_number   1
_chemical_formula_structural   Mg6ZnNi
_chemical_formula_sum   'Mg6 Zn1 Ni1'
_cell_volume   152.26144361
_cell_formula_units_Z   1
loop_
 _symmetry_equiv_pos_site_id
 _symmetry_equiv_pos_as_xyz
  1  'x, y, z'
loop_
 _atom_site_type_symbol
 _atom_site_label
 _atom_site_symmetry_multiplicity
 _atom_site_fract_x
 _atom_site_fract_y
 _atom_site_fract_z
 _atom_site_occupancy
  Mg  Mg0  1  0.66923084  0.33536089  0.25000000  1
  Mg  Mg1  1  0.66923084  0.83386896  0.25000000  1
  Mg  Mg2  1  0.32162420  0.15275977  0.75000000  1
  Mg  Mg3  1  0.32162420  0.66886543  0.75000000  1
  Mg  Mg4  1  0.83931339  0.16965719  0.75000000  1
  Mg  Mg5  1  0.84781812  0.67390956  0.75000000  1
  Zn  Zn6  1  0.16520225  0.33260063  0.25000000  1
  Ni  Ni7  1  0.16595615  0.83297758  0.25000000  1
