# generated using pymatgen
data_AuO2F
_symmetry_space_group_name_H-M   'P 1'
_cell_length_a   4.34929430
_cell_length_b   5.50178819
_cell_length_c   5.50178806
_cell_angle_alpha   101.93190801
_cell_angle_beta   90.00000000
_cell_angle_gamma   90.00000000
_symmetry_Int_Tables_number   1
_chemical_formula_structural   AuO2F
_chemical_formula_sum   'Au2 O4 F2'
_cell_volume   128.80724720
_cell_formula_units_Z   2
loop_
 _symmetry_equiv_pos_site_id
 _symmetry_equiv_pos_as_xyz
  1  'x, y, z'
loop_
 _atom_site_type_symbol
 _atom_site_label
 _atom_site_symmetry_multiplicity
 _atom_site_fract_x
 _atom_site_fract_y
 _atom_site_fract_z
 _atom_site_occupancy
  Au  Au0  1  -0.00000000  0.72396290  0.72396290  1
  Au  Au1  1  0.50000000  0.27603710  0.27603710  1
  O  O2  1  0.71734657  0.02853603  0.78493088  1
  O  O3  1  0.21734657  0.97146397  0.21506912  1
  O  O4  1  0.28265343  0.78493088  0.02853603  1
  O  O5  1  0.78265343  0.21506912  0.97146397  1
  F  F6  1  0.75000000  0.61502803  0.38497197  1
  F  F7  1  0.25000000  0.38497197  0.61502803  1
