# generated using pymatgen
data_Li2FeS2
_symmetry_space_group_name_H-M   'P 1'
_cell_length_a   5.76954157
_cell_length_b   8.15845965
_cell_length_c   5.69081611
_cell_angle_alpha   90.10724494
_cell_angle_beta   90.03790362
_cell_angle_gamma   45.03005024
_symmetry_Int_Tables_number   1
_chemical_formula_structural   Li2FeS2
_chemical_formula_sum   'Li4 Fe2 S4'
_cell_volume   189.51157351
_cell_formula_units_Z   2
loop_
 _symmetry_equiv_pos_site_id
 _symmetry_equiv_pos_as_xyz
  1  'x, y, z'
loop_
 _atom_site_type_symbol
 _atom_site_label
 _atom_site_symmetry_multiplicity
 _atom_site_fract_x
 _atom_site_fract_y
 _atom_site_fract_z
 _atom_site_occupancy
  Li  Li0  1  0.00634010  0.49717969  0.74550748  1
  Li  Li1  1  -0.00096725  0.00109745  0.74399251  1
  Li  Li2  1  0.99985821  0.50226945  0.24394338  1
  Li  Li3  1  0.00457665  0.99492269  0.24434607  1
  Fe  Fe4  1  0.49585454  0.00156529  0.24627154  1
  Fe  Fe5  1  0.50161828  0.99805127  0.74564360  1
  S  S6  1  0.04353151  0.22836094  0.49630461  1
  S  S7  1  0.50123892  0.77114707  0.99391922  1
  S  S8  1  0.50212532  0.22519667  0.99729030  1
  S  S9  1  0.95372171  0.77230048  0.49427028  1
