# generated using pymatgen
data_WO3
_symmetry_space_group_name_H-M   'P 1'
_cell_length_a   7.44900584
_cell_length_b   12.88674072
_cell_length_c   12.26335650
_cell_angle_alpha   70.93638031
_cell_angle_beta   92.19770072
_cell_angle_gamma   88.12479210
_symmetry_Int_Tables_number   1
_chemical_formula_structural   WO3
_chemical_formula_sum   'W14 O42'
_cell_volume   1110.54444631
_cell_formula_units_Z   14
loop_
 _symmetry_equiv_pos_site_id
 _symmetry_equiv_pos_as_xyz
  1  'x, y, z'
loop_
 _atom_site_type_symbol
 _atom_site_label
 _atom_site_symmetry_multiplicity
 _atom_site_fract_x
 _atom_site_fract_y
 _atom_site_fract_z
 _atom_site_occupancy
  W  W0  1  0.28079956  0.25951505  0.00918034  1
  W  W1  1  0.28075071  0.75955264  0.50920231  1
  W  W2  1  0.52027849  0.49691177  0.99899065  1
  W  W3  1  0.52024981  0.99692771  0.49901216  1
  W  W4  1  0.44332867  0.98719362  0.98823482  1
  W  W5  1  0.44330657  0.48718456  0.48825952  1
  W  W6  1  0.78595325  0.51414325  0.26686510  1
  W  W7  1  0.78595086  0.01413383  0.76689244  1
  W  W8  1  0.72541015  0.74065783  0.99149074  1
  W  W9  1  0.72542275  0.24060562  0.49154956  1
  W  W10  1  0.02015893  0.50234291  0.00703277  1
  W  W11  1  0.02011866  0.00233982  0.50704954  1
  W  W12  1  0.20981432  0.99151538  0.23746053  1
  W  W13  1  0.20983144  0.49150552  0.73750045  1
  O  O14  1  0.46446524  0.83386475  0.54822307  1
  O  O15  1  0.46451108  0.33385790  0.04824974  1
  O  O16  1  0.94817241  0.05715935  0.84596139  1
  O  O17  1  0.94817323  0.55718235  0.34599916  1
  O  O18  1  0.94749242  0.97658337  0.66114421  1
  O  O19  1  0.94751852  0.47659271  0.16120071  1
  O  O20  1  0.08372767  0.84604457  0.53675226  1
  O  O21  1  0.08374865  0.34605976  0.03678018  1
  O  O22  1  0.23874996  0.33831654  0.85120284  1
  O  O23  1  0.23873722  0.83829610  0.35120144  1
  O  O24  1  0.25862619  0.02592720  0.53670268  1
  O  O25  1  0.25866430  0.52591507  0.03674100  1
  O  O26  1  0.24763014  0.94804512  0.93685374  1
  O  O27  1  0.24761937  0.44805742  0.43681964  1
  O  O28  1  0.22535261  0.64832837  0.64811019  1
  O  O29  1  0.22533583  0.14832179  0.14811492  1
  O  O30  1  0.41939632  0.51523082  0.85201566  1
  O  O31  1  0.41936038  0.01524998  0.35198175  1
  O  O32  1  0.39681941  0.14425516  0.96923462  1
  O  O33  1  0.39681361  0.64423871  0.46921637  1
  O  O34  1  0.40875694  0.46262813  0.64930792  1
  O  O35  1  0.40875521  0.96262056  0.14934281  1
  O  O36  1  0.58630854  0.03668356  0.85629396  1
  O  O37  1  0.58630407  0.53669365  0.35628548  1
  O  O38  1  0.58623491  0.35020834  0.53010956  1
  O  O39  1  0.58627126  0.85018023  0.03013445  1
  O  O40  1  0.58051936  0.98819837  0.65089639  1
  O  O41  1  0.58055367  0.48818712  0.15094741  1
  O  O42  1  0.78379453  0.85699604  0.85831337  1
  O  O43  1  0.78382096  0.35703204  0.35830276  1
  O  O44  1  0.75466742  0.16533774  0.64981866  1
  O  O45  1  0.75468450  0.66531051  0.14987871  1
  O  O46  1  0.75848183  0.47305334  0.96939325  1
  O  O47  1  0.75844373  0.97306696  0.46936401  1
  O  O48  1  0.92995287  0.65565582  0.97181054  1
  O  O49  1  0.92992702  0.15567528  0.47177832  1
  O  O50  1  0.05683625  0.52781058  0.84701239  1
  O  O51  1  0.05680684  0.02781053  0.34697845  1
  O  O52  1  0.03607403  0.46288480  0.65418295  1
  O  O53  1  0.03609790  0.96286831  0.15417318  1
  O  O54  1  0.55222085  0.66385622  0.94658725  1
  O  O55  1  0.55219857  0.16388536  0.44656169  1
