# generated using pymatgen
data_Mg6NiSn
_symmetry_space_group_name_H-M   'P 1'
_cell_length_a   6.16494905
_cell_length_b   6.16494858
_cell_length_c   4.87996420
_cell_angle_alpha   90.00000000
_cell_angle_beta   90.00000000
_cell_angle_gamma   119.65465534
_symmetry_Int_Tables_number   1
_chemical_formula_structural   Mg6NiSn
_chemical_formula_sum   'Mg6 Ni1 Sn1'
_cell_volume   161.17847204
_cell_formula_units_Z   1
loop_
 _symmetry_equiv_pos_site_id
 _symmetry_equiv_pos_as_xyz
  1  'x, y, z'
loop_
 _atom_site_type_symbol
 _atom_site_label
 _atom_site_symmetry_multiplicity
 _atom_site_fract_x
 _atom_site_fract_y
 _atom_site_fract_z
 _atom_site_occupancy
  Mg  Mg0  1  0.16306038  0.82792151  0.25000000  1
  Mg  Mg1  1  0.67207849  0.33693962  0.25000000  1
  Mg  Mg2  1  0.66646402  0.83353598  0.25000000  1
  Mg  Mg3  1  0.32783445  0.65252641  0.75000000  1
  Mg  Mg4  1  0.84747359  0.17216555  0.75000000  1
  Mg  Mg5  1  0.83112172  0.66887828  0.75000000  1
  Ni  Ni6  1  0.16501102  0.33498898  0.25000000  1
  Sn  Sn7  1  0.32695633  0.17304367  0.75000000  1
