# generated using pymatgen
data_Al2O3
_symmetry_space_group_name_H-M   'P 1'
_cell_length_a   5.66027174
_cell_length_b   5.65178776
_cell_length_c   17.15951431
_cell_angle_alpha   59.91099552
_cell_angle_beta   60.68271146
_cell_angle_gamma   59.69176156
_symmetry_Int_Tables_number   1
_chemical_formula_structural   Al2O3
_chemical_formula_sum   'Al16 O24'
_cell_volume   388.93468099
_cell_formula_units_Z   8
loop_
 _symmetry_equiv_pos_site_id
 _symmetry_equiv_pos_as_xyz
  1  'x, y, z'
loop_
 _atom_site_type_symbol
 _atom_site_label
 _atom_site_symmetry_multiplicity
 _atom_site_fract_x
 _atom_site_fract_y
 _atom_site_fract_z
 _atom_site_occupancy
  Al  Al0  1  0.99058040  0.00063354  0.16966612  1
  Al  Al1  1  0.12838292  0.64077736  0.03412224  1
  Al  Al2  1  0.61230798  0.14336166  0.04708688  1
  Al  Al3  1  0.61305380  0.61031069  0.04842736  1
  Al  Al4  1  0.11474387  0.12020701  0.37775658  1
  Al  Al5  1  0.61760412  0.12065344  0.37689550  1
  Al  Al6  1  0.61533500  0.62436099  0.21303416  1
  Al  Al7  1  0.26304159  0.24322683  0.57925783  1
  Al  Al8  1  0.21093913  0.28398360  0.75771080  1
  Al  Al9  1  0.61740509  0.62386169  0.37640892  1
  Al  Al10  1  0.59482194  0.61527313  0.54913795  1
  Al  Al11  1  0.11328604  0.62173745  0.37845594  1
  Al  Al12  1  0.77566021  0.02611432  0.70182049  1
  Al  Al13  1  0.59140932  0.13479406  0.88198411  1
  Al  Al14  1  0.60576355  0.65402877  0.70733653  1
  Al  Al15  1  0.64803463  0.61999382  0.88134908  1
  O  O16  1  0.36146105  0.40651156  0.11057176  1
  O  O17  1  0.37867213  0.86225507  0.13388371  1
  O  O18  1  0.35896303  0.37094586  0.30775131  1
  O  O19  1  0.35995987  0.84438245  0.30686033  1
  O  O20  1  0.37564903  0.37964058  0.45317583  1
  O  O21  1  0.84665684  0.39472950  0.13252468  1
  O  O22  1  0.84703202  0.86669896  0.13166825  1
  O  O23  1  0.39177182  0.35661137  0.62699712  1
  O  O24  1  0.40209620  0.87085021  0.44844338  1
  O  O25  1  0.82915131  0.37460170  0.30548455  1
  O  O26  1  0.42201205  0.37638304  0.78122770  1
  O  O27  1  0.41018703  0.85755191  0.61815417  1
  O  O28  1  0.85740083  0.87019775  0.29829018  1
  O  O29  1  0.86883526  0.40185781  0.44759084  1
  O  O30  1  0.87425279  0.87744739  0.44543860  1
  O  O31  1  0.39393609  0.38747472  0.95749087  1
  O  O32  1  0.42673521  0.89846606  0.78199005  1
  O  O33  1  0.87215030  0.35672145  0.62085562  1
  O  O34  1  0.38815404  0.86387819  0.96080492  1
  O  O35  1  0.83272605  0.37192648  0.80827944  1
  O  O36  1  0.89242877  0.79701055  0.64211634  1
  O  O37  1  0.84549408  0.87977215  0.81033726  1
  O  O38  1  0.83170946  0.38026601  0.97272233  1
  O  O39  1  0.82019514  0.87050088  0.98355730  1
