# generated using pymatgen
data_Ca2SiO4
_symmetry_space_group_name_H-M   'P 1'
_cell_length_a   8.22402253
_cell_length_b   7.09131978
_cell_length_c   6.25131263
_cell_angle_alpha   90.00000000
_cell_angle_beta   96.03199294
_cell_angle_gamma   90.00000000
_symmetry_Int_Tables_number   1
_chemical_formula_structural   Ca2SiO4
_chemical_formula_sum   'Ca8 Si4 O16'
_cell_volume   362.55289083
_cell_formula_units_Z   4
loop_
 _symmetry_equiv_pos_site_id
 _symmetry_equiv_pos_as_xyz
  1  'x, y, z'
loop_
 _atom_site_type_symbol
 _atom_site_label
 _atom_site_symmetry_multiplicity
 _atom_site_fract_x
 _atom_site_fract_y
 _atom_site_fract_z
 _atom_site_occupancy
  Ca  Ca0  1  0.64813248  0.10765895  0.83010697  1
  Ca  Ca1  1  0.85186752  0.60765895  0.66989303  1
  Ca  Ca2  1  0.19501079  0.93538897  0.65847400  1
  Ca  Ca3  1  0.14813248  0.39234105  0.33010697  1
  Ca  Ca4  1  0.30498921  0.43538897  0.84152600  1
  Ca  Ca5  1  0.35186752  0.89234105  0.16989303  1
  Ca  Ca6  1  0.69501079  0.56461103  0.15847400  1
  Ca  Ca7  1  0.80498921  0.06461103  0.34152600  1
  Si  Si8  1  0.49823700  0.28766370  0.33969329  1
  Si  Si9  1  0.00176300  0.78766370  0.16030671  1
  Si  Si10  1  -0.00176300  0.21233630  0.83969329  1
  Si  Si11  1  0.50176300  0.71233630  0.66030671  1
  O  O12  1  0.45873118  0.87530859  0.83475603  1
  O  O13  1  0.37336630  0.20925683  0.51023767  1
  O  O14  1  0.41354699  0.46556158  0.19763586  1
  O  O15  1  0.68365468  0.34337744  0.45116023  1
  O  O16  1  0.81634532  0.84337744  0.04883977  1
  O  O17  1  0.08645301  0.96556158  0.30236414  1
  O  O18  1  0.95873118  0.62469141  0.33475603  1
  O  O19  1  0.12663370  0.70925683  0.98976233  1
  O  O20  1  0.87336630  0.29074317  0.01023767  1
  O  O21  1  0.04126882  0.37530859  0.66524397  1
  O  O22  1  0.91354699  0.03443842  0.69763586  1
  O  O23  1  0.18365468  0.15662256  0.95116023  1
  O  O24  1  0.31634532  0.65662256  0.54883977  1
  O  O25  1  0.58645301  0.53443842  0.80236414  1
  O  O26  1  0.62663370  0.79074317  0.48976233  1
  O  O27  1  0.54126882  0.12469141  0.16524397  1
