# generated using pymatgen
data_Sr2IrO4
_symmetry_space_group_name_H-M   'P 1'
_cell_length_a   5.52416800
_cell_length_b   5.52416801
_cell_length_c   13.68865317
_cell_angle_alpha   101.64101478
_cell_angle_beta   101.64101478
_cell_angle_gamma   90.00000005
_symmetry_Int_Tables_number   1
_chemical_formula_structural   Sr2IrO4
_chemical_formula_sum   'Sr8 Ir4 O16'
_cell_volume   400.36001680
_cell_formula_units_Z   4
loop_
 _symmetry_equiv_pos_site_id
 _symmetry_equiv_pos_as_xyz
  1  'x, y, z'
loop_
 _atom_site_type_symbol
 _atom_site_label
 _atom_site_symmetry_multiplicity
 _atom_site_fract_x
 _atom_site_fract_y
 _atom_site_fract_z
 _atom_site_occupancy
  O  O0  1  0.95470868  0.70470868  0.40941736  1
  O  O1  1  0.20470868  0.45470868  0.90941736  1
  O  O2  1  0.54529132  0.79529132  0.59058264  1
  O  O3  1  0.29529132  0.04529132  0.09058264  1
  O  O4  1  0.04529132  0.29529132  0.59058264  1
  O  O5  1  0.79529132  0.54529132  0.09058264  1
  O  O6  1  0.45470868  0.20470868  0.40941736  1
  O  O7  1  0.70470868  0.95470868  0.90941736  1
  O  O8  1  0.93554277  0.06445723  0.75000000  1
  O  O9  1  0.18554277  0.43554277  0.25000000  1
  O  O10  1  0.56445723  0.81445723  0.25000000  1
  O  O11  1  0.31445723  0.68554277  0.75000000  1
  O  O12  1  0.68554277  0.31445723  0.25000000  1
  O  O13  1  0.43554277  0.18554277  0.75000000  1
  O  O14  1  0.81445723  0.56445723  0.75000000  1
  O  O15  1  0.06445723  0.93554277  0.25000000  1
  Sr  Sr16  1  0.80019110  0.05019110  0.10038221  1
  Sr  Sr17  1  0.55019110  0.30019110  0.60038221  1
  Sr  Sr18  1  0.69980890  0.44980890  0.89961779  1
  Sr  Sr19  1  0.94980890  0.19980890  0.39961779  1
  Sr  Sr20  1  0.05019110  0.80019110  0.60038221  1
  Sr  Sr21  1  0.30019110  0.55019110  0.10038221  1
  Sr  Sr22  1  0.44980890  0.69980890  0.39961779  1
  Sr  Sr23  1  0.19980890  0.94980890  0.89961779  1
  Ir  Ir24  1  0.12500000  0.37500000  0.75000000  1
  Ir  Ir25  1  0.87500000  0.62500000  0.25000000  1
  Ir  Ir26  1  0.37500000  0.12500000  0.25000000  1
  Ir  Ir27  1  0.62500000  0.87500000  0.75000000  1
