# generated using pymatgen
data_TiS
_symmetry_space_group_name_H-M   'P 1'
_cell_length_a   3.45206369
_cell_length_b   3.45206369
_cell_length_c   9.08462843
_cell_angle_alpha   79.04752223
_cell_angle_beta   79.04752223
_cell_angle_gamma   59.99999168
_symmetry_Int_Tables_number   1
_chemical_formula_structural   TiS
_chemical_formula_sum   'Ti3 S3'
_cell_volume   91.47112738
_cell_formula_units_Z   3
loop_
 _symmetry_equiv_pos_site_id
 _symmetry_equiv_pos_as_xyz
  1  'x, y, z'
loop_
 _atom_site_type_symbol
 _atom_site_label
 _atom_site_symmetry_multiplicity
 _atom_site_fract_x
 _atom_site_fract_y
 _atom_site_fract_z
 _atom_site_occupancy
  Ti  Ti0  1  0.50000000  0.50000000  0.50000000  1
  Ti  Ti1  1  0.38129031  0.38129031  0.85612906  1
  Ti  Ti2  1  0.61870969  0.61870969  0.14387094  1
  S  S3  1  -0.00000000  0.00000000  -0.00000000  1
  S  S4  1  0.22336445  0.22336445  0.32990666  1
  S  S5  1  0.77663555  0.77663555  0.67009334  1
