# generated using pymatgen
data_Mg6ZrSb
_symmetry_space_group_name_H-M   'P 1'
_cell_length_a   6.39016720
_cell_length_b   6.07391055
_cell_length_c   5.30643540
_cell_angle_alpha   90.00000000
_cell_angle_beta   90.00000000
_cell_angle_gamma   118.37592247
_symmetry_Int_Tables_number   1
_chemical_formula_structural   Mg6ZrSb
_chemical_formula_sum   'Mg6 Zr1 Sb1'
_cell_volume   181.21382523
_cell_formula_units_Z   1
loop_
 _symmetry_equiv_pos_site_id
 _symmetry_equiv_pos_as_xyz
  1  'x, y, z'
loop_
 _atom_site_type_symbol
 _atom_site_label
 _atom_site_symmetry_multiplicity
 _atom_site_fract_x
 _atom_site_fract_y
 _atom_site_fract_z
 _atom_site_occupancy
  Mg  Mg0  1  0.66470165  0.33023402  0.25000000  1
  Mg  Mg1  1  0.66470165  0.83446663  0.25000000  1
  Mg  Mg2  1  0.33933571  0.17567120  0.75000000  1
  Mg  Mg3  1  0.33933571  0.66366551  0.75000000  1
  Mg  Mg4  1  0.83749175  0.16874638  0.75000000  1
  Mg  Mg5  1  0.82940008  0.66470054  0.75000000  1
  Zr  Zr6  1  0.15961735  0.32980817  0.25000000  1
  Sb  Sb7  1  0.16541609  0.83270755  0.25000000  1
