# generated using pymatgen
data_Na5NiSO2
_symmetry_space_group_name_H-M   'P 1'
_cell_length_a   4.58006711
_cell_length_b   4.58013016
_cell_length_c   8.17952723
_cell_angle_alpha   89.99937410
_cell_angle_beta   89.99955177
_cell_angle_gamma   90.61545646
_symmetry_Int_Tables_number   1
_chemical_formula_structural   Na5NiSO2
_chemical_formula_sum   'Na5 Ni1 S1 O2'
_cell_volume   171.57452612
_cell_formula_units_Z   1
loop_
 _symmetry_equiv_pos_site_id
 _symmetry_equiv_pos_as_xyz
  1  'x, y, z'
loop_
 _atom_site_type_symbol
 _atom_site_label
 _atom_site_symmetry_multiplicity
 _atom_site_fract_x
 _atom_site_fract_y
 _atom_site_fract_z
 _atom_site_occupancy
  O  O0  1  0.99999161  0.99999211  0.78034276  1
  O  O1  1  0.00001181  0.00001230  0.21963953  1
  Na  Na2  1  0.00001721  0.50001536  0.25910151  1
  Na  Na3  1  0.50001235  0.00001744  0.25947877  1
  Na  Na4  1  0.99999561  0.49999702  0.74090214  1
  Na  Na5  1  0.49999619  0.00000172  0.74053034  1
  Na  Na6  1  0.00000593  0.00001032  0.50000021  1
  S  S7  1  0.50000475  0.50000845  0.50000263  1
  Ni  Ni8  1  0.99996453  0.99994527  1.00000211  1
