# generated using pymatgen
data_HfO2
_symmetry_space_group_name_H-M   'P 1'
_cell_length_a   3.33359714
_cell_length_b   5.55639463
_cell_length_c   6.50499517
_cell_angle_alpha   90.00000000
_cell_angle_beta   90.00000000
_cell_angle_gamma   90.00000000
_symmetry_Int_Tables_number   1
_chemical_formula_structural   HfO2
_chemical_formula_sum   'Hf4 O8'
_cell_volume   120.49060255
_cell_formula_units_Z   4
loop_
 _symmetry_equiv_pos_site_id
 _symmetry_equiv_pos_as_xyz
  1  'x, y, z'
loop_
 _atom_site_type_symbol
 _atom_site_label
 _atom_site_symmetry_multiplicity
 _atom_site_fract_x
 _atom_site_fract_y
 _atom_site_fract_z
 _atom_site_occupancy
  O  O0  1  0.75000000  0.47920562  0.15854667  1
  O  O1  1  0.25000000  0.52079438  0.84145333  1
  O  O2  1  0.75000000  0.97920562  0.34145333  1
  O  O3  1  0.25000000  0.02079438  0.65854667  1
  O  O4  1  0.75000000  0.36050056  0.57660019  1
  O  O5  1  0.25000000  0.63949944  0.42339981  1
  O  O6  1  0.75000000  0.86050056  0.92339981  1
  O  O7  1  0.25000000  0.13949944  0.07660019  1
  Hf  Hf8  1  0.25000000  0.25131818  0.39212915  1
  Hf  Hf9  1  0.75000000  0.74868182  0.60787085  1
  Hf  Hf10  1  0.25000000  0.75131818  0.10787085  1
  Hf  Hf11  1  0.75000000  0.24868182  0.89212915  1
