# generated using pymatgen
data_TiCdO3
_symmetry_space_group_name_H-M   'P 1'
_cell_length_a   5.40074740
_cell_length_b   5.52300911
_cell_length_c   7.69216267
_cell_angle_alpha   90.00000000
_cell_angle_beta   90.00000000
_cell_angle_gamma   90.00000000
_symmetry_Int_Tables_number   1
_chemical_formula_structural   TiCdO3
_chemical_formula_sum   'Ti4 Cd4 O12'
_cell_volume   229.44472877
_cell_formula_units_Z   4
loop_
 _symmetry_equiv_pos_site_id
 _symmetry_equiv_pos_as_xyz
  1  'x, y, z'
loop_
 _atom_site_type_symbol
 _atom_site_label
 _atom_site_symmetry_multiplicity
 _atom_site_fract_x
 _atom_site_fract_y
 _atom_site_fract_z
 _atom_site_occupancy
  O  O0  1  0.04984963  0.84138379  0.79524009  1
  O  O1  1  0.95015037  0.34138379  0.20475991  1
  O  O2  1  0.95015037  0.34138379  0.79524009  1
  O  O3  1  0.04984963  0.84138379  0.20475991  1
  O  O4  1  0.44457527  0.43941130  0.70249352  1
  O  O5  1  0.55542473  0.93941130  0.29750648  1
  O  O6  1  0.55542473  0.93941130  0.70249352  1
  O  O7  1  0.44457527  0.43941130  0.29750648  1
  O  O8  1  0.16199305  0.11098408  0.50000000  1
  O  O9  1  0.83800695  0.61098408  0.50000000  1
  O  O10  1  0.33673832  0.16941101  0.00000000  1
  O  O11  1  0.66326168  0.66941101  0.00000000  1
  Ti  Ti12  1  0.75657147  0.66841172  0.25074906  1
  Ti  Ti13  1  0.24342853  0.16841172  0.74925094  1
  Ti  Ti14  1  0.24342853  0.16841172  0.25074906  1
  Ti  Ti15  1  0.75657147  0.66841172  0.74925094  1
  Cd  Cd16  1  0.26100295  0.69459544  0.50000000  1
  Cd  Cd17  1  0.73899705  0.19459544  0.50000000  1
  Cd  Cd18  1  0.75025890  0.11669584  0.00000000  1
  Cd  Cd19  1  0.24974110  0.61669584  0.00000000  1
