# generated using pymatgen
data_Mg5Si6
_symmetry_space_group_name_H-M   'P 1'
_cell_length_a   4.04013156
_cell_length_b   6.98196803
_cell_length_c   7.83416407
_cell_angle_alpha   109.63515484
_cell_angle_beta   104.94272760
_cell_angle_gamma   90.00000187
_symmetry_Int_Tables_number   1
_chemical_formula_structural   Mg5Si6
_chemical_formula_sum   'Mg5 Si6'
_cell_volume   200.18460148
_cell_formula_units_Z   1
loop_
 _symmetry_equiv_pos_site_id
 _symmetry_equiv_pos_as_xyz
  1  'x, y, z'
loop_
 _atom_site_type_symbol
 _atom_site_label
 _atom_site_symmetry_multiplicity
 _atom_site_fract_x
 _atom_site_fract_y
 _atom_site_fract_z
 _atom_site_occupancy
  Mg  Mg0  1  0.42259909  0.62811859  0.84519819  1
  Mg  Mg1  1  0.00000000  0.00000000  0.00000000  1
  Mg  Mg2  1  0.57740091  0.37188141  0.15480181  1
  Mg  Mg3  1  0.34389632  0.06526657  0.68779265  1
  Mg  Mg4  1  0.65610368  0.93473343  0.31220735  1
  Si  Si5  1  0.80708289  0.74116983  0.61416578  1
  Si  Si6  1  0.05770730  0.66945749  0.11541460  1
  Si  Si7  1  0.19291711  0.25883017  0.38583422  1
  Si  Si8  1  0.79234952  0.37079046  0.58469905  1
  Si  Si9  1  0.20765048  0.62920954  0.41530095  1
  Si  Si10  1  0.94229270  0.33054251  0.88458540  1
