# generated using pymatgen
data_LiMnO4
_symmetry_space_group_name_H-M   'P 1'
_cell_length_a   5.07546322
_cell_length_b   5.07546323
_cell_length_c   6.58266742
_cell_angle_alpha   90.00000000
_cell_angle_beta   90.00000000
_cell_angle_gamma   113.82273483
_symmetry_Int_Tables_number   1
_chemical_formula_structural   LiMnO4
_chemical_formula_sum   'Li2 Mn2 O8'
_cell_volume   155.12406921
_cell_formula_units_Z   2
loop_
 _symmetry_equiv_pos_site_id
 _symmetry_equiv_pos_as_xyz
  1  'x, y, z'
loop_
 _atom_site_type_symbol
 _atom_site_label
 _atom_site_symmetry_multiplicity
 _atom_site_fract_x
 _atom_site_fract_y
 _atom_site_fract_z
 _atom_site_occupancy
  Li  Li0  1  0.00000000  0.00000000  0.00000000  1
  Li  Li1  1  0.00000000  0.00000000  0.50000000  1
  O  O2  1  0.24507464  0.75492536  0.94911997  1
  O  O3  1  0.70574767  0.77675587  0.75000000  1
  O  O4  1  0.75492536  0.24507464  0.05088003  1
  O  O5  1  0.75492536  0.24507464  0.44911997  1
  O  O6  1  0.24507464  0.75492536  0.55088003  1
  O  O7  1  0.77675587  0.70574767  0.25000000  1
  O  O8  1  0.22324413  0.29425233  0.75000000  1
  O  O9  1  0.29425233  0.22324413  0.25000000  1
  Mn  Mn10  1  0.35417883  0.64582117  0.75000000  1
  Mn  Mn11  1  0.64582117  0.35417883  0.25000000  1
