# generated using pymatgen
data_NaMg6Cu
_symmetry_space_group_name_H-M   'P 1'
_cell_length_a   6.30991098
_cell_length_b   6.35363916
_cell_length_c   5.03886052
_cell_angle_alpha   90.00000000
_cell_angle_beta   90.00000000
_cell_angle_gamma   120.22951648
_symmetry_Int_Tables_number   1
_chemical_formula_structural   NaMg6Cu
_chemical_formula_sum   'Na1 Mg6 Cu1'
_cell_volume   174.54189007
_cell_formula_units_Z   1
loop_
 _symmetry_equiv_pos_site_id
 _symmetry_equiv_pos_as_xyz
  1  'x, y, z'
loop_
 _atom_site_type_symbol
 _atom_site_label
 _atom_site_symmetry_multiplicity
 _atom_site_fract_x
 _atom_site_fract_y
 _atom_site_fract_z
 _atom_site_occupancy
  Na  Na0  1  0.16722747  0.83361323  0.25000000  1
  Mg  Mg1  1  0.66781112  0.33598921  0.25000000  1
  Mg  Mg2  1  0.66781112  0.83182090  0.25000000  1
  Mg  Mg3  1  0.32813017  0.17637443  0.75000000  1
  Mg  Mg4  1  0.32813017  0.65175674  0.75000000  1
  Mg  Mg5  1  0.84428173  0.17214136  0.75000000  1
  Mg  Mg6  1  0.82877908  0.66439004  0.75000000  1
  Cu  Cu7  1  0.16782915  0.33391408  0.25000000  1
