# generated using pymatgen
data_NaMg6Cu
_symmetry_space_group_name_H-M   'P 1'
_cell_length_a   6.31384676
_cell_length_b   6.31384625
_cell_length_c   5.04963321
_cell_angle_alpha   90.00000000
_cell_angle_beta   90.00000000
_cell_angle_gamma   119.92851897
_symmetry_Int_Tables_number   1
_chemical_formula_structural   NaMg6Cu
_chemical_formula_sum   'Na1 Mg6 Cu1'
_cell_volume   174.45799310
_cell_formula_units_Z   1
loop_
 _symmetry_equiv_pos_site_id
 _symmetry_equiv_pos_as_xyz
  1  'x, y, z'
loop_
 _atom_site_type_symbol
 _atom_site_label
 _atom_site_symmetry_multiplicity
 _atom_site_fract_x
 _atom_site_fract_y
 _atom_site_fract_z
 _atom_site_occupancy
  Na  Na0  1  0.33024425  0.16975575  0.75000000  1
  Mg  Mg1  1  0.16495774  0.82293269  0.25000000  1
  Mg  Mg2  1  0.67706731  0.33504226  0.25000000  1
  Mg  Mg3  1  0.66716715  0.83283285  0.25000000  1
  Mg  Mg4  1  0.32693843  0.65097445  0.75000000  1
  Mg  Mg5  1  0.84902555  0.17306157  0.75000000  1
  Mg  Mg6  1  0.83553174  0.66446826  0.75000000  1
  Cu  Cu7  1  0.14906783  0.35093217  0.25000000  1
