# generated using pymatgen
data_AgCNO
_symmetry_space_group_name_H-M   'P 1'
_cell_length_a   3.63504777
_cell_length_b   5.86397461
_cell_length_c   6.63436985
_cell_angle_alpha   90.00000000
_cell_angle_beta   90.00000000
_cell_angle_gamma   86.32681676
_symmetry_Int_Tables_number   1
_chemical_formula_structural   AgCNO
_chemical_formula_sum   'Ag2 C2 N2 O2'
_cell_volume   141.12657407
_cell_formula_units_Z   2
loop_
 _symmetry_equiv_pos_site_id
 _symmetry_equiv_pos_as_xyz
  1  'x, y, z'
loop_
 _atom_site_type_symbol
 _atom_site_label
 _atom_site_symmetry_multiplicity
 _atom_site_fract_x
 _atom_site_fract_y
 _atom_site_fract_z
 _atom_site_occupancy
  C  C0  1  0.29536503  0.59928502  0.25000000  1
  C  C1  1  0.70463497  0.40071498  0.75000000  1
  N  N2  1  0.84185243  0.20637698  0.75000000  1
  N  N3  1  0.15814757  0.79362302  0.25000000  1
  O  O4  1  0.56869488  0.59182799  0.75000000  1
  O  O5  1  0.43130512  0.40817201  0.25000000  1
  Ag  Ag6  1  0.00000000  0.00000000  0.50000000  1
  Ag  Ag7  1  0.00000000  0.00000000  0.00000000  1
