# generated using pymatgen
data_Nd3Zr
_symmetry_space_group_name_H-M   'P 1'
_cell_length_a   7.14648266
_cell_length_b   7.14648243
_cell_length_c   5.76478645
_cell_angle_alpha   90.00000000
_cell_angle_beta   90.00000000
_cell_angle_gamma   119.99999641
_symmetry_Int_Tables_number   1
_chemical_formula_structural   Nd3Zr
_chemical_formula_sum   'Nd6 Zr2'
_cell_volume   254.97555529
_cell_formula_units_Z   2
loop_
 _symmetry_equiv_pos_site_id
 _symmetry_equiv_pos_as_xyz
  1  'x, y, z'
loop_
 _atom_site_type_symbol
 _atom_site_label
 _atom_site_symmetry_multiplicity
 _atom_site_fract_x
 _atom_site_fract_y
 _atom_site_fract_z
 _atom_site_occupancy
  Nd  Nd0  1  0.17158251  0.34316602  0.25000000  1
  Nd  Nd1  1  0.65683398  0.82841649  0.25000000  1
  Nd  Nd2  1  0.17158251  0.82841649  0.25000000  1
  Nd  Nd3  1  0.82841649  0.65683198  0.75000100  1
  Nd  Nd4  1  0.34316702  0.17158451  0.75000100  1
  Nd  Nd5  1  0.82841749  0.17158451  0.75000100  1
  Zr  Zr6  1  0.33333300  0.66666700  0.75000100  1
  Zr  Zr7  1  0.66666700  0.33333300  0.25000000  1
