# generated using pymatgen
data_BaCoS2
_symmetry_space_group_name_H-M   'P 1'
_cell_length_a   4.37710655
_cell_length_b   4.37710655
_cell_length_c   8.99303162
_cell_angle_alpha   90.00000000
_cell_angle_beta   90.00000000
_cell_angle_gamma   89.98299756
_symmetry_Int_Tables_number   1
_chemical_formula_structural   BaCoS2
_chemical_formula_sum   'Ba2 Co2 S4'
_cell_volume   172.29804040
_cell_formula_units_Z   2
loop_
 _symmetry_equiv_pos_site_id
 _symmetry_equiv_pos_as_xyz
  1  'x, y, z'
loop_
 _atom_site_type_symbol
 _atom_site_label
 _atom_site_symmetry_multiplicity
 _atom_site_fract_x
 _atom_site_fract_y
 _atom_site_fract_z
 _atom_site_occupancy
  Ba  Ba0  1  0.24620022  0.25379978  0.20059348  1
  Ba  Ba1  1  0.74620022  0.75379978  0.79940652  1
  Co  Co2  1  0.24016839  0.25983161  0.58737117  1
  Co  Co3  1  0.74016839  0.75983161  0.41262883  1
  S  S4  1  0.74585888  0.75414112  0.16024175  1
  S  S5  1  0.24585888  0.25414112  0.83975825  1
  S  S6  1  0.24177251  0.75822749  0.50000000  1
  S  S7  1  0.74177251  0.25822749  0.50000000  1
