# generated using pymatgen
data_Ca2SnS4
_symmetry_space_group_name_H-M   'P 1'
_cell_length_a   3.95962319
_cell_length_b   7.23671561
_cell_length_c   7.14332354
_cell_angle_alpha   61.56809539
_cell_angle_beta   90.00000000
_cell_angle_gamma   105.87733476
_symmetry_Int_Tables_number   1
_chemical_formula_structural   Ca2SnS4
_chemical_formula_sum   'Ca2 Sn1 S4'
_cell_volume   171.06833014
_cell_formula_units_Z   1
loop_
 _symmetry_equiv_pos_site_id
 _symmetry_equiv_pos_as_xyz
  1  'x, y, z'
loop_
 _atom_site_type_symbol
 _atom_site_label
 _atom_site_symmetry_multiplicity
 _atom_site_fract_x
 _atom_site_fract_y
 _atom_site_fract_z
 _atom_site_occupancy
  Ca  Ca0  1  0.28942975  0.57885951  0.69240448  1
  Ca  Ca1  1  0.71057025  0.42114049  0.30759552  1
  Sn  Sn2  1  0.00000000  0.00000000  0.00000000  1
  S  S3  1  0.36735610  0.73471220  0.99463343  1
  S  S4  1  0.63264390  0.26528780  0.00536657  1
  S  S5  1  0.11053715  0.22107430  0.60384171  1
  S  S6  1  0.88946285  0.77892570  0.39615829  1
