# generated using pymatgen
data_HfMg6Sb
_symmetry_space_group_name_H-M   'P 1'
_cell_length_a   6.32154959
_cell_length_b   6.32154907
_cell_length_c   5.10184991
_cell_angle_alpha   90.00000000
_cell_angle_beta   90.00000000
_cell_angle_gamma   118.38900708
_symmetry_Int_Tables_number   1
_chemical_formula_structural   HfMg6Sb
_chemical_formula_sum   'Hf1 Mg6 Sb1'
_cell_volume   179.36140036
_cell_formula_units_Z   1
loop_
 _symmetry_equiv_pos_site_id
 _symmetry_equiv_pos_as_xyz
  1  'x, y, z'
loop_
 _atom_site_type_symbol
 _atom_site_label
 _atom_site_symmetry_multiplicity
 _atom_site_fract_x
 _atom_site_fract_y
 _atom_site_fract_z
 _atom_site_occupancy
  Hf  Hf0  1  0.33070603  0.16929397  0.75000000  1
  Mg  Mg1  1  0.16604785  0.83112104  0.25000000  1
  Mg  Mg2  1  0.66887896  0.33395215  0.25000000  1
  Mg  Mg3  1  0.66644754  0.83355246  0.25000000  1
  Mg  Mg4  1  0.33638892  0.67483534  0.75000000  1
  Mg  Mg5  1  0.82516466  0.16361108  0.75000000  1
  Mg  Mg6  1  0.83455774  0.66544226  0.75000000  1
  Sb  Sb7  1  0.17180831  0.32819169  0.25000000  1
