# generated using pymatgen
data_Na3AlF6
_symmetry_space_group_name_H-M   'P 1'
_cell_length_a   5.47281556
_cell_length_b   5.68110953
_cell_length_c   7.88481136
_cell_angle_alpha   90.00000000
_cell_angle_beta   90.20829621
_cell_angle_gamma   90.00000000
_symmetry_Int_Tables_number   1
_chemical_formula_structural   Na3AlF6
_chemical_formula_sum   'Na6 Al2 F12'
_cell_volume   245.15029050
_cell_formula_units_Z   2
loop_
 _symmetry_equiv_pos_site_id
 _symmetry_equiv_pos_as_xyz
  1  'x, y, z'
loop_
 _atom_site_type_symbol
 _atom_site_label
 _atom_site_symmetry_multiplicity
 _atom_site_fract_x
 _atom_site_fract_y
 _atom_site_fract_z
 _atom_site_occupancy
  F  F0  1  0.66355980  0.23229266  0.43297709  1
  F  F1  1  0.83644020  0.73229266  0.06702291  1
  F  F2  1  0.33644020  0.76770734  0.56702291  1
  F  F3  1  0.16355980  0.26770734  0.93297709  1
  F  F4  1  0.22736165  0.32570109  0.54744476  1
  F  F5  1  0.27263835  0.82570109  0.95255524  1
  F  F6  1  0.77263835  0.67429891  0.45255524  1
  F  F7  1  0.72736165  0.17429891  0.04744476  1
  F  F8  1  0.10813658  0.04935621  0.21825204  1
  F  F9  1  0.39186342  0.54935621  0.28174796  1
  F  F10  1  0.89186342  0.95064379  0.78174796  1
  F  F11  1  0.60813658  0.45064379  0.71825204  1
  Na  Na12  1  0.01542696  0.55356202  0.74599017  1
  Na  Na13  1  0.48457304  0.05356202  0.75400983  1
  Na  Na14  1  0.98457304  0.44643798  0.25400983  1
  Na  Na15  1  0.51542696  0.94643798  0.24599017  1
  Na  Na16  1  0.50000000  0.50000000  0.00000000  1
  Na  Na17  1  0.00000000  0.00000000  0.50000000  1
  Al  Al18  1  0.50000000  0.50000000  0.50000000  1
  Al  Al19  1  0.00000000  0.00000000  0.00000000  1
