# generated using pymatgen
data_SmInPd
_symmetry_space_group_name_H-M   'P 1'
_cell_length_a   7.85231374
_cell_length_b   7.85162173
_cell_length_c   3.87619014
_cell_angle_alpha   90.00000000
_cell_angle_beta   90.00000000
_cell_angle_gamma   120.00291111
_symmetry_Int_Tables_number   1
_chemical_formula_structural   SmInPd
_chemical_formula_sum   'Sm3 In3 Pd3'
_cell_volume   206.95693099
_cell_formula_units_Z   3
loop_
 _symmetry_equiv_pos_site_id
 _symmetry_equiv_pos_as_xyz
  1  'x, y, z'
loop_
 _atom_site_type_symbol
 _atom_site_label
 _atom_site_symmetry_multiplicity
 _atom_site_fract_x
 _atom_site_fract_y
 _atom_site_fract_z
 _atom_site_occupancy
  Sm  Sm0  1  0.59164412  0.00000000  0.50000200  1
  Sm  Sm1  1  0.99991289  0.59155933  0.50000200  1
  Sm  Sm2  1  0.40835255  0.40844167  0.50000200  1
  In  In3  1  0.25725390  0.00000000  0.00000000  1
  In  In4  1  0.99979833  0.25713204  0.00000000  1
  In  In5  1  0.74266728  0.74286796  0.00000000  1
  Pd  Pd6  1  0.00017261  1.00000000  0.50000200  1
  Pd  Pd7  1  0.33337322  0.66665010  0.00000000  1
  Pd  Pd8  1  0.66672411  0.33335090  0.00000000  1
