# generated using pymatgen
data_Cs2UO4
_symmetry_space_group_name_H-M   'P 1'
_cell_length_a   4.42602419
_cell_length_b   4.42602419
_cell_length_c   8.28285019
_cell_angle_alpha   105.49653044
_cell_angle_beta   105.49653039
_cell_angle_gamma   89.99999993
_symmetry_Int_Tables_number   1
_chemical_formula_structural   Cs2UO4
_chemical_formula_sum   'Cs2 U1 O4'
_cell_volume   150.22975856
_cell_formula_units_Z   1
loop_
 _symmetry_equiv_pos_site_id
 _symmetry_equiv_pos_as_xyz
  1  'x, y, z'
loop_
 _atom_site_type_symbol
 _atom_site_label
 _atom_site_symmetry_multiplicity
 _atom_site_fract_x
 _atom_site_fract_y
 _atom_site_fract_z
 _atom_site_occupancy
  O  O0  1  0.87298691  0.87298691  0.74597382  1
  O  O1  1  0.12701309  0.12701309  0.25402618  1
  O  O2  1  0.00000000  0.50000000  0.00000000  1
  O  O3  1  0.50000000  0.00000000  0.00000000  1
  Cs  Cs4  1  0.34588129  0.34588129  0.69176258  1
  Cs  Cs5  1  0.65411871  0.65411871  0.30823742  1
  U  U6  1  0.00000000  0.00000000  0.00000000  1
