# generated using pymatgen
data_Li8SiO6
_symmetry_space_group_name_H-M   'P 1'
_cell_length_a   5.47728043
_cell_length_b   5.47728042
_cell_length_c   10.74395243
_cell_angle_alpha   90.00000000
_cell_angle_beta   90.00000000
_cell_angle_gamma   119.99999999
_symmetry_Int_Tables_number   1
_chemical_formula_structural   Li8SiO6
_chemical_formula_sum   'Li16 Si2 O12'
_cell_volume   279.14166307
_cell_formula_units_Z   2
loop_
 _symmetry_equiv_pos_site_id
 _symmetry_equiv_pos_as_xyz
  1  'x, y, z'
loop_
 _atom_site_type_symbol
 _atom_site_label
 _atom_site_symmetry_multiplicity
 _atom_site_fract_x
 _atom_site_fract_y
 _atom_site_fract_z
 _atom_site_occupancy
  Li  Li0  1  0.00000000  0.30716241  0.27004463  1
  Li  Li1  1  0.69283759  0.00000000  0.77004463  1
  Li  Li2  1  0.33333333  0.66666667  0.41170734  1
  Li  Li3  1  0.66666667  0.33333333  0.91170734  1
  Li  Li4  1  0.33333333  0.66666667  0.91170734  1
  Li  Li5  1  0.66666667  0.33333333  0.41170734  1
  Li  Li6  1  0.39386714  0.00000000  0.62906703  1
  Li  Li7  1  0.39386714  0.39386714  0.12906703  1
  Li  Li8  1  0.00000000  0.60613286  0.12906703  1
  Li  Li9  1  0.00000000  0.39386714  0.62906703  1
  Li  Li10  1  0.60613286  0.60613286  0.62906703  1
  Li  Li11  1  0.60613286  0.00000000  0.12906703  1
  Li  Li12  1  0.30716241  0.00000000  0.27004463  1
  Li  Li13  1  0.69283759  0.69283759  0.27004463  1
  Li  Li14  1  0.00000000  0.69283759  0.77004463  1
  Li  Li15  1  0.30716241  0.30716241  0.77004463  1
  O  O16  1  0.00000000  0.28705483  0.45320535  1
  O  O17  1  0.71294517  0.71294517  0.45320535  1
  O  O18  1  0.00000000  0.00000000  0.15647542  1
  O  O19  1  0.00000000  0.00000000  0.65647542  1
  O  O20  1  0.33333333  0.66666667  0.21990666  1
  O  O21  1  0.66666667  0.33333333  0.71990666  1
  O  O22  1  0.33333333  0.66666667  0.71990666  1
  O  O23  1  0.71294517  0.00000000  0.95320535  1
  O  O24  1  0.28705483  0.00000000  0.45320535  1
  O  O25  1  0.28705483  0.28705483  0.95320535  1
  O  O26  1  0.00000000  0.71294517  0.95320535  1
  O  O27  1  0.66666667  0.33333333  0.21990666  1
  Si  Si28  1  0.00000000  0.00000000  0.49964555  1
  Si  Si29  1  0.00000000  0.00000000  -0.00035445  1
