# generated using pymatgen
data_LaMgGa
_symmetry_space_group_name_H-M   'P 1'
_cell_length_a   7.60192027
_cell_length_b   7.60192027
_cell_length_c   4.62584515
_cell_angle_alpha   90.00000000
_cell_angle_beta   90.00000000
_cell_angle_gamma   119.99999997
_symmetry_Int_Tables_number   1
_chemical_formula_structural   LaMgGa
_chemical_formula_sum   'La3 Mg3 Ga3'
_cell_volume   231.50924732
_cell_formula_units_Z   3
loop_
 _symmetry_equiv_pos_site_id
 _symmetry_equiv_pos_as_xyz
  1  'x, y, z'
loop_
 _atom_site_type_symbol
 _atom_site_label
 _atom_site_symmetry_multiplicity
 _atom_site_fract_x
 _atom_site_fract_y
 _atom_site_fract_z
 _atom_site_occupancy
  Mg  Mg0  1  0.00000000  0.24182298  0.50000000  1
  Mg  Mg1  1  0.75817702  0.75817702  0.50000000  1
  Mg  Mg2  1  0.24182298  0.00000000  0.50000000  1
  Ga  Ga3  1  0.33333333  0.66666667  0.50000000  1
  Ga  Ga4  1  0.66666667  0.33333333  0.50000000  1
  Ga  Ga5  1  0.00000000  0.00000000  0.00000000  1
  La  La6  1  0.00000000  0.57748164  0.00000000  1
  La  La7  1  0.42251836  0.42251836  0.00000000  1
  La  La8  1  0.57748164  0.00000000  0.00000000  1
