# generated using pymatgen
data_LiBiF4
_symmetry_space_group_name_H-M   'P 1'
_cell_length_a   5.36535042
_cell_length_b   5.36583551
_cell_length_c   6.80233082
_cell_angle_alpha   113.21543276
_cell_angle_beta   113.21732071
_cell_angle_gamma   90.01220708
_symmetry_Int_Tables_number   1
_chemical_formula_structural   LiBiF4
_chemical_formula_sum   'Li2 Bi2 F8'
_cell_volume   162.57234526
_cell_formula_units_Z   2
loop_
 _symmetry_equiv_pos_site_id
 _symmetry_equiv_pos_as_xyz
  1  'x, y, z'
loop_
 _atom_site_type_symbol
 _atom_site_label
 _atom_site_symmetry_multiplicity
 _atom_site_fract_x
 _atom_site_fract_y
 _atom_site_fract_z
 _atom_site_occupancy
  Li  Li0  1  0.37500252  0.12501046  0.75002440  1
  Li  Li1  1  0.62499748  0.87498954  0.24997560  1
  F  F2  1  0.17772474  0.36613691  0.90998752  1
  F  F3  1  0.54402607  0.67782857  0.41010906  1
  F  F4  1  0.26767109  0.95611107  0.09004377  1
  F  F5  1  0.13395740  0.76769006  0.59004939  1
  F  F6  1  0.45597393  0.32217143  0.58989094  1
  F  F7  1  0.82227526  0.63386309  0.09001248  1
  F  F8  1  0.73232891  0.04388893  0.90995623  1
  F  F9  1  0.86604260  0.23230994  0.40995061  1
  Bi  Bi10  1  0.12500407  0.37498563  0.25000065  1
  Bi  Bi11  1  0.87499593  0.62501437  0.74999935  1
