# generated using pymatgen
data_Nb3Cl8
_symmetry_space_group_name_H-M   'P 1'
_cell_length_a   6.83140353
_cell_length_b   6.83140353
_cell_length_c   13.74889995
_cell_angle_alpha   90.00000000
_cell_angle_beta   90.00000000
_cell_angle_gamma   119.99999997
_symmetry_Int_Tables_number   1
_chemical_formula_structural   Nb3Cl8
_chemical_formula_sum   'Nb6 Cl16'
_cell_volume   555.67193529
_cell_formula_units_Z   2
loop_
 _symmetry_equiv_pos_site_id
 _symmetry_equiv_pos_as_xyz
  1  'x, y, z'
loop_
 _atom_site_type_symbol
 _atom_site_label
 _atom_site_symmetry_multiplicity
 _atom_site_fract_x
 _atom_site_fract_y
 _atom_site_fract_z
 _atom_site_occupancy
  Cl  Cl0  1  0.16965160  0.33930321  0.63302420  1
  Cl  Cl1  1  0.66069679  0.83034840  0.63302420  1
  Cl  Cl2  1  0.16965160  0.83034840  0.63302420  1
  Cl  Cl3  1  0.83034840  0.66069679  0.36697580  1
  Cl  Cl4  1  0.83034840  0.16965160  0.36697580  1
  Cl  Cl5  1  0.33930321  0.16965160  0.36697580  1
  Cl  Cl6  1  0.66666667  0.33333333  0.11280660  1
  Cl  Cl7  1  0.33333333  0.66666667  0.88719340  1
  Cl  Cl8  1  0.33333333  0.66666667  0.34461185  1
  Cl  Cl9  1  0.66666667  0.33333333  0.65538815  1
  Cl  Cl10  1  0.66831831  0.83415916  0.14813809  1
  Cl  Cl11  1  0.16584084  0.83415916  0.14813809  1
  Cl  Cl12  1  0.16584084  0.33168169  0.14813809  1
  Cl  Cl13  1  0.83415916  0.16584084  0.85186191  1
  Cl  Cl14  1  0.33168169  0.16584084  0.85186191  1
  Cl  Cl15  1  0.83415916  0.66831831  0.85186191  1
  Nb  Nb16  1  0.05681203  0.52840602  0.75334978  1
  Nb  Nb17  1  0.47159398  0.52840602  0.75334978  1
  Nb  Nb18  1  0.47159398  0.94318797  0.75334978  1
  Nb  Nb19  1  0.52840602  0.47159398  0.24665022  1
  Nb  Nb20  1  0.94318797  0.47159398  0.24665022  1
  Nb  Nb21  1  0.52840602  0.05681203  0.24665022  1
