# generated using pymatgen
data_AlBr3
_symmetry_space_group_name_H-M   'P 1'
_cell_length_a   7.58205284
_cell_length_b   7.90793979
_cell_length_c   11.25677303
_cell_angle_alpha   98.06382032
_cell_angle_beta   90.00000000
_cell_angle_gamma   90.00000000
_symmetry_Int_Tables_number   1
_chemical_formula_structural   AlBr3
_chemical_formula_sum   'Al4 Br12'
_cell_volume   668.26479755
_cell_formula_units_Z   4
loop_
 _symmetry_equiv_pos_site_id
 _symmetry_equiv_pos_as_xyz
  1  'x, y, z'
loop_
 _atom_site_type_symbol
 _atom_site_label
 _atom_site_symmetry_multiplicity
 _atom_site_fract_x
 _atom_site_fract_y
 _atom_site_fract_z
 _atom_site_occupancy
  Al  Al0  1  0.08861233  0.80841127  0.44923537  1
  Al  Al1  1  0.58861233  0.19158873  0.05076463  1
  Al  Al2  1  0.91138767  0.19158873  0.55076463  1
  Al  Al3  1  0.41138767  0.80841127  0.94923537  1
  Br  Br4  1  0.92106331  0.60962442  0.33798632  1
  Br  Br5  1  0.42106331  0.39037558  0.16201368  1
  Br  Br6  1  0.07893669  0.39037558  0.66201368  1
  Br  Br7  1  0.57893669  0.60962442  0.83798632  1
  Br  Br8  1  0.37379929  0.75397329  0.48703133  1
  Br  Br9  1  0.87379929  0.24602671  0.01296867  1
  Br  Br10  1  0.62620071  0.24602671  0.51296867  1
  Br  Br11  1  0.12620071  0.75397329  0.98703133  1
  Br  Br12  1  0.06454937  0.07773251  0.36496828  1
  Br  Br13  1  0.56454937  0.92226749  0.13503172  1
  Br  Br14  1  0.93545063  0.92226749  0.63503172  1
  Br  Br15  1  0.43545063  0.07773251  0.86496828  1
