# generated using pymatgen
data_Na3PSO3
_symmetry_space_group_name_H-M   'P 1'
_cell_length_a   6.30636482
_cell_length_b   6.30636509
_cell_length_c   6.30636460
_cell_angle_alpha   84.89448363
_cell_angle_beta   84.89448337
_cell_angle_gamma   84.89448058
_symmetry_Int_Tables_number   1
_chemical_formula_structural   Na3PSO3
_chemical_formula_sum   'Na6 P2 S2 O6'
_cell_volume   247.98725143
_cell_formula_units_Z   2
loop_
 _symmetry_equiv_pos_site_id
 _symmetry_equiv_pos_as_xyz
  1  'x, y, z'
loop_
 _atom_site_type_symbol
 _atom_site_label
 _atom_site_symmetry_multiplicity
 _atom_site_fract_x
 _atom_site_fract_y
 _atom_site_fract_z
 _atom_site_occupancy
  Na  Na0  1  0.49487829  0.11839761  0.81023728  1
  Na  Na1  1  0.81023728  0.49487829  0.11839761  1
  Na  Na2  1  0.11839761  0.81023728  0.49487829  1
  Na  Na3  1  0.61839761  0.99487829  0.31023728  1
  Na  Na4  1  0.31023728  0.61839761  0.99487829  1
  Na  Na5  1  0.99487829  0.31023728  0.61839761  1
  O  O6  1  0.13598190  0.30425542  0.95677816  1
  O  O7  1  0.95677816  0.13598190  0.30425542  1
  O  O8  1  0.30425542  0.95677816  0.13598190  1
  O  O9  1  0.80425542  0.63598190  0.45677816  1
  O  O10  1  0.45677816  0.80425542  0.63598190  1
  O  O11  1  0.63598190  0.45677816  0.80425542  1
  P  P12  1  0.09296784  0.09296784  0.09296785  1
  P  P13  1  0.59296784  0.59296784  0.59296785  1
  S  S14  1  0.41563649  0.41563649  0.41563649  1
  S  S15  1  0.91563649  0.91563649  0.91563649  1
