# generated using pymatgen
data_Na4HgP2
_symmetry_space_group_name_H-M   'P 1'
_cell_length_a   9.07948258
_cell_length_b   9.07948258
_cell_length_c   9.07948258
_cell_angle_alpha   32.11046979
_cell_angle_beta   32.11046979
_cell_angle_gamma   32.11046981
_symmetry_Int_Tables_number   1
_chemical_formula_structural   Na4HgP2
_chemical_formula_sum   'Na4 Hg1 P2'
_cell_volume   187.93475970
_cell_formula_units_Z   1
loop_
 _symmetry_equiv_pos_site_id
 _symmetry_equiv_pos_as_xyz
  1  'x, y, z'
loop_
 _atom_site_type_symbol
 _atom_site_label
 _atom_site_symmetry_multiplicity
 _atom_site_fract_x
 _atom_site_fract_y
 _atom_site_fract_z
 _atom_site_occupancy
  Na  Na0  1  0.79280395  0.79280395  0.79280395  1
  Na  Na1  1  0.59719860  0.59719860  0.59719860  1
  Na  Na2  1  0.20719605  0.20719605  0.20719605  1
  Na  Na3  1  0.40280140  0.40280140  0.40280140  1
  P  P4  1  0.09369903  0.09369903  0.09369903  1
  P  P5  1  0.90630097  0.90630097  0.90630097  1
  Hg  Hg6  1  0.00000000  0.00000000  0.00000000  1
