# generated using pymatgen
data_Rb5Au3O2
_symmetry_space_group_name_H-M   'P 1'
_cell_length_a   5.79539014
_cell_length_b   7.52879844
_cell_length_c   14.58215476
_cell_angle_alpha   90.00000000
_cell_angle_beta   90.00000000
_cell_angle_gamma   90.00000000
_symmetry_Int_Tables_number   1
_chemical_formula_structural   Rb5Au3O2
_chemical_formula_sum   'Rb10 Au6 O4'
_cell_volume   636.25330468
_cell_formula_units_Z   2
loop_
 _symmetry_equiv_pos_site_id
 _symmetry_equiv_pos_as_xyz
  1  'x, y, z'
loop_
 _atom_site_type_symbol
 _atom_site_label
 _atom_site_symmetry_multiplicity
 _atom_site_fract_x
 _atom_site_fract_y
 _atom_site_fract_z
 _atom_site_occupancy
  O  O0  1  0.00000000  0.17298783  0.89151656  1
  O  O1  1  0.00000000  0.82701217  0.10848344  1
  O  O2  1  0.00000000  0.67298783  0.60848344  1
  O  O3  1  0.00000000  0.32701217  0.39151656  1
  Rb  Rb4  1  0.50000000  0.17126333  0.89687207  1
  Rb  Rb5  1  0.50000000  0.82873667  0.10312793  1
  Rb  Rb6  1  0.00000000  0.00000000  0.50000000  1
  Rb  Rb7  1  0.00000000  0.50000000  0.00000000  1
  Rb  Rb8  1  0.00000000  0.11406055  0.23544013  1
  Rb  Rb9  1  0.00000000  0.88593945  0.76455987  1
  Rb  Rb10  1  0.00000000  0.61406055  0.26455987  1
  Rb  Rb11  1  0.00000000  0.38593945  0.73544013  1
  Rb  Rb12  1  0.50000000  0.32873667  0.39687207  1
  Rb  Rb13  1  0.50000000  0.67126333  0.60312793  1
  Au  Au14  1  0.50000000  0.14752715  0.64442954  1
  Au  Au15  1  0.50000000  0.85247285  0.35557046  1
  Au  Au16  1  0.50000000  0.64752715  0.85557046  1
  Au  Au17  1  0.50000000  0.35247285  0.14442954  1
  Au  Au18  1  0.00000000  0.50000000  0.50000000  1
  Au  Au19  1  0.00000000  0.00000000  0.00000000  1
