# generated using pymatgen
data_Gd(PdO2)2
_symmetry_space_group_name_H-M   'P 1'
_cell_length_a   5.85704659
_cell_length_b   5.85704659
_cell_length_c   6.57081375
_cell_angle_alpha   116.46727233
_cell_angle_beta   116.46727230
_cell_angle_gamma   90.00000000
_symmetry_Int_Tables_number   1
_chemical_formula_structural   Gd(PdO2)2
_chemical_formula_sum   'Gd2 Pd4 O8'
_cell_volume   174.99951256
_cell_formula_units_Z   2
loop_
 _symmetry_equiv_pos_site_id
 _symmetry_equiv_pos_as_xyz
  1  'x, y, z'
loop_
 _atom_site_type_symbol
 _atom_site_label
 _atom_site_symmetry_multiplicity
 _atom_site_fract_x
 _atom_site_fract_y
 _atom_site_fract_z
 _atom_site_occupancy
  O  O0  1  0.83204012  0.61931006  0.35235297  1
  O  O1  1  0.73304292  0.33204012  0.85235297  1
  O  O2  1  0.11931006  0.02031285  0.85235297  1
  O  O3  1  0.52031285  0.23304292  0.35235297  1
  O  O4  1  0.16795988  0.38068994  0.64764703  1
  O  O5  1  0.26695708  0.66795988  0.14764703  1
  O  O6  1  0.47968715  0.76695708  0.64764703  1
  O  O7  1  0.88068994  0.97968715  0.14764703  1
  Pd  Pd8  1  0.50000000  0.00000000  0.00000000  1
  Pd  Pd9  1  0.00000000  0.00000000  0.50000000  1
  Pd  Pd10  1  0.50000000  0.00000000  0.50000000  1
  Pd  Pd11  1  0.50000000  0.50000000  0.00000000  1
  Gd  Gd12  1  0.87500000  0.62500000  0.75000000  1
  Gd  Gd13  1  0.12500000  0.37500000  0.25000000  1
