# generated using pymatgen
data_AsBr3
_symmetry_space_group_name_H-M   'P 1'
_cell_length_a   4.68719746
_cell_length_b   11.20163207
_cell_length_c   13.16213104
_cell_angle_alpha   90.00000000
_cell_angle_beta   90.00000000
_cell_angle_gamma   90.00000000
_symmetry_Int_Tables_number   1
_chemical_formula_structural   AsBr3
_chemical_formula_sum   'As4 Br12'
_cell_volume   691.06796853
_cell_formula_units_Z   4
loop_
 _symmetry_equiv_pos_site_id
 _symmetry_equiv_pos_as_xyz
  1  'x, y, z'
loop_
 _atom_site_type_symbol
 _atom_site_label
 _atom_site_symmetry_multiplicity
 _atom_site_fract_x
 _atom_site_fract_y
 _atom_site_fract_z
 _atom_site_occupancy
  As  As0  1  0.76643032  0.55902863  0.53690693  1
  As  As1  1  0.26643032  0.44097137  0.96309307  1
  As  As2  1  0.73356968  0.05902863  0.46309307  1
  As  As3  1  0.23356968  0.94097137  0.03690693  1
  Br  Br4  1  0.00256879  0.40199179  0.62436902  1
  Br  Br5  1  0.50256879  0.59800821  0.87563098  1
  Br  Br6  1  0.49743121  0.90199179  0.37563098  1
  Br  Br7  1  0.99743121  0.09800821  0.12436902  1
  Br  Br8  1  1.00013134  0.72609409  0.61074929  1
  Br  Br9  1  0.50013134  0.27390591  0.88925071  1
  Br  Br10  1  0.49986866  0.22609409  0.38925071  1
  Br  Br11  1  -0.00013134  0.77390591  0.11074929  1
  Br  Br12  1  0.00626916  0.55021766  0.37737592  1
  Br  Br13  1  0.50626916  0.44978234  0.12262408  1
  Br  Br14  1  0.49373084  0.05021766  0.62262408  1
  Br  Br15  1  0.99373084  0.94978234  0.87737592  1
