# generated using pymatgen
data_Ti2CoRe
_symmetry_space_group_name_H-M   'P 1'
_cell_length_a   4.32233024
_cell_length_b   4.32235484
_cell_length_c   4.32231683
_cell_angle_alpha   59.99987185
_cell_angle_beta   59.99975761
_cell_angle_gamma   59.99997462
_symmetry_Int_Tables_number   1
_chemical_formula_structural   Ti2CoRe
_chemical_formula_sum   'Ti2 Co1 Re1'
_cell_volume   57.10033594
_cell_formula_units_Z   1
loop_
 _symmetry_equiv_pos_site_id
 _symmetry_equiv_pos_as_xyz
  1  'x, y, z'
loop_
 _atom_site_type_symbol
 _atom_site_label
 _atom_site_symmetry_multiplicity
 _atom_site_fract_x
 _atom_site_fract_y
 _atom_site_fract_z
 _atom_site_occupancy
  Ti  Ti0  1  0.00000035  0.99999916  0.99999899  1
  Ti  Ti1  1  0.49999737  0.49999963  0.49999906  1
  Co  Co2  1  0.24999917  0.24999998  0.25000164  1
  Re  Re3  1  0.75000312  0.75000122  0.75000031  1
