# generated using pymatgen
data_Mg4Ta2O9
_symmetry_space_group_name_H-M   'P 1'
_cell_length_a   5.21199218
_cell_length_b   5.21199218
_cell_length_c   14.18669441
_cell_angle_alpha   90.00000000
_cell_angle_beta   90.00000000
_cell_angle_gamma   120.00000001
_symmetry_Int_Tables_number   1
_chemical_formula_structural   Mg4Ta2O9
_chemical_formula_sum   'Mg8 Ta4 O18'
_cell_volume   333.74852592
_cell_formula_units_Z   2
loop_
 _symmetry_equiv_pos_site_id
 _symmetry_equiv_pos_as_xyz
  1  'x, y, z'
loop_
 _atom_site_type_symbol
 _atom_site_label
 _atom_site_symmetry_multiplicity
 _atom_site_fract_x
 _atom_site_fract_y
 _atom_site_fract_z
 _atom_site_occupancy
  O  O0  1  0.28814891  0.28814891  0.75000000  1
  O  O1  1  0.00000000  0.71185109  0.75000000  1
  O  O2  1  0.71185109  0.00000000  0.75000000  1
  O  O3  1  0.71185109  0.71185109  0.25000000  1
  O  O4  1  0.00000000  0.28814891  0.25000000  1
  O  O5  1  0.28814891  0.00000000  0.25000000  1
  O  O6  1  0.68292280  0.65411347  0.58472152  1
  O  O7  1  0.34588653  0.02880933  0.58472152  1
  O  O8  1  0.97119067  0.31707720  0.58472152  1
  O  O9  1  0.02880933  0.34588653  0.91527848  1
  O  O10  1  0.31707720  0.97119067  0.91527848  1
  O  O11  1  0.65411347  0.68292280  0.91527848  1
  O  O12  1  0.34588653  0.31707720  0.08472152  1
  O  O13  1  0.68292280  0.02880933  0.08472152  1
  O  O14  1  0.97119067  0.65411347  0.08472152  1
  O  O15  1  0.02880933  0.68292280  0.41527848  1
  O  O16  1  0.65411347  0.97119067  0.41527848  1
  O  O17  1  0.31707720  0.34588653  0.41527848  1
  Mg  Mg18  1  0.33333333  0.66666667  0.01650980  1
  Mg  Mg19  1  0.66666667  0.33333333  0.48349020  1
  Mg  Mg20  1  0.66666667  0.33333333  0.98349020  1
  Mg  Mg21  1  0.33333333  0.66666667  0.51650980  1
  Mg  Mg22  1  0.33333333  0.66666667  0.80892561  1
  Mg  Mg23  1  0.66666667  0.33333333  0.69107439  1
  Mg  Mg24  1  0.66666667  0.33333333  0.19107439  1
  Mg  Mg25  1  0.33333333  0.66666667  0.30892561  1
  Ta  Ta26  1  0.00000000  0.00000000  0.35711565  1
  Ta  Ta27  1  0.00000000  0.00000000  0.14288435  1
  Ta  Ta28  1  0.00000000  0.00000000  0.64288435  1
  Ta  Ta29  1  0.00000000  0.00000000  0.85711565  1
