# generated using pymatgen
data_ErTaO4
_symmetry_space_group_name_H-M   'P 1'
_cell_length_a   5.12289119
_cell_length_b   5.30982070
_cell_length_c   5.49017982
_cell_angle_alpha   90.00000000
_cell_angle_beta   90.00000000
_cell_angle_gamma   96.37015653
_symmetry_Int_Tables_number   1
_chemical_formula_structural   ErTaO4
_chemical_formula_sum   'Er2 Ta2 O8'
_cell_volume   148.41980039
_cell_formula_units_Z   2
loop_
 _symmetry_equiv_pos_site_id
 _symmetry_equiv_pos_as_xyz
  1  'x, y, z'
loop_
 _atom_site_type_symbol
 _atom_site_label
 _atom_site_symmetry_multiplicity
 _atom_site_fract_x
 _atom_site_fract_y
 _atom_site_fract_z
 _atom_site_occupancy
  O  O0  1  0.73277783  0.00354729  0.56532322  1
  O  O1  1  0.26722217  0.49645271  0.56532322  1
  O  O2  1  0.26722217  0.99645271  0.43467678  1
  O  O3  1  0.73277783  0.50354729  0.43467678  1
  O  O4  1  0.24817895  0.59770580  0.08396830  1
  O  O5  1  0.75182105  0.90229420  0.08396830  1
  O  O6  1  0.75182105  0.40229420  0.91603170  1
  O  O7  1  0.24817895  0.09770580  0.91603170  1
  Er  Er8  1  0.00000000  0.75000000  0.76793960  1
  Er  Er9  1  0.00000000  0.25000000  0.23206040  1
  Ta  Ta10  1  0.50000000  0.25000000  0.69486546  1
  Ta  Ta11  1  0.50000000  0.75000000  0.30513454  1
