# generated using pymatgen
data_LaScO3
_symmetry_space_group_name_H-M   'P 1'
_cell_length_a   5.70556683
_cell_length_b   5.83691774
_cell_length_c   8.15521334
_cell_angle_alpha   90.00000000
_cell_angle_beta   90.00000000
_cell_angle_gamma   90.00000000
_symmetry_Int_Tables_number   1
_chemical_formula_structural   LaScO3
_chemical_formula_sum   'La4 Sc4 O12'
_cell_volume   271.59245208
_cell_formula_units_Z   4
loop_
 _symmetry_equiv_pos_site_id
 _symmetry_equiv_pos_as_xyz
  1  'x, y, z'
loop_
 _atom_site_type_symbol
 _atom_site_label
 _atom_site_symmetry_multiplicity
 _atom_site_fract_x
 _atom_site_fract_y
 _atom_site_fract_z
 _atom_site_occupancy
  O  O0  1  0.70356870  0.29659756  0.55454919  1
  O  O1  1  0.20356870  0.20340244  0.44545081  1
  O  O2  1  0.79643130  0.79659756  0.94545081  1
  O  O3  1  0.29643130  0.70340244  0.05454919  1
  O  O4  1  0.29643130  0.70340244  0.44545081  1
  O  O5  1  0.79643130  0.79659756  0.55454919  1
  O  O6  1  0.20356870  0.20340244  0.05454919  1
  O  O7  1  0.70356870  0.29659756  0.94545081  1
  O  O8  1  0.89774009  0.53491708  0.25000000  1
  O  O9  1  0.39774009  0.96508292  0.75000000  1
  O  O10  1  0.60225991  0.03491708  0.25000000  1
  O  O11  1  0.10225991  0.46508292  0.75000000  1
  Sc  Sc12  1  0.00000000  0.50000000  0.50000000  1
  Sc  Sc13  1  0.50000000  0.00000000  0.50000000  1
  Sc  Sc14  1  0.50000000  0.00000000  0.00000000  1
  Sc  Sc15  1  0.00000000  0.50000000  0.00000000  1
  La  La16  1  0.98813182  0.04496368  0.75000000  1
  La  La17  1  0.48813182  0.45503632  0.25000000  1
  La  La18  1  0.51186818  0.54496368  0.75000000  1
  La  La19  1  0.01186818  0.95503632  0.25000000  1
