# generated using pymatgen
data_SmScO3
_symmetry_space_group_name_H-M   'P 1'
_cell_length_a   5.55234086
_cell_length_b   5.81335218
_cell_length_c   8.04454077
_cell_angle_alpha   90.00000000
_cell_angle_beta   90.00000000
_cell_angle_gamma   90.00000000
_symmetry_Int_Tables_number   1
_chemical_formula_structural   SmScO3
_chemical_formula_sum   'Sm4 Sc4 O12'
_cell_volume   259.65937692
_cell_formula_units_Z   4
loop_
 _symmetry_equiv_pos_site_id
 _symmetry_equiv_pos_as_xyz
  1  'x, y, z'
loop_
 _atom_site_type_symbol
 _atom_site_label
 _atom_site_symmetry_multiplicity
 _atom_site_fract_x
 _atom_site_fract_y
 _atom_site_fract_z
 _atom_site_occupancy
  O  O0  1  0.69532699  0.30305197  0.56223800  1
  O  O1  1  0.19532699  0.19694803  0.43776200  1
  O  O2  1  0.80467301  0.80305197  0.93776200  1
  O  O3  1  0.30467301  0.69694803  0.06223800  1
  O  O4  1  0.30467301  0.69694803  0.43776200  1
  O  O5  1  0.80467301  0.80305197  0.56223800  1
  O  O6  1  0.19532699  0.19694803  0.06223800  1
  O  O7  1  0.69532699  0.30305197  0.93776200  1
  O  O8  1  0.88172527  0.54762578  0.25000000  1
  O  O9  1  0.38172527  0.95237422  0.75000000  1
  O  O10  1  0.61827473  0.04762578  0.25000000  1
  O  O11  1  0.11827473  0.45237422  0.75000000  1
  Sc  Sc12  1  0.00000000  0.50000000  0.50000000  1
  Sc  Sc13  1  0.50000000  0.00000000  0.50000000  1
  Sc  Sc14  1  0.50000000  0.00000000  0.00000000  1
  Sc  Sc15  1  0.00000000  0.50000000  0.00000000  1
  Sm  Sm16  1  0.98238602  0.05932709  0.75000000  1
  Sm  Sm17  1  0.48238602  0.44067291  0.25000000  1
  Sm  Sm18  1  0.51761398  0.55932709  0.75000000  1
  Sm  Sm19  1  0.01761398  0.94067291  0.25000000  1
