# generated using pymatgen
data_Sr2TaCrO6
_symmetry_space_group_name_H-M   'P 1'
_cell_length_a   5.65225266
_cell_length_b   5.65225266
_cell_length_c   5.65225266
_cell_angle_alpha   60.00000000
_cell_angle_beta   59.99999999
_cell_angle_gamma   59.99999997
_symmetry_Int_Tables_number   1
_chemical_formula_structural   Sr2TaCrO6
_chemical_formula_sum   'Sr2 Ta1 Cr1 O6'
_cell_volume   127.68788768
_cell_formula_units_Z   1
loop_
 _symmetry_equiv_pos_site_id
 _symmetry_equiv_pos_as_xyz
  1  'x, y, z'
loop_
 _atom_site_type_symbol
 _atom_site_label
 _atom_site_symmetry_multiplicity
 _atom_site_fract_x
 _atom_site_fract_y
 _atom_site_fract_z
 _atom_site_occupancy
  O  O0  1  0.25093628  0.74906357  0.74906302  1
  O  O1  1  0.25093628  0.74906357  0.25093671  1
  O  O2  1  0.74906377  0.25093601  0.74906306  1
  O  O3  1  0.25093734  0.25093601  0.74906400  1
  O  O4  1  0.74906377  0.25093601  0.25093674  1
  O  O5  1  0.74906271  0.74906357  0.25093754  1
  Cr  Cr6  1  0.00000000  0.00000000  0.00000000  1
  Sr  Sr7  1  0.25000071  0.24999935  0.25000031  1
  Sr  Sr8  1  0.74999934  0.75000023  0.74999945  1
  Ta  Ta9  1  0.50000069  0.50000088  0.49999989  1
