# generated using pymatgen
data_Ca5Bi3
_symmetry_space_group_name_H-M   'P 1'
_cell_length_a   8.48198457
_cell_length_b   9.78173357
_cell_length_c   12.84128530
_cell_angle_alpha   90.00000000
_cell_angle_beta   90.00000000
_cell_angle_gamma   90.00000000
_symmetry_Int_Tables_number   1
_chemical_formula_structural   Ca5Bi3
_chemical_formula_sum   'Ca20 Bi12'
_cell_volume   1065.42234903
_cell_formula_units_Z   4
loop_
 _symmetry_equiv_pos_site_id
 _symmetry_equiv_pos_as_xyz
  1  'x, y, z'
loop_
 _atom_site_type_symbol
 _atom_site_label
 _atom_site_symmetry_multiplicity
 _atom_site_fract_x
 _atom_site_fract_y
 _atom_site_fract_z
 _atom_site_occupancy
  Ca  Ca0  1  0.30683783  0.95635884  0.92387421  1
  Ca  Ca1  1  0.80683783  0.04364116  0.57612579  1
  Ca  Ca2  1  0.69316217  0.45635884  0.07612579  1
  Ca  Ca3  1  0.19316217  0.54364116  0.42387421  1
  Ca  Ca4  1  0.69316217  0.04364116  0.07612579  1
  Ca  Ca5  1  0.19316217  0.95635884  0.42387421  1
  Ca  Ca6  1  0.30683783  0.54364116  0.92387421  1
  Ca  Ca7  1  0.80683783  0.45635884  0.57612579  1
  Ca  Ca8  1  0.68010448  0.75000000  0.77109039  1
  Ca  Ca9  1  0.18010448  0.25000000  0.72890961  1
  Ca  Ca10  1  0.31989552  0.25000000  0.22890961  1
  Ca  Ca11  1  0.81989552  0.75000000  0.27109039  1
  Ca  Ca12  1  0.15071798  0.75000000  0.70924737  1
  Ca  Ca13  1  0.65071798  0.25000000  0.79075263  1
  Ca  Ca14  1  0.84928202  0.25000000  0.29075263  1
  Ca  Ca15  1  0.34928202  0.75000000  0.20924737  1
  Ca  Ca16  1  0.53512366  0.75000000  0.49455047  1
  Ca  Ca17  1  0.03512366  0.25000000  0.00544953  1
  Ca  Ca18  1  0.46487634  0.25000000  0.50544953  1
  Ca  Ca19  1  0.96487634  0.75000000  0.99455047  1
  Bi  Bi20  1  0.93505129  0.01291824  0.82913365  1
  Bi  Bi21  1  0.43505129  0.98708176  0.67086635  1
  Bi  Bi22  1  0.06494871  0.51291824  0.17086635  1
  Bi  Bi23  1  0.56494871  0.48708176  0.32913365  1
  Bi  Bi24  1  0.06494871  0.98708176  0.17086635  1
  Bi  Bi25  1  0.56494871  0.01291824  0.32913365  1
  Bi  Bi26  1  0.93505129  0.48708176  0.82913365  1
  Bi  Bi27  1  0.43505129  0.51291824  0.67086635  1
  Bi  Bi28  1  0.57868185  0.75000000  0.01624837  1
  Bi  Bi29  1  0.07868185  0.25000000  0.48375163  1
  Bi  Bi30  1  0.42131815  0.25000000  0.98375163  1
  Bi  Bi31  1  0.92131815  0.75000000  0.51624837  1
