# generated using pymatgen
data_Ge3(BiO3)4
_symmetry_space_group_name_H-M   'P 1'
_cell_length_a   9.23446721
_cell_length_b   9.23446721
_cell_length_c   9.23446721
_cell_angle_alpha   109.47122066
_cell_angle_beta   109.47122065
_cell_angle_gamma   109.47122062
_symmetry_Int_Tables_number   1
_chemical_formula_structural   Ge3(BiO3)4
_chemical_formula_sum   'Ge6 Bi8 O24'
_cell_volume   606.19680023
_cell_formula_units_Z   2
loop_
 _symmetry_equiv_pos_site_id
 _symmetry_equiv_pos_as_xyz
  1  'x, y, z'
loop_
 _atom_site_type_symbol
 _atom_site_label
 _atom_site_symmetry_multiplicity
 _atom_site_fract_x
 _atom_site_fract_y
 _atom_site_fract_z
 _atom_site_occupancy
  O  O0  1  0.58481338  0.44519165  0.77960788  1
  O  O1  1  0.05480835  0.63962173  0.33441624  1
  O  O2  1  0.72039212  0.16558376  0.80520550  1
  O  O3  1  0.91518662  0.69479450  0.86037827  1
  O  O4  1  0.69479450  0.86037827  0.91518662  1
  O  O5  1  0.86037827  0.91518662  0.69479450  1
  O  O6  1  0.08481338  0.27960788  0.94519165  1
  O  O7  1  0.83441624  0.13962173  0.55480835  1
  O  O8  1  0.66558376  0.22039212  0.30520550  1
  O  O9  1  0.36037827  0.19479450  0.41518662  1
  O  O10  1  0.19479450  0.41518662  0.36037827  1
  O  O11  1  0.94519165  0.08481338  0.27960788  1
  O  O12  1  0.13962173  0.55480835  0.83441624  1
  O  O13  1  0.30520550  0.66558376  0.22039212  1
  O  O14  1  0.41518662  0.36037827  0.19479450  1
  O  O15  1  0.63962173  0.33441624  0.05480835  1
  O  O16  1  0.77960788  0.58481338  0.44519165  1
  O  O17  1  0.44519165  0.77960788  0.58481338  1
  O  O18  1  0.80520550  0.72039212  0.16558376  1
  O  O19  1  0.16558376  0.80520550  0.72039212  1
  O  O20  1  0.33441624  0.05480835  0.63962173  1
  O  O21  1  0.22039212  0.30520550  0.66558376  1
  O  O22  1  0.55480835  0.83441624  0.13962173  1
  O  O23  1  0.27960788  0.94519165  0.08481338  1
  Ge  Ge24  1  0.75000000  0.87500000  0.12500000  1
  Ge  Ge25  1  0.62500000  0.37500000  0.25000000  1
  Ge  Ge26  1  0.87500000  0.12500000  0.75000000  1
  Ge  Ge27  1  0.12500000  0.75000000  0.87500000  1
  Ge  Ge28  1  0.37500000  0.25000000  0.62500000  1
  Ge  Ge29  1  0.25000000  0.62500000  0.37500000  1
  Bi  Bi30  1  0.67352115  0.67352115  0.67352115  1
  Bi  Bi31  1  0.32647885  0.50000000  0.00000000  1
  Bi  Bi32  1  0.50000000  0.00000000  0.32647885  1
  Bi  Bi33  1  0.00000000  0.32647885  0.50000000  1
  Bi  Bi34  1  0.50000000  0.00000000  0.82647885  1
  Bi  Bi35  1  0.00000000  0.82647885  0.50000000  1
  Bi  Bi36  1  0.82647885  0.50000000  0.00000000  1
  Bi  Bi37  1  0.17352115  0.17352115  0.17352115  1
