# generated using pymatgen
data_Ti5Si3
_symmetry_space_group_name_H-M   'P 1'
_cell_length_a   7.46778631
_cell_length_b   7.46778632
_cell_length_c   5.13278636
_cell_angle_alpha   90.00000000
_cell_angle_beta   90.00000000
_cell_angle_gamma   120.00000001
_symmetry_Int_Tables_number   1
_chemical_formula_structural   Ti5Si3
_chemical_formula_sum   'Ti10 Si6'
_cell_volume   247.89489574
_cell_formula_units_Z   2
loop_
 _symmetry_equiv_pos_site_id
 _symmetry_equiv_pos_as_xyz
  1  'x, y, z'
loop_
 _atom_site_type_symbol
 _atom_site_label
 _atom_site_symmetry_multiplicity
 _atom_site_fract_x
 _atom_site_fract_y
 _atom_site_fract_z
 _atom_site_occupancy
  Si  Si0  1  0.60800348  0.00000000  0.25000000  1
  Si  Si1  1  0.60800348  0.60800348  0.75000000  1
  Si  Si2  1  0.00000000  0.39199652  0.75000000  1
  Si  Si3  1  0.00000000  0.60800348  0.25000000  1
  Si  Si4  1  0.39199652  0.39199652  0.25000000  1
  Si  Si5  1  0.39199652  0.00000000  0.75000000  1
  Ti  Ti6  1  0.33333333  0.66666667  0.00000000  1
  Ti  Ti7  1  0.66666667  0.33333333  0.50000000  1
  Ti  Ti8  1  0.66666667  0.33333333  0.00000000  1
  Ti  Ti9  1  0.33333333  0.66666667  0.50000000  1
  Ti  Ti10  1  0.25062885  0.00000000  0.25000000  1
  Ti  Ti11  1  0.25062885  0.25062885  0.75000000  1
  Ti  Ti12  1  0.00000000  0.74937115  0.75000000  1
  Ti  Ti13  1  0.00000000  0.25062885  0.25000000  1
  Ti  Ti14  1  0.74937115  0.74937115  0.25000000  1
  Ti  Ti15  1  0.74937115  0.00000000  0.75000000  1
