# generated using pymatgen
data_CoGe2
_symmetry_space_group_name_H-M   'P 1'
_cell_length_a   5.67498973
_cell_length_b   5.67677791
_cell_length_c   6.15815512
_cell_angle_alpha   90.00000000
_cell_angle_beta   117.43682343
_cell_angle_gamma   90.00000000
_symmetry_Int_Tables_number   1
_chemical_formula_structural   CoGe2
_chemical_formula_sum   'Co4 Ge8'
_cell_volume   176.07410136
_cell_formula_units_Z   4
loop_
 _symmetry_equiv_pos_site_id
 _symmetry_equiv_pos_as_xyz
  1  'x, y, z'
loop_
 _atom_site_type_symbol
 _atom_site_label
 _atom_site_symmetry_multiplicity
 _atom_site_fract_x
 _atom_site_fract_y
 _atom_site_fract_z
 _atom_site_occupancy
  Co  Co0  1  0.99180358  0.00000000  0.98360716  1
  Co  Co1  1  0.49180358  0.50000000  0.98360716  1
  Co  Co2  1  0.75819642  0.00000000  0.51639284  1
  Co  Co3  1  0.25819642  0.50000000  0.51639284  1
  Ge  Ge4  1  0.71613253  0.65883415  0.75000000  1
  Ge  Ge5  1  0.03386747  0.34116585  0.75000000  1
  Ge  Ge6  1  0.53386747  0.15883415  0.75000000  1
  Ge  Ge7  1  0.21613253  0.84116585  0.75000000  1
  Ge  Ge8  1  0.87397789  0.75000000  0.25000000  1
  Ge  Ge9  1  0.37602211  0.25000000  0.25000000  1
  Ge  Ge10  1  0.87602211  0.25000000  0.25000000  1
  Ge  Ge11  1  0.37397789  0.75000000  0.25000000  1
