# generated using pymatgen
data_Dy2O3
_symmetry_space_group_name_H-M   'P 1'
_cell_length_a   9.24566552
_cell_length_b   9.24566552
_cell_length_c   9.24566552
_cell_angle_alpha   109.47122065
_cell_angle_beta   109.47122065
_cell_angle_gamma   109.47122059
_symmetry_Int_Tables_number   1
_chemical_formula_structural   Dy2O3
_chemical_formula_sum   'Dy16 O24'
_cell_volume   608.40481636
_cell_formula_units_Z   8
loop_
 _symmetry_equiv_pos_site_id
 _symmetry_equiv_pos_as_xyz
  1  'x, y, z'
loop_
 _atom_site_type_symbol
 _atom_site_label
 _atom_site_symmetry_multiplicity
 _atom_site_fract_x
 _atom_site_fract_y
 _atom_site_fract_z
 _atom_site_occupancy
  O  O0  1  0.03084865  0.48844819  0.76028360  1
  O  O1  1  0.22816458  0.27056505  0.73971640  1
  O  O2  1  0.27183542  0.01155181  0.04240047  1
  O  O3  1  0.22943495  0.45759953  0.46915135  1
  O  O4  1  0.45759953  0.46915135  0.22943495  1
  O  O5  1  0.76028360  0.03084865  0.48844819  1
  O  O6  1  0.27056505  0.73971640  0.22816458  1
  O  O7  1  0.04240047  0.27183542  0.01155181  1
  O  O8  1  0.48844819  0.76028360  0.03084865  1
  O  O9  1  0.73971640  0.22816458  0.27056505  1
  O  O10  1  0.01155181  0.04240047  0.27183542  1
  O  O11  1  0.46915135  0.22943495  0.45759953  1
  O  O12  1  0.96915135  0.51155181  0.23971640  1
  O  O13  1  0.77183542  0.72943495  0.26028360  1
  O  O14  1  0.72816458  0.98844819  0.95759953  1
  O  O15  1  0.77056505  0.54240047  0.53084865  1
  O  O16  1  0.53084865  0.77056505  0.54240047  1
  O  O17  1  0.98844819  0.95759953  0.72816458  1
  O  O18  1  0.26028360  0.77183542  0.72943495  1
  O  O19  1  0.51155181  0.23971640  0.96915135  1
  O  O20  1  0.95759953  0.72816458  0.98844819  1
  O  O21  1  0.72943495  0.26028360  0.77183542  1
  O  O22  1  0.23971640  0.96915135  0.51155181  1
  O  O23  1  0.54240047  0.53084865  0.77056505  1
  Dy  Dy24  1  0.25000000  0.71753772  0.46753772  1
  Dy  Dy25  1  0.03246228  0.75000000  0.78246228  1
  Dy  Dy26  1  0.78246228  0.03246228  0.75000000  1
  Dy  Dy27  1  0.46753772  0.25000000  0.71753772  1
  Dy  Dy28  1  0.71753772  0.46753772  0.25000000  1
  Dy  Dy29  1  0.75000000  0.78246228  0.03246228  1
  Dy  Dy30  1  0.75000000  0.28246228  0.53246228  1
  Dy  Dy31  1  0.96753772  0.25000000  0.21753772  1
  Dy  Dy32  1  0.21753772  0.96753772  0.25000000  1
  Dy  Dy33  1  0.53246228  0.75000000  0.28246228  1
  Dy  Dy34  1  0.28246228  0.53246228  0.75000000  1
  Dy  Dy35  1  0.25000000  0.21753772  0.96753772  1
  Dy  Dy36  1  0.00000000  0.50000000  0.00000000  1
  Dy  Dy37  1  0.50000000  0.00000000  0.00000000  1
  Dy  Dy38  1  0.00000000  0.00000000  0.50000000  1
  Dy  Dy39  1  0.50000000  0.50000000  0.50000000  1
