# generated using pymatgen
data_HfZnIr2
_symmetry_space_group_name_H-M   'P 1'
_cell_length_a   4.46805180
_cell_length_b   4.46805014
_cell_length_c   4.46805146
_cell_angle_alpha   59.99996634
_cell_angle_beta   59.99998513
_cell_angle_gamma   59.99996602
_symmetry_Int_Tables_number   1
_chemical_formula_structural   HfZnIr2
_chemical_formula_sum   'Hf1 Zn1 Ir2'
_cell_volume   63.07236771
_cell_formula_units_Z   1
loop_
 _symmetry_equiv_pos_site_id
 _symmetry_equiv_pos_as_xyz
  1  'x, y, z'
loop_
 _atom_site_type_symbol
 _atom_site_label
 _atom_site_symmetry_multiplicity
 _atom_site_fract_x
 _atom_site_fract_y
 _atom_site_fract_z
 _atom_site_occupancy
  Hf  Hf0  1  0.24999982  0.24999980  0.24999985  1
  Zn  Zn1  1  0.74999996  0.74999992  0.74999992  1
  Ir  Ir2  1  0.99999984  0.99999976  0.99999990  1
  Ir  Ir3  1  0.49999838  0.49999852  0.49999832  1
