# generated using pymatgen
data_Cd(NO3)2
_symmetry_space_group_name_H-M   'P 1'
_cell_length_a   7.76198250
_cell_length_b   7.75399264
_cell_length_c   15.90128925
_cell_angle_alpha   90.00000000
_cell_angle_beta   90.00000000
_cell_angle_gamma   90.00000000
_symmetry_Int_Tables_number   1
_chemical_formula_structural   Cd(NO3)2
_chemical_formula_sum   'Cd8 N16 O48'
_cell_volume   957.04064257
_cell_formula_units_Z   8
loop_
 _symmetry_equiv_pos_site_id
 _symmetry_equiv_pos_as_xyz
  1  'x, y, z'
loop_
 _atom_site_type_symbol
 _atom_site_label
 _atom_site_symmetry_multiplicity
 _atom_site_fract_x
 _atom_site_fract_y
 _atom_site_fract_z
 _atom_site_occupancy
  N  N0  1  0.65897548  0.37076955  0.70598721  1
  N  N1  1  0.32676103  0.07959219  0.04710626  1
  N  N2  1  0.67323897  0.57959219  0.95289374  1
  N  N3  1  0.17323897  0.57959219  0.04710626  1
  N  N4  1  0.82676103  0.07959219  0.95289374  1
  N  N5  1  0.63755099  0.40540153  0.21287148  1
  N  N6  1  0.36244901  0.90540153  0.78712852  1
  N  N7  1  0.86244901  0.90540153  0.21287148  1
  N  N8  1  0.13755099  0.40540153  0.78712852  1
  N  N9  1  0.34102452  0.87076955  0.29401279  1
  N  N10  1  0.84102452  0.87076955  0.70598721  1
  N  N11  1  0.15897548  0.37076955  0.29401279  1
  N  N12  1  0.33122832  0.06441885  0.55197152  1
  N  N13  1  0.66877168  0.56441885  0.44802848  1
  N  N14  1  0.16877168  0.56441885  0.55197152  1
  N  N15  1  0.83122832  0.06441885  0.44802848  1
  O  O16  1  0.34510524  0.77237184  0.74208281  1
  O  O17  1  0.32531514  0.94628252  0.36435277  1
  O  O18  1  0.82531514  0.94628252  0.63564723  1
  O  O19  1  0.17468486  0.44628252  0.36435277  1
  O  O20  1  0.53644837  0.41067059  0.75471602  1
  O  O21  1  0.46355163  0.91067059  0.24528398  1
  O  O22  1  0.96355163  0.91067059  0.75471602  1
  O  O23  1  0.03644837  0.41067059  0.24528398  1
  O  O24  1  0.26680607  0.25592047  0.27315271  1
  O  O25  1  0.73319393  0.75592047  0.72684729  1
  O  O26  1  0.23319393  0.75592047  0.27315271  1
  O  O27  1  0.76680607  0.25592047  0.72684729  1
  O  O28  1  0.80823171  0.18921651  0.49830352  1
  O  O29  1  0.19176829  0.68921651  0.50169648  1
  O  O30  1  0.69176829  0.68921651  0.49830352  1
  O  O31  1  0.30823171  0.18921651  0.50169648  1
  O  O32  1  0.72004184  0.03242028  0.39191812  1
  O  O33  1  0.27995816  0.53242028  0.60808188  1
  O  O34  1  0.77995816  0.53242028  0.39191812  1
  O  O35  1  0.22004184  0.03242028  0.60808188  1
  O  O36  1  0.96575626  0.97260014  0.45394021  1
  O  O37  1  0.03424374  0.47260014  0.54605979  1
  O  O38  1  0.53424374  0.47260014  0.45394021  1
  O  O39  1  0.46575626  0.97260014  0.54605979  1
  O  O40  1  0.21865629  0.05657336  0.10581459  1
  O  O41  1  0.95710245  0.98296572  0.95930217  1
  O  O42  1  0.04289755  0.48296572  0.04069783  1
  O  O43  1  0.54289755  0.48296572  0.95930217  1
  O  O44  1  0.15489476  0.27237184  0.74208281  1
  O  O45  1  0.84510524  0.77237184  0.25791719  1
  O  O46  1  0.67468486  0.44628252  0.63564723  1
  O  O47  1  0.65489476  0.27237184  0.25791719  1
  O  O48  1  0.22497750  0.42108992  0.85430747  1
  O  O49  1  0.77502250  0.92108992  0.14569253  1
  O  O50  1  0.27502250  0.92108992  0.85430747  1
  O  O51  1  0.72497750  0.42108992  0.14569253  1
  O  O52  1  0.03355658  0.52409656  0.76655220  1
  O  O53  1  0.96644342  0.02409656  0.23344780  1
  O  O54  1  0.30352515  0.20075763  0.99465744  1
  O  O55  1  0.53355658  0.52409656  0.23344780  1
  O  O56  1  0.45710245  0.98296572  0.04069783  1
  O  O57  1  0.71865629  0.05657336  0.89418541  1
  O  O58  1  0.28134371  0.55657336  0.10581459  1
  O  O59  1  0.78134371  0.55657336  0.89418541  1
  O  O60  1  0.80352515  0.20075763  0.00534256  1
  O  O61  1  0.19647485  0.70075763  0.99465744  1
  O  O62  1  0.69647485  0.70075763  0.00534256  1
  O  O63  1  0.46644342  0.02409656  0.76655220  1
  Cd  Cd64  1  0.01813159  0.71665822  0.37835142  1
  Cd  Cd65  1  0.98186841  0.21665822  0.62164858  1
  Cd  Cd66  1  0.48186841  0.21665822  0.37835142  1
  Cd  Cd67  1  0.51813159  0.71665822  0.62164858  1
  Cd  Cd68  1  0.52311652  0.73679413  0.12514675  1
  Cd  Cd69  1  0.47688348  0.23679413  0.87485325  1
  Cd  Cd70  1  0.97688348  0.23679413  0.12514675  1
  Cd  Cd71  1  0.02311652  0.73679413  0.87485325  1
