# generated using pymatgen
data_NaYF4
_symmetry_space_group_name_H-M   'P 1'
_cell_length_a   7.77805346
_cell_length_b   10.24221163
_cell_length_c   6.66396141
_cell_angle_alpha   29.26629523
_cell_angle_beta   54.29649956
_cell_angle_gamma   40.58765412
_symmetry_Int_Tables_number   1
_chemical_formula_structural   NaYF4
_chemical_formula_sum   'Na2 Y2 F8'
_cell_volume   163.57790969
_cell_formula_units_Z   2
loop_
 _symmetry_equiv_pos_site_id
 _symmetry_equiv_pos_as_xyz
  1  'x, y, z'
loop_
 _atom_site_type_symbol
 _atom_site_label
 _atom_site_symmetry_multiplicity
 _atom_site_fract_x
 _atom_site_fract_y
 _atom_site_fract_z
 _atom_site_occupancy
  F  F0  1  0.37500024  0.98097419  0.76902749  1
  F  F1  1  0.10597017  0.51905165  0.73093661  1
  F  F2  1  0.37499976  0.51902581  0.23097251  1
  F  F3  1  0.87498991  0.01905165  0.73093661  1
  F  F4  1  0.10597612  0.01902581  0.23097251  1
  F  F5  1  0.87501009  0.48094835  0.26906339  1
  F  F6  1  0.64402388  0.48097419  0.76902749  1
  F  F7  1  0.64402983  0.98094835  0.26906339  1
  Na  Na8  1  0.49999902  0.00000000  0.00000000  1
  Na  Na9  1  0.25000098  0.50000000  0.00000000  1
  Y  Y10  1  1.00000058  0.00000000  0.00000000  1
  Y  Y11  1  0.74999942  0.50000000  0.00000000  1
