# generated using pymatgen
data_Tl5Se2I
_symmetry_space_group_name_H-M   'P 1'
_cell_length_a   8.84607503
_cell_length_b   8.84607503
_cell_length_c   9.43577819
_cell_angle_alpha   117.95330026
_cell_angle_beta   117.95330024
_cell_angle_gamma   89.99999999
_symmetry_Int_Tables_number   1
_chemical_formula_structural   Tl5Se2I
_chemical_formula_sum   'Tl10 Se4 I2'
_cell_volume   552.81988824
_cell_formula_units_Z   2
loop_
 _symmetry_equiv_pos_site_id
 _symmetry_equiv_pos_as_xyz
  1  'x, y, z'
loop_
 _atom_site_type_symbol
 _atom_site_label
 _atom_site_symmetry_multiplicity
 _atom_site_fract_x
 _atom_site_fract_y
 _atom_site_fract_z
 _atom_site_occupancy
  Se  Se0  1  0.83804409  0.33804409  0.00000000  1
  Se  Se1  1  0.66195591  0.83804409  0.00000000  1
  Se  Se2  1  0.33804409  0.16195591  0.00000000  1
  Se  Se3  1  0.16195591  0.66195591  0.00000000  1
  I  I4  1  0.75000000  0.75000000  0.50000000  1
  I  I5  1  0.25000000  0.25000000  0.50000000  1
  Tl  Tl6  1  0.99097641  0.77919834  0.27017476  1
  Tl  Tl7  1  0.77919834  0.27919834  0.27017476  1
  Tl  Tl8  1  0.49097641  0.99097641  0.27017476  1
  Tl  Tl9  1  0.22080166  0.72080166  0.72982524  1
  Tl  Tl10  1  0.27919834  0.49097641  0.27017476  1
  Tl  Tl11  1  0.00902359  0.22080166  0.72982524  1
  Tl  Tl12  1  0.72080166  0.50902359  0.72982524  1
  Tl  Tl13  1  0.50902359  0.00902359  0.72982524  1
  Tl  Tl14  1  0.50000000  0.50000000  0.00000000  1
  Tl  Tl15  1  0.00000000  0.00000000  0.00000000  1
