# generated using pymatgen
data_KIO3
_symmetry_space_group_name_H-M   'P 1'
_cell_length_a   7.78823279
_cell_length_b   7.79091011
_cell_length_c   7.79154623
_cell_angle_alpha   108.92566535
_cell_angle_beta   108.89264242
_cell_angle_gamma   108.78905218
_symmetry_Int_Tables_number   1
_chemical_formula_structural   KIO3
_chemical_formula_sum   'K4 I4 O12'
_cell_volume   371.83049493
_cell_formula_units_Z   4
loop_
 _symmetry_equiv_pos_site_id
 _symmetry_equiv_pos_as_xyz
  1  'x, y, z'
loop_
 _atom_site_type_symbol
 _atom_site_label
 _atom_site_symmetry_multiplicity
 _atom_site_fract_x
 _atom_site_fract_y
 _atom_site_fract_z
 _atom_site_occupancy
  O  O0  1  0.14506042  0.70299223  0.46231200  1
  O  O1  1  0.18537117  0.51160986  0.71221716  1
  O  O2  1  0.89775059  0.66125740  0.65917282  1
  O  O3  1  0.65026697  0.97195615  0.71534472  1
  O  O4  1  0.44759835  0.20577208  0.65338194  1
  O  O5  1  0.69506037  0.15635243  0.46431964  1
  O  O6  1  0.65967263  0.41240583  0.15766884  1
  O  O7  1  0.45243932  0.64839531  0.21325963  1
  O  O8  1  0.15616812  0.15958247  0.92029628  1
  O  O9  1  0.00908823  0.20159560  0.20931654  1
  O  O10  1  0.19132133  0.94362900  0.14920070  1
  O  O11  1  0.68836253  0.69915974  0.00844174  1
  K  K12  1  0.47069289  0.49903544  0.50678549  1
  K  K13  1  0.98543144  0.99836578  0.48635327  1
  K  K14  1  0.98851744  0.49319973  0.00237704  1
  K  K15  1  0.49048424  0.98012706  0.99978679  1
  I  I16  1  0.98234183  0.50842949  0.50560207  1
  I  I17  1  0.49254503  0.00299785  0.50571609  1
  I  I18  1  0.49300915  0.49170154  0.01158837  1
  I  I19  1  0.00091797  0.99893502  0.99775887  1
