# generated using pymatgen
data_V6C5
_symmetry_space_group_name_H-M   'P 1'
_cell_length_a   5.10516935
_cell_length_b   5.10516935
_cell_length_c   14.36743715
_cell_angle_alpha   90.00000000
_cell_angle_beta   90.00000000
_cell_angle_gamma   120.00000004
_symmetry_Int_Tables_number   1
_chemical_formula_structural   V6C5
_chemical_formula_sum   'V18 C15'
_cell_volume   324.28752661
_cell_formula_units_Z   3
loop_
 _symmetry_equiv_pos_site_id
 _symmetry_equiv_pos_as_xyz
  1  'x, y, z'
loop_
 _atom_site_type_symbol
 _atom_site_label
 _atom_site_symmetry_multiplicity
 _atom_site_fract_x
 _atom_site_fract_y
 _atom_site_fract_z
 _atom_site_occupancy
  C  C0  1  0.43880190  0.21940095  0.00000000  1
  C  C1  1  0.78059905  0.56119810  0.66666667  1
  C  C2  1  0.78059905  0.21940095  0.33333333  1
  C  C3  1  0.11136585  0.55568292  0.00000000  1
  C  C4  1  0.44431708  0.88863415  0.66666667  1
  C  C5  1  0.44431708  0.55568292  0.33333333  1
  C  C6  1  0.78461178  0.89230589  0.00000000  1
  C  C7  1  0.10769411  0.21538822  0.66666667  1
  C  C8  1  0.10769411  0.89230589  0.33333333  1
  C  C9  1  0.44172573  0.22086287  0.50000000  1
  C  C10  1  0.77913713  0.55827427  0.16666667  1
  C  C11  1  0.77913713  0.22086287  0.83333333  1
  C  C12  1  0.10912917  0.55456458  0.50000000  1
  C  C13  1  0.44543542  0.89087083  0.16666667  1
  C  C14  1  0.44543542  0.55456458  0.83333333  1
  V  V15  1  0.77854402  0.52902510  0.41477088  1
  V  V16  1  0.75048108  0.22145598  0.08143755  1
  V  V17  1  0.47097490  0.24951892  0.74810422  1
  V  V18  1  0.75048108  0.52902510  0.91856245  1
  V  V19  1  0.77854402  0.24951892  0.58522912  1
  V  V20  1  0.47097490  0.22145598  0.25189578  1
  V  V21  1  0.11051389  0.52794244  0.74876440  1
  V  V22  1  0.47205756  0.58257145  0.08209773  1
  V  V23  1  0.41742855  0.88948611  0.41543106  1
  V  V24  1  0.47205756  0.88948611  0.91790227  1
  V  V25  1  0.41742855  0.52794244  0.58456894  1
  V  V26  1  0.11051389  0.58257145  0.25123560  1
  V  V27  1  0.13574401  0.88892865  0.59021129  1
  V  V28  1  0.11107135  0.24681536  0.92354463  1
  V  V29  1  0.75318464  0.86425599  0.25687796  1
  V  V30  1  0.11107135  0.86425599  0.07645537  1
  V  V31  1  0.75318464  0.88892865  0.74312204  1
  V  V32  1  0.13574401  0.24681536  0.40978871  1
