# generated using pymatgen
data_AlSiTe3
_symmetry_space_group_name_H-M   'P 1'
_cell_length_a   6.91280258
_cell_length_b   6.91280258
_cell_length_c   7.68409134
_cell_angle_alpha   90.00000000
_cell_angle_beta   90.00000000
_cell_angle_gamma   120.00000003
_symmetry_Int_Tables_number   1
_chemical_formula_structural   AlSiTe3
_chemical_formula_sum   'Al2 Si2 Te6'
_cell_volume   318.00317693
_cell_formula_units_Z   2
loop_
 _symmetry_equiv_pos_site_id
 _symmetry_equiv_pos_as_xyz
  1  'x, y, z'
loop_
 _atom_site_type_symbol
 _atom_site_label
 _atom_site_symmetry_multiplicity
 _atom_site_fract_x
 _atom_site_fract_y
 _atom_site_fract_z
 _atom_site_occupancy
  Al  Al0  1  0.66666667  0.33333333  0.49908847  1
  Al  Al1  1  0.33333333  0.66666667  0.50091153  1
  Si  Si2  1  0.00000000  0.00000000  0.35043081  1
  Si  Si3  1  0.00000000  0.00000000  0.64956919  1
  Te  Te4  1  -0.00063485  0.64419407  0.73214348  1
  Te  Te5  1  0.35580593  0.35517108  0.73214348  1
  Te  Te6  1  0.64482892  1.00063485  0.73214348  1
  Te  Te7  1  0.64419407  0.64482892  0.26785652  1
  Te  Te8  1  1.00063485  0.35580593  0.26785652  1
  Te  Te9  1  0.35517108  -0.00063485  0.26785652  1
