# generated using pymatgen
data_Pr4RuI5
_symmetry_space_group_name_H-M   'P 1'
_cell_length_a   4.32541850
_cell_length_b   9.39585628
_cell_length_c   10.13596700
_cell_angle_alpha   103.50344287
_cell_angle_beta   102.31990459
_cell_angle_gamma   90.00000004
_symmetry_Int_Tables_number   1
_chemical_formula_structural   Pr4RuI5
_chemical_formula_sum   'Pr4 Ru1 I5'
_cell_volume   390.78574248
_cell_formula_units_Z   1
loop_
 _symmetry_equiv_pos_site_id
 _symmetry_equiv_pos_as_xyz
  1  'x, y, z'
loop_
 _atom_site_type_symbol
 _atom_site_label
 _atom_site_symmetry_multiplicity
 _atom_site_fract_x
 _atom_site_fract_y
 _atom_site_fract_z
 _atom_site_occupancy
  Ru  Ru0  1  0.50000000  0.00000000  0.00000000  1
  I  I1  1  0.50000000  0.50000000  0.00000000  1
  I  I2  1  0.17226056  0.83213345  0.34452111  1
  I  I3  1  0.82773944  0.16786655  0.65547889  1
  I  I4  1  0.83040994  0.66052117  0.66081989  1
  I  I5  1  0.16959006  0.33947883  0.33918011  1
  Pr  Pr6  1  0.35987081  0.92715146  0.71974161  1
  Pr  Pr7  1  0.64012919  0.07284854  0.28025839  1
  Pr  Pr8  1  0.00098494  0.21124865  0.00196989  1
  Pr  Pr9  1  0.99901506  0.78875135  0.99803011  1
