# generated using pymatgen
data_Sc(SiNi)2
_symmetry_space_group_name_H-M   'P 1'
_cell_length_a   3.81225534
_cell_length_b   3.81225535
_cell_length_c   5.50352025
_cell_angle_alpha   110.26404283
_cell_angle_beta   110.26404284
_cell_angle_gamma   89.99999994
_symmetry_Int_Tables_number   1
_chemical_formula_structural   Sc(SiNi)2
_chemical_formula_sum   'Sc1 Si2 Ni2'
_cell_volume   69.73267657
_cell_formula_units_Z   1
loop_
 _symmetry_equiv_pos_site_id
 _symmetry_equiv_pos_as_xyz
  1  'x, y, z'
loop_
 _atom_site_type_symbol
 _atom_site_label
 _atom_site_symmetry_multiplicity
 _atom_site_fract_x
 _atom_site_fract_y
 _atom_site_fract_z
 _atom_site_occupancy
  Si  Si0  1  0.62068297  0.62068297  0.24136594  1
  Si  Si1  1  0.37931703  0.37931703  0.75863406  1
  Sc  Sc2  1  0.00000000  0.00000000  0.00000000  1
  Ni  Ni3  1  0.75000000  0.25000000  0.50000000  1
  Ni  Ni4  1  0.25000000  0.75000000  0.50000000  1
