# generated using pymatgen
data_GaCuPt2
_symmetry_space_group_name_H-M   'P 1'
_cell_length_a   4.02029787
_cell_length_b   4.02029019
_cell_length_c   3.57360974
_cell_angle_alpha   90.00009191
_cell_angle_beta   90.00002376
_cell_angle_gamma   90.00000428
_symmetry_Int_Tables_number   1
_chemical_formula_structural   GaCuPt2
_chemical_formula_sum   'Ga1 Cu1 Pt2'
_cell_volume   57.75941117
_cell_formula_units_Z   1
loop_
 _symmetry_equiv_pos_site_id
 _symmetry_equiv_pos_as_xyz
  1  'x, y, z'
loop_
 _atom_site_type_symbol
 _atom_site_label
 _atom_site_symmetry_multiplicity
 _atom_site_fract_x
 _atom_site_fract_y
 _atom_site_fract_z
 _atom_site_occupancy
  Ga  Ga0  1  0.49999994  0.49999359  -0.00000049  1
  Cu  Cu1  1  0.99999957  0.00001875  0.00000123  1
  Pt  Pt2  1  0.50000006  0.99999499  0.49999943  1
  Pt  Pt3  1  0.00000043  0.49999267  0.49999983  1
