# generated using pymatgen
data_AgClO4
_symmetry_space_group_name_H-M   'P 1'
_cell_length_a   5.00159101
_cell_length_b   5.00159101
_cell_length_c   5.00159101
_cell_angle_alpha   90.10048122
_cell_angle_beta   119.94200411
_cell_angle_gamma   119.94200411
_symmetry_Int_Tables_number   1
_chemical_formula_structural   AgClO4
_chemical_formula_sum   'Ag1 Cl1 O4'
_cell_volume   88.55015882
_cell_formula_units_Z   1
loop_
 _symmetry_equiv_pos_site_id
 _symmetry_equiv_pos_as_xyz
  1  'x, y, z'
loop_
 _atom_site_type_symbol
 _atom_site_label
 _atom_site_symmetry_multiplicity
 _atom_site_fract_x
 _atom_site_fract_y
 _atom_site_fract_z
 _atom_site_occupancy
  Ag  Ag0  1  -0.00000000  0.50000000  0.50000000  1
  Cl  Cl1  1  -0.00000000  -0.00000000  -0.00000000  1
  O  O2  1  0.33542742  0.04523211  0.04523211  1
  O  O3  1  0.66457258  0.70980469  0.70980469  1
  O  O4  1  0.00000000  0.95476789  0.29019531  1
  O  O5  1  0.00000000  0.29019531  0.95476789  1
