# generated using pymatgen
data_AsPd3Pb2
_symmetry_space_group_name_H-M   'P 1'
_cell_length_a   5.90102809
_cell_length_b   6.99474281
_cell_length_c   6.99474281
_cell_angle_alpha   120.42259544
_cell_angle_beta   90.00000000
_cell_angle_gamma   90.00000000
_symmetry_Int_Tables_number   1
_chemical_formula_structural   AsPd3Pb2
_chemical_formula_sum   'As2 Pd6 Pb4'
_cell_volume   248.96404995
_cell_formula_units_Z   2
loop_
 _symmetry_equiv_pos_site_id
 _symmetry_equiv_pos_as_xyz
  1  'x, y, z'
loop_
 _atom_site_type_symbol
 _atom_site_label
 _atom_site_symmetry_multiplicity
 _atom_site_fract_x
 _atom_site_fract_y
 _atom_site_fract_z
 _atom_site_occupancy
  As  As0  1  0.70475013  0.70690292  0.70690292  1
  As  As1  1  0.20475013  0.29309708  0.29309708  1
  Pd  Pd2  1  -0.00004170  0.66428793  0.42385346  1
  Pd  Pd3  1  0.49995830  0.33571207  0.57614654  1
  Pd  Pd4  1  0.02064606  0.94675434  0.94675434  1
  Pd  Pd5  1  0.52064606  0.05324566  0.05324566  1
  Pd  Pd6  1  -0.00004170  0.42385346  0.66428793  1
  Pd  Pd7  1  0.49995830  0.57614654  0.33571207  1
  Pb  Pb8  1  0.30734361  0.01514789  0.65684206  1
  Pb  Pb9  1  0.80734361  0.98485211  0.34315794  1
  Pb  Pb10  1  0.80734361  0.34315794  0.98485211  1
  Pb  Pb11  1  0.30734361  0.65684206  0.01514789  1
