# generated using pymatgen
data_HoInCu
_symmetry_space_group_name_H-M   'P 1'
_cell_length_a   7.42605072
_cell_length_b   7.42605072
_cell_length_c   3.95847673
_cell_angle_alpha   90.00000000
_cell_angle_beta   90.00000000
_cell_angle_gamma   120.00000001
_symmetry_Int_Tables_number   1
_chemical_formula_structural   HoInCu
_chemical_formula_sum   'Ho3 In3 Cu3'
_cell_volume   189.04907207
_cell_formula_units_Z   3
loop_
 _symmetry_equiv_pos_site_id
 _symmetry_equiv_pos_as_xyz
  1  'x, y, z'
loop_
 _atom_site_type_symbol
 _atom_site_label
 _atom_site_symmetry_multiplicity
 _atom_site_fract_x
 _atom_site_fract_y
 _atom_site_fract_z
 _atom_site_occupancy
  Cu  Cu0  1  0.33333333  0.66666667  0.00000000  1
  Cu  Cu1  1  0.00000000  0.00000000  0.50000000  1
  Cu  Cu2  1  0.66666667  0.33333333  0.00000000  1
  In  In3  1  0.74554454  0.74554454  0.00000000  1
  In  In4  1  0.00000000  0.25445546  0.00000000  1
  In  In5  1  0.25445546  0.00000000  0.00000000  1
  Ho  Ho6  1  0.00000000  0.58945163  0.50000000  1
  Ho  Ho7  1  0.41054837  0.41054837  0.50000000  1
  Ho  Ho8  1  0.58945163  0.00000000  0.50000000  1
