# generated using pymatgen
data_Li3BO3
_symmetry_space_group_name_H-M   'P 1'
_cell_length_a   3.31508599
_cell_length_b   8.39555128
_cell_length_c   9.26466857
_cell_angle_alpha   90.00000000
_cell_angle_beta   90.00000000
_cell_angle_gamma   101.29622485
_symmetry_Int_Tables_number   1
_chemical_formula_structural   Li3BO3
_chemical_formula_sum   'Li12 B4 O12'
_cell_volume   252.85875929
_cell_formula_units_Z   4
loop_
 _symmetry_equiv_pos_site_id
 _symmetry_equiv_pos_as_xyz
  1  'x, y, z'
loop_
 _atom_site_type_symbol
 _atom_site_label
 _atom_site_symmetry_multiplicity
 _atom_site_fract_x
 _atom_site_fract_y
 _atom_site_fract_z
 _atom_site_occupancy
  Li  Li0  1  0.50813532  0.98138673  0.76773488  1
  Li  Li1  1  0.49186468  0.51861327  0.26773488  1
  Li  Li2  1  0.49186468  0.01861327  0.23226512  1
  Li  Li3  1  0.50813532  0.48138673  0.73226512  1
  Li  Li4  1  0.72519907  0.88738732  0.52282672  1
  Li  Li5  1  0.27480093  0.61261268  0.02282672  1
  Li  Li6  1  0.27480093  0.11261268  0.47717328  1
  Li  Li7  1  0.72519907  0.38738732  0.97717328  1
  Li  Li8  1  0.09413746  0.63346250  0.57400381  1
  Li  Li9  1  0.90586254  0.86653750  0.07400381  1
  Li  Li10  1  0.90586254  0.36653750  0.42599619  1
  Li  Li11  1  0.09413746  0.13346250  0.92599619  1
  B  B12  1  0.80177705  0.74581734  0.81428198  1
  B  B13  1  0.19822295  0.75418266  0.31428198  1
  B  B14  1  0.19822295  0.25418266  0.18571802  1
  B  B15  1  0.80177705  0.24581734  0.68571802  1
  O  O16  1  0.97160313  0.90065369  0.86235858  1
  O  O17  1  0.02839687  0.59934631  0.36235858  1
  O  O18  1  0.02839687  0.09934631  0.13764142  1
  O  O19  1  0.97160313  0.40065369  0.63764142  1
  O  O20  1  0.77058998  0.61281580  0.90683260  1
  O  O21  1  0.22941002  0.88718420  0.40683260  1
  O  O22  1  0.22941002  0.38718420  0.09316740  1
  O  O23  1  0.77058998  0.11281580  0.59316740  1
  O  O24  1  0.63980708  0.72129371  0.67440717  1
  O  O25  1  0.36019292  0.77870629  0.17440717  1
  O  O26  1  0.36019292  0.27870629  0.32559283  1
  O  O27  1  0.63980708  0.22129371  0.82559283  1
