# generated using pymatgen
data_FeH4(ClO)2
_symmetry_space_group_name_H-M   'P 1'
_cell_length_a   3.72111733
_cell_length_b   5.71436732
_cell_length_c   5.71436683
_cell_angle_alpha   97.14895212
_cell_angle_beta   97.51304136
_cell_angle_gamma   97.51303320
_symmetry_Int_Tables_number   1
_chemical_formula_structural   FeH4(ClO)2
_chemical_formula_sum   'Fe1 H4 Cl2 O2'
_cell_volume   118.18712171
_cell_formula_units_Z   1
loop_
 _symmetry_equiv_pos_site_id
 _symmetry_equiv_pos_as_xyz
  1  'x, y, z'
loop_
 _atom_site_type_symbol
 _atom_site_label
 _atom_site_symmetry_multiplicity
 _atom_site_fract_x
 _atom_site_fract_y
 _atom_site_fract_z
 _atom_site_occupancy
  H  H0  1  0.84143405  0.22322845  0.60124974  1
  H  H1  1  0.15856695  0.39874926  0.77677155  1
  H  H2  1  0.84143296  0.60121155  0.22327527  1
  H  H3  1  0.15856704  0.77672473  0.39878845  1
  O  O4  1  0.99999900  0.75703838  0.24296062  1
  O  O5  1  1.00000000  0.24299103  0.75700897  1
  Cl  Cl6  1  0.57946090  0.23622047  0.23626266  1
  Cl  Cl7  1  0.42053810  0.76373634  0.76377953  1
  Fe  Fe8  1  0.00000000  1.00009779  -0.00009779  1
