# generated using pymatgen
data_LiBH4
_symmetry_space_group_name_H-M   'P 1'
_cell_length_a   4.41055157
_cell_length_b   6.73793333
_cell_length_c   7.20041655
_cell_angle_alpha   90.00000000
_cell_angle_beta   90.00000000
_cell_angle_gamma   90.00000000
_symmetry_Int_Tables_number   1
_chemical_formula_structural   LiBH4
_chemical_formula_sum   'Li4 B4 H16'
_cell_volume   213.98199651
_cell_formula_units_Z   4
loop_
 _symmetry_equiv_pos_site_id
 _symmetry_equiv_pos_as_xyz
  1  'x, y, z'
loop_
 _atom_site_type_symbol
 _atom_site_label
 _atom_site_symmetry_multiplicity
 _atom_site_fract_x
 _atom_site_fract_y
 _atom_site_fract_z
 _atom_site_occupancy
  Li  Li0  1  0.25000000  0.39104502  0.65735942  1
  Li  Li1  1  0.25000000  0.10895498  0.15735942  1
  Li  Li2  1  0.75000000  0.60895498  0.34264058  1
  Li  Li3  1  0.75000000  0.89104502  0.84264058  1
  B  B4  1  0.25000000  0.07542541  0.80899082  1
  B  B5  1  0.25000000  0.42457459  0.30899082  1
  B  B6  1  0.75000000  0.92457459  0.19100918  1
  B  B7  1  0.75000000  0.57542541  0.69100918  1
  H  H8  1  0.25000000  0.56940078  0.41155411  1
  H  H9  1  0.25000000  0.93059922  0.91155411  1
  H  H10  1  0.75000000  0.43059922  0.58844589  1
  H  H11  1  0.75000000  0.06940078  0.08844589  1
  H  H12  1  0.25000000  0.22839804  0.90204113  1
  H  H13  1  0.25000000  0.27160196  0.40204113  1
  H  H14  1  0.75000000  0.77160196  0.09795887  1
  H  H15  1  0.75000000  0.72839804  0.59795887  1
  H  H16  1  0.02637446  0.07386300  0.70821694  1
  H  H17  1  0.47362554  0.42613700  0.20821694  1
  H  H18  1  0.52637446  0.92613700  0.29178306  1
  H  H19  1  0.97362554  0.57386300  0.79178306  1
  H  H20  1  0.97362554  0.92613700  0.29178306  1
  H  H21  1  0.52637446  0.57386300  0.79178306  1
  H  H22  1  0.47362554  0.07386300  0.70821694  1
  H  H23  1  0.02637446  0.42613700  0.20821694  1
