# generated using pymatgen
data_USb2Ru
_symmetry_space_group_name_H-M   'P 1'
_cell_length_a   4.38425896
_cell_length_b   4.38425896
_cell_length_c   9.17480428
_cell_angle_alpha   90.00000000
_cell_angle_beta   90.00000000
_cell_angle_gamma   90.00000000
_symmetry_Int_Tables_number   1
_chemical_formula_structural   USb2Ru
_chemical_formula_sum   'U2 Sb4 Ru2'
_cell_volume   176.35557974
_cell_formula_units_Z   2
loop_
 _symmetry_equiv_pos_site_id
 _symmetry_equiv_pos_as_xyz
  1  'x, y, z'
loop_
 _atom_site_type_symbol
 _atom_site_label
 _atom_site_symmetry_multiplicity
 _atom_site_fract_x
 _atom_site_fract_y
 _atom_site_fract_z
 _atom_site_occupancy
  U  U0  1  0.25000000  0.25000000  0.27378865  1
  U  U1  1  0.75000000  0.75000000  0.72621135  1
  Ru  Ru2  1  0.75000000  0.25000000  0.50000000  1
  Ru  Ru3  1  0.25000000  0.75000000  0.50000000  1
  Sb  Sb4  1  0.75000000  0.25000000  0.00000000  1
  Sb  Sb5  1  0.25000000  0.75000000  0.00000000  1
  Sb  Sb6  1  0.25000000  0.25000000  0.67889111  1
  Sb  Sb7  1  0.75000000  0.75000000  0.32110889  1
