# generated using pymatgen
data_SeOF2
_symmetry_space_group_name_H-M   'P 1'
_cell_length_a   5.77491636
_cell_length_b   6.35623562
_cell_length_c   7.82488986
_cell_angle_alpha   90.00000000
_cell_angle_beta   90.00000000
_cell_angle_gamma   90.00000000
_symmetry_Int_Tables_number   1
_chemical_formula_structural   SeOF2
_chemical_formula_sum   'Se4 O4 F8'
_cell_volume   287.22611209
_cell_formula_units_Z   4
loop_
 _symmetry_equiv_pos_site_id
 _symmetry_equiv_pos_as_xyz
  1  'x, y, z'
loop_
 _atom_site_type_symbol
 _atom_site_label
 _atom_site_symmetry_multiplicity
 _atom_site_fract_x
 _atom_site_fract_y
 _atom_site_fract_z
 _atom_site_occupancy
  O  O0  1  0.25372426  0.38574634  0.09729099  1
  O  O1  1  0.24627574  0.88574634  0.09729099  1
  O  O2  1  0.75372426  0.38574634  0.90270901  1
  O  O3  1  0.74627574  0.88574634  0.90270901  1
  F  F4  1  0.12812552  0.96961005  0.72981703  1
  F  F5  1  0.62812552  0.96961005  0.27018297  1
  F  F6  1  0.87187448  0.46961005  0.27018297  1
  F  F7  1  0.37187448  0.46961005  0.72981703  1
  F  F8  1  0.84058839  0.70595582  0.60451525  1
  F  F9  1  0.15941161  0.20595582  0.39548475  1
  F  F10  1  0.65941161  0.20595582  0.60451525  1
  F  F11  1  0.34058839  0.70595582  0.39548475  1
  Se  Se12  1  0.45603801  0.75668779  0.19018653  1
  Se  Se13  1  0.54396199  0.25668779  0.80981347  1
  Se  Se14  1  0.04396199  0.25668779  0.19018653  1
  Se  Se15  1  0.95603801  0.75668779  0.80981347  1
