# generated using pymatgen
data_KAg2PS4
_symmetry_space_group_name_H-M   'P 1'
_cell_length_a   6.35157218
_cell_length_b   6.35157217
_cell_length_c   6.35157217
_cell_angle_alpha   95.13317030
_cell_angle_beta   117.08195645
_cell_angle_gamma   117.08195644
_symmetry_Int_Tables_number   1
_chemical_formula_structural   KAg2PS4
_chemical_formula_sum   'K1 Ag2 P1 S4'
_cell_volume   188.36112165
_cell_formula_units_Z   1
loop_
 _symmetry_equiv_pos_site_id
 _symmetry_equiv_pos_as_xyz
  1  'x, y, z'
loop_
 _atom_site_type_symbol
 _atom_site_label
 _atom_site_symmetry_multiplicity
 _atom_site_fract_x
 _atom_site_fract_y
 _atom_site_fract_z
 _atom_site_occupancy
  P  P0  1  0.00000000  0.00000000  0.00000000  1
  S  S1  1  0.00000000  0.68141187  0.04478090  1
  S  S2  1  0.00000000  0.04478090  0.68141187  1
  S  S3  1  0.63663097  0.95521910  0.95521910  1
  S  S4  1  0.36336903  0.31858813  0.31858813  1
  K  K5  1  0.00000000  0.50000000  0.50000000  1
  Ag  Ag6  1  0.50000000  0.25000000  0.75000000  1
  Ag  Ag7  1  0.50000000  0.75000000  0.25000000  1
