# generated using pymatgen
data_Pb(NO3)2
_symmetry_space_group_name_H-M   'P 1'
_cell_length_a   7.99213065
_cell_length_b   7.99213065
_cell_length_c   7.99213065
_cell_angle_alpha   90.00000000
_cell_angle_beta   90.00000000
_cell_angle_gamma   90.00000000
_symmetry_Int_Tables_number   1
_chemical_formula_structural   Pb(NO3)2
_chemical_formula_sum   'Pb4 N8 O24'
_cell_volume   510.49057055
_cell_formula_units_Z   4
loop_
 _symmetry_equiv_pos_site_id
 _symmetry_equiv_pos_as_xyz
  1  'x, y, z'
loop_
 _atom_site_type_symbol
 _atom_site_label
 _atom_site_symmetry_multiplicity
 _atom_site_fract_x
 _atom_site_fract_y
 _atom_site_fract_z
 _atom_site_occupancy
  N  N0  1  0.35035587  0.35035587  0.35035587  1
  N  N1  1  0.35035587  0.14964413  0.85035587  1
  N  N2  1  0.14964413  0.85035587  0.35035587  1
  N  N3  1  0.85035587  0.35035587  0.14964413  1
  N  N4  1  0.64964413  0.64964413  0.64964413  1
  N  N5  1  0.14964413  0.64964413  0.85035587  1
  N  N6  1  0.85035587  0.14964413  0.64964413  1
  N  N7  1  0.64964413  0.85035587  0.14964413  1
  O  O8  1  0.77818661  0.29294373  0.02047956  1
  O  O9  1  0.20705627  0.97952044  0.27818661  1
  O  O10  1  0.22181339  0.79294373  0.47952044  1
  O  O11  1  0.27818661  0.20705627  0.97952044  1
  O  O12  1  0.27818661  0.29294373  0.47952044  1
  O  O13  1  0.47952044  0.27818661  0.29294373  1
  O  O14  1  0.29294373  0.47952044  0.27818661  1
  O  O15  1  0.20705627  0.52047956  0.77818661  1
  O  O16  1  0.97952044  0.22181339  0.70705627  1
  O  O17  1  0.70705627  0.97952044  0.22181339  1
  O  O18  1  0.02047956  0.72181339  0.79294373  1
  O  O19  1  0.52047956  0.77818661  0.20705627  1
  O  O20  1  0.79294373  0.02047956  0.72181339  1
  O  O21  1  0.77818661  0.20705627  0.52047956  1
  O  O22  1  0.72181339  0.79294373  0.02047956  1
  O  O23  1  0.22181339  0.70705627  0.97952044  1
  O  O24  1  0.72181339  0.70705627  0.52047956  1
  O  O25  1  0.52047956  0.72181339  0.70705627  1
  O  O26  1  0.70705627  0.52047956  0.72181339  1
  O  O27  1  0.79294373  0.47952044  0.22181339  1
  O  O28  1  0.02047956  0.77818661  0.29294373  1
  O  O29  1  0.29294373  0.02047956  0.77818661  1
  O  O30  1  0.97952044  0.27818661  0.20705627  1
  O  O31  1  0.47952044  0.22181339  0.79294373  1
  Pb  Pb32  1  0.00000000  0.50000000  0.50000000  1
  Pb  Pb33  1  0.50000000  0.50000000  0.00000000  1
  Pb  Pb34  1  0.50000000  0.00000000  0.50000000  1
  Pb  Pb35  1  0.00000000  0.00000000  0.00000000  1
