# generated using pymatgen
data_LiSmSe2
_symmetry_space_group_name_H-M   'P 1'
_cell_length_a   8.22154645
_cell_length_b   10.89758761
_cell_length_c   7.15036992
_cell_angle_alpha   29.13899960
_cell_angle_beta   54.86589375
_cell_angle_gamma   40.95992783
_symmetry_Int_Tables_number   1
_chemical_formula_structural   LiSmSe2
_chemical_formula_sum   'Li2 Sm2 Se4'
_cell_volume   197.26428525
_cell_formula_units_Z   2
loop_
 _symmetry_equiv_pos_site_id
 _symmetry_equiv_pos_as_xyz
  1  'x, y, z'
loop_
 _atom_site_type_symbol
 _atom_site_label
 _atom_site_symmetry_multiplicity
 _atom_site_fract_x
 _atom_site_fract_y
 _atom_site_fract_z
 _atom_site_occupancy
  Li  Li0  1  0.50000057  1.00000528  -0.00001362  1
  Li  Li1  1  0.24999728  0.49999413  1.00001646  1
  Se  Se2  1  0.24972693  0.99999346  0.50058675  1
  Se  Se3  1  0.75025701  -0.00000084  0.49945256  1
  Se  Se4  1  0.50027331  0.50000769  0.49941110  1
  Se  Se5  1  -0.00025622  0.49999918  0.50054799  1
  Sm  Sm6  1  -0.00003398  1.00001833  1.00002816  1
  Sm  Sm7  1  0.75003511  0.49998278  -0.00002940  1
