# generated using pymatgen
data_Nb3TeCl7
_symmetry_space_group_name_H-M   'P 1'
_cell_length_a   6.98570119
_cell_length_b   6.98570119
_cell_length_c   13.79208973
_cell_angle_alpha   90.00000000
_cell_angle_beta   90.00000000
_cell_angle_gamma   120.00000005
_symmetry_Int_Tables_number   1
_chemical_formula_structural   Nb3TeCl7
_chemical_formula_sum   'Nb6 Te2 Cl14'
_cell_volume   582.88209563
_cell_formula_units_Z   2
loop_
 _symmetry_equiv_pos_site_id
 _symmetry_equiv_pos_as_xyz
  1  'x, y, z'
loop_
 _atom_site_type_symbol
 _atom_site_label
 _atom_site_symmetry_multiplicity
 _atom_site_fract_x
 _atom_site_fract_y
 _atom_site_fract_z
 _atom_site_occupancy
  Cl  Cl0  1  0.83247213  0.16752787  0.33455836  1
  Cl  Cl1  1  0.83247213  0.66494426  0.33455836  1
  Cl  Cl2  1  0.33505574  0.16752787  0.33455836  1
  Cl  Cl3  1  0.66494426  0.83247213  0.66544164  1
  Cl  Cl4  1  0.16752787  0.33505574  0.66544164  1
  Cl  Cl5  1  0.16752787  0.83247213  0.66544164  1
  Cl  Cl6  1  0.16932538  0.83067462  0.12634905  1
  Cl  Cl7  1  0.16932538  0.33865077  0.12634905  1
  Cl  Cl8  1  0.33333333  0.66666667  0.85823934  1
  Cl  Cl9  1  0.66666667  0.33333333  0.14176066  1
  Cl  Cl10  1  0.83067462  0.16932538  0.87365095  1
  Cl  Cl11  1  0.83067462  0.66134923  0.87365095  1
  Cl  Cl12  1  0.33865077  0.16932538  0.87365095  1
  Cl  Cl13  1  0.66134923  0.83067462  0.12634905  1
  Nb  Nb14  1  0.52691153  0.47308847  0.75863538  1
  Nb  Nb15  1  0.52691153  0.05382306  0.75863538  1
  Nb  Nb16  1  0.47308847  0.52691153  0.24136462  1
  Nb  Nb17  1  0.47308847  0.94617694  0.24136462  1
  Nb  Nb18  1  0.05382306  0.52691153  0.24136462  1
  Nb  Nb19  1  0.94617694  0.47308847  0.75863538  1
  Te  Te20  1  0.66666667  0.33333333  0.60339735  1
  Te  Te21  1  0.33333333  0.66666667  0.39660265  1
