# generated using pymatgen
data_KHF2
_symmetry_space_group_name_H-M   'P 1'
_cell_length_a   5.30929966
_cell_length_b   5.30929965
_cell_length_c   5.30929965
_cell_angle_alpha   99.35840222
_cell_angle_beta   114.75223580
_cell_angle_gamma   114.75223578
_symmetry_Int_Tables_number   1
_chemical_formula_structural   KHF2
_chemical_formula_sum   'K2 H2 F4'
_cell_volume   112.58865065
_cell_formula_units_Z   2
loop_
 _symmetry_equiv_pos_site_id
 _symmetry_equiv_pos_as_xyz
  1  'x, y, z'
loop_
 _atom_site_type_symbol
 _atom_site_label
 _atom_site_symmetry_multiplicity
 _atom_site_fract_x
 _atom_site_fract_y
 _atom_site_fract_z
 _atom_site_occupancy
  H  H0  1  0.50000000  0.50000000  0.00000000  1
  H  H1  1  0.50000000  0.00000000  0.50000000  1
  F  F2  1  0.21570467  0.35785233  0.85785233  1
  F  F3  1  0.50000000  0.85785233  0.64214767  1
  F  F4  1  0.78429533  0.64214767  0.14214767  1
  F  F5  1  0.50000000  0.14214767  0.35785233  1
  K  K6  1  0.00000000  0.75000000  0.75000000  1
  K  K7  1  0.00000000  0.25000000  0.25000000  1
