# generated using pymatgen
data_BaZn5
_symmetry_space_group_name_H-M   'P 1'
_cell_length_a   5.33743543
_cell_length_b   6.91794948
_cell_length_c   6.91794948
_cell_angle_alpha   104.30312955
_cell_angle_beta   90.00000000
_cell_angle_gamma   90.00000000
_symmetry_Int_Tables_number   1
_chemical_formula_structural   BaZn5
_chemical_formula_sum   'Ba2 Zn10'
_cell_volume   247.52107770
_cell_formula_units_Z   2
loop_
 _symmetry_equiv_pos_site_id
 _symmetry_equiv_pos_as_xyz
  1  'x, y, z'
loop_
 _atom_site_type_symbol
 _atom_site_label
 _atom_site_symmetry_multiplicity
 _atom_site_fract_x
 _atom_site_fract_y
 _atom_site_fract_z
 _atom_site_occupancy
  Zn  Zn0  1  0.50000000  0.20503505  0.79496495  1
  Zn  Zn1  1  0.00000000  0.79496495  0.20503505  1
  Zn  Zn2  1  0.25000000  0.07838011  0.07838011  1
  Zn  Zn3  1  0.75000000  0.92161989  0.92161989  1
  Zn  Zn4  1  0.25000000  0.46415602  0.08053363  1
  Zn  Zn5  1  0.75000000  0.53584398  0.91946637  1
  Zn  Zn6  1  0.25000000  0.08053363  0.46415602  1
  Zn  Zn7  1  0.75000000  0.91946637  0.53584398  1
  Zn  Zn8  1  0.00000000  0.20503505  0.79496495  1
  Zn  Zn9  1  0.50000000  0.79496495  0.20503505  1
  Ba  Ba10  1  0.75000000  0.33162233  0.33162233  1
  Ba  Ba11  1  0.25000000  0.66837767  0.66837767  1
