# generated using pymatgen
data_PdSO4
_symmetry_space_group_name_H-M   'P 1'
_cell_length_a   4.84341390
_cell_length_b   4.84341390
_cell_length_c   8.02275330
_cell_angle_alpha   84.57908150
_cell_angle_beta   84.57908149
_cell_angle_gamma   71.17735908
_symmetry_Int_Tables_number   1
_chemical_formula_structural   PdSO4
_chemical_formula_sum   'Pd2 S2 O8'
_cell_volume   176.93215019
_cell_formula_units_Z   2
loop_
 _symmetry_equiv_pos_site_id
 _symmetry_equiv_pos_as_xyz
  1  'x, y, z'
loop_
 _atom_site_type_symbol
 _atom_site_label
 _atom_site_symmetry_multiplicity
 _atom_site_fract_x
 _atom_site_fract_y
 _atom_site_fract_z
 _atom_site_occupancy
  O  O0  1  0.23090268  0.08680780  0.21468642  1
  O  O1  1  0.91319220  0.76909732  0.28531358  1
  O  O2  1  0.76909732  0.91319220  0.78531358  1
  O  O3  1  0.08680780  0.23090268  0.71468642  1
  O  O4  1  0.20182622  0.75222250  0.60061214  1
  O  O5  1  0.24777750  0.79817378  0.89938786  1
  O  O6  1  0.79817378  0.24777750  0.39938786  1
  O  O7  1  0.75222250  0.20182622  0.10061214  1
  S  S8  1  0.92658939  0.07341061  0.25000000  1
  S  S9  1  0.07341061  0.92658939  0.75000000  1
  Pd  Pd10  1  0.00000000  0.50000000  0.50000000  1
  Pd  Pd11  1  0.50000000  0.00000000  0.00000000  1
