# generated using pymatgen
data_RbBiF6
_symmetry_space_group_name_H-M   'P 1'
_cell_length_a   5.37616515
_cell_length_b   5.37616515
_cell_length_c   5.37616515
_cell_angle_alpha   96.66182013
_cell_angle_beta   96.66182023
_cell_angle_gamma   96.66182024
_symmetry_Int_Tables_number   1
_chemical_formula_structural   RbBiF6
_chemical_formula_sum   'Rb1 Bi1 F6'
_cell_volume   151.97111122
_cell_formula_units_Z   1
loop_
 _symmetry_equiv_pos_site_id
 _symmetry_equiv_pos_as_xyz
  1  'x, y, z'
loop_
 _atom_site_type_symbol
 _atom_site_label
 _atom_site_symmetry_multiplicity
 _atom_site_fract_x
 _atom_site_fract_y
 _atom_site_fract_z
 _atom_site_occupancy
  F  F0  1  0.22554769  0.91921359  0.30669641  1
  F  F1  1  0.91921359  0.30669641  0.22554769  1
  F  F2  1  0.69330359  0.77445231  0.08078641  1
  F  F3  1  0.08078641  0.69330359  0.77445231  1
  F  F4  1  0.77445231  0.08078641  0.69330359  1
  F  F5  1  0.30669641  0.22554769  0.91921359  1
  Rb  Rb6  1  0.50000000  0.50000000  0.50000000  1
  Bi  Bi7  1  0.00000000  0.00000000  0.00000000  1
