# generated using pymatgen
data_SrIn2Ir
_symmetry_space_group_name_H-M   'P 1'
_cell_length_a   4.34034625
_cell_length_b   5.98833651
_cell_length_c   8.18679076
_cell_angle_alpha   90.00000000
_cell_angle_beta   90.00000000
_cell_angle_gamma   111.24766139
_symmetry_Int_Tables_number   1
_chemical_formula_structural   SrIn2Ir
_chemical_formula_sum   'Sr2 In4 Ir2'
_cell_volume   198.32192830
_cell_formula_units_Z   2
loop_
 _symmetry_equiv_pos_site_id
 _symmetry_equiv_pos_as_xyz
  1  'x, y, z'
loop_
 _atom_site_type_symbol
 _atom_site_label
 _atom_site_symmetry_multiplicity
 _atom_site_fract_x
 _atom_site_fract_y
 _atom_site_fract_z
 _atom_site_occupancy
  Sr  Sr0  1  0.06075803  0.12151606  0.75000000  1
  Sr  Sr1  1  0.93924197  0.87848394  0.25000000  1
  In  In2  1  0.34547579  0.69095157  0.94733804  1
  In  In3  1  0.34547579  0.69095157  0.55266196  1
  In  In4  1  0.65452421  0.30904843  0.05266196  1
  In  In5  1  0.65452421  0.30904843  0.44733804  1
  Ir  Ir6  1  0.78001179  0.56002358  0.75000000  1
  Ir  Ir7  1  0.21998821  0.43997642  0.25000000  1
