# generated using pymatgen
data_Hf2In5
_symmetry_space_group_name_H-M   'P 1'
_cell_length_a   3.07569022
_cell_length_b   10.40791156
_cell_length_c   10.40791156
_cell_angle_alpha   90.00000000
_cell_angle_beta   90.00000000
_cell_angle_gamma   90.00000000
_symmetry_Int_Tables_number   1
_chemical_formula_structural   Hf2In5
_chemical_formula_sum   'Hf4 In10'
_cell_volume   333.17298367
_cell_formula_units_Z   2
loop_
 _symmetry_equiv_pos_site_id
 _symmetry_equiv_pos_as_xyz
  1  'x, y, z'
loop_
 _atom_site_type_symbol
 _atom_site_label
 _atom_site_symmetry_multiplicity
 _atom_site_fract_x
 _atom_site_fract_y
 _atom_site_fract_z
 _atom_site_occupancy
  In  In0  1  0.00000000  0.29172244  0.43838352  1
  In  In1  1  0.00000000  0.70827756  0.56161648  1
  In  In2  1  0.00000000  0.43838352  0.70827756  1
  In  In3  1  0.00000000  0.56161648  0.29172244  1
  In  In4  1  0.00000000  0.00000000  0.50000000  1
  In  In5  1  0.00000000  0.50000000  0.00000000  1
  In  In6  1  0.00000000  0.06161648  0.20827756  1
  In  In7  1  0.00000000  0.79172244  0.06161648  1
  In  In8  1  0.00000000  0.20827756  0.93838352  1
  In  In9  1  0.00000000  0.93838352  0.79172244  1
  Hf  Hf10  1  0.50000000  0.81999585  0.31999585  1
  Hf  Hf11  1  0.50000000  0.68000415  0.81999585  1
  Hf  Hf12  1  0.50000000  0.31999585  0.18000415  1
  Hf  Hf13  1  0.50000000  0.18000415  0.68000415  1
