# generated using pymatgen
data_In2Se3
_symmetry_space_group_name_H-M   'P 1'
_cell_length_a   7.34149154
_cell_length_b   7.34149190
_cell_length_c   19.76637471
_cell_angle_alpha   90.00000000
_cell_angle_beta   90.00000000
_cell_angle_gamma   119.99999842
_symmetry_Int_Tables_number   1
_chemical_formula_structural   In2Se3
_chemical_formula_sum   'In12 Se18'
_cell_volume   922.62727530
_cell_formula_units_Z   6
loop_
 _symmetry_equiv_pos_site_id
 _symmetry_equiv_pos_as_xyz
  1  'x, y, z'
loop_
 _atom_site_type_symbol
 _atom_site_label
 _atom_site_symmetry_multiplicity
 _atom_site_fract_x
 _atom_site_fract_y
 _atom_site_fract_z
 _atom_site_occupancy
  In  In0  1  0.32611058  0.98575453  0.99961349  1
  In  In1  1  0.01424547  0.34035604  0.33294749  1
  In  In2  1  0.01067754  0.69634808  0.47206590  1
  In  In3  1  0.98932246  0.30365192  0.97206590  1
  In  In4  1  0.98575453  0.65964396  0.83294749  1
  In  In5  1  0.34035604  0.32611058  0.16628049  1
  In  In6  1  0.65964396  0.67388942  0.66628049  1
  In  In7  1  0.67388942  0.01424547  0.49961349  1
  In  In8  1  0.31432946  0.01067754  0.63873290  1
  In  In9  1  0.30365192  0.31432946  0.80539990  1
  In  In10  1  0.68567054  0.98932246  0.13873290  1
  In  In11  1  0.69634808  0.68567054  0.30539990  1
  Se  Se12  1  0.69529828  0.04011805  0.63492876  1
  Se  Se13  1  0.63834586  0.66470718  0.45434400  1
  Se  Se14  1  0.93187950  0.27896249  0.82696384  1
  Se  Se15  1  0.97363869  0.63834586  0.62101100  1
  Se  Se16  1  0.34481977  0.30470172  0.30159576  1
  Se  Se17  1  0.06812050  0.72103751  0.32696384  1
  Se  Se18  1  0.95988195  0.65518023  0.96826176  1
  Se  Se19  1  0.66470718  0.02636131  0.28767800  1
  Se  Se20  1  0.30470172  0.95988195  0.13492876  1
  Se  Se21  1  0.27896249  0.34708299  0.66029684  1
  Se  Se22  1  0.65291701  0.93187950  0.99362984  1
  Se  Se23  1  0.34708299  0.06812050  0.49362984  1
  Se  Se24  1  0.65518023  0.69529828  0.80159576  1
  Se  Se25  1  0.33529282  0.97363869  0.78767800  1
  Se  Se26  1  0.72103751  0.65291701  0.16029684  1
  Se  Se27  1  0.36165414  0.33529282  0.95434400  1
  Se  Se28  1  0.02636131  0.36165414  0.12101100  1
  Se  Se29  1  0.04011805  0.34481977  0.46826176  1
