# generated using pymatgen
data_Ta3SiTe6
_symmetry_space_group_name_H-M   'P 1'
_cell_length_a   6.40951643
_cell_length_b   11.57344053
_cell_length_c   15.02544410
_cell_angle_alpha   90.00000000
_cell_angle_beta   90.00000000
_cell_angle_gamma   90.00000000
_symmetry_Int_Tables_number   1
_chemical_formula_structural   Ta3SiTe6
_chemical_formula_sum   'Ta12 Si4 Te24'
_cell_volume   1114.58980577
_cell_formula_units_Z   4
loop_
 _symmetry_equiv_pos_site_id
 _symmetry_equiv_pos_as_xyz
  1  'x, y, z'
loop_
 _atom_site_type_symbol
 _atom_site_label
 _atom_site_symmetry_multiplicity
 _atom_site_fract_x
 _atom_site_fract_y
 _atom_site_fract_z
 _atom_site_occupancy
  Ta  Ta0  1  0.66620201  0.33551072  0.75000000  1
  Ta  Ta1  1  0.16620201  0.16448928  0.75000000  1
  Ta  Ta2  1  0.83379799  0.83551072  0.25000000  1
  Ta  Ta3  1  0.33379799  0.66448928  0.25000000  1
  Ta  Ta4  1  0.96834187  0.68780142  0.75000000  1
  Ta  Ta5  1  0.46834187  0.81219858  0.75000000  1
  Ta  Ta6  1  0.53165813  0.18780142  0.25000000  1
  Ta  Ta7  1  0.03165813  0.31219858  0.25000000  1
  Ta  Ta8  1  0.69764848  0.03278449  0.75000000  1
  Ta  Ta9  1  0.19764848  0.46721551  0.75000000  1
  Ta  Ta10  1  0.80235152  0.53278449  0.25000000  1
  Ta  Ta11  1  0.30235152  0.96721551  0.25000000  1
  Si  Si12  1  0.57536881  0.57529702  0.75000000  1
  Si  Si13  1  0.07536881  0.92470298  0.75000000  1
  Si  Si14  1  0.92463119  0.07529702  0.25000000  1
  Si  Si15  1  0.42463119  0.42470298  0.25000000  1
  Te  Te16  1  0.79614018  0.84353762  0.87532176  1
  Te  Te17  1  0.29614018  0.65646238  0.62467824  1
  Te  Te18  1  0.70385982  0.34353762  0.12467824  1
  Te  Te19  1  0.20385982  0.15646238  0.37532176  1
  Te  Te20  1  0.20385982  0.15646238  0.12467824  1
  Te  Te21  1  0.70385982  0.34353762  0.37532176  1
  Te  Te22  1  0.29614018  0.65646238  0.87532176  1
  Te  Te23  1  0.79614018  0.84353762  0.62467824  1
  Te  Te24  1  0.85512252  0.49721417  0.87153529  1
  Te  Te25  1  0.35512252  0.00278583  0.62846471  1
  Te  Te26  1  0.64487748  0.99721417  0.12846471  1
  Te  Te27  1  0.14487748  0.50278583  0.37153529  1
  Te  Te28  1  0.14487748  0.50278583  0.12846471  1
  Te  Te29  1  0.64487748  0.99721417  0.37153529  1
  Te  Te30  1  0.35512252  0.00278583  0.87153529  1
  Te  Te31  1  0.85512252  0.49721417  0.62846471  1
  Te  Te32  1  0.84860958  0.18210181  0.87752554  1
  Te  Te33  1  0.34860958  0.31789819  0.62247446  1
  Te  Te34  1  0.65139042  0.68210181  0.12247446  1
  Te  Te35  1  0.15139042  0.81789819  0.37752554  1
  Te  Te36  1  0.15139042  0.81789819  0.12247446  1
  Te  Te37  1  0.65139042  0.68210181  0.37752554  1
  Te  Te38  1  0.34860958  0.31789819  0.87752554  1
  Te  Te39  1  0.84860958  0.18210181  0.62247446  1
