# generated using pymatgen
data_Cu4SiP8
_symmetry_space_group_name_H-M   'P 1'
_cell_length_a   5.73763080
_cell_length_b   9.10874400
_cell_length_c   9.10874400
_cell_angle_alpha   84.30720373
_cell_angle_beta   71.64209542
_cell_angle_gamma   71.64209546
_symmetry_Int_Tables_number   1
_chemical_formula_structural   Cu4SiP8
_chemical_formula_sum   'Si2 Cu8 P16'
_cell_volume   428.82545037
_cell_formula_units_Z   2
loop_
 _symmetry_equiv_pos_site_id
 _symmetry_equiv_pos_as_xyz
  1  'x, y, z'
loop_
 _atom_site_type_symbol
 _atom_site_label
 _atom_site_symmetry_multiplicity
 _atom_site_fract_x
 _atom_site_fract_y
 _atom_site_fract_z
 _atom_site_occupancy
  Si  Si0  1  0.12500000  0.25000000  0.75000000  1
  Si  Si1  1  0.87500000  0.75000000  0.25000000  1
  P  P2  1  0.00484198  0.95333049  0.27770550  1
  P  P3  1  0.45817248  0.27770550  0.54666951  1
  P  P4  1  0.71745252  0.77770550  0.04666951  1
  P  P5  1  0.76412203  0.45333049  0.77770550  1
  P  P6  1  0.99515802  0.04666951  0.72229450  1
  P  P7  1  0.54182752  0.72229450  0.45333049  1
  P  P8  1  0.28254748  0.22229450  0.95333049  1
  P  P9  1  0.23587797  0.54666951  0.22229450  1
  P  P10  1  0.25677000  0.86876778  0.82410989  1
  P  P11  1  0.08087989  0.67589011  0.86876778  1
  P  P12  1  0.62553778  0.82410989  0.63123222  1
  P  P13  1  0.94964767  0.63123222  0.67589011  1
  P  P14  1  0.74323000  0.13123222  0.17589011  1
  P  P15  1  0.91912011  0.32410989  0.13123222  1
  P  P16  1  0.37446222  0.17589011  0.36876778  1
  P  P17  1  0.05035233  0.36876778  0.32410989  1
  Cu  Cu18  1  0.64310916  0.53756071  0.05916179  1
  Cu  Cu19  1  0.70227095  0.44083821  0.53756071  1
  Cu  Cu20  1  0.68066987  0.05916179  0.96243929  1
  Cu  Cu21  1  0.23983166  0.96243929  0.44083821  1
  Cu  Cu22  1  0.35689084  0.46243929  0.94083821  1
  Cu  Cu23  1  0.29772905  0.55916179  0.46243929  1
  Cu  Cu24  1  0.31933013  0.94083821  0.03756071  1
  Cu  Cu25  1  0.76016834  0.03756071  0.55916179  1
