# generated using pymatgen
data_SrIn2Pt
_symmetry_space_group_name_H-M   'P 1'
_cell_length_a   4.54812566
_cell_length_b   5.96965041
_cell_length_c   8.01490500
_cell_angle_alpha   90.00000000
_cell_angle_beta   90.00000000
_cell_angle_gamma   112.39175658
_symmetry_Int_Tables_number   1
_chemical_formula_structural   SrIn2Pt
_chemical_formula_sum   'Sr2 In4 Pt2'
_cell_volume   201.20280097
_cell_formula_units_Z   2
loop_
 _symmetry_equiv_pos_site_id
 _symmetry_equiv_pos_as_xyz
  1  'x, y, z'
loop_
 _atom_site_type_symbol
 _atom_site_label
 _atom_site_symmetry_multiplicity
 _atom_site_fract_x
 _atom_site_fract_y
 _atom_site_fract_z
 _atom_site_occupancy
  Sr  Sr0  1  0.06227462  0.12454923  0.75000000  1
  Sr  Sr1  1  0.93772538  0.87545077  0.25000000  1
  In  In2  1  0.34872627  0.69745255  0.94629679  1
  In  In3  1  0.34872627  0.69745255  0.55370321  1
  In  In4  1  0.65127373  0.30254745  0.05370321  1
  In  In5  1  0.65127373  0.30254745  0.44629679  1
  Pt  Pt6  1  0.78040340  0.56080680  0.75000000  1
  Pt  Pt7  1  0.21959660  0.43919320  0.25000000  1
