# generated using pymatgen
data_YCl3
_symmetry_space_group_name_H-M   'P 1'
_cell_length_a   7.06619995
_cell_length_b   6.99301936
_cell_length_c   6.99301936
_cell_angle_alpha   119.85277052
_cell_angle_beta   99.76538708
_cell_angle_gamma   99.76538712
_symmetry_Int_Tables_number   1
_chemical_formula_structural   YCl3
_chemical_formula_sum   'Y2 Cl6'
_cell_volume   282.01136691
_cell_formula_units_Z   2
loop_
 _symmetry_equiv_pos_site_id
 _symmetry_equiv_pos_as_xyz
  1  'x, y, z'
loop_
 _atom_site_type_symbol
 _atom_site_label
 _atom_site_symmetry_multiplicity
 _atom_site_fract_x
 _atom_site_fract_y
 _atom_site_fract_z
 _atom_site_occupancy
  Cl  Cl0  1  0.22411452  0.94973758  0.57652692  1
  Cl  Cl1  1  0.77588548  0.42347308  0.05026242  1
  Cl  Cl2  1  0.77089749  0.80141759  0.80141759  1
  Cl  Cl3  1  0.22910251  0.19858241  0.19858241  1
  Cl  Cl4  1  0.22411452  0.57652692  0.94973758  1
  Cl  Cl5  1  0.77588548  0.05026242  0.42347308  1
  Y  Y6  1  0.00000000  0.16651250  0.83348750  1
  Y  Y7  1  0.00000000  0.83348750  0.16651250  1
