# generated using pymatgen
data_S8O
_symmetry_space_group_name_H-M   'P 1'
_cell_length_a   8.53297493
_cell_length_b   8.72448133
_cell_length_c   14.21235310
_cell_angle_alpha   90.00000000
_cell_angle_beta   90.00000000
_cell_angle_gamma   90.00000000
_symmetry_Int_Tables_number   1
_chemical_formula_structural   S8O
_chemical_formula_sum   'S32 O4'
_cell_volume   1058.04971879
_cell_formula_units_Z   4
loop_
 _symmetry_equiv_pos_site_id
 _symmetry_equiv_pos_as_xyz
  1  'x, y, z'
loop_
 _atom_site_type_symbol
 _atom_site_label
 _atom_site_symmetry_multiplicity
 _atom_site_fract_x
 _atom_site_fract_y
 _atom_site_fract_z
 _atom_site_occupancy
  O  O0  1  0.68954777  0.69325326  0.19060799  1
  O  O1  1  0.31045223  0.19325326  0.80939201  1
  O  O2  1  0.31045223  0.69325326  0.69060799  1
  O  O3  1  0.68954777  0.19325326  0.30939201  1
  S  S4  1  0.53258515  0.49205027  0.36192970  1
  S  S5  1  0.46741485  0.99205027  0.63807030  1
  S  S6  1  0.46741485  0.49205027  0.86192970  1
  S  S7  1  0.53258515  0.99205027  0.13807030  1
  S  S8  1  0.49032585  0.35505050  0.47196383  1
  S  S9  1  0.50967415  0.85505050  0.52803617  1
  S  S10  1  0.50967415  0.35505050  0.97196383  1
  S  S11  1  0.49032585  0.85505050  0.02803617  1
  S  S12  1  0.64004549  0.41153217  0.58337923  1
  S  S13  1  0.35995451  0.91153217  0.41662077  1
  S  S14  1  0.35995451  0.41153217  0.08337923  1
  S  S15  1  0.64004549  0.91153217  0.91662077  1
  S  S16  1  0.82100127  0.25608856  0.58512599  1
  S  S17  1  0.17899873  0.75608856  0.41487401  1
  S  S18  1  0.17899873  0.25608856  0.08512599  1
  S  S19  1  0.82100127  0.75608856  0.91487401  1
  S  S20  1  0.01442028  0.35347808  0.52370221  1
  S  S21  1  0.98557972  0.85347808  0.47629779  1
  S  S22  1  0.98557972  0.35347808  0.02370221  1
  S  S23  1  0.01442028  0.85347808  0.97629779  1
  S  S24  1  0.02675739  0.28389848  0.38286299  1
  S  S25  1  0.97324261  0.78389848  0.61713701  1
  S  S26  1  0.97324261  0.28389848  0.88286299  1
  S  S27  1  0.02675739  0.78389848  0.11713701  1
  S  S28  1  0.93199863  0.44542116  0.30066880  1
  S  S29  1  0.06800137  0.94542116  0.69933120  1
  S  S30  1  0.06800137  0.44542116  0.80066880  1
  S  S31  1  0.93199863  0.94542116  0.19933120  1
  S  S32  1  0.69116109  0.85042752  0.23051418  1
  S  S33  1  0.30883891  0.35042752  0.76948582  1
  S  S34  1  0.30883891  0.85042752  0.73051418  1
  S  S35  1  0.69116109  0.35042752  0.26948582  1
