# generated using pymatgen
data_SrIn4Pd
_symmetry_space_group_name_H-M   'P 1'
_cell_length_a   4.64453623
_cell_length_b   7.62262861
_cell_length_c   8.96776439
_cell_angle_alpha   90.00000000
_cell_angle_beta   105.00819733
_cell_angle_gamma   90.00000000
_symmetry_Int_Tables_number   1
_chemical_formula_structural   SrIn4Pd
_chemical_formula_sum   'Sr2 In8 Pd2'
_cell_volume   306.66091654
_cell_formula_units_Z   2
loop_
 _symmetry_equiv_pos_site_id
 _symmetry_equiv_pos_as_xyz
  1  'x, y, z'
loop_
 _atom_site_type_symbol
 _atom_site_label
 _atom_site_symmetry_multiplicity
 _atom_site_fract_x
 _atom_site_fract_y
 _atom_site_fract_z
 _atom_site_occupancy
  Sr  Sr0  1  0.87593483  0.25000000  0.75186966  1
  Sr  Sr1  1  0.12406517  0.75000000  0.24813034  1
  In  In2  1  0.68532956  0.05158366  0.37065912  1
  In  In3  1  0.31467044  0.94841634  0.62934088  1
  In  In4  1  0.68532956  0.44841634  0.37065912  1
  In  In5  1  0.50000000  -0.00000000  -0.00000000  1
  In  In6  1  0.31467044  0.55158366  0.62934088  1
  In  In7  1  0.50000000  0.50000000  -0.00000000  1
  In  In8  1  0.93023614  0.75000000  0.86047228  1
  In  In9  1  0.06976386  0.25000000  0.13952772  1
  Pd  Pd10  1  0.22561205  0.25000000  0.45122409  1
  Pd  Pd11  1  0.77438795  0.75000000  0.54877591  1
