# generated using pymatgen
data_U2BiN2
_symmetry_space_group_name_H-M   'P 1'
_cell_length_a   3.89971572
_cell_length_b   3.89971571
_cell_length_c   6.87500323
_cell_angle_alpha   106.47611139
_cell_angle_beta   106.47611135
_cell_angle_gamma   90.00000001
_symmetry_Int_Tables_number   1
_chemical_formula_structural   U2BiN2
_chemical_formula_sum   'U2 Bi1 N2'
_cell_volume   95.77496185
_cell_formula_units_Z   1
loop_
 _symmetry_equiv_pos_site_id
 _symmetry_equiv_pos_as_xyz
  1  'x, y, z'
loop_
 _atom_site_type_symbol
 _atom_site_label
 _atom_site_symmetry_multiplicity
 _atom_site_fract_x
 _atom_site_fract_y
 _atom_site_fract_z
 _atom_site_occupancy
  N  N0  1  0.75000000  0.25000000  0.50000000  1
  N  N1  1  0.25000000  0.75000000  0.50000000  1
  Bi  Bi2  1  0.00000000  0.00000000  0.00000000  1
  U  U3  1  0.33985550  0.33985550  0.67971100  1
  U  U4  1  0.66014450  0.66014450  0.32028900  1
