# generated using pymatgen
data_YSiNi
_symmetry_space_group_name_H-M   'P 1'
_cell_length_a   4.15919417
_cell_length_b   6.89784875
_cell_length_c   7.18748727
_cell_angle_alpha   90.00000000
_cell_angle_beta   90.00000000
_cell_angle_gamma   90.00000000
_symmetry_Int_Tables_number   1
_chemical_formula_structural   YSiNi
_chemical_formula_sum   'Y4 Si4 Ni4'
_cell_volume   206.20536074
_cell_formula_units_Z   4
loop_
 _symmetry_equiv_pos_site_id
 _symmetry_equiv_pos_as_xyz
  1  'x, y, z'
loop_
 _atom_site_type_symbol
 _atom_site_label
 _atom_site_symmetry_multiplicity
 _atom_site_fract_x
 _atom_site_fract_y
 _atom_site_fract_z
 _atom_site_occupancy
  Si  Si0  1  0.25000000  0.80798444  0.08853522  1
  Si  Si1  1  0.75000000  0.19201556  0.91146478  1
  Si  Si2  1  0.25000000  0.30798444  0.41146478  1
  Si  Si3  1  0.75000000  0.69201556  0.58853522  1
  Ni  Ni4  1  0.75000000  0.81424310  0.91861221  1
  Ni  Ni5  1  0.25000000  0.18575690  0.08138779  1
  Ni  Ni6  1  0.75000000  0.31424310  0.58138779  1
  Ni  Ni7  1  0.25000000  0.68575690  0.41861221  1
  Y  Y8  1  0.25000000  0.49172915  0.79851892  1
  Y  Y9  1  0.75000000  0.50827085  0.20148108  1
  Y  Y10  1  0.25000000  0.99172915  0.70148108  1
  Y  Y11  1  0.75000000  0.00827085  0.29851892  1
