# generated using pymatgen
data_PtF6
_symmetry_space_group_name_H-M   'P 1'
_cell_length_a   5.06265224
_cell_length_b   8.76576891
_cell_length_c   9.58692325
_cell_angle_alpha   90.00000000
_cell_angle_beta   90.00000000
_cell_angle_gamma   90.00000000
_symmetry_Int_Tables_number   1
_chemical_formula_structural   PtF6
_chemical_formula_sum   'Pt4 F24'
_cell_volume   425.44885970
_cell_formula_units_Z   4
loop_
 _symmetry_equiv_pos_site_id
 _symmetry_equiv_pos_as_xyz
  1  'x, y, z'
loop_
 _atom_site_type_symbol
 _atom_site_label
 _atom_site_symmetry_multiplicity
 _atom_site_fract_x
 _atom_site_fract_y
 _atom_site_fract_z
 _atom_site_occupancy
  Pt  Pt0  1  0.90735158  0.75000000  0.12621383  1
  Pt  Pt1  1  0.40735158  0.25000000  0.37378617  1
  Pt  Pt2  1  0.09264842  0.25000000  0.87378617  1
  Pt  Pt3  1  0.59264842  0.75000000  0.62621383  1
  F  F4  1  0.20800083  0.75000000  0.00813615  1
  F  F5  1  0.70800083  0.25000000  0.49186385  1
  F  F6  1  0.79199917  0.25000000  0.99186385  1
  F  F7  1  0.29199917  0.75000000  0.50813615  1
  F  F8  1  0.60559822  0.75000000  0.24403038  1
  F  F9  1  0.10559822  0.25000000  0.25596962  1
  F  F10  1  0.39440178  0.25000000  0.75596962  1
  F  F11  1  0.89440178  0.75000000  0.74403038  1
  F  F12  1  0.74895614  0.90308139  0.01391101  1
  F  F13  1  0.24895614  0.09691861  0.48608899  1
  F  F14  1  0.25104386  0.40308139  0.98608899  1
  F  F15  1  0.75104386  0.59691861  0.51391101  1
  F  F16  1  0.25104386  0.09691861  0.98608899  1
  F  F17  1  0.75104386  0.90308139  0.51391101  1
  F  F18  1  0.74895614  0.59691861  0.01391101  1
  F  F19  1  0.24895614  0.40308139  0.48608899  1
  F  F20  1  0.06489097  0.90279618  0.23885274  1
  F  F21  1  0.56489097  0.09720382  0.26114726  1
  F  F22  1  0.93510903  0.40279618  0.76114726  1
  F  F23  1  0.43510903  0.59720382  0.73885274  1
  F  F24  1  0.93510903  0.09720382  0.76114726  1
  F  F25  1  0.43510903  0.90279618  0.73885274  1
  F  F26  1  0.06489097  0.59720382  0.23885274  1
  F  F27  1  0.56489097  0.40279618  0.26114726  1
