# generated using pymatgen
data_BaSn3Pt
_symmetry_space_group_name_H-M   'P 1'
_cell_length_a   4.97391042
_cell_length_b   4.97391042
_cell_length_c   6.65141048
_cell_angle_alpha   111.95627582
_cell_angle_beta   111.95627585
_cell_angle_gamma   90.00000006
_symmetry_Int_Tables_number   1
_chemical_formula_structural   BaSn3Pt
_chemical_formula_sum   'Ba1 Sn3 Pt1'
_cell_volume   139.66779535
_cell_formula_units_Z   1
loop_
 _symmetry_equiv_pos_site_id
 _symmetry_equiv_pos_as_xyz
  1  'x, y, z'
loop_
 _atom_site_type_symbol
 _atom_site_label
 _atom_site_symmetry_multiplicity
 _atom_site_fract_x
 _atom_site_fract_y
 _atom_site_fract_z
 _atom_site_occupancy
  Sn  Sn0  1  0.75336662  0.25336662  0.50673324  1
  Sn  Sn1  1  0.25336662  0.75336662  0.50673324  1
  Sn  Sn2  1  0.41707598  0.41707598  0.83415197  1
  Ba  Ba3  1  0.00171043  0.00171043  0.00342085  1
  Pt  Pt4  1  0.65358035  0.65358035  0.30716070  1
