# generated using pymatgen
data_As2Pb3O8
_symmetry_space_group_name_H-M   'P 1'
_cell_length_a   6.37963630
_cell_length_b   7.57781007
_cell_length_c   9.46576027
_cell_angle_alpha   112.75446957
_cell_angle_beta   90.00000000
_cell_angle_gamma   90.00000000
_symmetry_Int_Tables_number   1
_chemical_formula_structural   As2Pb3O8
_chemical_formula_sum   'As4 Pb6 O16'
_cell_volume   421.99422256
_cell_formula_units_Z   2
loop_
 _symmetry_equiv_pos_site_id
 _symmetry_equiv_pos_as_xyz
  1  'x, y, z'
loop_
 _atom_site_type_symbol
 _atom_site_label
 _atom_site_symmetry_multiplicity
 _atom_site_fract_x
 _atom_site_fract_y
 _atom_site_fract_z
 _atom_site_occupancy
  Pb  Pb0  1  0.00000000  0.00000000  0.00000000  1
  Pb  Pb1  1  0.50000000  0.50000000  0.50000000  1
  Pb  Pb2  1  0.09470874  0.58997619  0.21564453  1
  Pb  Pb3  1  0.59470874  0.91002381  0.28435547  1
  Pb  Pb4  1  0.90529126  0.41002381  0.78435547  1
  Pb  Pb5  1  0.40529126  0.08997619  0.71564453  1
  As  As6  1  0.97939182  0.80169726  0.59976644  1
  As  As7  1  0.47939182  0.69830274  0.90023356  1
  As  As8  1  0.02060818  0.19830274  0.40023356  1
  As  As9  1  0.52060818  0.30169726  0.09976644  1
  O  O10  1  0.76014887  0.76683773  0.48726167  1
  O  O11  1  0.26014887  0.73316227  0.01273833  1
  O  O12  1  0.23985113  0.23316227  0.51273833  1
  O  O13  1  0.73985113  0.26683773  0.98726167  1
  O  O14  1  0.30189306  0.23187324  0.97973013  1
  O  O15  1  0.80189306  0.26812676  0.52026987  1
  O  O16  1  0.69810694  0.76812676  0.02026987  1
  O  O17  1  0.19810694  0.73187324  0.47973013  1
  O  O18  1  0.96997745  0.96101792  0.27994554  1
  O  O19  1  0.46997745  0.53898208  0.22005446  1
  O  O20  1  0.03002255  0.03898208  0.72005446  1
  O  O21  1  0.53002255  0.46101792  0.77994554  1
  O  O22  1  0.96246324  0.68691759  0.72392942  1
  O  O23  1  0.46246324  0.81308241  0.77607058  1
  O  O24  1  0.03753676  0.31308241  0.27607058  1
  O  O25  1  0.53753676  0.18691759  0.22392942  1
