# generated using pymatgen
data_BaLi2(MgGe)2
_symmetry_space_group_name_H-M   'P 1'
_cell_length_a   9.16271743
_cell_length_b   9.16271734
_cell_length_c   9.16271741
_cell_angle_alpha   29.21281368
_cell_angle_beta   29.21281465
_cell_angle_gamma   29.21281472
_symmetry_Int_Tables_number   1
_chemical_formula_structural   BaLi2(MgGe)2
_chemical_formula_sum   'Ba1 Li2 Mg2 Ge2'
_cell_volume   162.11995299
_cell_formula_units_Z   1
loop_
 _symmetry_equiv_pos_site_id
 _symmetry_equiv_pos_as_xyz
  1  'x, y, z'
loop_
 _atom_site_type_symbol
 _atom_site_label
 _atom_site_symmetry_multiplicity
 _atom_site_fract_x
 _atom_site_fract_y
 _atom_site_fract_z
 _atom_site_occupancy
  Ba  Ba0  1  0.00000000  0.00000000  0.00000000  1
  Li  Li1  1  0.57024438  0.57024438  0.57024438  1
  Li  Li2  1  0.42975562  0.42975562  0.42975562  1
  Mg  Mg3  1  0.13581647  0.13581647  0.13581647  1
  Mg  Mg4  1  0.86418353  0.86418353  0.86418353  1
  Ge  Ge5  1  0.75693952  0.75693952  0.75693952  1
  Ge  Ge6  1  0.24306048  0.24306048  0.24306048  1
