# generated using pymatgen
data_ZnP2
_symmetry_space_group_name_H-M   'P 1'
_cell_length_a   5.10161308
_cell_length_b   5.10161308
_cell_length_c   18.62802758
_cell_angle_alpha   90.00000000
_cell_angle_beta   90.00000000
_cell_angle_gamma   90.00000000
_symmetry_Int_Tables_number   1
_chemical_formula_structural   ZnP2
_chemical_formula_sum   'Zn8 P16'
_cell_volume   484.82154051
_cell_formula_units_Z   8
loop_
 _symmetry_equiv_pos_site_id
 _symmetry_equiv_pos_as_xyz
  1  'x, y, z'
loop_
 _atom_site_type_symbol
 _atom_site_label
 _atom_site_symmetry_multiplicity
 _atom_site_fract_x
 _atom_site_fract_y
 _atom_site_fract_z
 _atom_site_occupancy
  P  P0  1  0.99048597  0.01880017  0.37592423  1
  P  P1  1  0.00951403  0.98119983  0.87592423  1
  P  P2  1  0.01880017  0.99048597  0.62407577  1
  P  P3  1  0.51880017  0.50951403  0.62592423  1
  P  P4  1  0.48119983  0.49048597  0.12592423  1
  P  P5  1  0.50951403  0.51880017  0.37407577  1
  P  P6  1  0.49048597  0.48119983  0.87407577  1
  P  P7  1  0.98119983  0.00951403  0.12407577  1
  P  P8  1  0.80175386  0.31839597  0.05951540  1
  P  P9  1  0.18160403  0.30175386  0.80951540  1
  P  P10  1  0.81839597  0.69824614  0.30951540  1
  P  P11  1  0.30175386  0.18160403  0.19048460  1
  P  P12  1  0.69824614  0.81839597  0.69048460  1
  P  P13  1  0.19824614  0.68160403  0.55951540  1
  P  P14  1  0.31839597  0.80175386  0.94048460  1
  P  P15  1  0.68160403  0.19824614  0.44048460  1
  Zn  Zn16  1  0.34590541  0.86396145  0.44930621  1
  Zn  Zn17  1  0.65409459  0.13603855  0.94930621  1
  Zn  Zn18  1  0.86396145  0.34590541  0.55069379  1
  Zn  Zn19  1  0.36396145  0.15409459  0.69930621  1
  Zn  Zn20  1  0.63603855  0.84590541  0.19930621  1
  Zn  Zn21  1  0.15409459  0.36396145  0.30069379  1
  Zn  Zn22  1  0.84590541  0.63603855  0.80069379  1
  Zn  Zn23  1  0.13603855  0.65409459  0.05069379  1
