# generated using pymatgen
data_ZrMnSi
_symmetry_space_group_name_H-M   'P 1'
_cell_length_a   3.67474396
_cell_length_b   6.61438530
_cell_length_c   7.68129495
_cell_angle_alpha   90.00000000
_cell_angle_beta   90.00000000
_cell_angle_gamma   90.00000000
_symmetry_Int_Tables_number   1
_chemical_formula_structural   ZrMnSi
_chemical_formula_sum   'Zr4 Mn4 Si4'
_cell_volume   186.70287954
_cell_formula_units_Z   4
loop_
 _symmetry_equiv_pos_site_id
 _symmetry_equiv_pos_as_xyz
  1  'x, y, z'
loop_
 _atom_site_type_symbol
 _atom_site_label
 _atom_site_symmetry_multiplicity
 _atom_site_fract_x
 _atom_site_fract_y
 _atom_site_fract_z
 _atom_site_occupancy
  Si  Si0  1  0.25000000  0.27279721  0.87839464  1
  Si  Si1  1  0.25000000  0.77279721  0.62160536  1
  Si  Si2  1  0.75000000  0.72720279  0.12160536  1
  Si  Si3  1  0.75000000  0.22720279  0.37839464  1
  Mn  Mn4  1  0.75000000  0.36194130  0.06460945  1
  Mn  Mn5  1  0.25000000  0.13805870  0.56460945  1
  Mn  Mn6  1  0.75000000  0.86194130  0.43539055  1
  Mn  Mn7  1  0.25000000  0.63805870  0.93539055  1
  Zr  Zr8  1  0.25000000  0.52760804  0.32077323  1
  Zr  Zr9  1  0.25000000  0.02760804  0.17922677  1
  Zr  Zr10  1  0.75000000  0.97239196  0.82077323  1
  Zr  Zr11  1  0.75000000  0.47239196  0.67922677  1
