# generated using pymatgen
data_HfCu2Te3
_symmetry_space_group_name_H-M   'P 1'
_cell_length_a   4.08007969
_cell_length_b   7.32530295
_cell_length_c   10.41967822
_cell_angle_alpha   98.30326192
_cell_angle_beta   101.29071448
_cell_angle_gamma   90.00000003
_symmetry_Int_Tables_number   1
_chemical_formula_structural   HfCu2Te3
_chemical_formula_sum   'Hf2 Cu4 Te6'
_cell_volume   302.06475595
_cell_formula_units_Z   2
loop_
 _symmetry_equiv_pos_site_id
 _symmetry_equiv_pos_as_xyz
  1  'x, y, z'
loop_
 _atom_site_type_symbol
 _atom_site_label
 _atom_site_symmetry_multiplicity
 _atom_site_fract_x
 _atom_site_fract_y
 _atom_site_fract_z
 _atom_site_occupancy
  Cu  Cu0  1  0.71341427  0.42582553  0.42682853  1
  Cu  Cu1  1  0.28658573  0.57417447  0.57317147  1
  Cu  Cu2  1  0.04877713  0.14936531  0.09755427  1
  Cu  Cu3  1  0.95122287  0.85063469  0.90244573  1
  Te  Te4  1  0.75057559  0.78553835  0.50115118  1
  Te  Te5  1  0.91861181  0.17990605  0.83722361  1
  Te  Te6  1  0.58362044  0.36481710  0.16724088  1
  Te  Te7  1  0.24942441  0.21446165  0.49884882  1
  Te  Te8  1  0.41637956  0.63518290  0.83275912  1
  Te  Te9  1  0.08138819  0.82009395  0.16277639  1
  Hf  Hf10  1  0.64595226  0.05452907  0.29190451  1
  Hf  Hf11  1  0.35404774  0.94547093  0.70809549  1
