# generated using pymatgen
data_Ti5Si4
_symmetry_space_group_name_H-M   'P 1'
_cell_length_a   6.70974154
_cell_length_b   6.70974154
_cell_length_c   12.18744115
_cell_angle_alpha   90.00000000
_cell_angle_beta   90.00000000
_cell_angle_gamma   90.00000000
_symmetry_Int_Tables_number   1
_chemical_formula_structural   Ti5Si4
_chemical_formula_sum   'Ti20 Si16'
_cell_volume   548.68629735
_cell_formula_units_Z   4
loop_
 _symmetry_equiv_pos_site_id
 _symmetry_equiv_pos_as_xyz
  1  'x, y, z'
loop_
 _atom_site_type_symbol
 _atom_site_label
 _atom_site_symmetry_multiplicity
 _atom_site_fract_x
 _atom_site_fract_y
 _atom_site_fract_z
 _atom_site_occupancy
  Ti  Ti0  1  0.67290606  0.32709394  0.75000000  1
  Ti  Ti1  1  0.32709394  0.67290606  0.25000000  1
  Ti  Ti2  1  0.82709394  0.82709394  0.50000000  1
  Ti  Ti3  1  0.17290606  0.17290606  0.00000000  1
  Ti  Ti4  1  0.50041924  0.15258244  0.53277827  1
  Ti  Ti5  1  0.49958076  0.84741756  0.03277827  1
  Ti  Ti6  1  0.65258244  0.99958076  0.28277827  1
  Ti  Ti7  1  0.34741756  0.00041924  0.78277827  1
  Ti  Ti8  1  0.84741756  0.49958076  0.96722173  1
  Ti  Ti9  1  0.15258244  0.50041924  0.46722173  1
  Ti  Ti10  1  0.99958076  0.65258244  0.71722173  1
  Ti  Ti11  1  0.00041924  0.34741756  0.21722173  1
  Ti  Ti12  1  0.49609637  0.35215948  0.12763220  1
  Ti  Ti13  1  0.50390363  0.64784052  0.62763220  1
  Ti  Ti14  1  0.85215948  0.00390363  0.87763220  1
  Ti  Ti15  1  0.14784052  0.99609637  0.37763220  1
  Ti  Ti16  1  0.64784052  0.50390363  0.37236780  1
  Ti  Ti17  1  0.35215948  0.49609637  0.87236780  1
  Ti  Ti18  1  0.00390363  0.85215948  0.12236780  1
  Ti  Ti19  1  0.99609637  0.14784052  0.62236780  1
  Si  Si20  1  0.79596231  0.14456722  0.07639617  1
  Si  Si21  1  0.20403769  0.85543278  0.57639617  1
  Si  Si22  1  0.64456722  0.70403769  0.82639617  1
  Si  Si23  1  0.35543278  0.29596231  0.32639617  1
  Si  Si24  1  0.85543278  0.20403769  0.42360383  1
  Si  Si25  1  0.14456722  0.79596231  0.92360383  1
  Si  Si26  1  0.70403769  0.64456722  0.17360383  1
  Si  Si27  1  0.29596231  0.35543278  0.67360383  1
  Si  Si28  1  0.54630918  0.19913346  0.93593707  1
  Si  Si29  1  0.45369082  0.80086654  0.43593707  1
  Si  Si30  1  0.69913346  0.95369082  0.68593707  1
  Si  Si31  1  0.30086654  0.04630918  0.18593707  1
  Si  Si32  1  0.80086654  0.45369082  0.56406293  1
  Si  Si33  1  0.19913346  0.54630918  0.06406293  1
  Si  Si34  1  0.95369082  0.69913346  0.31406293  1
  Si  Si35  1  0.04630918  0.30086654  0.81406293  1
