# generated using pymatgen
data_Ca2AuN
_symmetry_space_group_name_H-M   'P 1'
_cell_length_a   3.55942463
_cell_length_b   4.96660995
_cell_length_c   9.31581848
_cell_angle_alpha   90.00000000
_cell_angle_beta   101.01359862
_cell_angle_gamma   90.00000000
_symmetry_Int_Tables_number   1
_chemical_formula_structural   Ca2AuN
_chemical_formula_sum   'Ca4 Au2 N2'
_cell_volume   161.65435194
_cell_formula_units_Z   2
loop_
 _symmetry_equiv_pos_site_id
 _symmetry_equiv_pos_as_xyz
  1  'x, y, z'
loop_
 _atom_site_type_symbol
 _atom_site_label
 _atom_site_symmetry_multiplicity
 _atom_site_fract_x
 _atom_site_fract_y
 _atom_site_fract_z
 _atom_site_occupancy
  N  N0  1  0.80645018  0.75000000  0.61290035  1
  N  N1  1  0.19354982  0.25000000  0.38709965  1
  Ca  Ca2  1  0.60471642  0.25000000  0.20943285  1
  Ca  Ca3  1  0.39528358  0.75000000  0.79056715  1
  Ca  Ca4  1  0.78361275  0.25000000  0.56722549  1
  Ca  Ca5  1  0.21638725  0.75000000  0.43277451  1
  Au  Au6  1  0.04110162  0.75000000  0.08220324  1
  Au  Au7  1  0.95889838  0.25000000  0.91779676  1
