# generated using pymatgen
data_Sr8Fe8O23
_symmetry_space_group_name_H-M   'P 1'
_cell_length_a   7.83676820
_cell_length_b   8.76665478
_cell_length_c   8.76665478
_cell_angle_alpha   78.47606188
_cell_angle_beta   63.45089981
_cell_angle_gamma   63.45089981
_symmetry_Int_Tables_number   1
_chemical_formula_structural   Sr8Fe8O23
_chemical_formula_sum   'Sr8 Fe8 O23'
_cell_volume   481.96517855
_cell_formula_units_Z   1
loop_
 _symmetry_equiv_pos_site_id
 _symmetry_equiv_pos_as_xyz
  1  'x, y, z'
loop_
 _atom_site_type_symbol
 _atom_site_label
 _atom_site_symmetry_multiplicity
 _atom_site_fract_x
 _atom_site_fract_y
 _atom_site_fract_z
 _atom_site_occupancy
  O  O0  1  0.00000000  0.50000000  0.50000000  1
  O  O1  1  0.50000000  0.50000000  0.50000000  1
  O  O2  1  0.87525170  0.50000000  0.24949659  1
  O  O3  1  0.12474830  0.75050341  0.50000000  1
  O  O4  1  0.37525170  0.24949659  0.50000000  1
  O  O5  1  0.62474830  0.50000000  0.75050341  1
  O  O6  1  0.12474830  0.50000000  0.75050341  1
  O  O7  1  0.87525170  0.24949659  0.50000000  1
  O  O8  1  0.62474830  0.75050341  0.50000000  1
  O  O9  1  0.37525170  0.50000000  0.24949659  1
  O  O10  1  0.26373187  0.00000000  0.47253625  1
  O  O11  1  0.73626813  0.52746375  0.00000000  1
  O  O12  1  0.26373187  0.47253625  0.00000000  1
  O  O13  1  0.73626813  0.00000000  0.52746375  1
  O  O14  1  0.90189758  0.75947210  0.00000000  1
  O  O15  1  0.66136967  0.24052790  0.00000000  1
  O  O16  1  0.50000000  0.00000000  0.00000000  1
  O  O17  1  0.33863033  0.00000000  0.75947210  1
  O  O18  1  0.09810242  0.24052790  0.00000000  1
  O  O19  1  0.33863033  0.75947210  0.00000000  1
  O  O20  1  0.09810242  0.00000000  0.24052790  1
  O  O21  1  0.66136967  0.00000000  0.24052790  1
  O  O22  1  0.90189758  0.00000000  0.75947210  1
  Fe  Fe23  1  0.25000000  0.50000000  0.50000000  1
  Fe  Fe24  1  0.75000000  0.50000000  0.50000000  1
  Fe  Fe25  1  0.00000000  0.00000000  0.50000000  1
  Fe  Fe26  1  0.50000000  0.50000000  0.00000000  1
  Fe  Fe27  1  0.00000000  0.50000000  0.00000000  1
  Fe  Fe28  1  0.50000000  0.00000000  0.50000000  1
  Fe  Fe29  1  0.74454690  0.00000000  0.00000000  1
  Fe  Fe30  1  0.25545310  0.00000000  0.00000000  1
  Sr  Sr31  1  0.24762529  0.25237471  0.25237471  1
  Sr  Sr32  1  0.50000000  0.74762529  0.25237471  1
  Sr  Sr33  1  0.50000000  0.25237471  0.74762529  1
  Sr  Sr34  1  0.75237471  0.74762529  0.74762529  1
  Sr  Sr35  1  0.74059639  0.25940361  0.25940361  1
  Sr  Sr36  1  0.00000000  0.74059639  0.25940361  1
  Sr  Sr37  1  0.00000000  0.25940361  0.74059639  1
  Sr  Sr38  1  0.25940361  0.74059639  0.74059639  1
