# generated using pymatgen
data_Y2Cl3
_symmetry_space_group_name_H-M   'P 1'
_cell_length_a   3.86003642
_cell_length_b   8.14897803
_cell_length_c   9.60384311
_cell_angle_alpha   70.96211732
_cell_angle_beta   78.40671512
_cell_angle_gamma   76.29978750
_symmetry_Int_Tables_number   1
_chemical_formula_structural   Y2Cl3
_chemical_formula_sum   'Y4 Cl6'
_cell_volume   274.91542541
_cell_formula_units_Z   2
loop_
 _symmetry_equiv_pos_site_id
 _symmetry_equiv_pos_as_xyz
  1  'x, y, z'
loop_
 _atom_site_type_symbol
 _atom_site_label
 _atom_site_symmetry_multiplicity
 _atom_site_fract_x
 _atom_site_fract_y
 _atom_site_fract_z
 _atom_site_occupancy
  Cl  Cl0  1  0.95711647  0.34719401  0.73857304  1
  Cl  Cl1  1  0.04288353  0.65280599  0.26142696  1
  Cl  Cl2  1  0.77605920  0.33025897  0.11762262  1
  Cl  Cl3  1  0.22394080  0.66974103  0.88237738  1
  Cl  Cl4  1  0.33813002  0.81711778  0.50662217  1
  Cl  Cl5  1  0.66186998  0.18288222  0.49337783  1
  Y  Y6  1  0.13771218  0.01490513  0.70967051  1
  Y  Y7  1  0.86228782  0.98509487  0.29032949  1
  Y  Y8  1  0.41513927  0.21802915  0.95169232  1
  Y  Y9  1  0.58486073  0.78197085  0.04830768  1
