# generated using pymatgen
data_Mn2SnO4
_symmetry_space_group_name_H-M   'P 1'
_cell_length_a   6.39578954
_cell_length_b   6.31889113
_cell_length_c   6.39578978
_cell_angle_alpha   60.39693885
_cell_angle_beta   60.28791478
_cell_angle_gamma   60.39693600
_symmetry_Int_Tables_number   1
_chemical_formula_structural   Mn2SnO4
_chemical_formula_sum   'Mn4 Sn2 O8'
_cell_volume   184.26433337
_cell_formula_units_Z   2
loop_
 _symmetry_equiv_pos_site_id
 _symmetry_equiv_pos_as_xyz
  1  'x, y, z'
loop_
 _atom_site_type_symbol
 _atom_site_label
 _atom_site_symmetry_multiplicity
 _atom_site_fract_x
 _atom_site_fract_y
 _atom_site_fract_z
 _atom_site_occupancy
  Mn  Mn0  1  0.01456779  0.98543221  0.01456779  1
  Mn  Mn1  1  0.23543221  0.26456779  0.23543221  1
  Mn  Mn2  1  0.62500000  0.12500000  0.62500000  1
  Mn  Mn3  1  0.62500000  0.62500000  0.62500000  1
  O  O4  1  0.37571672  0.39831922  0.37571672  1
  O  O5  1  0.37571672  0.85024734  0.37571672  1
  O  O6  1  0.36777043  0.39768578  0.83685801  1
  O  O7  1  0.83685801  0.39768578  0.36777043  1
  O  O8  1  0.41314199  0.85231422  0.88222957  1
  O  O9  1  0.88222957  0.85231422  0.41314199  1
  O  O10  1  0.87428328  0.39975266  0.87428328  1
  O  O11  1  0.87428328  0.85168078  0.87428328  1
  Sn  Sn12  1  0.12500000  0.62500000  0.62500000  1
  Sn  Sn13  1  0.62500000  0.62500000  0.12500000  1
