# generated using pymatgen
data_SmCoGe
_symmetry_space_group_name_H-M   'P 1'
_cell_length_a   4.35674030
_cell_length_b   7.00722140
_cell_length_c   7.19188316
_cell_angle_alpha   90.00000000
_cell_angle_beta   90.00000000
_cell_angle_gamma   90.00000000
_symmetry_Int_Tables_number   1
_chemical_formula_structural   SmCoGe
_chemical_formula_sum   'Sm4 Co4 Ge4'
_cell_volume   219.55843971
_cell_formula_units_Z   4
loop_
 _symmetry_equiv_pos_site_id
 _symmetry_equiv_pos_as_xyz
  1  'x, y, z'
loop_
 _atom_site_type_symbol
 _atom_site_label
 _atom_site_symmetry_multiplicity
 _atom_site_fract_x
 _atom_site_fract_y
 _atom_site_fract_z
 _atom_site_occupancy
  Co  Co0  1  0.75000000  0.56782361  0.35644686  1
  Co  Co1  1  0.75000000  0.93217639  0.85644686  1
  Co  Co2  1  0.25000000  0.06782361  0.14355314  1
  Co  Co3  1  0.25000000  0.43217639  0.64355314  1
  Ge  Ge4  1  0.75000000  0.60664603  0.69454678  1
  Ge  Ge5  1  0.75000000  0.89335397  0.19454678  1
  Ge  Ge6  1  0.25000000  0.10664603  0.80545322  1
  Ge  Ge7  1  0.25000000  0.39335397  0.30545322  1
  Sm  Sm8  1  0.25000000  0.68769817  0.97766679  1
  Sm  Sm9  1  0.75000000  0.31230183  0.02233321  1
  Sm  Sm10  1  0.75000000  0.18769817  0.52233321  1
  Sm  Sm11  1  0.25000000  0.81230183  0.47766679  1
