# generated using pymatgen
data_Al2NiO4
_symmetry_space_group_name_H-M   'P 1'
_cell_length_a   5.73576602
_cell_length_b   5.73576641
_cell_length_c   5.78887886
_cell_angle_alpha   59.69321013
_cell_angle_beta   59.69320546
_cell_angle_gamma   59.28955995
_symmetry_Int_Tables_number   1
_chemical_formula_structural   Al2NiO4
_chemical_formula_sum   'Al4 Ni2 O8'
_cell_volume   133.31168853
_cell_formula_units_Z   2
loop_
 _symmetry_equiv_pos_site_id
 _symmetry_equiv_pos_as_xyz
  1  'x, y, z'
loop_
 _atom_site_type_symbol
 _atom_site_label
 _atom_site_symmetry_multiplicity
 _atom_site_fract_x
 _atom_site_fract_y
 _atom_site_fract_z
 _atom_site_occupancy
  Al  Al0  1  0.13329793  0.13329793  0.11670207  1
  Al  Al1  1  0.50000000  0.50000000  0.00000000  1
  Al  Al2  1  0.50000000  0.50000000  0.50000000  1
  Al  Al3  1  0.86670207  0.86670207  0.88329793  1
  Ni  Ni4  1  0.50000000  0.00000000  0.50000000  1
  Ni  Ni5  1  0.00000000  0.50000000  0.50000000  1
  O  O6  1  0.26581974  0.26581974  0.23243750  1
  O  O7  1  0.26975050  0.73895180  0.24564885  1
  O  O8  1  0.26581974  0.26581974  0.73592302  1
  O  O9  1  0.73895180  0.26975050  0.24564885  1
  O  O10  1  0.26104820  0.73024950  0.75435115  1
  O  O11  1  0.73024950  0.26104820  0.75435115  1
  O  O12  1  0.73418026  0.73418026  0.26407698  1
  O  O13  1  0.73418026  0.73418026  0.76756250  1
