# generated using pymatgen
data_Bi2PdO4
_symmetry_space_group_name_H-M   'P 1'
_cell_length_a   6.16996686
_cell_length_b   8.61246564
_cell_length_c   8.61246564
_cell_angle_alpha   90.00000000
_cell_angle_beta   90.00000000
_cell_angle_gamma   90.00000000
_symmetry_Int_Tables_number   1
_chemical_formula_structural   Bi2PdO4
_chemical_formula_sum   'Bi8 Pd4 O16'
_cell_volume   457.65460420
_cell_formula_units_Z   4
loop_
 _symmetry_equiv_pos_site_id
 _symmetry_equiv_pos_as_xyz
  1  'x, y, z'
loop_
 _atom_site_type_symbol
 _atom_site_label
 _atom_site_symmetry_multiplicity
 _atom_site_fract_x
 _atom_site_fract_y
 _atom_site_fract_z
 _atom_site_occupancy
  O  O0  1  0.58748870  0.14842390  0.46545802  1
  O  O1  1  0.58748870  0.35157610  0.03454198  1
  O  O2  1  0.58748870  0.46545802  0.35157610  1
  O  O3  1  0.58748870  0.03454198  0.14842390  1
  O  O4  1  0.91251130  0.96545802  0.64842390  1
  O  O5  1  0.91251130  0.85157610  0.96545802  1
  O  O6  1  0.91251130  0.64842390  0.53454198  1
  O  O7  1  0.91251130  0.53454198  0.85157610  1
  O  O8  1  0.41251130  0.85157610  0.53454198  1
  O  O9  1  0.41251130  0.64842390  0.96545802  1
  O  O10  1  0.41251130  0.53454198  0.64842390  1
  O  O11  1  0.41251130  0.96545802  0.85157610  1
  O  O12  1  0.08748870  0.46545802  0.14842390  1
  O  O13  1  0.08748870  0.35157610  0.46545802  1
  O  O14  1  0.08748870  0.14842390  0.03454198  1
  O  O15  1  0.08748870  0.03454198  0.35157610  1
  Pd  Pd16  1  0.58003793  0.25000000  0.25000000  1
  Pd  Pd17  1  0.91996207  0.75000000  0.75000000  1
  Pd  Pd18  1  0.41996207  0.75000000  0.75000000  1
  Pd  Pd19  1  0.08003793  0.25000000  0.25000000  1
  Bi  Bi20  1  0.75000000  0.42344098  0.57655902  1
  Bi  Bi21  1  0.75000000  0.92344098  0.42344098  1
  Bi  Bi22  1  0.75000000  0.57655902  0.07655902  1
  Bi  Bi23  1  0.75000000  0.07655902  0.92344098  1
  Bi  Bi24  1  0.25000000  0.57655902  0.42344098  1
  Bi  Bi25  1  0.25000000  0.07655902  0.57655902  1
  Bi  Bi26  1  0.25000000  0.42344098  0.92344098  1
  Bi  Bi27  1  0.25000000  0.92344098  0.07655902  1
