# generated using pymatgen
data_Sn(PbO2)2
_symmetry_space_group_name_H-M   'P 1'
_cell_length_a   6.48238022
_cell_length_b   8.89939967
_cell_length_c   8.94148736
_cell_angle_alpha   90.00000000
_cell_angle_beta   90.00000000
_cell_angle_gamma   90.00000000
_symmetry_Int_Tables_number   1
_chemical_formula_structural   Sn(PbO2)2
_chemical_formula_sum   'Sn4 Pb8 O16'
_cell_volume   515.82807872
_cell_formula_units_Z   4
loop_
 _symmetry_equiv_pos_site_id
 _symmetry_equiv_pos_as_xyz
  1  'x, y, z'
loop_
 _atom_site_type_symbol
 _atom_site_label
 _atom_site_symmetry_multiplicity
 _atom_site_fract_x
 _atom_site_fract_y
 _atom_site_fract_z
 _atom_site_occupancy
  O  O0  1  0.50000000  0.09547573  0.37640842  1
  O  O1  1  0.50000000  0.90452427  0.62359158  1
  O  O2  1  0.50000000  0.59547573  0.12359158  1
  O  O3  1  0.50000000  0.40452427  0.87640842  1
  O  O4  1  0.00000000  0.12381269  0.40452008  1
  O  O5  1  0.00000000  0.87618731  0.59547992  1
  O  O6  1  0.00000000  0.62381269  0.09547992  1
  O  O7  1  0.00000000  0.37618731  0.90452008  1
  O  O8  1  0.74987516  0.33440877  0.16447314  1
  O  O9  1  0.74987516  0.66559123  0.83552686  1
  O  O10  1  0.25012484  0.83440877  0.33552686  1
  O  O11  1  0.25012484  0.16559123  0.66447314  1
  O  O12  1  0.74987516  0.83440877  0.33552686  1
  O  O13  1  0.74987516  0.16559123  0.66447314  1
  O  O14  1  0.25012484  0.33440877  0.16447314  1
  O  O15  1  0.25012484  0.66559123  0.83552686  1
  Sn  Sn16  1  0.75003797  0.50000000  0.00000000  1
  Sn  Sn17  1  0.24996203  0.00000000  0.50000000  1
  Sn  Sn18  1  0.24996203  0.50000000  0.00000000  1
  Sn  Sn19  1  0.75003797  0.00000000  0.50000000  1
  Pb  Pb20  1  0.00000000  0.66265632  0.35654516  1
  Pb  Pb21  1  0.00000000  0.33734368  0.64345484  1
  Pb  Pb22  1  0.00000000  0.16265632  0.14345484  1
  Pb  Pb23  1  0.00000000  0.83734368  0.85654516  1
  Pb  Pb24  1  0.50000000  0.14219899  0.83543248  1
  Pb  Pb25  1  0.50000000  0.85780101  0.16456752  1
  Pb  Pb26  1  0.50000000  0.64219899  0.66456752  1
  Pb  Pb27  1  0.50000000  0.35780101  0.33543248  1
