# generated using pymatgen
data_Ag3P11
_symmetry_space_group_name_H-M   'P 1'
_cell_length_a   6.68122502
_cell_length_b   7.58335644
_cell_length_c   7.58335644
_cell_angle_alpha   60.59734000
_cell_angle_beta   65.52252836
_cell_angle_gamma   65.52252835
_symmetry_Int_Tables_number   1
_chemical_formula_structural   Ag3P11
_chemical_formula_sum   'Ag3 P11'
_cell_volume   293.66781008
_cell_formula_units_Z   1
loop_
 _symmetry_equiv_pos_site_id
 _symmetry_equiv_pos_as_xyz
  1  'x, y, z'
loop_
 _atom_site_type_symbol
 _atom_site_label
 _atom_site_symmetry_multiplicity
 _atom_site_fract_x
 _atom_site_fract_y
 _atom_site_fract_z
 _atom_site_occupancy
  P  P0  1  0.04571802  0.18888856  0.18888856  1
  P  P1  1  0.05506439  0.50760539  0.50760539  1
  P  P2  1  0.72633148  0.91806673  0.91806673  1
  P  P3  1  0.53073967  0.73518106  0.22443724  1
  P  P4  1  0.53073967  0.22443724  0.73518106  1
  P  P5  1  0.50259283  0.38594585  0.08946878  1
  P  P6  1  0.50259283  0.08946878  0.38594585  1
  P  P7  1  0.27117414  0.38995123  0.94470135  1
  P  P8  1  0.27117414  0.94470135  0.38995123  1
  P  P9  1  0.26623511  0.64876703  0.19117381  1
  P  P10  1  0.26623511  0.19117381  0.64876703  1
  Ag  Ag11  1  0.02583183  0.70866942  0.70866942  1
  Ag  Ag12  1  0.80359698  0.41045317  0.41045317  1
  Ag  Ag13  1  0.00237381  0.00069038  0.00069038  1
