# generated using pymatgen
data_VSn2
_symmetry_space_group_name_H-M   'P 1'
_cell_length_a   5.48940091
_cell_length_b   5.48940091
_cell_length_c   9.79706280
_cell_angle_alpha   98.17289488
_cell_angle_beta   98.17289487
_cell_angle_gamma   119.50931050
_symmetry_Int_Tables_number   1
_chemical_formula_structural   VSn2
_chemical_formula_sum   'V4 Sn8'
_cell_volume   246.47799688
_cell_formula_units_Z   4
loop_
 _symmetry_equiv_pos_site_id
 _symmetry_equiv_pos_as_xyz
  1  'x, y, z'
loop_
 _atom_site_type_symbol
 _atom_site_label
 _atom_site_symmetry_multiplicity
 _atom_site_fract_x
 _atom_site_fract_y
 _atom_site_fract_z
 _atom_site_occupancy
  V  V0  1  0.25258399  0.00258399  0.00516797  1
  V  V1  1  0.99741601  0.74741601  0.49483203  1
  V  V2  1  0.74741601  0.99741601  0.99483203  1
  V  V3  1  0.00258399  0.25258399  0.50516797  1
  Sn  Sn4  1  0.95855314  0.04144686  0.75000000  1
  Sn  Sn5  1  0.29144686  0.70855314  0.75000000  1
  Sn  Sn6  1  0.04144686  0.95855314  0.25000000  1
  Sn  Sn7  1  0.70855314  0.29144686  0.25000000  1
  Sn  Sn8  1  0.54105037  0.29105037  0.58210073  1
  Sn  Sn9  1  0.70894963  0.45894963  0.91789927  1
  Sn  Sn10  1  0.45894963  0.70894963  0.41789927  1
  Sn  Sn11  1  0.29105037  0.54105037  0.08210073  1
