# generated using pymatgen
data_Cs2GeCl6
_symmetry_space_group_name_H-M   'P 1'
_cell_length_a   7.47716109
_cell_length_b   7.47716108
_cell_length_c   7.47716109
_cell_angle_alpha   60.00000001
_cell_angle_beta   60.00000003
_cell_angle_gamma   60.00000003
_symmetry_Int_Tables_number   1
_chemical_formula_structural   Cs2GeCl6
_chemical_formula_sum   'Cs2 Ge1 Cl6'
_cell_volume   295.59372716
_cell_formula_units_Z   1
loop_
 _symmetry_equiv_pos_site_id
 _symmetry_equiv_pos_as_xyz
  1  'x, y, z'
loop_
 _atom_site_type_symbol
 _atom_site_label
 _atom_site_symmetry_multiplicity
 _atom_site_fract_x
 _atom_site_fract_y
 _atom_site_fract_z
 _atom_site_occupancy
  Cl  Cl0  1  0.22117211  0.77882789  0.77882789  1
  Cl  Cl1  1  0.22117211  0.77882789  0.22117211  1
  Cl  Cl2  1  0.77882789  0.22117211  0.77882789  1
  Cl  Cl3  1  0.77882789  0.22117211  0.22117211  1
  Cl  Cl4  1  0.77882789  0.77882789  0.22117211  1
  Cl  Cl5  1  0.22117211  0.22117211  0.77882789  1
  Ge  Ge6  1  0.00000000  0.00000000  0.00000000  1
  Cs  Cs7  1  0.75000000  0.75000000  0.75000000  1
  Cs  Cs8  1  0.25000000  0.25000000  0.25000000  1
