# generated using pymatgen
data_Li5SbO5
_symmetry_space_group_name_H-M   'P 1'
_cell_length_a   4.06788413
_cell_length_b   5.31822385
_cell_length_c   5.87935755
_cell_angle_alpha   107.40028764
_cell_angle_beta   90.00000000
_cell_angle_gamma   112.48537668
_symmetry_Int_Tables_number   1
_chemical_formula_structural   Li5SbO5
_chemical_formula_sum   'Li5 Sb1 O5'
_cell_volume   111.19840752
_cell_formula_units_Z   1
loop_
 _symmetry_equiv_pos_site_id
 _symmetry_equiv_pos_as_xyz
  1  'x, y, z'
loop_
 _atom_site_type_symbol
 _atom_site_label
 _atom_site_symmetry_multiplicity
 _atom_site_fract_x
 _atom_site_fract_y
 _atom_site_fract_z
 _atom_site_occupancy
  Li  Li0  1  0.71134444  0.42268888  0.34170050  1
  Li  Li1  1  0.00000000  0.00000000  0.50000000  1
  Li  Li2  1  0.31140639  0.62281279  0.13924338  1
  Li  Li3  1  0.68859361  0.37718721  0.86075662  1
  Li  Li4  1  0.28865556  0.57731112  0.65829950  1
  O  O5  1  0.85609861  0.71219722  0.17375683  1
  O  O6  1  0.50000000  0.00000000  0.00000000  1
  O  O7  1  0.15685438  0.31370875  0.31707462  1
  O  O8  1  0.84314562  0.68629125  0.68292538  1
  O  O9  1  0.14390139  0.28780278  0.82624317  1
  Sb  Sb10  1  0.00000000  0.00000000  0.00000000  1
