# generated using pymatgen
data_Ba2MnSe3
_symmetry_space_group_name_H-M   'P 1'
_cell_length_a   4.52444122
_cell_length_b   9.24743594
_cell_length_c   17.90888224
_cell_angle_alpha   90.00000000
_cell_angle_beta   90.00000000
_cell_angle_gamma   90.00000000
_symmetry_Int_Tables_number   1
_chemical_formula_structural   Ba2MnSe3
_chemical_formula_sum   'Ba8 Mn4 Se12'
_cell_volume   749.29832650
_cell_formula_units_Z   4
loop_
 _symmetry_equiv_pos_site_id
 _symmetry_equiv_pos_as_xyz
  1  'x, y, z'
loop_
 _atom_site_type_symbol
 _atom_site_label
 _atom_site_symmetry_multiplicity
 _atom_site_fract_x
 _atom_site_fract_y
 _atom_site_fract_z
 _atom_site_occupancy
  Mn  Mn0  1  0.75000000  0.62948168  0.86590262  1
  Mn  Mn1  1  0.25000000  0.87051832  0.36590262  1
  Mn  Mn2  1  0.75000000  0.12948168  0.63409738  1
  Mn  Mn3  1  0.25000000  0.37051832  0.13409738  1
  Se  Se4  1  0.25000000  0.62647081  0.42758072  1
  Se  Se5  1  0.75000000  0.37352919  0.57241928  1
  Se  Se6  1  0.25000000  0.12647081  0.07241928  1
  Se  Se7  1  0.75000000  0.87352919  0.92758072  1
  Se  Se8  1  0.25000000  0.50278331  0.89915894  1
  Se  Se9  1  0.75000000  0.99721669  0.39915894  1
  Se  Se10  1  0.25000000  0.00278331  0.60084106  1
  Se  Se11  1  0.75000000  0.49721669  0.10084106  1
  Se  Se12  1  0.75000000  0.67975535  0.72740010  1
  Se  Se13  1  0.25000000  0.32024465  0.27259990  1
  Se  Se14  1  0.75000000  0.17975535  0.77259990  1
  Se  Se15  1  0.25000000  0.82024465  0.22740010  1
  Ba  Ba16  1  0.25000000  0.75325745  0.04232291  1
  Ba  Ba17  1  0.75000000  0.24674255  0.95767709  1
  Ba  Ba18  1  0.25000000  0.25325745  0.45767709  1
  Ba  Ba19  1  0.75000000  0.74674255  0.54232291  1
  Ba  Ba20  1  0.25000000  0.91684415  0.78590150  1
  Ba  Ba21  1  0.75000000  0.08315585  0.21409850  1
  Ba  Ba22  1  0.25000000  0.41684415  0.71409850  1
  Ba  Ba23  1  0.75000000  0.58315585  0.28590150  1
