# generated using pymatgen
data_KGaSb4
_symmetry_space_group_name_H-M   'P 1'
_cell_length_a   4.27533758
_cell_length_b   10.57068660
_cell_length_c   18.21241463
_cell_angle_alpha   90.00000000
_cell_angle_beta   90.00000000
_cell_angle_gamma   90.00000000
_symmetry_Int_Tables_number   1
_chemical_formula_structural   KGaSb4
_chemical_formula_sum   'K4 Ga4 Sb16'
_cell_volume   823.07827427
_cell_formula_units_Z   4
loop_
 _symmetry_equiv_pos_site_id
 _symmetry_equiv_pos_as_xyz
  1  'x, y, z'
loop_
 _atom_site_type_symbol
 _atom_site_label
 _atom_site_symmetry_multiplicity
 _atom_site_fract_x
 _atom_site_fract_y
 _atom_site_fract_z
 _atom_site_occupancy
  K  K0  1  0.75000000  0.67840125  0.93445251  1
  K  K1  1  0.25000000  0.32159875  0.06554749  1
  K  K2  1  0.75000000  0.17840125  0.56554749  1
  K  K3  1  0.25000000  0.82159875  0.43445251  1
  Ga  Ga4  1  0.75000000  0.81725717  0.13093609  1
  Ga  Ga5  1  0.25000000  0.18274283  0.86906391  1
  Ga  Ga6  1  0.75000000  0.31725717  0.36906391  1
  Ga  Ga7  1  0.25000000  0.68274283  0.63093609  1
  Sb  Sb8  1  0.75000000  0.33073910  0.89793575  1
  Sb  Sb9  1  0.25000000  0.66926090  0.10206425  1
  Sb  Sb10  1  0.75000000  0.83073910  0.60206425  1
  Sb  Sb11  1  0.25000000  0.16926090  0.39793575  1
  Sb  Sb12  1  0.75000000  0.88876068  0.27332880  1
  Sb  Sb13  1  0.25000000  0.11123932  0.72667120  1
  Sb  Sb14  1  0.75000000  0.38876068  0.22667120  1
  Sb  Sb15  1  0.25000000  0.61123932  0.77332880  1
  Sb  Sb16  1  0.75000000  0.03347935  0.05026211  1
  Sb  Sb17  1  0.25000000  0.96652065  0.94973789  1
  Sb  Sb18  1  0.75000000  0.53347935  0.44973789  1
  Sb  Sb19  1  0.25000000  0.46652065  0.55026211  1
  Sb  Sb20  1  0.75000000  0.42902839  0.75098445  1
  Sb  Sb21  1  0.25000000  0.57097161  0.24901555  1
  Sb  Sb22  1  0.75000000  0.92902839  0.74901555  1
  Sb  Sb23  1  0.25000000  0.07097161  0.25098445  1
