# generated using pymatgen
data_Rb2MnCl4
_symmetry_space_group_name_H-M   'P 1'
_cell_length_a   5.11032247
_cell_length_b   5.11032246
_cell_length_c   8.91200946
_cell_angle_alpha   106.66108393
_cell_angle_beta   106.66108392
_cell_angle_gamma   90.00000006
_symmetry_Int_Tables_number   1
_chemical_formula_structural   Rb2MnCl4
_chemical_formula_sum   'Rb2 Mn1 Cl4'
_cell_volume   212.75027742
_cell_formula_units_Z   1
loop_
 _symmetry_equiv_pos_site_id
 _symmetry_equiv_pos_as_xyz
  1  'x, y, z'
loop_
 _atom_site_type_symbol
 _atom_site_label
 _atom_site_symmetry_multiplicity
 _atom_site_fract_x
 _atom_site_fract_y
 _atom_site_fract_z
 _atom_site_occupancy
  Cl  Cl0  1  0.84447840  0.84447840  0.68895680  1
  Cl  Cl1  1  0.15552160  0.15552160  0.31104320  1
  Cl  Cl2  1  0.00000000  0.50000000  0.00000000  1
  Cl  Cl3  1  0.50000000  0.00000000  0.00000000  1
  Mn  Mn4  1  0.00000000  0.00000000  0.00000000  1
  Rb  Rb5  1  0.35791177  0.35791177  0.71582353  1
  Rb  Rb6  1  0.64208823  0.64208823  0.28417647  1
