# generated using pymatgen
data_NbAlO4
_symmetry_space_group_name_H-M   'P 1'
_cell_length_a   3.81166807
_cell_length_b   6.44028438
_cell_length_c   6.56928801
_cell_angle_alpha   106.99192729
_cell_angle_beta   90.00000000
_cell_angle_gamma   107.21294644
_symmetry_Int_Tables_number   1
_chemical_formula_structural   NbAlO4
_chemical_formula_sum   'Nb2 Al2 O8'
_cell_volume   146.65543486
_cell_formula_units_Z   2
loop_
 _symmetry_equiv_pos_site_id
 _symmetry_equiv_pos_as_xyz
  1  'x, y, z'
loop_
 _atom_site_type_symbol
 _atom_site_label
 _atom_site_symmetry_multiplicity
 _atom_site_fract_x
 _atom_site_fract_y
 _atom_site_fract_z
 _atom_site_occupancy
  O  O0  1  0.35628809  0.71257619  0.79588163  1
  O  O1  1  0.64371191  0.28742381  0.20411837  1
  O  O2  1  0.73701316  0.47402632  0.85918500  1
  O  O3  1  0.26298684  0.52597368  0.14081500  1
  O  O4  1  0.85927351  0.71854702  0.47210041  1
  O  O5  1  0.14072649  0.28145298  0.52789959  1
  O  O6  1  0.94275931  0.88551863  0.13902093  1
  O  O7  1  0.05724069  0.11448137  0.86097907  1
  Al  Al8  1  0.79781816  0.59563633  0.17557301  1
  Al  Al9  1  0.20218184  0.40436367  0.82442699  1
  Nb  Nb10  1  0.10463656  0.20927311  0.23775400  1
  Nb  Nb11  1  0.89536344  0.79072689  0.76224600  1
