# generated using pymatgen
data_Cu3PS4
_symmetry_space_group_name_H-M   'P 1'
_cell_length_a   6.07399126
_cell_length_b   6.33649289
_cell_length_c   7.26837242
_cell_angle_alpha   90.00000000
_cell_angle_beta   90.00000000
_cell_angle_gamma   90.00000000
_symmetry_Int_Tables_number   1
_chemical_formula_structural   Cu3PS4
_chemical_formula_sum   'Cu6 P2 S8'
_cell_volume   279.74368171
_cell_formula_units_Z   2
loop_
 _symmetry_equiv_pos_site_id
 _symmetry_equiv_pos_as_xyz
  1  'x, y, z'
loop_
 _atom_site_type_symbol
 _atom_site_label
 _atom_site_symmetry_multiplicity
 _atom_site_fract_x
 _atom_site_fract_y
 _atom_site_fract_z
 _atom_site_occupancy
  P  P0  1  0.40182465  0.67429745  0.00000000  1
  P  P1  1  0.90182465  0.32570255  0.50000000  1
  S  S2  1  0.28665924  0.83217324  0.23731999  1
  S  S3  1  0.78665924  0.16782676  0.26268001  1
  S  S4  1  0.78129225  0.63532809  0.50000000  1
  S  S5  1  0.28129225  0.36467191  0.00000000  1
  S  S6  1  0.78665924  0.16782676  0.73731999  1
  S  S7  1  0.28665924  0.83217324  0.76268001  1
  S  S8  1  0.74692851  0.67877415  0.00000000  1
  S  S9  1  0.24692851  0.32122585  0.50000000  1
  Cu  Cu10  1  0.91198036  0.82471187  0.74699585  1
  Cu  Cu11  1  0.41198036  0.17528813  0.75300415  1
  Cu  Cu12  1  0.41198036  0.17528813  0.24699585  1
  Cu  Cu13  1  0.91198036  0.82471187  0.25300415  1
  Cu  Cu14  1  0.40343540  0.65146500  0.50000000  1
  Cu  Cu15  1  0.90343540  0.34853500  0.00000000  1
