# generated using pymatgen
data_LiH2N
_symmetry_space_group_name_H-M   'P 1'
_cell_length_a   5.08548057
_cell_length_b   5.08548057
_cell_length_c   6.37532069
_cell_angle_alpha   113.50574935
_cell_angle_beta   113.50574935
_cell_angle_gamma   90.00000000
_symmetry_Int_Tables_number   1
_chemical_formula_structural   LiH2N
_chemical_formula_sum   'Li4 H8 N4'
_cell_volume   136.14790313
_cell_formula_units_Z   4
loop_
 _symmetry_equiv_pos_site_id
 _symmetry_equiv_pos_as_xyz
  1  'x, y, z'
loop_
 _atom_site_type_symbol
 _atom_site_label
 _atom_site_symmetry_multiplicity
 _atom_site_fract_x
 _atom_site_fract_y
 _atom_site_fract_z
 _atom_site_occupancy
  Li  Li0  1  0.00000000  0.00000000  0.00000000  1
  Li  Li1  1  0.25000000  0.75000000  0.50000000  1
  Li  Li2  1  0.49210983  0.99210983  0.98421966  1
  Li  Li3  1  0.00789017  0.50789017  0.01578034  1
  H  H4  1  0.69407715  0.03688282  0.62096405  1
  H  H5  1  0.92688690  0.58408123  0.62096405  1
  H  H6  1  0.96311718  0.07311310  0.37903595  1
  H  H7  1  0.41591877  0.30592285  0.37903595  1
  H  H8  1  0.54194711  0.28400863  0.75328810  1
  H  H9  1  0.21134099  0.46927947  0.75328810  1
  H  H10  1  0.71599137  0.78865901  0.24671190  1
  H  H11  1  0.53072053  0.45805289  0.24671190  1
  N  N12  1  0.63970559  0.11316080  0.77159402  1
  N  N13  1  0.13188842  0.65843322  0.77159402  1
  N  N14  1  0.88683920  0.86811158  0.22840598  1
  N  N15  1  0.34156678  0.36029441  0.22840598  1
