# generated using pymatgen
data_AcN
_symmetry_space_group_name_H-M   'P 1'
_cell_length_a   4.25530793
_cell_length_b   4.25531049
_cell_length_c   6.44632070
_cell_angle_alpha   89.99976267
_cell_angle_beta   90.00017583
_cell_angle_gamma   119.99946653
_symmetry_Int_Tables_number   1
_chemical_formula_structural   AcN
_chemical_formula_sum   'Ac2 N2'
_cell_volume   101.08974945
_cell_formula_units_Z   2
loop_
 _symmetry_equiv_pos_site_id
 _symmetry_equiv_pos_as_xyz
  1  'x, y, z'
loop_
 _atom_site_type_symbol
 _atom_site_label
 _atom_site_symmetry_multiplicity
 _atom_site_fract_x
 _atom_site_fract_y
 _atom_site_fract_z
 _atom_site_occupancy
  Ac  Ac0  1  0.00000329  0.00000164  0.98974803  1
  Ac  Ac1  1  0.33333238  0.66666547  0.48976945  1
  N  N2  1  0.99999720  0.99999649  0.38523947  1
  N  N3  1  0.33333313  0.66666441  0.88524305  1
