# generated using pymatgen
data_CaP
_symmetry_space_group_name_H-M   'P 1'
_cell_length_a   7.66208255
_cell_length_b   7.66208256
_cell_length_c   5.72137270
_cell_angle_alpha   90.00000000
_cell_angle_beta   90.00000000
_cell_angle_gamma   120.00000001
_symmetry_Int_Tables_number   1
_chemical_formula_structural   CaP
_chemical_formula_sum   'Ca6 P6'
_cell_volume   290.88714210
_cell_formula_units_Z   6
loop_
 _symmetry_equiv_pos_site_id
 _symmetry_equiv_pos_as_xyz
  1  'x, y, z'
loop_
 _atom_site_type_symbol
 _atom_site_label
 _atom_site_symmetry_multiplicity
 _atom_site_fract_x
 _atom_site_fract_y
 _atom_site_fract_z
 _atom_site_occupancy
  P  P0  1  0.66666667  0.33333333  0.20166749  1
  P  P1  1  0.66666667  0.33333333  0.79833251  1
  P  P2  1  0.33333333  0.66666667  0.79833251  1
  P  P3  1  0.33333333  0.66666667  0.20166749  1
  P  P4  1  0.00000000  0.00000000  0.69673491  1
  P  P5  1  0.00000000  0.00000000  0.30326509  1
  Ca  Ca6  1  0.00000000  0.64326608  0.50000000  1
  Ca  Ca7  1  0.35673392  0.35673392  0.50000000  1
  Ca  Ca8  1  0.64326608  0.00000000  0.50000000  1
  Ca  Ca9  1  0.00000000  0.30878586  0.00000000  1
  Ca  Ca10  1  0.69121414  0.69121414  0.00000000  1
  Ca  Ca11  1  0.30878586  0.00000000  0.00000000  1
