# generated using pymatgen
data_Sr3(FeO3)2
_symmetry_space_group_name_H-M   'P 1'
_cell_length_a   3.96078048
_cell_length_b   3.96078048
_cell_length_c   10.48387837
_cell_angle_alpha   100.88851640
_cell_angle_beta   100.88851641
_cell_angle_gamma   89.99999997
_symmetry_Int_Tables_number   1
_chemical_formula_structural   Sr3(FeO3)2
_chemical_formula_sum   'Sr3 Fe2 O6'
_cell_volume   158.49149231
_cell_formula_units_Z   1
loop_
 _symmetry_equiv_pos_site_id
 _symmetry_equiv_pos_as_xyz
  1  'x, y, z'
loop_
 _atom_site_type_symbol
 _atom_site_label
 _atom_site_symmetry_multiplicity
 _atom_site_fract_x
 _atom_site_fract_y
 _atom_site_fract_z
 _atom_site_occupancy
  O  O0  1  0.80313198  0.80313236  0.60626348  1
  O  O1  1  0.19686890  0.19686834  0.39373648  1
  O  O2  1  0.91576169  0.41576232  0.83152350  1
  O  O3  1  0.41576073  0.91576254  0.83152345  1
  O  O4  1  0.08423920  0.58423838  0.16847645  1
  O  O5  1  0.58423756  0.08423816  0.16847632  1
  Fe  Fe6  1  0.89754170  0.89753994  0.79508195  1
  Fe  Fe7  1  0.10245909  0.10245815  0.20491782  1
  Sr  Sr8  1  0.68038878  0.68039024  0.36077985  1
  Sr  Sr9  1  0.31960950  0.31961046  0.63922088  1
  Sr  Sr10  1  0.49999908  0.50000022  0.00000036  1
