# generated using pymatgen
data_Li5SiP3
_symmetry_space_group_name_H-M   'P 1'
_cell_length_a   8.63071283
_cell_length_b   12.56317568
_cell_length_c   10.46798343
_cell_angle_alpha   34.22736615
_cell_angle_beta   34.53524809
_cell_angle_gamma   58.93738918
_symmetry_Int_Tables_number   1
_chemical_formula_structural   Li5SiP3
_chemical_formula_sum   'Li10 Si2 P6'
_cell_volume   309.62249526
_cell_formula_units_Z   2
loop_
 _symmetry_equiv_pos_site_id
 _symmetry_equiv_pos_as_xyz
  1  'x, y, z'
loop_
 _atom_site_type_symbol
 _atom_site_label
 _atom_site_symmetry_multiplicity
 _atom_site_fract_x
 _atom_site_fract_y
 _atom_site_fract_z
 _atom_site_occupancy
  Li  Li0  1  0.97655081  0.31247731  0.28969061  1
  Li  Li1  1  0.51267423  0.00297588  0.21216764  1
  Li  Li2  1  0.00656690  0.65124339  0.26402359  1
  Li  Li3  1  0.53291840  0.35353560  0.20534719  1
  Li  Li4  1  0.99285102  0.31278886  0.77285284  1
  Li  Li5  1  0.50281996  0.67949291  0.23547681  1
  Li  Li6  1  0.44672819  0.00298776  0.77847574  1
  Li  Li7  1  0.98861001  0.65131719  0.78189602  1
  Li  Li8  1  0.50481500  0.35347468  0.73378653  1
  Li  Li9  1  0.51226133  0.67955953  0.72617165  1
  Si  Si10  1  0.98218562  0.00082263  0.32145129  1
  Si  Si11  1  0.12588222  0.00033803  0.67742232  1
  P  P12  1  0.99727719  0.99985641  0.96418482  1
  P  P13  1  0.99967207  0.31561157  0.01256385  1
  P  P14  1  0.42534853  0.00009653  0.03572502  1
  P  P15  1  0.00661153  0.68754363  0.98026371  1
  P  P16  1  0.47203029  0.31641748  0.03946392  1
  P  P17  1  0.52957869  0.68745860  0.95729544  1
