# generated using pymatgen
data_YAl3Ni
_symmetry_space_group_name_H-M   'P 1'
_cell_length_a   4.05138822
_cell_length_b   8.15661888
_cell_length_c   10.64669839
_cell_angle_alpha   90.00000000
_cell_angle_beta   90.00000000
_cell_angle_gamma   90.00000000
_symmetry_Int_Tables_number   1
_chemical_formula_structural   YAl3Ni
_chemical_formula_sum   'Y4 Al12 Ni4'
_cell_volume   351.82685194
_cell_formula_units_Z   4
loop_
 _symmetry_equiv_pos_site_id
 _symmetry_equiv_pos_as_xyz
  1  'x, y, z'
loop_
 _atom_site_type_symbol
 _atom_site_label
 _atom_site_symmetry_multiplicity
 _atom_site_fract_x
 _atom_site_fract_y
 _atom_site_fract_z
 _atom_site_occupancy
  Al  Al0  1  0.75000000  0.94458713  0.41655878  1
  Al  Al1  1  0.25000000  0.05541287  0.58344122  1
  Al  Al2  1  0.75000000  0.44458713  0.08344122  1
  Al  Al3  1  0.25000000  0.55541287  0.91655878  1
  Al  Al4  1  0.75000000  0.11481550  0.78603690  1
  Al  Al5  1  0.25000000  0.38518450  0.28603690  1
  Al  Al6  1  0.75000000  0.61481550  0.71396310  1
  Al  Al7  1  0.25000000  0.85589900  0.77796938  1
  Al  Al8  1  0.75000000  0.14410100  0.22203062  1
  Al  Al9  1  0.25000000  0.35589900  0.72203062  1
  Al  Al10  1  0.25000000  0.88518450  0.21396310  1
  Al  Al11  1  0.75000000  0.64410100  0.27796938  1
  Ni  Ni12  1  0.75000000  0.39406119  0.85683558  1
  Ni  Ni13  1  0.75000000  0.89406119  0.64316442  1
  Ni  Ni14  1  0.25000000  0.10593881  0.35683558  1
  Ni  Ni15  1  0.25000000  0.60593881  0.14316442  1
  Y  Y16  1  0.25000000  0.68546844  0.49105610  1
  Y  Y17  1  0.75000000  0.81453156  0.99105610  1
  Y  Y18  1  0.25000000  0.18546844  0.00894390  1
  Y  Y19  1  0.75000000  0.31453156  0.50894390  1
