# generated using pymatgen
data_CaSc2O4
_symmetry_space_group_name_H-M   'P 1'
_cell_length_a   3.16290884
_cell_length_b   9.53553997
_cell_length_c   11.18674332
_cell_angle_alpha   90.00000000
_cell_angle_beta   90.00000000
_cell_angle_gamma   90.00000000
_symmetry_Int_Tables_number   1
_chemical_formula_structural   CaSc2O4
_chemical_formula_sum   'Ca4 Sc8 O16'
_cell_volume   337.39266700
_cell_formula_units_Z   4
loop_
 _symmetry_equiv_pos_site_id
 _symmetry_equiv_pos_as_xyz
  1  'x, y, z'
loop_
 _atom_site_type_symbol
 _atom_site_label
 _atom_site_symmetry_multiplicity
 _atom_site_fract_x
 _atom_site_fract_y
 _atom_site_fract_z
 _atom_site_occupancy
  O  O0  1  0.25000000  0.08015376  0.07535972  1
  O  O1  1  0.75000000  0.91984624  0.92464028  1
  O  O2  1  0.25000000  0.58015376  0.42464028  1
  O  O3  1  0.75000000  0.41984624  0.57535972  1
  O  O4  1  0.25000000  0.97718726  0.71599614  1
  O  O5  1  0.75000000  0.02281274  0.28400386  1
  O  O6  1  0.25000000  0.47718726  0.78400386  1
  O  O7  1  0.75000000  0.52281274  0.21599614  1
  O  O8  1  0.25000000  0.37686671  0.02439365  1
  O  O9  1  0.75000000  0.62313329  0.97560635  1
  O  O10  1  0.25000000  0.87686671  0.47560635  1
  O  O11  1  0.75000000  0.12313329  0.52439365  1
  O  O12  1  0.75000000  0.20722965  0.82848726  1
  O  O13  1  0.25000000  0.79277035  0.17151274  1
  O  O14  1  0.75000000  0.70722965  0.67151274  1
  O  O15  1  0.25000000  0.29277035  0.32848726  1
  Ca  Ca16  1  0.75000000  0.75588899  0.34780976  1
  Ca  Ca17  1  0.25000000  0.24411101  0.65219024  1
  Ca  Ca18  1  0.75000000  0.25588899  0.15219024  1
  Ca  Ca19  1  0.25000000  0.74411101  0.84780976  1
  Sc  Sc20  1  0.25000000  0.08023246  0.39286664  1
  Sc  Sc21  1  0.75000000  0.91976754  0.60713336  1
  Sc  Sc22  1  0.25000000  0.58023246  0.10713336  1
  Sc  Sc23  1  0.75000000  0.41976754  0.89286664  1
  Sc  Sc24  1  0.75000000  0.43015497  0.38757462  1
  Sc  Sc25  1  0.25000000  0.56984503  0.61242538  1
  Sc  Sc26  1  0.75000000  0.93015497  0.11242538  1
  Sc  Sc27  1  0.25000000  0.06984503  0.88757462  1
