# generated using pymatgen
data_Mg2Ga
_symmetry_space_group_name_H-M   'P 1'
_cell_length_a   7.77751081
_cell_length_b   7.77751081
_cell_length_c   7.00749865
_cell_angle_alpha   90.00000000
_cell_angle_beta   90.00000000
_cell_angle_gamma   120.00000003
_symmetry_Int_Tables_number   1
_chemical_formula_structural   Mg2Ga
_chemical_formula_sum   'Mg12 Ga6'
_cell_volume   367.09198414
_cell_formula_units_Z   6
loop_
 _symmetry_equiv_pos_site_id
 _symmetry_equiv_pos_as_xyz
  1  'x, y, z'
loop_
 _atom_site_type_symbol
 _atom_site_label
 _atom_site_symmetry_multiplicity
 _atom_site_fract_x
 _atom_site_fract_y
 _atom_site_fract_z
 _atom_site_occupancy
  Ga  Ga0  1  0.00000000  0.00000000  0.25000000  1
  Ga  Ga1  1  0.00000000  0.00000000  0.75000000  1
  Ga  Ga2  1  0.33333300  0.66666700  0.03353610  1
  Ga  Ga3  1  0.33333300  0.66666700  0.46646390  1
  Ga  Ga4  1  0.66666700  0.33333300  0.96646390  1
  Ga  Ga5  1  0.66666700  0.33333300  0.53353610  1
  Mg  Mg6  1  0.27802441  0.00000000  0.00000000  1
  Mg  Mg7  1  0.72197559  0.72197559  0.50000000  1
  Mg  Mg8  1  0.00000000  0.27802441  0.50000000  1
  Mg  Mg9  1  0.00000000  0.27802441  0.00000000  1
  Mg  Mg10  1  0.72197559  0.72197559  0.00000000  1
  Mg  Mg11  1  0.27802441  0.00000000  0.50000000  1
  Mg  Mg12  1  0.62817474  0.02161543  0.25000000  1
  Mg  Mg13  1  0.39344069  0.37182526  0.25000000  1
  Mg  Mg14  1  0.97838457  0.60655931  0.25000000  1
  Mg  Mg15  1  0.60655931  0.97838457  0.75000000  1
  Mg  Mg16  1  0.37182526  0.39344069  0.75000000  1
  Mg  Mg17  1  0.02161543  0.62817474  0.75000000  1
