# generated using pymatgen
data_K3CoO2
_symmetry_space_group_name_H-M   'P 1'
_cell_length_a   6.04668858
_cell_length_b   7.39006840
_cell_length_c   11.97438673
_cell_angle_alpha   90.00000000
_cell_angle_beta   90.00000000
_cell_angle_gamma   90.00000000
_symmetry_Int_Tables_number   1
_chemical_formula_structural   K3CoO2
_chemical_formula_sum   'K12 Co4 O8'
_cell_volume   535.08076610
_cell_formula_units_Z   4
loop_
 _symmetry_equiv_pos_site_id
 _symmetry_equiv_pos_as_xyz
  1  'x, y, z'
loop_
 _atom_site_type_symbol
 _atom_site_label
 _atom_site_symmetry_multiplicity
 _atom_site_fract_x
 _atom_site_fract_y
 _atom_site_fract_z
 _atom_site_occupancy
  O  O0  1  0.59354247  0.25000000  0.97442475  1
  O  O1  1  0.09354247  0.75000000  0.52557525  1
  O  O2  1  0.40645753  0.75000000  0.02557525  1
  O  O3  1  0.90645753  0.25000000  0.47442475  1
  O  O4  1  0.96128992  0.75000000  0.21723787  1
  O  O5  1  0.46128992  0.25000000  0.28276213  1
  O  O6  1  0.03871008  0.25000000  0.78276213  1
  O  O7  1  0.53871008  0.75000000  0.71723787  1
  K  K8  1  0.66560463  0.50011525  0.13960658  1
  K  K9  1  0.16560463  0.00011525  0.36039342  1
  K  K10  1  0.83439537  0.50011525  0.63960658  1
  K  K11  1  0.33439537  0.49988475  0.86039342  1
  K  K12  1  0.71889161  0.75000000  0.40505090  1
  K  K13  1  0.21889161  0.25000000  0.09494910  1
  K  K14  1  0.28110839  0.25000000  0.59494910  1
  K  K15  1  0.78110839  0.75000000  0.90505090  1
  K  K16  1  0.33439537  0.00011525  0.86039342  1
  K  K17  1  0.83439537  0.99988475  0.63960658  1
  K  K18  1  0.66560463  0.99988475  0.13960658  1
  K  K19  1  0.16560463  0.49988475  0.36039342  1
  Co  Co20  1  0.67872513  0.25000000  0.38189644  1
  Co  Co21  1  0.17872513  0.75000000  0.11810356  1
  Co  Co22  1  0.32127487  0.75000000  0.61810356  1
  Co  Co23  1  0.82127487  0.25000000  0.88189644  1
