# generated using pymatgen
data_Tl2SO4
_symmetry_space_group_name_H-M   'P 1'
_cell_length_a   5.98118433
_cell_length_b   7.97579446
_cell_length_c   10.93649062
_cell_angle_alpha   90.00000000
_cell_angle_beta   90.00000000
_cell_angle_gamma   90.00000000
_symmetry_Int_Tables_number   1
_chemical_formula_structural   Tl2SO4
_chemical_formula_sum   'Tl8 S4 O16'
_cell_volume   521.72196956
_cell_formula_units_Z   4
loop_
 _symmetry_equiv_pos_site_id
 _symmetry_equiv_pos_as_xyz
  1  'x, y, z'
loop_
 _atom_site_type_symbol
 _atom_site_label
 _atom_site_symmetry_multiplicity
 _atom_site_fract_x
 _atom_site_fract_y
 _atom_site_fract_z
 _atom_site_occupancy
  O  O0  1  0.95526122  0.21130500  0.86063202  1
  O  O1  1  0.45526122  0.78869500  0.13936798  1
  O  O2  1  0.54473878  0.71130500  0.63936798  1
  O  O3  1  0.04473878  0.28869500  0.36063202  1
  O  O4  1  0.04473878  0.78869500  0.13936798  1
  O  O5  1  0.54473878  0.21130500  0.86063202  1
  O  O6  1  0.45526122  0.28869500  0.36063202  1
  O  O7  1  0.95526122  0.71130500  0.63936798  1
  O  O8  1  0.25000000  0.78259095  0.94651062  1
  O  O9  1  0.75000000  0.21740905  0.05348938  1
  O  O10  1  0.25000000  0.28259095  0.55348938  1
  O  O11  1  0.75000000  0.71740905  0.44651062  1
  O  O12  1  0.75000000  0.96490679  0.58064676  1
  O  O13  1  0.25000000  0.03509321  0.41935324  1
  O  O14  1  0.75000000  0.46490679  0.91935324  1
  O  O15  1  0.25000000  0.53509321  0.08064676  1
  S  S16  1  0.25000000  0.72201035  0.07724731  1
  S  S17  1  0.75000000  0.27798965  0.92275269  1
  S  S18  1  0.25000000  0.22201035  0.42275269  1
  S  S19  1  0.75000000  0.77798965  0.57724731  1
  Tl  Tl20  1  0.25000000  0.49255819  0.80144501  1
  Tl  Tl21  1  0.75000000  0.50744181  0.19855499  1
  Tl  Tl22  1  0.25000000  0.99255819  0.69855499  1
  Tl  Tl23  1  0.75000000  0.00744181  0.30144501  1
  Tl  Tl24  1  0.25000000  0.17027202  0.08265356  1
  Tl  Tl25  1  0.75000000  0.82972798  0.91734644  1
  Tl  Tl26  1  0.25000000  0.67027202  0.41734644  1
  Tl  Tl27  1  0.75000000  0.32972798  0.58265356  1
