# generated using pymatgen
data_Rb3CoO2
_symmetry_space_group_name_H-M   'P 1'
_cell_length_a   6.28874639
_cell_length_b   7.82580336
_cell_length_c   12.43848185
_cell_angle_alpha   90.00000000
_cell_angle_beta   90.00000000
_cell_angle_gamma   90.00000000
_symmetry_Int_Tables_number   1
_chemical_formula_structural   Rb3CoO2
_chemical_formula_sum   'Rb12 Co4 O8'
_cell_volume   612.15357332
_cell_formula_units_Z   4
loop_
 _symmetry_equiv_pos_site_id
 _symmetry_equiv_pos_as_xyz
  1  'x, y, z'
loop_
 _atom_site_type_symbol
 _atom_site_label
 _atom_site_symmetry_multiplicity
 _atom_site_fract_x
 _atom_site_fract_y
 _atom_site_fract_z
 _atom_site_occupancy
  O  O0  1  0.58745038  0.25000000  0.97072533  1
  O  O1  1  0.08745038  0.75000000  0.52927467  1
  O  O2  1  0.41254962  0.75000000  0.02927467  1
  O  O3  1  0.91254962  0.25000000  0.47072533  1
  O  O4  1  0.01592968  0.25000000  0.78572527  1
  O  O5  1  0.48407032  0.25000000  0.28572527  1
  O  O6  1  0.51592968  0.75000000  0.71427473  1
  O  O7  1  0.98407032  0.75000000  0.21427473  1
  Co  Co8  1  0.80624800  0.25000000  0.88108955  1
  Co  Co9  1  0.30624800  0.75000000  0.61891045  1
  Co  Co10  1  0.19375200  0.75000000  0.11891045  1
  Co  Co11  1  0.69375200  0.25000000  0.38108955  1
  Rb  Rb12  1  0.77661335  0.75000000  0.89948257  1
  Rb  Rb13  1  0.27661335  0.25000000  0.60051743  1
  Rb  Rb14  1  0.22338665  0.25000000  0.10051743  1
  Rb  Rb15  1  0.72338665  0.75000000  0.39948257  1
  Rb  Rb16  1  0.31830117  0.50087141  0.86236378  1
  Rb  Rb17  1  0.81830117  0.49912859  0.63763622  1
  Rb  Rb18  1  0.68169883  0.00087141  0.13763622  1
  Rb  Rb19  1  0.18169883  0.99912859  0.36236378  1
  Rb  Rb20  1  0.68169883  0.49912859  0.13763622  1
  Rb  Rb21  1  0.18169883  0.50087141  0.36236378  1
  Rb  Rb22  1  0.31830117  0.99912859  0.86236378  1
  Rb  Rb23  1  0.81830117  0.00087141  0.63763622  1
