# generated using pymatgen
data_F2
_symmetry_space_group_name_H-M   'P 1'
_cell_length_a   3.55698327
_cell_length_b   3.55698327
_cell_length_c   6.88793833
_cell_angle_alpha   84.22036524
_cell_angle_beta   84.22036524
_cell_angle_gamma   61.84072474
_symmetry_Int_Tables_number   1
_chemical_formula_structural   F2
_chemical_formula_sum   F4
_cell_volume   76.30110064
_cell_formula_units_Z   2
loop_
 _symmetry_equiv_pos_site_id
 _symmetry_equiv_pos_as_xyz
  1  'x, y, z'
loop_
 _atom_site_type_symbol
 _atom_site_label
 _atom_site_symmetry_multiplicity
 _atom_site_fract_x
 _atom_site_fract_y
 _atom_site_fract_z
 _atom_site_occupancy
  F  F0  1  0.91408363  0.57602140  0.09464778  1
  F  F1  1  0.42397860  0.08591637  0.40535222  1
  F  F2  1  0.08591637  0.42397860  0.90535222  1
  F  F3  1  0.57602140  0.91408363  0.59464778  1
