# generated using pymatgen
data_Rb2CN2
_symmetry_space_group_name_H-M   'P 1'
_cell_length_a   6.10457267
_cell_length_b   6.15294937
_cell_length_c   9.61844112
_cell_angle_alpha   71.54547422
_cell_angle_beta   83.54567083
_cell_angle_gamma   70.60616506
_symmetry_Int_Tables_number   1
_chemical_formula_structural   Rb2CN2
_chemical_formula_sum   'Rb6 C3 N6'
_cell_volume   323.24461459
_cell_formula_units_Z   3
loop_
 _symmetry_equiv_pos_site_id
 _symmetry_equiv_pos_as_xyz
  1  'x, y, z'
loop_
 _atom_site_type_symbol
 _atom_site_label
 _atom_site_symmetry_multiplicity
 _atom_site_fract_x
 _atom_site_fract_y
 _atom_site_fract_z
 _atom_site_occupancy
  Rb  Rb0  1  0.71092100  0.84528228  0.66522230  1
  Rb  Rb1  1  0.28907900  0.15471772  0.33477770  1
  Rb  Rb2  1  0.28884101  0.48821647  0.66813133  1
  Rb  Rb3  1  0.71115899  0.51178353  0.33186867  1
  Rb  Rb4  1  0.28895860  0.82146002  0.00148225  1
  Rb  Rb5  1  0.71104140  0.17853998  0.99851775  1
  C  C6  1  0.00000000  0.50000000  0.00000000  1
  C  C7  1  0.00002294  0.83335748  0.33332044  1
  C  C8  1  0.99997706  0.16664252  0.66667956  1
  N  N9  1  0.80364672  0.65123044  0.99840811  1
  N  N10  1  0.19635328  0.34876956  0.00159189  1
  N  N11  1  0.80361077  0.98442637  0.33183215  1
  N  N12  1  0.19638923  0.01557363  0.66816785  1
  N  N13  1  0.80358936  0.31778557  0.66519184  1
  N  N14  1  0.19641064  0.68221443  0.33480816  1
