# generated using pymatgen
data_NdNiC2
_symmetry_space_group_name_H-M   'P 1'
_cell_length_a   3.84029291
_cell_length_b   3.80619758
_cell_length_c   3.80619758
_cell_angle_alpha   106.62549199
_cell_angle_beta   90.00000000
_cell_angle_gamma   90.00000000
_symmetry_Int_Tables_number   1
_chemical_formula_structural   NdNiC2
_chemical_formula_sum   'Nd1 Ni1 C2'
_cell_volume   53.30906626
_cell_formula_units_Z   1
loop_
 _symmetry_equiv_pos_site_id
 _symmetry_equiv_pos_as_xyz
  1  'x, y, z'
loop_
 _atom_site_type_symbol
 _atom_site_label
 _atom_site_symmetry_multiplicity
 _atom_site_fract_x
 _atom_site_fract_y
 _atom_site_fract_z
 _atom_site_occupancy
  C  C0  1  0.50000000  0.15485878  0.54488801  1
  C  C1  1  0.50000000  0.45511199  0.84514122  1
  Ni  Ni2  1  0.50000000  0.61649111  0.38350889  1
  Nd  Nd3  1  0.00000000  0.00353812  0.99646188  1
