# generated using pymatgen
data_LuAlSi
_symmetry_space_group_name_H-M   'P 1'
_cell_length_a   3.98131686
_cell_length_b   5.41524723
_cell_length_c   5.61193932
_cell_angle_alpha   90.00000000
_cell_angle_beta   90.00000000
_cell_angle_gamma   111.56783316
_symmetry_Int_Tables_number   1
_chemical_formula_structural   LuAlSi
_chemical_formula_sum   'Lu2 Al2 Si2'
_cell_volume   112.52085226
_cell_formula_units_Z   2
loop_
 _symmetry_equiv_pos_site_id
 _symmetry_equiv_pos_as_xyz
  1  'x, y, z'
loop_
 _atom_site_type_symbol
 _atom_site_label
 _atom_site_symmetry_multiplicity
 _atom_site_fract_x
 _atom_site_fract_y
 _atom_site_fract_z
 _atom_site_occupancy
  Lu  Lu0  1  0.30545306  0.61090613  0.75000000  1
  Lu  Lu1  1  0.69454694  0.38909387  0.25000000  1
  Al  Al2  1  0.00000000  0.00000000  0.50000000  1
  Al  Al3  1  0.00000000  0.00000000  0.00000000  1
  Si  Si4  1  0.60212664  0.20425328  0.75000000  1
  Si  Si5  1  0.39787336  0.79574672  0.25000000  1
