# generated using pymatgen
data_Ca2CdSb2
_symmetry_space_group_name_H-M   'P 1'
_cell_length_a   4.65808942
_cell_length_b   7.34462347
_cell_length_c   17.68074902
_cell_angle_alpha   90.00000000
_cell_angle_beta   90.00000000
_cell_angle_gamma   90.00000000
_symmetry_Int_Tables_number   1
_chemical_formula_structural   Ca2CdSb2
_chemical_formula_sum   'Ca8 Cd4 Sb8'
_cell_volume   604.89224512
_cell_formula_units_Z   4
loop_
 _symmetry_equiv_pos_site_id
 _symmetry_equiv_pos_as_xyz
  1  'x, y, z'
loop_
 _atom_site_type_symbol
 _atom_site_label
 _atom_site_symmetry_multiplicity
 _atom_site_fract_x
 _atom_site_fract_y
 _atom_site_fract_z
 _atom_site_occupancy
  Ca  Ca0  1  0.75000000  0.27146849  0.94666476  1
  Ca  Ca1  1  0.25000000  0.22853151  0.44666476  1
  Ca  Ca2  1  0.25000000  0.03527936  0.22777477  1
  Ca  Ca3  1  0.75000000  0.46472064  0.72777477  1
  Ca  Ca4  1  0.75000000  0.77146849  0.55333524  1
  Ca  Ca5  1  0.25000000  0.72853151  0.05333524  1
  Ca  Ca6  1  0.75000000  0.96472064  0.77222523  1
  Ca  Ca7  1  0.25000000  0.53527936  0.27222523  1
  Cd  Cd8  1  0.25000000  0.13722751  0.65077458  1
  Cd  Cd9  1  0.75000000  0.36277249  0.15077458  1
  Cd  Cd10  1  0.75000000  0.86277249  0.34922542  1
  Cd  Cd11  1  0.25000000  0.63722751  0.84922542  1
  Sb  Sb12  1  0.75000000  0.75562050  0.18315746  1
  Sb  Sb13  1  0.25000000  0.24437950  0.81684254  1
  Sb  Sb14  1  0.25000000  0.74437950  0.68315746  1
  Sb  Sb15  1  0.75000000  0.25795610  0.57071527  1
  Sb  Sb16  1  0.75000000  0.25562050  0.31684254  1
  Sb  Sb17  1  0.25000000  0.74204390  0.42928473  1
  Sb  Sb18  1  0.75000000  0.75795610  0.92928473  1
  Sb  Sb19  1  0.25000000  0.24204390  0.07071527  1
