# generated using pymatgen
data_LiIr3
_symmetry_space_group_name_H-M   'P 1'
_cell_length_a   2.70059851
_cell_length_b   4.69972337
_cell_length_c   5.16445722
_cell_angle_alpha   117.06808499
_cell_angle_beta   105.15692949
_cell_angle_gamma   89.99901834
_symmetry_Int_Tables_number   1
_chemical_formula_structural   LiIr3
_chemical_formula_sum   'Li1 Ir3'
_cell_volume   55.79529200
_cell_formula_units_Z   1
loop_
 _symmetry_equiv_pos_site_id
 _symmetry_equiv_pos_as_xyz
  1  'x, y, z'
loop_
 _atom_site_type_symbol
 _atom_site_label
 _atom_site_symmetry_multiplicity
 _atom_site_fract_x
 _atom_site_fract_y
 _atom_site_fract_z
 _atom_site_occupancy
  Li  Li0  1  -0.00000002  0.01718126  0.00001159  1
  Ir  Ir1  1  0.24039874  0.93293856  0.48080904  1
  Ir  Ir2  1  0.75960223  0.45214942  0.51918539  1
  Ir  Ir3  1  0.49999905  0.50173076  -0.00000601  1
