# generated using pymatgen
data_GaTe
_symmetry_space_group_name_H-M   'P 1'
_cell_length_a   4.15017660
_cell_length_b   9.34643378
_cell_length_c   10.82410382
_cell_angle_alpha   106.05107235
_cell_angle_beta   90.00000000
_cell_angle_gamma   102.82766152
_symmetry_Int_Tables_number   1
_chemical_formula_structural   GaTe
_chemical_formula_sum   'Ga6 Te6'
_cell_volume   392.57657566
_cell_formula_units_Z   6
loop_
 _symmetry_equiv_pos_site_id
 _symmetry_equiv_pos_as_xyz
  1  'x, y, z'
loop_
 _atom_site_type_symbol
 _atom_site_label
 _atom_site_symmetry_multiplicity
 _atom_site_fract_x
 _atom_site_fract_y
 _atom_site_fract_z
 _atom_site_occupancy
  Ga  Ga0  1  0.13901791  0.27803583  0.41599918  1
  Ga  Ga1  1  0.86098209  0.72196417  0.58400082  1
  Ga  Ga2  1  0.23842518  0.47685037  0.30234358  1
  Ga  Ga3  1  0.76157482  0.52314963  0.69765642  1
  Ga  Ga4  1  0.56301143  0.12602285  0.08287608  1
  Ga  Ga5  1  0.43698857  0.87397715  0.91712392  1
  Te  Te6  1  0.15317045  0.30634089  0.05415142  1
  Te  Te7  1  0.84682955  0.69365911  0.94584858  1
  Te  Te8  1  0.16313121  0.32626242  0.67278151  1
  Te  Te9  1  0.83686879  0.67373758  0.32721849  1
  Te  Te10  1  0.54368245  0.08736490  0.32393616  1
  Te  Te11  1  0.45631755  0.91263510  0.67606384  1
