# generated using pymatgen
data_PF5
_symmetry_space_group_name_H-M   'P 1'
_cell_length_a   5.75528826
_cell_length_b   5.75528826
_cell_length_c   6.37820778
_cell_angle_alpha   90.00000000
_cell_angle_beta   90.00000000
_cell_angle_gamma   120.00000000
_symmetry_Int_Tables_number   1
_chemical_formula_structural   PF5
_chemical_formula_sum   'P2 F10'
_cell_volume   182.96307722
_cell_formula_units_Z   2
loop_
 _symmetry_equiv_pos_site_id
 _symmetry_equiv_pos_as_xyz
  1  'x, y, z'
loop_
 _atom_site_type_symbol
 _atom_site_label
 _atom_site_symmetry_multiplicity
 _atom_site_fract_x
 _atom_site_fract_y
 _atom_site_fract_z
 _atom_site_occupancy
  F  F0  1  0.82315778  0.64631556  0.75000000  1
  F  F1  1  0.17684222  0.82315778  0.25000000  1
  F  F2  1  0.33333333  0.66666667  0.50264880  1
  F  F3  1  0.66666667  0.33333333  0.00264880  1
  F  F4  1  0.66666667  0.33333333  0.49735120  1
  F  F5  1  0.33333333  0.66666667  0.99735120  1
  F  F6  1  0.17684222  0.35368444  0.25000000  1
  F  F7  1  0.82315778  0.17684222  0.75000000  1
  F  F8  1  0.35368444  0.17684222  0.75000000  1
  F  F9  1  0.64631556  0.82315778  0.25000000  1
  P  P10  1  0.66666667  0.33333333  0.75000000  1
  P  P11  1  0.33333333  0.66666667  0.25000000  1
