# generated using pymatgen
data_Sc2AlOs
_symmetry_space_group_name_H-M   'P 1'
_cell_length_a   4.65099458
_cell_length_b   4.65099452
_cell_length_c   4.65099000
_cell_angle_alpha   60.00002158
_cell_angle_beta   59.99993708
_cell_angle_gamma   59.99999226
_symmetry_Int_Tables_number   1
_chemical_formula_structural   Sc2AlOs
_chemical_formula_sum   'Sc2 Al1 Os1'
_cell_volume   71.14131820
_cell_formula_units_Z   1
loop_
 _symmetry_equiv_pos_site_id
 _symmetry_equiv_pos_as_xyz
  1  'x, y, z'
loop_
 _atom_site_type_symbol
 _atom_site_label
 _atom_site_symmetry_multiplicity
 _atom_site_fract_x
 _atom_site_fract_y
 _atom_site_fract_z
 _atom_site_occupancy
  Sc  Sc0  1  0.99999916  0.99999947  0.99999990  1
  Sc  Sc1  1  0.50000036  0.50000018  0.49999968  1
  Al  Al2  1  0.24999912  0.24999914  0.24999933  1
  Os  Os3  1  0.74999937  0.74999920  0.74999909  1
