# generated using pymatgen
data_NaPuO3
_symmetry_space_group_name_H-M   'P 1'
_cell_length_a   4.23834507
_cell_length_b   4.23835700
_cell_length_c   4.23834366
_cell_angle_alpha   90.00016885
_cell_angle_beta   90.00029105
_cell_angle_gamma   89.99976329
_symmetry_Int_Tables_number   1
_chemical_formula_structural   NaPuO3
_chemical_formula_sum   'Na1 Pu1 O3'
_cell_volume   76.13599280
_cell_formula_units_Z   1
loop_
 _symmetry_equiv_pos_site_id
 _symmetry_equiv_pos_as_xyz
  1  'x, y, z'
loop_
 _atom_site_type_symbol
 _atom_site_label
 _atom_site_symmetry_multiplicity
 _atom_site_fract_x
 _atom_site_fract_y
 _atom_site_fract_z
 _atom_site_occupancy
  Na  Na0  1  0.00000040  0.00000066  0.99999957  1
  Pu  Pu1  1  0.49999830  0.49999912  0.50000190  1
  O  O2  1  0.50000145  0.50000126  0.00000055  1
  O  O3  1  0.49999959  -0.00000152  0.49999913  1
  O  O4  1  0.00000027  0.50000048  0.49999885  1
