# generated using pymatgen
data_Tl3VO4
_symmetry_space_group_name_H-M   'P 1'
_cell_length_a   6.02005816
_cell_length_b   6.16752707
_cell_length_c   6.16752707
_cell_angle_alpha   65.01685843
_cell_angle_beta   60.78785189
_cell_angle_gamma   60.78785186
_symmetry_Int_Tables_number   1
_chemical_formula_structural   Tl3VO4
_chemical_formula_sum   'Tl3 V1 O4'
_cell_volume   169.27574400
_cell_formula_units_Z   1
loop_
 _symmetry_equiv_pos_site_id
 _symmetry_equiv_pos_as_xyz
  1  'x, y, z'
loop_
 _atom_site_type_symbol
 _atom_site_label
 _atom_site_symmetry_multiplicity
 _atom_site_fract_x
 _atom_site_fract_y
 _atom_site_fract_z
 _atom_site_occupancy
  O  O0  1  0.33040107  0.82800095  0.51119690  1
  O  O1  1  0.66959893  0.48880310  0.17199905  1
  O  O2  1  0.74432834  0.36313009  0.63686991  1
  O  O3  1  0.25567166  0.36313009  0.63686991  1
  V  V4  1  0.50000000  0.51050664  0.48949336  1
  Tl  Tl5  1  0.76888968  0.75136038  0.71086027  1
  Tl  Tl6  1  0.00000000  0.05692901  0.94307099  1
  Tl  Tl7  1  0.23111032  0.28913973  0.24863962  1
