# generated using pymatgen
data_CoPO4
_symmetry_space_group_name_H-M   'P 1'
_cell_length_a   5.08148153
_cell_length_b   8.76899774
_cell_length_c   5.08148115
_cell_angle_alpha   76.13824604
_cell_angle_beta   63.35839909
_cell_angle_gamma   76.13824253
_symmetry_Int_Tables_number   1
_chemical_formula_structural   CoPO4
_chemical_formula_sum   'Co2 P2 O8'
_cell_volume   194.20218667
_cell_formula_units_Z   2
loop_
 _symmetry_equiv_pos_site_id
 _symmetry_equiv_pos_as_xyz
  1  'x, y, z'
loop_
 _atom_site_type_symbol
 _atom_site_label
 _atom_site_symmetry_multiplicity
 _atom_site_fract_x
 _atom_site_fract_y
 _atom_site_fract_z
 _atom_site_occupancy
  Co  Co0  1  0.19577948  0.25253287  0.30105354  1
  Co  Co1  1  0.80105354  0.75253287  0.69577948  1
  P  P2  1  0.17753938  0.62578018  0.07317010  1
  P  P3  1  0.57317010  0.12578018  0.67753938  1
  O  O4  1  0.06267088  0.74250401  0.30113870  1
  O  O5  1  0.26916678  0.45925651  0.22289082  1
  O  O6  1  0.29309400  0.18524414  0.94488972  1
  O  O7  1  0.46766065  0.11664630  0.43942496  1
  O  O8  1  0.44488972  0.68524414  0.79309400  1
  O  O9  1  0.80113870  0.24250401  0.56267088  1
  O  O10  1  0.93942496  0.61664630  0.96766065  1
  O  O11  1  0.72289082  0.95925651  0.76916678  1
