# generated using pymatgen
data_BaZnF4
_symmetry_space_group_name_H-M   'P 1'
_cell_length_a   4.25332707
_cell_length_b   5.97025081
_cell_length_c   7.75147088
_cell_angle_alpha   90.00000000
_cell_angle_beta   105.92364722
_cell_angle_gamma   90.00000000
_symmetry_Int_Tables_number   1
_chemical_formula_structural   BaZnF4
_chemical_formula_sum   'Ba2 Zn2 F8'
_cell_volume   189.28345209
_cell_formula_units_Z   2
loop_
 _symmetry_equiv_pos_site_id
 _symmetry_equiv_pos_as_xyz
  1  'x, y, z'
loop_
 _atom_site_type_symbol
 _atom_site_label
 _atom_site_symmetry_multiplicity
 _atom_site_fract_x
 _atom_site_fract_y
 _atom_site_fract_z
 _atom_site_occupancy
  F  F0  1  0.92247906  0.51896467  0.84495812  1
  F  F1  1  0.07752094  0.01896467  0.15504188  1
  F  F2  1  0.46888971  0.83211288  0.93777942  1
  F  F3  1  0.53111029  0.33211288  0.06222058  1
  F  F4  1  0.69835836  0.19462782  0.39671672  1
  F  F5  1  0.30164164  0.69462782  0.60328328  1
  F  F6  1  0.66490372  0.72728479  0.32980745  1
  F  F7  1  0.33509628  0.22728479  0.67019255  1
  Zn  Zn8  1  0.41428112  0.49931259  0.82856223  1
  Zn  Zn9  1  0.58571888  0.99931259  0.17143777  1
  Ba  Ba10  1  0.85060733  0.95617725  0.70121465  1
  Ba  Ba11  1  0.14939267  0.45617725  0.29878535  1
