# generated using pymatgen
data_LiMnFeO4
_symmetry_space_group_name_H-M   'P 1'
_cell_length_a   5.87750156
_cell_length_b   5.95779251
_cell_length_c   5.95779203
_cell_angle_alpha   60.07790633
_cell_angle_beta   60.44480825
_cell_angle_gamma   60.44481084
_symmetry_Int_Tables_number   1
_chemical_formula_structural   LiMnFeO4
_chemical_formula_sum   'Li2 Mn2 Fe2 O8'
_cell_volume   148.59161548
_cell_formula_units_Z   2
loop_
 _symmetry_equiv_pos_site_id
 _symmetry_equiv_pos_as_xyz
  1  'x, y, z'
loop_
 _atom_site_type_symbol
 _atom_site_label
 _atom_site_symmetry_multiplicity
 _atom_site_fract_x
 _atom_site_fract_y
 _atom_site_fract_z
 _atom_site_occupancy
  Li  Li0  1  0.11401803  0.13598197  0.13598197  1
  Li  Li1  1  0.88598197  0.86401803  0.86401803  1
  Mn  Mn2  1  0.00000000  0.50000000  0.50000000  1
  Mn  Mn3  1  0.50000000  0.50000000  0.50000000  1
  Fe  Fe4  1  0.50000000  0.00000000  0.50000000  1
  Fe  Fe5  1  0.50000000  0.50000000  0.00000000  1
  O  O6  1  0.24697034  0.27101963  0.27101963  1
  O  O7  1  0.25676404  0.27371108  0.71276084  1
  O  O8  1  0.25676404  0.71276084  0.27371108  1
  O  O9  1  0.71098940  0.27101963  0.27101963  1
  O  O10  1  0.28901060  0.72898037  0.72898037  1
  O  O11  1  0.74323596  0.72628892  0.28723916  1
  O  O12  1  0.74323596  0.28723916  0.72628892  1
  O  O13  1  0.75302966  0.72898037  0.72898037  1
