# generated using pymatgen
data_Na3YCl6
_symmetry_space_group_name_H-M   'P 1'
_cell_length_a   7.52382877
_cell_length_b   7.52382895
_cell_length_c   7.52382904
_cell_angle_alpha   56.64842619
_cell_angle_beta   56.64842515
_cell_angle_gamma   56.64842399
_symmetry_Int_Tables_number   1
_chemical_formula_structural   Na3YCl6
_chemical_formula_sum   'Na3 Y1 Cl6'
_cell_volume   277.84941809
_cell_formula_units_Z   1
loop_
 _symmetry_equiv_pos_site_id
 _symmetry_equiv_pos_as_xyz
  1  'x, y, z'
loop_
 _atom_site_type_symbol
 _atom_site_label
 _atom_site_symmetry_multiplicity
 _atom_site_fract_x
 _atom_site_fract_y
 _atom_site_fract_z
 _atom_site_occupancy
  Na  Na0  1  0.19971556  0.19971556  0.19971556  1
  Na  Na1  1  0.50000000  0.50000000  0.50000000  1
  Na  Na2  1  0.80028444  0.80028444  0.80028444  1
  Y  Y3  1  0.00000000  0.00000000  0.00000000  1
  Cl  Cl4  1  0.10877810  0.36867737  0.78086184  1
  Cl  Cl5  1  0.36867737  0.78086184  0.10877810  1
  Cl  Cl6  1  0.78086184  0.10877810  0.36867737  1
  Cl  Cl7  1  0.21913816  0.89122190  0.63132263  1
  Cl  Cl8  1  0.63132263  0.21913816  0.89122190  1
  Cl  Cl9  1  0.89122190  0.63132263  0.21913816  1
