# generated using pymatgen
data_Ga2S3
_symmetry_space_group_name_H-M   'P 1'
_cell_length_a   6.53830571
_cell_length_b   6.58038090
_cell_length_c   7.12142139
_cell_angle_alpha   116.62057954
_cell_angle_beta   90.00000000
_cell_angle_gamma   119.78871149
_symmetry_Int_Tables_number   1
_chemical_formula_structural   Ga2S3
_chemical_formula_sum   'Ga4 S6'
_cell_volume   227.72675886
_cell_formula_units_Z   2
loop_
 _symmetry_equiv_pos_site_id
 _symmetry_equiv_pos_as_xyz
  1  'x, y, z'
loop_
 _atom_site_type_symbol
 _atom_site_label
 _atom_site_symmetry_multiplicity
 _atom_site_fract_x
 _atom_site_fract_y
 _atom_site_fract_z
 _atom_site_occupancy
  S  S0  1  0.42665737  0.68041749  0.50297466  1
  S  S1  1  0.25376013  0.68041749  0.00297466  1
  S  S2  1  0.76013724  0.34428395  0.51320347  1
  S  S3  1  0.58414671  0.34428395  0.01320347  1
  S  S4  1  0.91153521  0.00435484  0.98396391  1
  S  S5  1  0.09281963  0.00435484  0.48396391  1
  Ga  Ga6  1  0.13777137  0.40597566  0.61923403  1
  Ga  Ga7  1  0.26820429  0.40597566  0.11923403  1
  Ga  Ga8  1  0.44546660  0.08696806  0.62962393  1
  Ga  Ga9  1  0.64150146  0.08696806  0.12962393  1
