# generated using pymatgen
data_RbHg2
_symmetry_space_group_name_H-M   'P 1'
_cell_length_a   5.40730101
_cell_length_b   7.05818820
_cell_length_c   7.05818820
_cell_angle_alpha   75.55964013
_cell_angle_beta   67.47716364
_cell_angle_gamma   67.47716368
_symmetry_Int_Tables_number   1
_chemical_formula_structural   RbHg2
_chemical_formula_sum   'Rb2 Hg4'
_cell_volume   228.18600352
_cell_formula_units_Z   2
loop_
 _symmetry_equiv_pos_site_id
 _symmetry_equiv_pos_as_xyz
  1  'x, y, z'
loop_
 _atom_site_type_symbol
 _atom_site_label
 _atom_site_symmetry_multiplicity
 _atom_site_fract_x
 _atom_site_fract_y
 _atom_site_fract_z
 _atom_site_occupancy
  Rb  Rb0  1  0.94761603  0.30238397  0.30238397  1
  Rb  Rb1  1  0.05238397  0.69761603  0.69761603  1
  Hg  Hg2  1  0.33532929  0.10319316  0.72614825  1
  Hg  Hg3  1  0.66467071  0.89680684  0.27385175  1
  Hg  Hg4  1  0.66467071  0.27385175  0.89680684  1
  Hg  Hg5  1  0.33532929  0.72614825  0.10319316  1
