# generated using pymatgen
data_Ce(CoP)2
_symmetry_space_group_name_H-M   'P 1'
_cell_length_a   3.88939328
_cell_length_b   3.88939327
_cell_length_c   5.50055622
_cell_angle_alpha   110.70432479
_cell_angle_beta   110.70432477
_cell_angle_gamma   90.00000003
_symmetry_Int_Tables_number   1
_chemical_formula_structural   Ce(CoP)2
_chemical_formula_sum   'Ce1 Co2 P2'
_cell_volume   72.06165105
_cell_formula_units_Z   1
loop_
 _symmetry_equiv_pos_site_id
 _symmetry_equiv_pos_as_xyz
  1  'x, y, z'
loop_
 _atom_site_type_symbol
 _atom_site_label
 _atom_site_symmetry_multiplicity
 _atom_site_fract_x
 _atom_site_fract_y
 _atom_site_fract_z
 _atom_site_occupancy
  P  P0  1  0.62855523  0.62855523  0.25711046  1
  P  P1  1  0.37144477  0.37144477  0.74288954  1
  Co  Co2  1  0.25000000  0.75000000  0.50000000  1
  Co  Co3  1  0.75000000  0.25000000  0.50000000  1
  Ce  Ce4  1  0.00000000  0.00000000  0.00000000  1
