# generated using pymatgen
data_Ba3Zr2O7
_symmetry_space_group_name_H-M   'P 1'
_cell_length_a   4.25684360
_cell_length_b   11.44932795
_cell_length_c   4.25684360
_cell_angle_alpha   79.28643323
_cell_angle_beta   90.00000000
_cell_angle_gamma   100.71356677
_symmetry_Int_Tables_number   1
_chemical_formula_structural   Ba3Zr2O7
_chemical_formula_sum   'Ba3 Zr2 O7'
_cell_volume   200.17180893
_cell_formula_units_Z   1
loop_
 _symmetry_equiv_pos_site_id
 _symmetry_equiv_pos_as_xyz
  1  'x, y, z'
loop_
 _atom_site_type_symbol
 _atom_site_label
 _atom_site_symmetry_multiplicity
 _atom_site_fract_x
 _atom_site_fract_y
 _atom_site_fract_z
 _atom_site_occupancy
  Ba  Ba0  1  0.00000000  0.00000000  0.00000000  1
  Ba  Ba1  1  0.81447636  0.62895272  0.18552364  1
  Ba  Ba2  1  0.18552364  0.37104728  0.81447636  1
  Zr  Zr3  1  0.59736480  0.19473061  0.40263520  1
  Zr  Zr4  1  0.40263520  0.80526939  0.59736480  1
  O  O5  1  0.09619251  0.19238501  0.40380749  1
  O  O6  1  0.50000000  0.00000000  0.50000000  1
  O  O7  1  0.69318894  0.38637689  0.30681106  1
  O  O8  1  0.40380749  0.80761499  0.09619251  1
  O  O9  1  0.59619251  0.19238501  0.90380749  1
  O  O10  1  0.30681106  0.61362311  0.69318894  1
  O  O11  1  0.90380749  0.80761499  0.59619251  1
