# generated using pymatgen
data_CdCu2GeSe4
_symmetry_space_group_name_H-M   'P 1'
_cell_length_a   5.83438793
_cell_length_b   5.83438793
_cell_length_c   6.96966737
_cell_angle_alpha   114.74343600
_cell_angle_beta   114.74343600
_cell_angle_gamma   89.99999995
_symmetry_Int_Tables_number   1
_chemical_formula_structural   CdCu2GeSe4
_chemical_formula_sum   'Cd1 Cu2 Ge1 Se4'
_cell_volume   191.21990845
_cell_formula_units_Z   1
loop_
 _symmetry_equiv_pos_site_id
 _symmetry_equiv_pos_as_xyz
  1  'x, y, z'
loop_
 _atom_site_type_symbol
 _atom_site_label
 _atom_site_symmetry_multiplicity
 _atom_site_fract_x
 _atom_site_fract_y
 _atom_site_fract_z
 _atom_site_occupancy
  Cu  Cu0  1  0.75000000  0.25000000  0.50000000  1
  Cu  Cu1  1  0.25000000  0.75000000  0.50000000  1
  Ge  Ge2  1  0.50000000  0.50000000  0.00000000  1
  Se  Se3  1  0.40461477  0.40461477  0.27231026  1
  Se  Se4  1  0.59538523  0.13230452  0.72768974  1
  Se  Se5  1  0.13230452  0.59538523  0.72768974  1
  Se  Se6  1  0.86769548  0.86769548  0.27231026  1
  Cd  Cd7  1  0.00000000  0.00000000  0.00000000  1
