# generated using pymatgen
data_La2Si4CN6
_symmetry_space_group_name_H-M   'P 1'
_cell_length_a   6.03603417
_cell_length_b   10.21177969
_cell_length_c   10.60245656
_cell_angle_alpha   90.00000000
_cell_angle_beta   90.00000000
_cell_angle_gamma   90.00000000
_symmetry_Int_Tables_number   1
_chemical_formula_structural   La2Si4CN6
_chemical_formula_sum   'La8 Si16 C4 N24'
_cell_volume   653.52112119
_cell_formula_units_Z   4
loop_
 _symmetry_equiv_pos_site_id
 _symmetry_equiv_pos_as_xyz
  1  'x, y, z'
loop_
 _atom_site_type_symbol
 _atom_site_label
 _atom_site_symmetry_multiplicity
 _atom_site_fract_x
 _atom_site_fract_y
 _atom_site_fract_z
 _atom_site_occupancy
  La  La0  1  0.75000100  0.04743626  0.60566767  1
  La  La1  1  0.25000000  0.45256474  0.10566767  1
  La  La2  1  0.75000100  0.40727025  0.55939188  1
  La  La3  1  0.25000000  0.09272975  0.05939188  1
  La  La4  1  0.75000100  0.90726925  0.94060812  1
  La  La5  1  0.25000000  0.59272975  0.44060812  1
  La  La6  1  0.75000100  0.54743626  0.89433233  1
  La  La7  1  0.25000000  0.95256374  0.39433333  1
  Si  Si8  1  0.75000100  0.51793817  0.26135430  1
  Si  Si9  1  0.25000000  0.98206183  0.76135330  1
  Si  Si10  1  0.75000100  0.01793917  0.23864670  1
  Si  Si11  1  0.25000000  0.48206183  0.73864570  1
  Si  Si12  1  0.75000100  0.29893886  0.07515267  1
  Si  Si13  1  0.25000000  0.20106114  0.57515167  1
  Si  Si14  1  0.75000100  0.79893886  0.42484833  1
  Si  Si15  1  0.25000000  0.70106114  0.92484833  1
  Si  Si16  1  0.50346535  0.72796113  0.67032452  1
  Si  Si17  1  0.49653265  0.77203887  0.17032552  1
  Si  Si18  1  0.99653265  0.22796013  0.82967548  1
  Si  Si19  1  0.00346635  0.27203887  0.32967548  1
  Si  Si20  1  0.49653265  0.27203887  0.32967548  1
  Si  Si21  1  0.50346535  0.22796013  0.82967548  1
  Si  Si22  1  0.00346635  0.77203887  0.17032552  1
  Si  Si23  1  0.99653265  0.72796113  0.67032452  1
  C  C24  1  0.75000100  0.20553139  0.23523343  1
  C  C25  1  0.25000000  0.29446961  0.73523343  1
  C  C26  1  0.75000100  0.70553139  0.26476557  1
  C  C27  1  0.25000000  0.79446861  0.76476657  1
  N  N28  1  0.75000100  0.96706527  0.39266518  1
  N  N29  1  0.25000000  0.53293473  0.89266518  1
  N  N30  1  0.00862705  0.71943922  0.01382234  1
  N  N31  1  0.99137395  0.78056078  0.51382134  1
  N  N32  1  0.49137295  0.21943922  0.48617866  1
  N  N33  1  0.50862605  0.28056078  0.98617766  1
  N  N34  1  0.99137395  0.28056078  0.98617766  1
  N  N35  1  0.00862705  0.21943922  0.48617866  1
  N  N36  1  0.50862605  0.78056078  0.51382134  1
  N  N37  1  0.98082391  0.44585605  0.33510738  1
  N  N38  1  0.51917409  0.44585605  0.33510738  1
  N  N39  1  0.48082491  0.05414395  0.83510738  1
  N  N40  1  0.98082391  0.94585605  0.16489162  1
  N  N41  1  0.01917409  0.55414495  0.66489262  1
  N  N42  1  0.25000000  0.22993963  0.25273874  1
  N  N43  1  0.75000100  0.27006037  0.75273874  1
  N  N44  1  0.25000000  0.72993863  0.24726026  1
  N  N45  1  0.75000100  0.77006037  0.74726126  1
  N  N46  1  0.49137295  0.71943922  0.01382234  1
  N  N47  1  0.48082491  0.55414495  0.66489262  1
  N  N48  1  0.51917409  0.94585605  0.16489162  1
  N  N49  1  0.01917409  0.05414395  0.83510738  1
  N  N50  1  0.75000100  0.46706527  0.10733482  1
  N  N51  1  0.25000000  0.03293573  0.60733482  1
