# generated using pymatgen
data_Li2FeO2
_symmetry_space_group_name_H-M   'P 1'
_cell_length_a   5.40417262
_cell_length_b   5.40417231
_cell_length_c   5.40417255
_cell_angle_alpha   139.50459263
_cell_angle_beta   148.18184636
_cell_angle_gamma   52.39721422
_symmetry_Int_Tables_number   1
_chemical_formula_structural   Li2FeO2
_chemical_formula_sum   'Li2 Fe1 O2'
_cell_volume   53.73701094
_cell_formula_units_Z   1
loop_
 _symmetry_equiv_pos_site_id
 _symmetry_equiv_pos_as_xyz
  1  'x, y, z'
loop_
 _atom_site_type_symbol
 _atom_site_label
 _atom_site_symmetry_multiplicity
 _atom_site_fract_x
 _atom_site_fract_y
 _atom_site_fract_z
 _atom_site_occupancy
  Li  Li0  1  0.28782117  0.78782117  0.50000000  1
  Li  Li1  1  0.71217883  0.21217883  0.50000000  1
  Fe  Fe2  1  0.00000000  0.50000000  0.50000000  1
  O  O3  1  0.35484660  0.35484660  1.00000000  1
  O  O4  1  0.64515340  0.64515340  0.00000000  1
