# generated using pymatgen
data_Ba(Si3N4)2
_symmetry_space_group_name_H-M   'P 1'
_cell_length_a   4.87265932
_cell_length_b   6.64353616
_cell_length_c   6.64353574
_cell_angle_alpha   73.96838662
_cell_angle_beta   68.48641394
_cell_angle_gamma   68.48641236
_symmetry_Int_Tables_number   1
_chemical_formula_structural   Ba(Si3N4)2
_chemical_formula_sum   'Ba1 Si6 N8'
_cell_volume   183.62888842
_cell_formula_units_Z   1
loop_
 _symmetry_equiv_pos_site_id
 _symmetry_equiv_pos_as_xyz
  1  'x, y, z'
loop_
 _atom_site_type_symbol
 _atom_site_label
 _atom_site_symmetry_multiplicity
 _atom_site_fract_x
 _atom_site_fract_y
 _atom_site_fract_z
 _atom_site_occupancy
  Ba  Ba0  1  0.16625764  1.00000000  1.00000000  1
  Si  Si1  1  0.81237245  0.54055961  0.13835569  1
  Si  Si2  1  0.49128775  0.45944039  0.86164431  1
  Si  Si3  1  0.49128775  0.86164431  0.45944039  1
  Si  Si4  1  0.81237245  0.13835569  0.54055961  1
  Si  Si5  1  0.01914945  0.62826790  0.62826790  1
  Si  Si6  1  0.27568525  0.37173210  0.37173210  1
  N  N7  1  0.98378104  0.31812853  0.31812853  1
  N  N8  1  0.50223708  0.11853794  0.47776666  1
  N  N9  1  0.09854168  0.88146206  0.52223334  1
  N  N10  1  0.70745531  0.78573311  0.21426689  1
  N  N11  1  0.50223708  0.47776666  0.11853794  1
  N  N12  1  0.09854168  0.52223334  0.88146206  1
  N  N13  1  0.70745531  0.21426689  0.78573311  1
  N  N14  1  0.62003809  0.68187147  0.68187147  1
