# generated using pymatgen
data_AlPt3
_symmetry_space_group_name_H-M   'P 1'
_cell_length_a   5.51826375
_cell_length_b   5.51826375
_cell_length_c   7.94835404
_cell_angle_alpha   90.00000000
_cell_angle_beta   90.00000000
_cell_angle_gamma   90.00000000
_symmetry_Int_Tables_number   1
_chemical_formula_structural   AlPt3
_chemical_formula_sum   'Al4 Pt12'
_cell_volume   242.03719526
_cell_formula_units_Z   4
loop_
 _symmetry_equiv_pos_site_id
 _symmetry_equiv_pos_as_xyz
  1  'x, y, z'
loop_
 _atom_site_type_symbol
 _atom_site_label
 _atom_site_symmetry_multiplicity
 _atom_site_fract_x
 _atom_site_fract_y
 _atom_site_fract_z
 _atom_site_occupancy
  Al  Al0  1  0.50000100  -0.00000000  0.24206608  1
  Al  Al1  1  0.00000000  0.50000100  0.24206608  1
  Al  Al2  1  0.50000100  -0.00000000  0.75793392  1
  Al  Al3  1  -0.00000000  0.50000100  0.75793392  1
  Pt  Pt4  1  0.27816253  0.22183847  -0.00000000  1
  Pt  Pt5  1  0.77816053  0.27816253  -0.00000000  1
  Pt  Pt6  1  0.22183847  0.72183947  0.00000000  1
  Pt  Pt7  1  0.72183947  0.77816053  0.00000000  1
  Pt  Pt8  1  0.00000000  -0.00000000  0.25215793  1
  Pt  Pt9  1  0.50000100  0.50000100  0.25215793  1
  Pt  Pt10  1  0.69628799  0.19628699  0.50000100  1
  Pt  Pt11  1  0.19628699  0.30371201  0.50000100  1
  Pt  Pt12  1  0.80371201  0.69628799  0.50000100  1
  Pt  Pt13  1  0.30371201  0.80371201  0.50000100  1
  Pt  Pt14  1  0.00000000  -0.00000000  0.74784107  1
  Pt  Pt15  1  0.50000100  0.50000100  0.74784107  1
