# generated using pymatgen
data_ScGa2Ni
_symmetry_space_group_name_H-M   'P 1'
_cell_length_a   4.05192519
_cell_length_b   5.20278166
_cell_length_c   6.47056229
_cell_angle_alpha   90.00000000
_cell_angle_beta   90.00000000
_cell_angle_gamma   112.91716378
_symmetry_Int_Tables_number   1
_chemical_formula_structural   ScGa2Ni
_chemical_formula_sum   'Sc2 Ga4 Ni2'
_cell_volume   125.64092093
_cell_formula_units_Z   2
loop_
 _symmetry_equiv_pos_site_id
 _symmetry_equiv_pos_as_xyz
  1  'x, y, z'
loop_
 _atom_site_type_symbol
 _atom_site_label
 _atom_site_symmetry_multiplicity
 _atom_site_fract_x
 _atom_site_fract_y
 _atom_site_fract_z
 _atom_site_occupancy
  Sc  Sc0  1  0.07543887  0.15087774  0.25000000  1
  Sc  Sc1  1  0.92456113  0.84912226  0.75000000  1
  Ni  Ni2  1  0.79418769  0.58837537  0.25000000  1
  Ni  Ni3  1  0.20581231  0.41162463  0.75000000  1
  Ga  Ga4  1  0.36285830  0.72571660  0.45061294  1
  Ga  Ga5  1  0.63714170  0.27428340  0.54938706  1
  Ga  Ga6  1  0.63714170  0.27428340  0.95061294  1
  Ga  Ga7  1  0.36285830  0.72571660  0.04938706  1
