# generated using pymatgen
data_LiFeO2
_symmetry_space_group_name_H-M   'P 1'
_cell_length_a   5.96937246
_cell_length_b   5.96939490
_cell_length_c   5.96939662
_cell_angle_alpha   89.97352785
_cell_angle_beta   59.98601737
_cell_angle_gamma   59.98605077
_symmetry_Int_Tables_number   1
_chemical_formula_structural   LiFeO2
_chemical_formula_sum   'Li4 Fe4 O8'
_cell_volume   150.38043923
_cell_formula_units_Z   4
loop_
 _symmetry_equiv_pos_site_id
 _symmetry_equiv_pos_as_xyz
  1  'x, y, z'
loop_
 _atom_site_type_symbol
 _atom_site_label
 _atom_site_symmetry_multiplicity
 _atom_site_fract_x
 _atom_site_fract_y
 _atom_site_fract_z
 _atom_site_occupancy
  Li  Li0  1  0.50000000  0.50000000  0.50000000  1
  Li  Li1  1  0.50000000  0.50000000  0.00000000  1
  Li  Li2  1  0.00000000  0.50000000  0.50000000  1
  Li  Li3  1  0.00000000  0.00000000  0.50000000  1
  Fe  Fe4  1  0.50000000  0.00000000  0.50000000  1
  Fe  Fe5  1  0.50000000  0.00000000  0.00000000  1
  Fe  Fe6  1  0.00000000  0.50000000  0.00000000  1
  Fe  Fe7  1  0.00000000  0.00000000  0.00000000  1
  O  O8  1  0.98758119  0.75619369  0.76861186  1
  O  O9  1  0.98757440  0.75622578  0.24380959  1
  O  O10  1  0.48758119  0.76861186  0.75619369  1
  O  O11  1  0.51242560  0.75619041  0.24377422  1
  O  O12  1  0.48757440  0.24380959  0.75622578  1
  O  O13  1  0.51241881  0.23138814  0.24380631  1
  O  O14  1  0.01242560  0.24377422  0.75619041  1
  O  O15  1  0.01241881  0.24380631  0.23138814  1
