# generated using pymatgen
data_Sc2TlAg
_symmetry_space_group_name_H-M   'P 1'
_cell_length_a   4.98595521
_cell_length_b   4.98597252
_cell_length_c   4.98595455
_cell_angle_alpha   59.99952594
_cell_angle_beta   59.99947827
_cell_angle_gamma   59.99962497
_symmetry_Int_Tables_number   1
_chemical_formula_structural   Sc2TlAg
_chemical_formula_sum   'Sc2 Tl1 Ag1'
_cell_volume   87.64498518
_cell_formula_units_Z   1
loop_
 _symmetry_equiv_pos_site_id
 _symmetry_equiv_pos_as_xyz
  1  'x, y, z'
loop_
 _atom_site_type_symbol
 _atom_site_label
 _atom_site_symmetry_multiplicity
 _atom_site_fract_x
 _atom_site_fract_y
 _atom_site_fract_z
 _atom_site_occupancy
  Sc  Sc0  1  -0.00000007  0.00000042  0.00000009  1
  Sc  Sc1  1  0.49999989  0.49999963  0.50000044  1
  Tl  Tl2  1  0.75000004  0.74999981  0.74999972  1
  Ag  Ag3  1  0.25000014  0.25000014  0.24999975  1
