# generated using pymatgen
data_RbVN2
_symmetry_space_group_name_H-M   'P 1'
_cell_length_a   5.85770877
_cell_length_b   5.84120042
_cell_length_c   8.30733192
_cell_angle_alpha   90.00000133
_cell_angle_beta   135.16124128
_cell_angle_gamma   119.90681978
_symmetry_Int_Tables_number   1
_chemical_formula_structural   RbVN2
_chemical_formula_sum   'Rb2 V2 N4'
_cell_volume   141.72152209
_cell_formula_units_Z   2
loop_
 _symmetry_equiv_pos_site_id
 _symmetry_equiv_pos_as_xyz
  1  'x, y, z'
loop_
 _atom_site_type_symbol
 _atom_site_label
 _atom_site_symmetry_multiplicity
 _atom_site_fract_x
 _atom_site_fract_y
 _atom_site_fract_z
 _atom_site_occupancy
  Rb  Rb0  1  0.00000000  0.50000000  0.75000000  1
  Rb  Rb1  1  0.00000000  0.00000000  0.50000000  1
  V  V2  1  0.00000000  0.50000000  0.25000000  1
  V  V3  1  0.00000000  0.00000000  0.00000000  1
  N  N4  1  0.50000000  0.20706600  0.12500000  1
  N  N5  1  0.50000000  0.79293400  0.62500000  1
  N  N6  1  0.08586700  0.29293400  0.16793400  1
  N  N7  1  0.91413300  0.70706600  0.08206600  1
