# generated using pymatgen
data_NaHoF4
_symmetry_space_group_name_H-M   'P 1'
_cell_length_a   7.73060038
_cell_length_b   10.18173965
_cell_length_c   6.62605243
_cell_angle_alpha   29.27717623
_cell_angle_beta   54.30954950
_cell_angle_gamma   40.59729048
_symmetry_Int_Tables_number   1
_chemical_formula_structural   NaHoF4
_chemical_formula_sum   'Na2 Ho2 F8'
_cell_volume   160.78974636
_cell_formula_units_Z   2
loop_
 _symmetry_equiv_pos_site_id
 _symmetry_equiv_pos_as_xyz
  1  'x, y, z'
loop_
 _atom_site_type_symbol
 _atom_site_label
 _atom_site_symmetry_multiplicity
 _atom_site_fract_x
 _atom_site_fract_y
 _atom_site_fract_z
 _atom_site_occupancy
  Na  Na0  1  0.99999945  0.00000585  0.00000424  1
  Na  Na1  1  0.75001058  0.50000346  0.99999268  1
  Ho  Ho2  1  0.50000236  0.00000710  0.99998708  1
  Ho  Ho3  1  0.24999677  0.49999218  0.00001704  1
  F  F4  1  0.37499376  0.47956544  0.27045162  1
  F  F5  1  0.14539800  0.47960081  0.77042078  1
  F  F6  1  0.14539235  0.97961844  0.27039179  1
  F  F7  1  0.87500048  0.52044320  0.22954283  1
  F  F8  1  0.60459566  0.52038712  0.72959165  1
  F  F9  1  0.60460373  0.02038827  0.22958313  1
  F  F10  1  0.37500854  0.02043337  0.72955191  1
  F  F11  1  0.87499832  0.97955474  0.77046525  1
