# generated using pymatgen
data_AgNO3
_symmetry_space_group_name_H-M   'P 1'
_cell_length_a   6.48133183
_cell_length_b   6.48133924
_cell_length_c   6.48129528
_cell_angle_alpha   47.67122269
_cell_angle_beta   47.67091066
_cell_angle_gamma   47.67141757
_symmetry_Int_Tables_number   1
_chemical_formula_structural   AgNO3
_chemical_formula_sum   'Ag2 N2 O6'
_cell_volume   136.22689997
_cell_formula_units_Z   2
loop_
 _symmetry_equiv_pos_site_id
 _symmetry_equiv_pos_as_xyz
  1  'x, y, z'
loop_
 _atom_site_type_symbol
 _atom_site_label
 _atom_site_symmetry_multiplicity
 _atom_site_fract_x
 _atom_site_fract_y
 _atom_site_fract_z
 _atom_site_occupancy
  O  O0  1  0.66321405  0.98860818  0.51359830  1
  O  O1  1  0.48862098  0.16321288  0.01358714  1
  N  N2  1  0.22233982  0.22240194  0.22237337  1
  O  O3  1  0.51360532  0.66320805  0.98860794  1
  O  O4  1  0.98860262  0.51360618  0.66321242  1
  Ag  Ag5  1  -0.00088961  -0.00089461  -0.00089369  1
  N  N6  1  0.72237537  0.72235950  0.72238019  1
  O  O7  1  0.16320389  0.01360427  0.48861320  1
  Ag  Ag8  1  0.49910963  0.49910699  0.49910468  1
  O  O9  1  0.01361794  0.48858662  0.16321645  1
