# generated using pymatgen
data_Ba3GaN3
_symmetry_space_group_name_H-M   'P 1'
_cell_length_a   8.15490326
_cell_length_b   8.15491528
_cell_length_c   5.79815338
_cell_angle_alpha   90.00000000
_cell_angle_beta   90.00000000
_cell_angle_gamma   119.99996637
_symmetry_Int_Tables_number   1
_chemical_formula_structural   Ba3GaN3
_chemical_formula_sum   'Ba6 Ga2 N6'
_cell_volume   333.93254379
_cell_formula_units_Z   2
loop_
 _symmetry_equiv_pos_site_id
 _symmetry_equiv_pos_as_xyz
  1  'x, y, z'
loop_
 _atom_site_type_symbol
 _atom_site_label
 _atom_site_symmetry_multiplicity
 _atom_site_fract_x
 _atom_site_fract_y
 _atom_site_fract_z
 _atom_site_occupancy
  Ba  Ba0  1  0.93417263  0.63822942  0.25000000  1
  Ba  Ba1  1  0.70405679  0.06582737  0.25000000  1
  Ba  Ba2  1  0.36177158  0.29594321  0.25000000  1
  Ba  Ba3  1  0.06582737  0.36177058  0.75000000  1
  Ba  Ba4  1  0.29594321  0.93417263  0.75000000  1
  Ba  Ba5  1  0.63822842  0.70405679  0.75000000  1
  Ga  Ga6  1  0.66666500  0.33333200  0.75000000  1
  Ga  Ga7  1  0.33333500  0.66666800  0.25000000  1
  N  N8  1  0.89039177  0.58148449  0.75000000  1
  N  N9  1  0.69109172  0.10960723  0.75000000  1
  N  N10  1  0.41851451  0.30890728  0.75000000  1
  N  N11  1  0.10960823  0.41851551  0.25000000  1
  N  N12  1  0.30890828  0.89039277  0.25000000  1
  N  N13  1  0.58148549  0.69109272  0.25000000  1
