# generated using pymatgen
data_Ba3Hf2O7
_symmetry_space_group_name_H-M   'P 1'
_cell_length_a   4.20171308
_cell_length_b   11.39552420
_cell_length_c   4.20171308
_cell_angle_alpha   79.37629278
_cell_angle_beta   90.00000000
_cell_angle_gamma   100.62370722
_symmetry_Int_Tables_number   1
_chemical_formula_structural   Ba3Hf2O7
_chemical_formula_sum   'Ba3 Hf2 O7'
_cell_volume   194.22301566
_cell_formula_units_Z   1
loop_
 _symmetry_equiv_pos_site_id
 _symmetry_equiv_pos_as_xyz
  1  'x, y, z'
loop_
 _atom_site_type_symbol
 _atom_site_label
 _atom_site_symmetry_multiplicity
 _atom_site_fract_x
 _atom_site_fract_y
 _atom_site_fract_z
 _atom_site_occupancy
  Ba  Ba0  1  0.50000000  0.00000000  0.50000000  1
  Ba  Ba1  1  0.68578965  0.37157830  0.31421035  1
  Ba  Ba2  1  0.31421035  0.62842170  0.68578965  1
  Hf  Hf3  1  0.90340900  0.80681699  0.09659100  1
  Hf  Hf4  1  0.09659100  0.19318301  0.90340900  1
  O  O5  1  0.00000000  0.00000000  0.00000000  1
  O  O6  1  0.09563309  0.19126619  0.40436691  1
  O  O7  1  0.40436691  0.80873381  0.09563309  1
  O  O8  1  0.80847830  0.61695561  0.19152170  1
  O  O9  1  0.19152170  0.38304439  0.80847830  1
  O  O10  1  0.59563309  0.19126619  0.90436691  1
  O  O11  1  0.90436691  0.80873381  0.59563309  1
