# generated using pymatgen
data_ReIr3
_symmetry_space_group_name_H-M   'P 1'
_cell_length_a   5.53935402
_cell_length_b   5.53935473
_cell_length_c   4.39832508
_cell_angle_alpha   90.00000000
_cell_angle_beta   90.00000000
_cell_angle_gamma   120.00000184
_symmetry_Int_Tables_number   1
_chemical_formula_structural   ReIr3
_chemical_formula_sum   'Re2 Ir6'
_cell_volume   116.87893562
_cell_formula_units_Z   2
loop_
 _symmetry_equiv_pos_site_id
 _symmetry_equiv_pos_as_xyz
  1  'x, y, z'
loop_
 _atom_site_type_symbol
 _atom_site_label
 _atom_site_symmetry_multiplicity
 _atom_site_fract_x
 _atom_site_fract_y
 _atom_site_fract_z
 _atom_site_occupancy
  Re  Re0  1  0.33333400  0.66666700  0.75000000  1
  Re  Re1  1  0.66666600  0.33333100  0.24999900  1
  Ir  Ir2  1  0.16742558  0.33485117  0.24999900  1
  Ir  Ir3  1  0.66514783  0.83257342  0.24999900  1
  Ir  Ir4  1  0.16742558  0.83257342  0.24999900  1
  Ir  Ir5  1  0.83257442  0.66514783  0.75000000  1
  Ir  Ir6  1  0.33485317  0.16742758  0.75000000  1
  Ir  Ir7  1  0.83257342  0.16742758  0.75000000  1
