# generated using pymatgen
data_V2O3F
_symmetry_space_group_name_H-M   'P 1'
_cell_length_a   5.59262530
_cell_length_b   5.59262530
_cell_length_c   5.59262530
_cell_angle_alpha   69.94340342
_cell_angle_beta   103.75564771
_cell_angle_gamma   65.21148172
_symmetry_Int_Tables_number   1
_chemical_formula_structural   V2O3F
_chemical_formula_sum   'V4 O6 F2'
_cell_volume   133.41011126
_cell_formula_units_Z   2
loop_
 _symmetry_equiv_pos_site_id
 _symmetry_equiv_pos_as_xyz
  1  'x, y, z'
loop_
 _atom_site_type_symbol
 _atom_site_label
 _atom_site_symmetry_multiplicity
 _atom_site_fract_x
 _atom_site_fract_y
 _atom_site_fract_z
 _atom_site_occupancy
  V  V0  1  0.79549957  0.75000000  0.54549957  1
  V  V1  1  0.20450043  0.25000000  0.45450043  1
  V  V2  1  0.00000000  0.00000000  0.00000000  1
  V  V3  1  0.50000000  0.50000000  0.00000000  1
  O  O4  1  0.05513934  0.75000000  0.80513934  1
  O  O5  1  0.00000000  0.30781528  0.69218472  1
  O  O6  1  0.50000000  0.80781528  0.69218472  1
  O  O7  1  0.50000000  0.19218472  0.30781528  1
  O  O8  1  0.00000000  0.69218472  0.30781528  1
  O  O9  1  0.94486066  0.25000000  0.19486066  1
  F  F10  1  0.54852371  0.25000000  0.79852371  1
  F  F11  1  0.45147629  0.75000000  0.20147629  1
