# generated using pymatgen
data_Cd(CuO2)2
_symmetry_space_group_name_H-M   'P 1'
_cell_length_a   5.79681156
_cell_length_b   6.23657918
_cell_length_c   6.23657918
_cell_angle_alpha   98.51291667
_cell_angle_beta   62.47247438
_cell_angle_gamma   62.47247438
_symmetry_Int_Tables_number   1
_chemical_formula_structural   Cd(CuO2)2
_chemical_formula_sum   'Cd2 Cu4 O8'
_cell_volume   157.44514399
_cell_formula_units_Z   2
loop_
 _symmetry_equiv_pos_site_id
 _symmetry_equiv_pos_as_xyz
  1  'x, y, z'
loop_
 _atom_site_type_symbol
 _atom_site_label
 _atom_site_symmetry_multiplicity
 _atom_site_fract_x
 _atom_site_fract_y
 _atom_site_fract_z
 _atom_site_occupancy
  Cd  Cd0  1  0.75000000  0.12511969  0.37488031  1
  Cd  Cd1  1  0.25000000  0.87488031  0.62511969  1
  Cu  Cu2  1  0.50000000  0.00000000  0.00000000  1
  Cu  Cu3  1  0.50000000  0.50000000  0.00000000  1
  Cu  Cu4  1  0.00000000  0.50000000  0.00000000  1
  Cu  Cu5  1  0.00000000  0.50000000  0.50000000  1
  O  O6  1  0.67066391  0.18068851  0.03259492  1
  O  O7  1  0.82933609  0.46740508  0.31931149  1
  O  O8  1  0.88651183  0.29690153  0.64947531  1
  O  O9  1  0.38651183  0.14947531  0.79690253  1
  O  O10  1  0.61348817  0.85052469  0.20309847  1
  O  O11  1  0.11348817  0.70309747  0.35052469  1
  O  O12  1  0.17066391  0.53259492  0.68068851  1
  O  O13  1  0.32933609  0.81931149  0.96740508  1
