# generated using pymatgen
data_Li14P2(N2O)3
_symmetry_space_group_name_H-M   'P 1'
_cell_length_a   5.69859342
_cell_length_b   5.69868284
_cell_length_c   8.07204018
_cell_angle_alpha   89.99941229
_cell_angle_beta   90.00130048
_cell_angle_gamma   119.99879914
_symmetry_Int_Tables_number   1
_chemical_formula_structural   Li14P2(N2O)3
_chemical_formula_sum   'Li14 P2 N6 O3'
_cell_volume   227.01855812
_cell_formula_units_Z   1
loop_
 _symmetry_equiv_pos_site_id
 _symmetry_equiv_pos_as_xyz
  1  'x, y, z'
loop_
 _atom_site_type_symbol
 _atom_site_label
 _atom_site_symmetry_multiplicity
 _atom_site_fract_x
 _atom_site_fract_y
 _atom_site_fract_z
 _atom_site_occupancy
  Li  Li0  1  0.37840344  0.08266332  0.09100669  1
  Li  Li1  1  0.70427146  0.62161466  0.09100329  1
  Li  Li2  1  0.91735566  0.29575280  0.09101003  1
  Li  Li3  1  0.62159656  0.91733668  0.90899331  1
  Li  Li4  1  0.29572854  0.37838534  0.90899671  1
  Li  Li5  1  0.08264434  0.70424720  0.90898997  1
  Li  Li6  1  0.04290109  0.35269608  0.58917746  1
  Li  Li7  1  0.30979177  0.95709342  0.58916662  1
  Li  Li8  1  0.64729661  0.69020418  0.58916942  1
  Li  Li9  1  0.95709891  0.64730392  0.41082254  1
  Li  Li10  1  0.69020823  0.04290658  0.41083338  1
  Li  Li11  1  0.35270339  0.30979582  0.41083058  1
  Li  Li12  1  0.00001377  0.00001393  0.24969876  1
  Li  Li13  1  -0.00001377  0.99998607  0.75030124  1
  P  P14  1  0.66662976  0.33332175  0.77408877  1
  P  P15  1  0.33337024  0.66667825  0.22591123  1
  N  N16  1  0.37684153  0.07121851  0.82580065  1
  N  N17  1  0.69435142  0.62313121  0.82579819  1
  N  N18  1  0.92875176  0.30561655  0.82580208  1
  N  N19  1  0.62315847  0.92878149  0.17419935  1
  N  N20  1  0.30564858  0.37686879  0.17420181  1
  N  N21  1  0.07124824  0.69438345  0.17419792  1
  O  O22  1  0.66665850  0.33332568  0.55364588  1
  O  O23  1  0.33334150  0.66667432  0.44635412  1
  O  O24  1  -0.00000000  -0.00000000  0.50000000  1
