# generated using pymatgen
data_ScHO2
_symmetry_space_group_name_H-M   'P 1'
_cell_length_a   6.71846929
_cell_length_b   6.71846929
_cell_length_c   4.05048020
_cell_angle_alpha   90.00000000
_cell_angle_beta   90.00000000
_cell_angle_gamma   28.22846626
_symmetry_Int_Tables_number   1
_chemical_formula_structural   ScHO2
_chemical_formula_sum   'Sc2 H2 O4'
_cell_volume   86.47644482
_cell_formula_units_Z   2
loop_
 _symmetry_equiv_pos_site_id
 _symmetry_equiv_pos_as_xyz
  1  'x, y, z'
loop_
 _atom_site_type_symbol
 _atom_site_label
 _atom_site_symmetry_multiplicity
 _atom_site_fract_x
 _atom_site_fract_y
 _atom_site_fract_z
 _atom_site_occupancy
  Sc  Sc0  1  0.67556373  0.67556373  0.24911136  1
  Sc  Sc1  1  0.32443627  0.32443627  0.74911136  1
  H  H2  1  0.01581764  0.01581764  0.43495056  1
  H  H3  1  0.98418236  0.98418236  0.93495056  1
  O  O4  1  0.28441149  0.28441149  0.24953855  1
  O  O5  1  0.71558851  0.71558851  0.74953855  1
  O  O6  1  0.06911191  0.06911191  0.25579854  1
  O  O7  1  0.93088809  0.93088809  0.75579854  1
