# generated using pymatgen
data_AsCl3
_symmetry_space_group_name_H-M   'P 1'
_cell_length_a   4.65275849
_cell_length_b   10.22727256
_cell_length_c   12.23253066
_cell_angle_alpha   90.00000000
_cell_angle_beta   90.00000000
_cell_angle_gamma   90.00000000
_symmetry_Int_Tables_number   1
_chemical_formula_structural   AsCl3
_chemical_formula_sum   'As4 Cl12'
_cell_volume   582.08532905
_cell_formula_units_Z   4
loop_
 _symmetry_equiv_pos_site_id
 _symmetry_equiv_pos_as_xyz
  1  'x, y, z'
loop_
 _atom_site_type_symbol
 _atom_site_label
 _atom_site_symmetry_multiplicity
 _atom_site_fract_x
 _atom_site_fract_y
 _atom_site_fract_z
 _atom_site_occupancy
  Cl  Cl0  1  0.24463279  0.52989953  0.86406100  1
  Cl  Cl1  1  0.74463279  0.97010047  0.13593900  1
  Cl  Cl2  1  0.75536721  0.02989953  0.63593900  1
  Cl  Cl3  1  0.25536721  0.47010047  0.36406100  1
  Cl  Cl4  1  0.23601056  0.29628860  0.13099768  1
  Cl  Cl5  1  0.73601056  0.20371140  0.86900232  1
  Cl  Cl6  1  0.76398944  0.79628860  0.36900232  1
  Cl  Cl7  1  0.26398944  0.70371140  0.63099768  1
  Cl  Cl8  1  0.24211391  0.14284227  0.37460042  1
  Cl  Cl9  1  0.74211391  0.35715773  0.62539958  1
  Cl  Cl10  1  0.75788609  0.64284227  0.12539958  1
  Cl  Cl11  1  0.25788609  0.85715773  0.87460042  1
  As  As12  1  0.02818401  0.69897795  0.78763536  1
  As  As13  1  0.52818401  0.80102205  0.21236464  1
  As  As14  1  0.97181599  0.19897795  0.71236464  1
  As  As15  1  0.47181599  0.30102205  0.28763536  1
