# generated using pymatgen
data_ScAsO4
_symmetry_space_group_name_H-M   'P 1'
_cell_length_a   5.73231946
_cell_length_b   5.73236894
_cell_length_c   5.73236857
_cell_angle_alpha   106.96434377
_cell_angle_beta   106.95892908
_cell_angle_gamma   114.61656593
_symmetry_Int_Tables_number   1
_chemical_formula_structural   ScAsO4
_chemical_formula_sum   'Sc2 As2 O8'
_cell_volume   144.11720722
_cell_formula_units_Z   2
loop_
 _symmetry_equiv_pos_site_id
 _symmetry_equiv_pos_as_xyz
  1  'x, y, z'
loop_
 _atom_site_type_symbol
 _atom_site_label
 _atom_site_symmetry_multiplicity
 _atom_site_fract_x
 _atom_site_fract_y
 _atom_site_fract_z
 _atom_site_occupancy
  O  O0  1  0.18874300  0.62518587  0.93645806  1
  O  O1  1  0.18874300  0.25228495  0.56355713  1
  Sc  Sc2  1  0.12495924  0.87506543  0.24989381  1
  O  O3  1  0.25225534  0.18872075  0.06353459  1
  As  As4  1  0.37497545  0.62498057  0.74999488  1
  O  O5  1  0.81125894  0.37481514  0.06354395  1
  O  O6  1  0.62519199  0.18872260  0.43646939  1
  O  O7  1  0.74774757  0.81128054  0.93646703  1
  O  O8  1  0.81125894  0.74771500  0.43644380  1
  As  As9  1  0.62502359  0.37502049  0.25000310  1
  O  O10  1  0.37481054  0.81127799  0.56353256  1
  Sc  Sc11  1  0.87503240  0.12493067  0.75010173  1
