# generated using pymatgen
data_Sr2C(NCl)2
_symmetry_space_group_name_H-M   'P 1'
_cell_length_a   4.30281028
_cell_length_b   5.31327788
_cell_length_c   7.34312256
_cell_angle_alpha   97.14221033
_cell_angle_beta   90.00000000
_cell_angle_gamma   113.88555573
_symmetry_Int_Tables_number   1
_chemical_formula_structural   Sr2C(NCl)2
_chemical_formula_sum   'Sr2 C1 N2 Cl2'
_cell_volume   152.07513147
_cell_formula_units_Z   1
loop_
 _symmetry_equiv_pos_site_id
 _symmetry_equiv_pos_as_xyz
  1  'x, y, z'
loop_
 _atom_site_type_symbol
 _atom_site_label
 _atom_site_symmetry_multiplicity
 _atom_site_fract_x
 _atom_site_fract_y
 _atom_site_fract_z
 _atom_site_occupancy
  Sr  Sr0  1  0.68265047  0.36530093  0.27195522  1
  Sr  Sr1  1  0.31734953  0.63469907  0.72804478  1
  C  C2  1  0.00000000  0.00000000  0.50000000  1
  N  N3  1  0.11537668  0.23075335  0.44589558  1
  N  N4  1  0.88462332  0.76924665  0.55410442  1
  Cl  Cl5  1  0.37002159  0.74004317  0.14754492  1
  Cl  Cl6  1  0.62997841  0.25995683  0.85245508  1
