# generated using pymatgen
data_Sr3GaN3
_symmetry_space_group_name_H-M   'P 1'
_cell_length_a   7.62717985
_cell_length_b   7.62717985
_cell_length_c   5.44643338
_cell_angle_alpha   90.00000000
_cell_angle_beta   90.00000000
_cell_angle_gamma   119.99999996
_symmetry_Int_Tables_number   1
_chemical_formula_structural   Sr3GaN3
_chemical_formula_sum   'Sr6 Ga2 N6'
_cell_volume   274.39159361
_cell_formula_units_Z   2
loop_
 _symmetry_equiv_pos_site_id
 _symmetry_equiv_pos_as_xyz
  1  'x, y, z'
loop_
 _atom_site_type_symbol
 _atom_site_label
 _atom_site_symmetry_multiplicity
 _atom_site_fract_x
 _atom_site_fract_y
 _atom_site_fract_z
 _atom_site_occupancy
  N  N0  1  0.90490973  0.59843561  0.75000000  1
  N  N1  1  0.30647411  0.90490973  0.25000000  1
  N  N2  1  0.59843561  0.69352589  0.25000000  1
  N  N3  1  0.40156439  0.30647411  0.75000000  1
  N  N4  1  0.69352589  0.09509027  0.75000000  1
  N  N5  1  0.09509027  0.40156439  0.25000000  1
  Ga  Ga6  1  0.33333333  0.66666667  0.25000000  1
  Ga  Ga7  1  0.66666667  0.33333333  0.75000000  1
  Sr  Sr8  1  0.64223555  0.71340706  0.75000000  1
  Sr  Sr9  1  0.92882848  0.64223555  0.25000000  1
  Sr  Sr10  1  0.71340706  0.07117152  0.25000000  1
  Sr  Sr11  1  0.28659294  0.92882848  0.75000000  1
  Sr  Sr12  1  0.07117152  0.35776445  0.75000000  1
  Sr  Sr13  1  0.35776445  0.28659294  0.25000000  1
