# generated using pymatgen
data_MgGeN2
_symmetry_space_group_name_H-M   'P 1'
_cell_length_a   5.22588691
_cell_length_b   5.55121863
_cell_length_c   6.66769818
_cell_angle_alpha   90.00000000
_cell_angle_beta   90.00000000
_cell_angle_gamma   90.00000000
_symmetry_Int_Tables_number   1
_chemical_formula_structural   MgGeN2
_chemical_formula_sum   'Mg4 Ge4 N8'
_cell_volume   193.43019606
_cell_formula_units_Z   4
loop_
 _symmetry_equiv_pos_site_id
 _symmetry_equiv_pos_as_xyz
  1  'x, y, z'
loop_
 _atom_site_type_symbol
 _atom_site_label
 _atom_site_symmetry_multiplicity
 _atom_site_fract_x
 _atom_site_fract_y
 _atom_site_fract_z
 _atom_site_occupancy
  N  N0  1  0.40537245  0.60060576  0.85641130  1
  N  N1  1  0.90537245  0.39939424  0.14358870  1
  N  N2  1  0.90537245  0.89939424  0.35641130  1
  N  N3  1  0.40537245  0.10060576  0.64358870  1
  N  N4  1  0.36701380  0.56009587  0.39313048  1
  N  N5  1  0.36701380  0.06009587  0.10686952  1
  N  N6  1  0.86701380  0.93990413  0.89313048  1
  N  N7  1  0.86701380  0.43990413  0.60686952  1
  Mg  Mg8  1  0.00016270  0.58485017  0.87665072  1
  Mg  Mg9  1  0.50016270  0.91514983  0.37665072  1
  Mg  Mg10  1  0.50016270  0.41514983  0.12334928  1
  Mg  Mg11  1  0.00016270  0.08485017  0.62334928  1
  Ge  Ge12  1  0.00745105  0.07335079  0.12573573  1
  Ge  Ge13  1  0.50745105  0.92664921  0.87426427  1
  Ge  Ge14  1  0.50745105  0.42664921  0.62573573  1
  Ge  Ge15  1  0.00745105  0.57335079  0.37426427  1
