# generated using pymatgen
data_Cs2CoO3
_symmetry_space_group_name_H-M   'P 1'
_cell_length_a   6.10693634
_cell_length_b   7.08783599
_cell_length_c   13.99739226
_cell_angle_alpha   90.00000000
_cell_angle_beta   90.00000000
_cell_angle_gamma   115.51859548
_symmetry_Int_Tables_number   1
_chemical_formula_structural   Cs2CoO3
_chemical_formula_sum   'Cs8 Co4 O12'
_cell_volume   546.77062718
_cell_formula_units_Z   4
loop_
 _symmetry_equiv_pos_site_id
 _symmetry_equiv_pos_as_xyz
  1  'x, y, z'
loop_
 _atom_site_type_symbol
 _atom_site_label
 _atom_site_symmetry_multiplicity
 _atom_site_fract_x
 _atom_site_fract_y
 _atom_site_fract_z
 _atom_site_occupancy
  Cs  Cs0  1  0.05714937  0.11429874  0.85955108  1
  Cs  Cs1  1  0.94285063  0.88570126  0.14044892  1
  Cs  Cs2  1  0.44285063  0.88570126  0.35955108  1
  Cs  Cs3  1  0.55714937  0.11429874  0.64044892  1
  Cs  Cs4  1  0.85998711  0.71997523  0.57704988  1
  Cs  Cs5  1  0.14001289  0.28002477  0.42295012  1
  Cs  Cs6  1  0.64001289  0.28002477  0.07704988  1
  Cs  Cs7  1  0.35998711  0.71997523  0.92295012  1
  Co  Co8  1  0.23802533  0.47605166  0.67550016  1
  Co  Co9  1  0.76197467  0.52394834  0.32449984  1
  Co  Co10  1  0.26197467  0.52394834  0.17550016  1
  Co  Co11  1  0.73802533  0.47605166  0.82449984  1
  O  O12  1  0.32225411  0.64450821  0.57525775  1
  O  O13  1  0.67774589  0.35549179  0.42474225  1
  O  O14  1  0.17774589  0.35549179  0.07525775  1
  O  O15  1  0.82225411  0.64450821  0.92474225  1
  O  O16  1  0.10489443  0.20978885  0.64165303  1
  O  O17  1  0.89510557  0.79021115  0.35834697  1
  O  O18  1  0.39510557  0.79021115  0.14165303  1
  O  O19  1  0.60489443  0.20978885  0.85834697  1
  O  O20  1  0.01718496  0.53436893  0.75000000  1
  O  O21  1  0.48281504  0.46563107  0.25000000  1
  O  O22  1  0.98281504  0.46563107  0.25000000  1
  O  O23  1  0.51718496  0.53436893  0.75000000  1
