# generated using pymatgen
data_TbBi2BrO4
_symmetry_space_group_name_H-M   'P 1'
_cell_length_a   3.92492592
_cell_length_b   3.92495302
_cell_length_c   9.29140838
_cell_angle_alpha   90.00000000
_cell_angle_beta   90.00000000
_cell_angle_gamma   90.00000000
_symmetry_Int_Tables_number   1
_chemical_formula_structural   TbBi2BrO4
_chemical_formula_sum   'Tb1 Bi2 Br1 O4'
_cell_volume   143.13553835
_cell_formula_units_Z   1
loop_
 _symmetry_equiv_pos_site_id
 _symmetry_equiv_pos_as_xyz
  1  'x, y, z'
loop_
 _atom_site_type_symbol
 _atom_site_label
 _atom_site_symmetry_multiplicity
 _atom_site_fract_x
 _atom_site_fract_y
 _atom_site_fract_z
 _atom_site_occupancy
  O  O0  1  0.50000000  0.00000000  0.15037422  1
  O  O1  1  0.00000000  0.50000000  0.84962773  1
  Bi  Bi2  1  0.50000000  0.50000000  0.27058470  1
  O  O3  1  0.00000000  0.50000000  0.15037370  1
  O  O4  1  0.50000000  0.00000000  0.84962431  1
  Bi  Bi5  1  0.50000000  0.50000000  0.72941523  1
  Br  Br6  1  0.00000000  0.00000000  0.50000018  1
  Tb  Tb7  1  0.00000000  0.00000000  0.99999992  1
