# generated using pymatgen
data_HoGa2Pd
_symmetry_space_group_name_H-M   'P 1'
_cell_length_a   5.53391709
_cell_length_b   5.53391709
_cell_length_c   6.60490803
_cell_angle_alpha   90.00000000
_cell_angle_beta   90.00000000
_cell_angle_gamma   47.17374452
_symmetry_Int_Tables_number   1
_chemical_formula_structural   HoGa2Pd
_chemical_formula_sum   'Ho2 Ga4 Pd2'
_cell_volume   148.34875125
_cell_formula_units_Z   2
loop_
 _symmetry_equiv_pos_site_id
 _symmetry_equiv_pos_as_xyz
  1  'x, y, z'
loop_
 _atom_site_type_symbol
 _atom_site_label
 _atom_site_symmetry_multiplicity
 _atom_site_fract_x
 _atom_site_fract_y
 _atom_site_fract_z
 _atom_site_occupancy
  Ho  Ho0  1  0.41139107  0.41139107  0.25000000  1
  Ho  Ho1  1  0.58860793  0.58860793  0.75000000  1
  Ga  Ga2  1  0.12698670  0.12698670  0.05271237  1
  Ga  Ga3  1  0.87301230  0.87301230  0.55271337  1
  Ga  Ga4  1  0.87301230  0.87301230  0.94728763  1
  Ga  Ga5  1  0.12698670  0.12698670  0.44728663  1
  Pd  Pd6  1  0.69994282  0.69994282  0.25000000  1
  Pd  Pd7  1  0.30005718  0.30005718  0.75000000  1
