# generated using pymatgen
data_P3N5
_symmetry_space_group_name_H-M   'P 1'
_cell_length_a   5.04386443
_cell_length_b   5.04386420
_cell_length_c   8.83342997
_cell_angle_alpha   100.78334564
_cell_angle_beta   101.70837418
_cell_angle_gamma   108.47787645
_symmetry_Int_Tables_number   1
_chemical_formula_structural   P3N5
_chemical_formula_sum   'P6 N10'
_cell_volume   200.91411880
_cell_formula_units_Z   2
loop_
 _symmetry_equiv_pos_site_id
 _symmetry_equiv_pos_as_xyz
  1  'x, y, z'
loop_
 _atom_site_type_symbol
 _atom_site_label
 _atom_site_symmetry_multiplicity
 _atom_site_fract_x
 _atom_site_fract_y
 _atom_site_fract_z
 _atom_site_occupancy
  P  P0  1  0.23197695  0.48197695  0.75000000  1
  P  P1  1  0.37499813  0.66218851  0.44469829  1
  P  P2  1  0.28250978  0.06970017  0.94469829  1
  P  P3  1  0.62500187  0.33781149  0.55530171  1
  P  P4  1  0.71749022  0.93029983  0.05530171  1
  P  P5  1  0.76802305  0.51802305  0.25000000  1
  N  N6  1  0.61113643  0.50075587  0.40025688  1
  N  N7  1  0.30045144  0.22890841  0.80830632  1
  N  N8  1  0.38886357  0.49924413  0.59974312  1
  N  N9  1  0.60049899  0.21087955  0.09974312  1
  N  N10  1  0.92060209  0.49214513  0.69169368  1
  N  N11  1  0.69954856  0.77109159  0.19169368  1
  N  N12  1  0.50000000  0.00000000  0.50000000  1
  N  N13  1  0.39950101  0.78912045  0.90025688  1
  N  N14  1  0.07939791  0.50785487  0.30830632  1
  N  N15  1  0.00000000  0.00000000  0.00000000  1
