# generated using pymatgen
data_TaSn2
_symmetry_space_group_name_H-M   'P 1'
_cell_length_a   5.70538266
_cell_length_b   5.71066202
_cell_length_c   10.09217900
_cell_angle_alpha   81.88263951
_cell_angle_beta   73.58076255
_cell_angle_gamma   60.03056921
_symmetry_Int_Tables_number   1
_chemical_formula_structural   TaSn2
_chemical_formula_sum   'Ta4 Sn8'
_cell_volume   273.23626235
_cell_formula_units_Z   4
loop_
 _symmetry_equiv_pos_site_id
 _symmetry_equiv_pos_as_xyz
  1  'x, y, z'
loop_
 _atom_site_type_symbol
 _atom_site_label
 _atom_site_symmetry_multiplicity
 _atom_site_fract_x
 _atom_site_fract_y
 _atom_site_fract_z
 _atom_site_occupancy
  Ta  Ta0  1  0.25205125  0.75000000  0.49589750  1
  Ta  Ta1  1  0.00205125  0.25000000  0.99589750  1
  Ta  Ta2  1  0.74794875  0.25000000  0.50410250  1
  Ta  Ta3  1  0.99794875  0.75000000  0.00410250  1
  Sn  Sn4  1  0.70676576  0.58646848  0.25000000  1
  Sn  Sn5  1  0.95676576  0.08646848  0.75000000  1
  Sn  Sn6  1  0.29346193  0.25000000  0.41307614  1
  Sn  Sn7  1  0.04323424  0.91353152  0.25000000  1
  Sn  Sn8  1  0.54346193  0.75000000  0.91307614  1
  Sn  Sn9  1  0.45653807  0.25000000  0.08692386  1
  Sn  Sn10  1  0.29323424  0.41353152  0.75000000  1
  Sn  Sn11  1  0.70653807  0.75000000  0.58692386  1
