# generated using pymatgen
data_Rb2Cu(BrCl)2
_symmetry_space_group_name_H-M   'P 1'
_cell_length_a   7.31412388
_cell_length_b   7.31605665
_cell_length_c   9.05374822
_cell_angle_alpha   90.00000000
_cell_angle_beta   113.82395920
_cell_angle_gamma   90.00000000
_symmetry_Int_Tables_number   1
_chemical_formula_structural   Rb2Cu(BrCl)2
_chemical_formula_sum   'Rb4 Cu2 Br4 Cl4'
_cell_volume   443.18963081
_cell_formula_units_Z   2
loop_
 _symmetry_equiv_pos_site_id
 _symmetry_equiv_pos_as_xyz
  1  'x, y, z'
loop_
 _atom_site_type_symbol
 _atom_site_label
 _atom_site_symmetry_multiplicity
 _atom_site_fract_x
 _atom_site_fract_y
 _atom_site_fract_z
 _atom_site_occupancy
  Rb  Rb0  1  0.13316807  0.50000000  0.26633613  1
  Rb  Rb1  1  0.63316807  0.00000000  0.26633613  1
  Rb  Rb2  1  0.86683193  0.50000000  0.73366387  1
  Rb  Rb3  1  0.36683193  0.00000000  0.73366387  1
  Cu  Cu4  1  0.00000000  0.00000000  0.00000000  1
  Cu  Cu5  1  0.50000000  0.50000000  0.00000000  1
  Br  Br6  1  0.15455769  0.00000000  0.30911539  1
  Br  Br7  1  0.84544231  0.00000000  0.69088461  1
  Br  Br8  1  0.65455769  0.50000000  0.30911539  1
  Br  Br9  1  0.34544231  0.50000000  0.69088461  1
  Cl  Cl10  1  0.78140144  0.21857961  0.00000000  1
  Cl  Cl11  1  0.21859856  0.78142039  1.00000000  1
  Cl  Cl12  1  0.28140144  0.28142039  0.00000000  1
  Cl  Cl13  1  0.71859856  0.71857961  1.00000000  1
