# generated using pymatgen
data_CsNdO2
_symmetry_space_group_name_H-M   'P 1'
_cell_length_a   3.70588771
_cell_length_b   3.70588746
_cell_length_c   13.87653205
_cell_angle_alpha   90.00000000
_cell_angle_beta   90.00000000
_cell_angle_gamma   120.00000218
_symmetry_Int_Tables_number   1
_chemical_formula_structural   CsNdO2
_chemical_formula_sum   'Cs2 Nd2 O4'
_cell_volume   165.04259641
_cell_formula_units_Z   2
loop_
 _symmetry_equiv_pos_site_id
 _symmetry_equiv_pos_as_xyz
  1  'x, y, z'
loop_
 _atom_site_type_symbol
 _atom_site_label
 _atom_site_symmetry_multiplicity
 _atom_site_fract_x
 _atom_site_fract_y
 _atom_site_fract_z
 _atom_site_occupancy
  O  O0  1  0.33333300  0.66666700  0.08510911  1
  O  O1  1  0.66666700  0.33333300  0.91488995  1
  Nd  Nd2  1  0.00000000  0.00000000  0.50000095  1
  Cs  Cs3  1  0.66666700  0.33333300  0.25000051  1
  O  O4  1  0.33333300  0.66666700  0.41489039  1
  O  O5  1  0.66666700  0.33333300  0.58511016  1
  Cs  Cs6  1  0.33333300  0.66666700  0.74999968  1
  Nd  Nd7  1  0.00000000  0.00000000  0.99999925  1
