# generated using pymatgen
data_SrI2
_symmetry_space_group_name_H-M   'P 1'
_cell_length_a   5.01549569
_cell_length_b   8.50097665
_cell_length_c   12.53623295
_cell_angle_alpha   90.00000000
_cell_angle_beta   90.00000000
_cell_angle_gamma   90.00000000
_symmetry_Int_Tables_number   1
_chemical_formula_structural   SrI2
_chemical_formula_sum   'Sr4 I8'
_cell_volume   534.50249708
_cell_formula_units_Z   4
loop_
 _symmetry_equiv_pos_site_id
 _symmetry_equiv_pos_as_xyz
  1  'x, y, z'
loop_
 _atom_site_type_symbol
 _atom_site_label
 _atom_site_symmetry_multiplicity
 _atom_site_fract_x
 _atom_site_fract_y
 _atom_site_fract_z
 _atom_site_occupancy
  Sr  Sr0  1  0.25000000  0.13190440  0.17017540  1
  Sr  Sr1  1  0.75000000  0.63190440  0.32982460  1
  Sr  Sr2  1  0.25000000  0.36809560  0.67017540  1
  Sr  Sr3  1  0.75000000  0.86809560  0.82982460  1
  I  I4  1  0.25000000  0.37697602  0.39184654  1
  I  I5  1  0.25000000  0.88056317  0.37753561  1
  I  I6  1  0.75000000  0.38056317  0.12246439  1
  I  I7  1  0.25000000  0.61943683  0.87753561  1
  I  I8  1  0.25000000  0.12302398  0.89184654  1
  I  I9  1  0.75000000  0.87697602  0.10815346  1
  I  I10  1  0.75000000  0.11943683  0.62246439  1
  I  I11  1  0.75000000  0.62302398  0.60815346  1
