# generated using pymatgen
data_TlF
_symmetry_space_group_name_H-M   'P 1'
_cell_length_a   5.23739053
_cell_length_b   5.81735212
_cell_length_c   6.38638927
_cell_angle_alpha   90.00000000
_cell_angle_beta   90.00000000
_cell_angle_gamma   90.00000000
_symmetry_Int_Tables_number   1
_chemical_formula_structural   TlF
_chemical_formula_sum   'Tl4 F4'
_cell_volume   194.57887913
_cell_formula_units_Z   4
loop_
 _symmetry_equiv_pos_site_id
 _symmetry_equiv_pos_as_xyz
  1  'x, y, z'
loop_
 _atom_site_type_symbol
 _atom_site_label
 _atom_site_symmetry_multiplicity
 _atom_site_fract_x
 _atom_site_fract_y
 _atom_site_fract_z
 _atom_site_occupancy
  F  F0  1  0.25000000  0.57640883  0.14262253  1
  F  F1  1  0.75000000  0.42359117  0.85737747  1
  F  F2  1  0.25000000  0.07640883  0.85737747  1
  F  F3  1  0.75000000  0.92359117  0.14262253  1
  Tl  Tl4  1  0.25000000  0.50217257  0.75776678  1
  Tl  Tl5  1  0.75000000  0.49782743  0.24223322  1
  Tl  Tl6  1  0.25000000  0.00217257  0.24223322  1
  Tl  Tl7  1  0.75000000  0.99782743  0.75776678  1
