# generated using pymatgen
data_MoF6
_symmetry_space_group_name_H-M   'P 1'
_cell_length_a   5.28644719
_cell_length_b   9.08492831
_cell_length_c   10.00207038
_cell_angle_alpha   90.00000000
_cell_angle_beta   90.00000000
_cell_angle_gamma   90.00000000
_symmetry_Int_Tables_number   1
_chemical_formula_structural   MoF6
_chemical_formula_sum   'Mo4 F24'
_cell_volume   480.36937148
_cell_formula_units_Z   4
loop_
 _symmetry_equiv_pos_site_id
 _symmetry_equiv_pos_as_xyz
  1  'x, y, z'
loop_
 _atom_site_type_symbol
 _atom_site_label
 _atom_site_symmetry_multiplicity
 _atom_site_fract_x
 _atom_site_fract_y
 _atom_site_fract_z
 _atom_site_occupancy
  F  F0  1  0.26371037  0.89511020  0.47864172  1
  F  F1  1  0.76371037  0.10488980  0.02135828  1
  F  F2  1  0.73628963  0.39511020  0.52135828  1
  F  F3  1  0.23628963  0.60488980  0.97864172  1
  F  F4  1  0.62712020  0.25000000  0.23863854  1
  F  F5  1  0.12712020  0.75000000  0.26136146  1
  F  F6  1  0.37287980  0.75000000  0.76136146  1
  F  F7  1  0.87287980  0.25000000  0.73863854  1
  F  F8  1  0.05961844  0.39546936  0.23433557  1
  F  F9  1  0.55961844  0.60453064  0.26566443  1
  F  F10  1  0.94038156  0.89546936  0.76566443  1
  F  F11  1  0.44038156  0.10453064  0.73433557  1
  F  F12  1  0.94038156  0.60453064  0.76566443  1
  F  F13  1  0.44038156  0.39546936  0.73433557  1
  F  F14  1  0.05961844  0.10453064  0.23433557  1
  F  F15  1  0.55961844  0.89546936  0.26566443  1
  F  F16  1  0.19689789  0.25000000  0.01735243  1
  F  F17  1  0.69689789  0.75000000  0.48264757  1
  F  F18  1  0.80310211  0.75000000  0.98264757  1
  F  F19  1  0.30310211  0.25000000  0.51735243  1
  F  F20  1  0.76371037  0.39511020  0.02135828  1
  F  F21  1  0.26371037  0.60488980  0.47864172  1
  F  F22  1  0.23628963  0.89511020  0.97864172  1
  F  F23  1  0.73628963  0.10488980  0.52135828  1
  Mo  Mo24  1  0.58777710  0.25000000  0.62795123  1
  Mo  Mo25  1  0.08777710  0.75000000  0.87204877  1
  Mo  Mo26  1  0.41222290  0.75000000  0.37204877  1
  Mo  Mo27  1  0.91222290  0.25000000  0.12795123  1
