# generated using pymatgen
data_ReO3F
_symmetry_space_group_name_H-M   'P 1'
_cell_length_a   6.32300804
_cell_length_b   6.96133392
_cell_length_c   10.92125402
_cell_angle_alpha   89.75888237
_cell_angle_beta   90.00000000
_cell_angle_gamma   90.00000000
_symmetry_Int_Tables_number   1
_chemical_formula_structural   ReO3F
_chemical_formula_sum   'Re6 O18 F6'
_cell_volume   480.71188923
_cell_formula_units_Z   6
loop_
 _symmetry_equiv_pos_site_id
 _symmetry_equiv_pos_as_xyz
  1  'x, y, z'
loop_
 _atom_site_type_symbol
 _atom_site_label
 _atom_site_symmetry_multiplicity
 _atom_site_fract_x
 _atom_site_fract_y
 _atom_site_fract_z
 _atom_site_occupancy
  Re  Re0  1  0.96105992  0.00000000  0.75000000  1
  Re  Re1  1  0.72172407  0.33472047  0.14318855  1
  Re  Re2  1  0.03894008  0.00000000  0.25000000  1
  Re  Re3  1  0.27827593  0.33472047  0.64318855  1
  Re  Re4  1  0.27827593  0.66527953  0.85681145  1
  Re  Re5  1  0.72172407  0.66527953  0.35681145  1
  O  O6  1  0.79421213  0.85860391  0.66638114  1
  O  O7  1  0.23724483  0.52109598  0.98165763  1
  O  O8  1  0.20578787  0.14139609  0.33361886  1
  O  O9  1  0.04200906  0.83273741  0.88159191  1
  O  O10  1  0.51269207  0.19412033  0.10087784  1
  O  O11  1  0.79421213  0.14139609  0.83361886  1
  O  O12  1  0.43402430  0.50000000  0.75000000  1
  O  O13  1  0.95799094  0.16726259  0.11840809  1
  O  O14  1  0.76275517  0.47890402  0.01834237  1
  O  O15  1  0.51269207  0.80587967  0.39912216  1
  O  O16  1  0.04200906  0.16726259  0.61840809  1
  O  O17  1  0.48730793  0.80587967  0.89912216  1
  O  O18  1  0.56597570  0.50000000  0.25000000  1
  O  O19  1  0.23724483  0.47890402  0.51834237  1
  O  O20  1  0.20578787  0.85860391  0.16638114  1
  O  O21  1  0.95799094  0.83273741  0.38159191  1
  O  O22  1  0.76275517  0.52109598  0.48165763  1
  O  O23  1  0.48730793  0.19412033  0.60087784  1
  F  F24  1  0.05198071  0.50000000  0.75000000  1
  F  F25  1  0.94801929  0.50000000  0.25000000  1
  F  F26  1  0.23288067  0.16631273  0.80994293  1
  F  F27  1  0.76711933  0.83368727  0.19005707  1
  F  F28  1  0.23288067  0.83368727  0.69005707  1
  F  F29  1  0.76711933  0.16631273  0.30994293  1
