# generated using pymatgen
data_Cs3BAs2
_symmetry_space_group_name_H-M   'P 1'
_cell_length_a   7.15420126
_cell_length_b   7.15420154
_cell_length_c   10.21724922
_cell_angle_alpha   75.68281570
_cell_angle_beta   75.68281512
_cell_angle_gamma   89.06095792
_symmetry_Int_Tables_number   1
_chemical_formula_structural   Cs3BAs2
_chemical_formula_sum   'Cs6 B2 As4'
_cell_volume   490.40773984
_cell_formula_units_Z   2
loop_
 _symmetry_equiv_pos_site_id
 _symmetry_equiv_pos_as_xyz
  1  'x, y, z'
loop_
 _atom_site_type_symbol
 _atom_site_label
 _atom_site_symmetry_multiplicity
 _atom_site_fract_x
 _atom_site_fract_y
 _atom_site_fract_z
 _atom_site_occupancy
  Cs  Cs0  1  0.25780306  0.15180075  0.01962919  1
  Cs  Cs1  1  0.34487429  0.65512571  0.75000000  1
  Cs  Cs2  1  0.74219694  0.84819925  0.98037081  1
  Cs  Cs3  1  0.65512571  0.34487429  0.25000000  1
  Cs  Cs4  1  0.15180075  0.25780306  0.51962919  1
  Cs  Cs5  1  0.84819925  0.74219694  0.48037081  1
  B  B6  1  0.71357607  0.28642393  0.75000000  1
  B  B7  1  0.28642393  0.71357607  0.25000000  1
  As  As8  1  0.40488861  0.83729396  0.35447360  1
  As  As9  1  0.83729396  0.40488861  0.85447360  1
  As  As10  1  0.16270604  0.59511139  0.14552640  1
  As  As11  1  0.59511139  0.16270604  0.64552640  1
