# generated using pymatgen
data_Li4UO5
_symmetry_space_group_name_H-M   'P 1'
_cell_length_a   4.46163014
_cell_length_b   5.29196264
_cell_length_c   5.29196264
_cell_angle_alpha   79.76403301
_cell_angle_beta   65.06765649
_cell_angle_gamma   65.06765643
_symmetry_Int_Tables_number   1
_chemical_formula_structural   Li4UO5
_chemical_formula_sum   'Li4 U1 O5'
_cell_volume   102.74390322
_cell_formula_units_Z   1
loop_
 _symmetry_equiv_pos_site_id
 _symmetry_equiv_pos_as_xyz
  1  'x, y, z'
loop_
 _atom_site_type_symbol
 _atom_site_label
 _atom_site_symmetry_multiplicity
 _atom_site_fract_x
 _atom_site_fract_y
 _atom_site_fract_z
 _atom_site_occupancy
  Li  Li0  1  0.81354318  0.77017509  0.60273856  1
  Li  Li1  1  0.18645682  0.22982491  0.39726144  1
  Li  Li2  1  0.41628173  0.39726144  0.77017509  1
  Li  Li3  1  0.58371827  0.60273856  0.22982491  1
  O  O4  1  0.91307770  0.37347361  0.80037099  1
  O  O5  1  0.71344869  0.19962901  0.37347361  1
  O  O6  1  0.50000000  0.00000000  0.00000000  1
  O  O7  1  0.08692230  0.62652639  0.19962901  1
  O  O8  1  0.28655131  0.80037099  0.62652639  1
  U  U9  1  0.00000000  0.00000000  0.00000000  1
