# generated using pymatgen
data_Rb3NbO8
_symmetry_space_group_name_H-M   'P 1'
_cell_length_a   6.55767838
_cell_length_b   6.55767838
_cell_length_c   6.55767838
_cell_angle_alpha   101.98867023
_cell_angle_beta   113.33714600
_cell_angle_gamma   113.33714601
_symmetry_Int_Tables_number   1
_chemical_formula_structural   Rb3NbO8
_chemical_formula_sum   'Rb3 Nb1 O8'
_cell_volume   214.35854355
_cell_formula_units_Z   1
loop_
 _symmetry_equiv_pos_site_id
 _symmetry_equiv_pos_as_xyz
  1  'x, y, z'
loop_
 _atom_site_type_symbol
 _atom_site_label
 _atom_site_symmetry_multiplicity
 _atom_site_fract_x
 _atom_site_fract_y
 _atom_site_fract_z
 _atom_site_occupancy
  O  O0  1  0.27189343  0.95418447  0.95418447  1
  O  O1  1  0.00000000  0.04581553  0.31770895  1
  O  O2  1  0.00000000  0.31770895  0.04581553  1
  O  O3  1  0.72810657  0.68229105  0.68229105  1
  O  O4  1  0.59033713  0.77444493  0.77444493  1
  O  O5  1  0.00000000  0.22555507  0.81589220  1
  O  O6  1  0.00000000  0.81589220  0.22555507  1
  O  O7  1  0.40966287  0.18410780  0.18410780  1
  Rb  Rb8  1  0.00000000  0.50000000  0.50000000  1
  Rb  Rb9  1  0.50000000  0.75000000  0.25000000  1
  Rb  Rb10  1  0.50000000  0.25000000  0.75000000  1
  Nb  Nb11  1  0.00000000  0.00000000  0.00000000  1
