# generated using pymatgen
data_K3PO4
_symmetry_space_group_name_H-M   'P 1'
_cell_length_a   6.01276839
_cell_length_b   8.21563660
_cell_length_c   11.37102057
_cell_angle_alpha   90.00000000
_cell_angle_beta   90.00000000
_cell_angle_gamma   90.00000000
_symmetry_Int_Tables_number   1
_chemical_formula_structural   K3PO4
_chemical_formula_sum   'K12 P4 O16'
_cell_volume   561.71386185
_cell_formula_units_Z   4
loop_
 _symmetry_equiv_pos_site_id
 _symmetry_equiv_pos_as_xyz
  1  'x, y, z'
loop_
 _atom_site_type_symbol
 _atom_site_label
 _atom_site_symmetry_multiplicity
 _atom_site_fract_x
 _atom_site_fract_y
 _atom_site_fract_z
 _atom_site_occupancy
  K  K0  1  0.80502036  0.49112344  0.35613681  1
  K  K1  1  0.19497964  0.99112344  0.64386319  1
  K  K2  1  0.30502036  0.50887656  0.14386319  1
  K  K3  1  0.13879707  0.25000000  0.92953797  1
  K  K4  1  0.63879707  0.75000000  0.57046203  1
  K  K5  1  0.86120293  0.75000000  0.07046203  1
  K  K6  1  0.30502036  0.99112344  0.14386319  1
  K  K7  1  0.36120293  0.25000000  0.42953797  1
  K  K8  1  0.69497964  0.49112344  0.85613681  1
  K  K9  1  0.19497964  0.50887656  0.64386319  1
  K  K10  1  0.80502036  0.00887656  0.35613681  1
  K  K11  1  0.69497964  0.00887656  0.85613681  1
  P  P12  1  0.78170294  0.25000000  0.61581312  1
  P  P13  1  0.71829706  0.25000000  0.11581312  1
  P  P14  1  0.21829706  0.75000000  0.38418688  1
  P  P15  1  0.28170294  0.75000000  0.88418688  1
  O  O16  1  0.05228975  0.75000000  0.49095719  1
  O  O17  1  0.63372751  0.09376659  0.61080617  1
  O  O18  1  0.13372751  0.90623341  0.88919383  1
  O  O19  1  0.86627249  0.40623341  0.11080617  1
  O  O20  1  0.13372751  0.59376659  0.88919383  1
  O  O21  1  0.57832518  0.25000000  0.23206573  1
  O  O22  1  0.36627249  0.90623341  0.38919383  1
  O  O23  1  0.44771025  0.75000000  0.99095719  1
  O  O24  1  0.63372751  0.40623341  0.61080617  1
  O  O25  1  0.92167482  0.25000000  0.73206573  1
  O  O26  1  0.55228975  0.25000000  0.00904281  1
  O  O27  1  0.86627249  0.09376659  0.11080617  1
  O  O28  1  0.36627249  0.59376659  0.38919383  1
  O  O29  1  0.94771025  0.25000000  0.50904281  1
  O  O30  1  0.07832518  0.75000000  0.26793427  1
  O  O31  1  0.42167482  0.75000000  0.76793427  1
