# generated using pymatgen
data_TeF4
_symmetry_space_group_name_H-M   'P 1'
_cell_length_a   5.57553256
_cell_length_b   6.22214687
_cell_length_c   9.83374310
_cell_angle_alpha   90.00000000
_cell_angle_beta   90.00000000
_cell_angle_gamma   90.00000000
_symmetry_Int_Tables_number   1
_chemical_formula_structural   TeF4
_chemical_formula_sum   'Te4 F16'
_cell_volume   341.15007646
_cell_formula_units_Z   4
loop_
 _symmetry_equiv_pos_site_id
 _symmetry_equiv_pos_as_xyz
  1  'x, y, z'
loop_
 _atom_site_type_symbol
 _atom_site_label
 _atom_site_symmetry_multiplicity
 _atom_site_fract_x
 _atom_site_fract_y
 _atom_site_fract_z
 _atom_site_occupancy
  Te  Te0  1  0.15430149  0.99570480  0.62470935  1
  Te  Te1  1  0.34569851  0.00429520  0.12470935  1
  Te  Te2  1  0.65430149  0.50429520  0.37529065  1
  Te  Te3  1  0.84569851  0.49570480  0.87529065  1
  F  F4  1  0.70074649  0.23769242  0.94584808  1
  F  F5  1  0.08520005  0.84330586  0.04385131  1
  F  F6  1  0.58520005  0.65669414  0.95614869  1
  F  F7  1  0.43770112  0.71393086  0.25001569  1
  F  F8  1  0.14056785  0.03546031  0.27529717  1
  F  F9  1  0.35943215  0.96453969  0.77529717  1
  F  F10  1  0.64056785  0.46453969  0.72470283  1
  F  F11  1  0.41479995  0.15669414  0.54385131  1
  F  F12  1  0.06229888  0.28606914  0.75001569  1
  F  F13  1  0.85943215  0.53546031  0.22470283  1
  F  F14  1  0.91479995  0.34330586  0.45614869  1
  F  F15  1  0.29925351  0.73769242  0.55415192  1
  F  F16  1  0.56229888  0.21393086  0.24998431  1
  F  F17  1  0.79925351  0.76230758  0.44584808  1
  F  F18  1  0.93770112  0.78606914  0.74998431  1
  F  F19  1  0.20074649  0.26230758  0.05415192  1
