# generated using pymatgen
data_BaZrS3
_symmetry_space_group_name_H-M   'P 1'
_cell_length_a   7.08830825
_cell_length_b   7.15495986
_cell_length_c   10.07677713
_cell_angle_alpha   90.00000000
_cell_angle_beta   90.00000000
_cell_angle_gamma   90.00000000
_symmetry_Int_Tables_number   1
_chemical_formula_structural   BaZrS3
_chemical_formula_sum   'Ba4 Zr4 S12'
_cell_volume   511.05948204
_cell_formula_units_Z   4
loop_
 _symmetry_equiv_pos_site_id
 _symmetry_equiv_pos_as_xyz
  1  'x, y, z'
loop_
 _atom_site_type_symbol
 _atom_site_label
 _atom_site_symmetry_multiplicity
 _atom_site_fract_x
 _atom_site_fract_y
 _atom_site_fract_z
 _atom_site_occupancy
  Ba  Ba0  1  0.00860345  0.04274115  0.25000000  1
  Ba  Ba1  1  0.50860345  0.45725885  0.75000000  1
  Ba  Ba2  1  0.49139655  0.54274115  0.25000000  1
  Ba  Ba3  1  0.99139655  0.95725885  0.75000000  1
  Zr  Zr4  1  0.50000000  0.00000000  0.00000000  1
  Zr  Zr5  1  0.00000000  0.50000000  0.00000000  1
  Zr  Zr6  1  0.00000000  0.50000000  0.50000000  1
  Zr  Zr7  1  0.50000000  0.00000000  0.50000000  1
  S  S8  1  0.56090807  0.99382875  0.25000000  1
  S  S9  1  0.06090807  0.50617125  0.75000000  1
  S  S10  1  0.93909193  0.49382875  0.25000000  1
  S  S11  1  0.43909193  0.00617125  0.75000000  1
  S  S12  1  0.78662288  0.21318332  0.96821110  1
  S  S13  1  0.28662288  0.28681668  0.03178890  1
  S  S14  1  0.71337712  0.71318332  0.53178890  1
  S  S15  1  0.21337712  0.78681668  0.46821110  1
  S  S16  1  0.21337712  0.78681668  0.03178890  1
  S  S17  1  0.71337712  0.71318332  0.96821110  1
  S  S18  1  0.28662288  0.28681668  0.46821110  1
  S  S19  1  0.78662288  0.21318332  0.53178890  1
