# generated using pymatgen
data_VF4
_symmetry_space_group_name_H-M   'P 1'
_cell_length_a   5.24929500
_cell_length_b   5.43011561
_cell_length_c   5.74528938
_cell_angle_alpha   118.28529060
_cell_angle_beta   90.00000000
_cell_angle_gamma   90.00000000
_symmetry_Int_Tables_number   1
_chemical_formula_structural   VF4
_chemical_formula_sum   'V2 F8'
_cell_volume   144.21159172
_cell_formula_units_Z   2
loop_
 _symmetry_equiv_pos_site_id
 _symmetry_equiv_pos_as_xyz
  1  'x, y, z'
loop_
 _atom_site_type_symbol
 _atom_site_label
 _atom_site_symmetry_multiplicity
 _atom_site_fract_x
 _atom_site_fract_y
 _atom_site_fract_z
 _atom_site_occupancy
  F  F0  1  0.80540222  0.33770592  0.07155340  1
  F  F1  1  0.30540222  0.16229408  0.92844660  1
  F  F2  1  0.58603806  0.34852096  0.66319092  1
  F  F3  1  0.08603806  0.15147904  0.33680908  1
  F  F4  1  0.41396194  0.65147904  0.33680908  1
  F  F5  1  0.91396194  0.84852096  0.66319092  1
  F  F6  1  0.69459778  0.83770592  0.07155340  1
  F  F7  1  0.19459778  0.66229408  0.92844660  1
  V  V8  1  0.50000000  0.50000000  0.00000000  1
  V  V9  1  0.00000000  0.00000000  0.00000000  1
