# generated using pymatgen
data_KMnF3
_symmetry_space_group_name_H-M   'P 1'
_cell_length_a   6.00927152
_cell_length_b   6.03058313
_cell_length_c   8.49761660
_cell_angle_alpha   90.00000000
_cell_angle_beta   90.00000000
_cell_angle_gamma   90.00000000
_symmetry_Int_Tables_number   1
_chemical_formula_structural   KMnF3
_chemical_formula_sum   'K4 Mn4 F12'
_cell_volume   307.94862433
_cell_formula_units_Z   4
loop_
 _symmetry_equiv_pos_site_id
 _symmetry_equiv_pos_as_xyz
  1  'x, y, z'
loop_
 _atom_site_type_symbol
 _atom_site_label
 _atom_site_symmetry_multiplicity
 _atom_site_fract_x
 _atom_site_fract_y
 _atom_site_fract_z
 _atom_site_occupancy
  F  F0  1  0.73455588  0.26536089  0.52273963  1
  F  F1  1  0.23455588  0.23463911  0.97726037  1
  F  F2  1  0.76544412  0.76536089  0.47726037  1
  F  F3  1  0.26544412  0.73463911  0.02273963  1
  F  F4  1  0.26544412  0.73463911  0.47726037  1
  F  F5  1  0.76544412  0.76536089  0.02273963  1
  F  F6  1  0.23455588  0.23463911  0.52273963  1
  F  F7  1  0.73455588  0.26536089  0.97726037  1
  F  F8  1  0.50362701  0.95599668  0.75000000  1
  F  F9  1  0.00362701  0.54400332  0.75000000  1
  F  F10  1  0.99637299  0.45599668  0.25000000  1
  F  F11  1  0.49637299  0.04400332  0.25000000  1
  K  K12  1  0.99066687  0.00198098  0.75000000  1
  K  K13  1  0.49066687  0.49801902  0.75000000  1
  K  K14  1  0.50933313  0.50198098  0.25000000  1
  K  K15  1  0.00933313  0.99801902  0.25000000  1
  Mn  Mn16  1  0.00000000  0.50000000  0.00000000  1
  Mn  Mn17  1  0.50000000  0.00000000  0.50000000  1
  Mn  Mn18  1  0.50000000  0.00000000  0.00000000  1
  Mn  Mn19  1  0.00000000  0.50000000  0.50000000  1
