# generated using pymatgen
data_NbCrF6
_symmetry_space_group_name_H-M   'P 1'
_cell_length_a   5.76705039
_cell_length_b   5.76705033
_cell_length_c   5.96407264
_cell_angle_alpha   118.91309927
_cell_angle_beta   118.91309901
_cell_angle_gamma   89.99999709
_symmetry_Int_Tables_number   1
_chemical_formula_structural   NbCrF6
_chemical_formula_sum   'Nb1 Cr1 F6'
_cell_volume   144.74576458
_cell_formula_units_Z   1
loop_
 _symmetry_equiv_pos_site_id
 _symmetry_equiv_pos_as_xyz
  1  'x, y, z'
loop_
 _atom_site_type_symbol
 _atom_site_label
 _atom_site_symmetry_multiplicity
 _atom_site_fract_x
 _atom_site_fract_y
 _atom_site_fract_z
 _atom_site_occupancy
  Nb  Nb0  1  0.00000000  0.00000000  0.00000000  1
  Cr  Cr1  1  0.50000000  0.50000000  0.00000000  1
  F  F2  1  0.77677167  0.77677167  0.55354234  1
  F  F3  1  0.22322833  0.22322833  0.44645766  1
  F  F4  1  0.25151554  0.25151554  1.00000000  1
  F  F5  1  0.74848446  0.25151554  0.00000000  1
  F  F6  1  0.25151554  0.74848446  1.00000000  1
  F  F7  1  0.74848446  0.74848446  0.00000000  1
