# generated using pymatgen
data_Pd3S
_symmetry_space_group_name_H-M   'P 1'
_cell_length_a   4.61511126
_cell_length_b   4.61511069
_cell_length_c   6.37443035
_cell_angle_alpha   90.00000000
_cell_angle_beta   90.00000000
_cell_angle_gamma   107.99141326
_symmetry_Int_Tables_number   1
_chemical_formula_structural   Pd3S
_chemical_formula_sum   'Pd6 S2'
_cell_volume   129.13178223
_cell_formula_units_Z   2
loop_
 _symmetry_equiv_pos_site_id
 _symmetry_equiv_pos_as_xyz
  1  'x, y, z'
loop_
 _atom_site_type_symbol
 _atom_site_label
 _atom_site_symmetry_multiplicity
 _atom_site_fract_x
 _atom_site_fract_y
 _atom_site_fract_z
 _atom_site_occupancy
  Pd  Pd0  1  0.14971159  0.54402282  0.75000000  1
  Pd  Pd1  1  0.54152248  0.15268254  0.75000000  1
  Pd  Pd2  1  0.99871410  0.00128590  0.00000000  1
  Pd  Pd3  1  0.99871410  0.00128590  0.50000000  1
  Pd  Pd4  1  0.45597718  0.85028841  0.25000000  1
  Pd  Pd5  1  0.84731746  0.45847752  0.25000000  1
  S  S6  1  0.30938337  0.31234027  0.25000000  1
  S  S7  1  0.68765973  0.69061663  0.75000000  1
