# generated using pymatgen
data_K2P3
_symmetry_space_group_name_H-M   'P 1'
_cell_length_a   8.40045833
_cell_length_b   8.57298172
_cell_length_c   10.35578805
_cell_angle_alpha   78.53816850
_cell_angle_beta   66.07174668
_cell_angle_gamma   60.66349975
_symmetry_Int_Tables_number   1
_chemical_formula_structural   K2P3
_chemical_formula_sum   'K8 P12'
_cell_volume   594.27235370
_cell_formula_units_Z   4
loop_
 _symmetry_equiv_pos_site_id
 _symmetry_equiv_pos_as_xyz
  1  'x, y, z'
loop_
 _atom_site_type_symbol
 _atom_site_label
 _atom_site_symmetry_multiplicity
 _atom_site_fract_x
 _atom_site_fract_y
 _atom_site_fract_z
 _atom_site_occupancy
  K  K0  1  0.24958778  0.25000000  0.50082444  1
  K  K1  1  0.50041222  0.25000000  0.99917556  1
  K  K2  1  0.98831646  0.75000000  0.02336708  1
  K  K3  1  0.26168354  0.75000000  0.47663292  1
  K  K4  1  0.73831646  0.25000000  0.52336708  1
  K  K5  1  0.49958778  0.75000000  0.00082444  1
  K  K6  1  0.75041222  0.75000000  0.49917556  1
  K  K7  1  0.01168354  0.25000000  0.97663292  1
  P  P8  1  0.41974938  0.60475300  0.75442018  1
  P  P9  1  0.01974574  0.96050851  0.25000000  1
  P  P10  1  0.26974574  0.46050851  0.75000000  1
  P  P11  1  0.17416956  0.10475300  0.24557982  1
  P  P12  1  0.98025426  0.03949149  0.75000000  1
  P  P13  1  0.27892256  0.89524700  0.74557982  1
  P  P14  1  0.72107744  0.10475300  0.25442018  1
  P  P15  1  0.73025426  0.53949149  0.25000000  1
  P  P16  1  0.97549762  0.60475300  0.74557982  1
  P  P17  1  0.58025062  0.39524700  0.24557982  1
  P  P18  1  0.82583044  0.89524700  0.75442018  1
  P  P19  1  0.02450238  0.39524700  0.25442018  1
