# generated using pymatgen
data_Sr2Fe2S2OF2
_symmetry_space_group_name_H-M   'P 1'
_cell_length_a   4.10445676
_cell_length_b   4.10650350
_cell_length_c   9.55482041
_cell_angle_alpha   102.41264079
_cell_angle_beta   102.40851351
_cell_angle_gamma   89.98696152
_symmetry_Int_Tables_number   1
_chemical_formula_structural   Sr2Fe2S2OF2
_chemical_formula_sum   'Sr2 Fe2 S2 O1 F2'
_cell_volume   153.42921582
_cell_formula_units_Z   1
loop_
 _symmetry_equiv_pos_site_id
 _symmetry_equiv_pos_as_xyz
  1  'x, y, z'
loop_
 _atom_site_type_symbol
 _atom_site_label
 _atom_site_symmetry_multiplicity
 _atom_site_fract_x
 _atom_site_fract_y
 _atom_site_fract_z
 _atom_site_occupancy
  Sr  Sr0  1  0.32824405  0.32823253  0.65646113  1
  Sr  Sr1  1  0.67174614  0.67175073  0.34354966  1
  Fe  Fe2  1  0.00002938  0.50000331  0.99996987  1
  Fe  Fe3  1  0.49993094  0.00000482  0.99996559  1
  S  S4  1  0.09451772  0.09452733  0.18910446  1
  S  S5  1  0.90547507  0.90546409  0.81090417  1
  O  O6  1  0.50005451  0.50001887  0.00000322  1
  F  F7  1  0.75001208  0.25000860  0.50003658  1
  F  F8  1  0.24998910  0.74998971  0.50000432  1
