# generated using pymatgen
data_NaNiIO6
_symmetry_space_group_name_H-M   'P 1'
_cell_length_a   4.99548948
_cell_length_b   4.99570303
_cell_length_c   5.30655499
_cell_angle_alpha   90.00172634
_cell_angle_beta   89.99684255
_cell_angle_gamma   120.00270700
_symmetry_Int_Tables_number   1
_chemical_formula_structural   NaNiIO6
_chemical_formula_sum   'Na1 Ni1 I1 O6'
_cell_volume   114.68486689
_cell_formula_units_Z   1
loop_
 _symmetry_equiv_pos_site_id
 _symmetry_equiv_pos_as_xyz
  1  'x, y, z'
loop_
 _atom_site_type_symbol
 _atom_site_label
 _atom_site_symmetry_multiplicity
 _atom_site_fract_x
 _atom_site_fract_y
 _atom_site_fract_z
 _atom_site_occupancy
  O  O0  1  0.00278217  0.37574000  0.70077183  1
  O  O1  1  0.62426703  0.99721253  0.29921627  1
  O  O2  1  0.00276510  0.62703126  0.29923559  1
  O  O3  1  0.37290947  0.37574178  0.29919864  1
  Na  Na4  1  0.00000025  0.99999526  0.99999974  1
  I  I5  1  0.66681364  0.33339916  0.49999672  1
  O  O6  1  0.62426951  0.62705428  0.70079349  1
  Ni  Ni7  1  0.33327305  0.66664405  0.50000013  1
  O  O8  1  0.37291979  0.99718168  0.70078759  1
