# generated using pymatgen
data_Na3P(SO)2
_symmetry_space_group_name_H-M   'P 1'
_cell_length_a   5.89903937
_cell_length_b   11.42641404
_cell_length_c   17.74190483
_cell_angle_alpha   90.00000000
_cell_angle_beta   90.00000000
_cell_angle_gamma   90.00000000
_symmetry_Int_Tables_number   1
_chemical_formula_structural   Na3P(SO)2
_chemical_formula_sum   'Na24 P8 S16 O16'
_cell_volume   1195.89072262
_cell_formula_units_Z   8
loop_
 _symmetry_equiv_pos_site_id
 _symmetry_equiv_pos_as_xyz
  1  'x, y, z'
loop_
 _atom_site_type_symbol
 _atom_site_label
 _atom_site_symmetry_multiplicity
 _atom_site_fract_x
 _atom_site_fract_y
 _atom_site_fract_z
 _atom_site_occupancy
  Na  Na0  1  0.34767265  0.17149030  0.05347598  1
  Na  Na1  1  0.19225337  0.61927824  0.26355893  1
  Na  Na2  1  0.19225337  0.11927824  0.23644107  1
  Na  Na3  1  0.30774663  0.61927824  0.76355893  1
  Na  Na4  1  0.23729646  0.37901322  0.40887229  1
  Na  Na5  1  0.84767265  0.32850970  0.05347598  1
  Na  Na6  1  0.23729646  0.87901322  0.09112771  1
  Na  Na7  1  0.80774663  0.38072176  0.73644107  1
  Na  Na8  1  0.26270354  0.87901322  0.59112771  1
  Na  Na9  1  0.69225337  0.38072176  0.23644107  1
  Na  Na10  1  0.65232735  0.82850970  0.94652402  1
  Na  Na11  1  0.76270354  0.62098678  0.59112771  1
  Na  Na12  1  0.15232735  0.67149030  0.94652402  1
  Na  Na13  1  0.73729646  0.12098678  0.40887229  1
  Na  Na14  1  0.80774663  0.88072176  0.76355893  1
  Na  Na15  1  0.26270354  0.37901322  0.90887229  1
  Na  Na16  1  0.69225337  0.88072176  0.26355893  1
  Na  Na17  1  0.73729646  0.62098678  0.09112771  1
  Na  Na18  1  0.15232735  0.17149030  0.55347598  1
  Na  Na19  1  0.30774663  0.11927824  0.73644107  1
  Na  Na20  1  0.76270354  0.12098678  0.90887229  1
  Na  Na21  1  0.34767265  0.67149030  0.44652402  1
  Na  Na22  1  0.84767265  0.82850970  0.44652402  1
  Na  Na23  1  0.65232735  0.32850970  0.55347598  1
  P  P24  1  0.82385370  0.05856182  0.11028161  1
  P  P25  1  0.32385370  0.94143818  0.38971839  1
  P  P26  1  0.32385370  0.44143818  0.11028161  1
  P  P27  1  0.67614630  0.05856182  0.61028161  1
  P  P28  1  0.17614630  0.94143818  0.88971839  1
  P  P29  1  0.67614630  0.55856182  0.88971839  1
  P  P30  1  0.82385370  0.55856182  0.38971839  1
  P  P31  1  0.17614630  0.44143818  0.61028161  1
  S  S32  1  0.22608352  0.11712397  0.39792493  1
  S  S33  1  0.31185447  0.37591869  0.70913126  1
  S  S34  1  0.81185447  0.12408131  0.70913126  1
  S  S35  1  0.72608352  0.88287603  0.10207507  1
  S  S36  1  0.72608352  0.38287603  0.39792493  1
  S  S37  1  0.77391648  0.88287603  0.60207507  1
  S  S38  1  0.81185447  0.62408131  0.79086874  1
  S  S39  1  0.22608352  0.61712397  0.10207507  1
  S  S40  1  0.31185447  0.87591869  0.79086874  1
  S  S41  1  0.68814553  0.12408131  0.20913126  1
  S  S42  1  0.18814553  0.87591869  0.29086874  1
  S  S43  1  0.27391648  0.11712397  0.89792493  1
  S  S44  1  0.27391648  0.61712397  0.60207507  1
  S  S45  1  0.68814553  0.62408131  0.29086874  1
  S  S46  1  0.77391648  0.38287603  0.89792493  1
  S  S47  1  0.18814553  0.37591869  0.20913126  1
  O  O48  1  0.58520701  0.93816384  0.38520816  1
  O  O49  1  0.23252871  0.86991308  0.45719174  1
  O  O50  1  0.26747129  0.36991308  0.54280826  1
  O  O51  1  0.26747129  0.86991308  0.95719174  1
  O  O52  1  0.08520701  0.06183616  0.11479184  1
  O  O53  1  0.23252871  0.36991308  0.04280826  1
  O  O54  1  0.58520701  0.43816384  0.11479184  1
  O  O55  1  0.41479299  0.06183616  0.61479184  1
  O  O56  1  0.91479299  0.93816384  0.88520816  1
  O  O57  1  0.41479299  0.56183616  0.88520816  1
  O  O58  1  0.73252871  0.13008692  0.04280826  1
  O  O59  1  0.08520701  0.56183616  0.38520816  1
  O  O60  1  0.91479299  0.43816384  0.61479184  1
  O  O61  1  0.76747129  0.13008692  0.54280826  1
  O  O62  1  0.73252871  0.63008692  0.45719174  1
  O  O63  1  0.76747129  0.63008692  0.95719174  1
