# generated using pymatgen
data_Eu(PPd)2
_symmetry_space_group_name_H-M   'P 1'
_cell_length_a   4.19449834
_cell_length_b   4.19449800
_cell_length_c   5.77176453
_cell_angle_alpha   111.30690776
_cell_angle_beta   111.30690579
_cell_angle_gamma   90.00000250
_symmetry_Int_Tables_number   1
_chemical_formula_structural   Eu(PPd)2
_chemical_formula_sum   'Eu1 P2 Pd2'
_cell_volume   87.11401247
_cell_formula_units_Z   1
loop_
 _symmetry_equiv_pos_site_id
 _symmetry_equiv_pos_as_xyz
  1  'x, y, z'
loop_
 _atom_site_type_symbol
 _atom_site_label
 _atom_site_symmetry_multiplicity
 _atom_site_fract_x
 _atom_site_fract_y
 _atom_site_fract_z
 _atom_site_occupancy
  Eu  Eu0  1  0.00000000  0.00000000  0.00000000  1
  P  P1  1  0.38784878  0.38784878  0.77569755  1
  P  P2  1  0.61215122  0.61215122  0.22430245  1
  Pd  Pd3  1  0.75000000  0.25000000  0.50000000  1
  Pd  Pd4  1  0.25000000  0.75000000  0.50000000  1
