# generated using pymatgen
data_Mg(B6C)2
_symmetry_space_group_name_H-M   'P 1'
_cell_length_a   5.61538843
_cell_length_b   6.91006538
_cell_length_c   6.91006518
_cell_angle_alpha   70.09734977
_cell_angle_beta   66.02616451
_cell_angle_gamma   66.02616249
_symmetry_Int_Tables_number   1
_chemical_formula_structural   Mg(B6C)2
_chemical_formula_sum   'Mg2 B24 C4'
_cell_volume   218.87059346
_cell_formula_units_Z   2
loop_
 _symmetry_equiv_pos_site_id
 _symmetry_equiv_pos_as_xyz
  1  'x, y, z'
loop_
 _atom_site_type_symbol
 _atom_site_label
 _atom_site_symmetry_multiplicity
 _atom_site_fract_x
 _atom_site_fract_y
 _atom_site_fract_z
 _atom_site_occupancy
  Mg  Mg0  1  0.25000000  0.11119475  0.38880525  1
  Mg  Mg1  1  0.75000000  0.88880525  0.61119475  1
  B  B2  1  0.67567951  0.53299269  0.63712118  1
  B  B3  1  0.59370453  0.58788001  0.22471094  1
  B  B4  1  0.90232528  0.09660585  0.77570989  1
  B  B5  1  0.65420663  0.13712118  0.03299269  1
  B  B6  1  0.84579337  0.46700731  0.36287882  1
  B  B7  1  0.34579337  0.86287882  0.96700731  1
  B  B8  1  0.27464102  0.72429011  0.40339415  1
  B  B9  1  0.40629547  0.41211999  0.77528906  1
  B  B10  1  0.32432049  0.46700731  0.36287882  1
  B  B11  1  0.66684112  0.31249741  0.35382034  1
  B  B12  1  0.72535898  0.27570989  0.59660585  1
  B  B13  1  0.16684112  0.85382034  0.81249741  1
  B  B14  1  0.82432049  0.86287882  0.96700731  1
  B  B15  1  0.09370453  0.72471094  0.08788001  1
  B  B16  1  0.40232528  0.27570989  0.59660585  1
  B  B17  1  0.15420663  0.53299269  0.63712118  1
  B  B18  1  0.59767472  0.72429011  0.40339415  1
  B  B19  1  0.22535898  0.09660585  0.77570989  1
  B  B20  1  0.77464102  0.90339415  0.22429011  1
  B  B21  1  0.90629547  0.27528906  0.91211999  1
  B  B22  1  0.33315888  0.68750259  0.64617966  1
  B  B23  1  0.09767472  0.90339415  0.22429011  1
  B  B24  1  0.83315888  0.14617966  0.18750259  1
  B  B25  1  0.17567951  0.13712118  0.03299269  1
  C  C26  1  0.66241900  0.70844638  0.96671561  1
  C  C27  1  0.16241900  0.46671561  0.20844638  1
  C  C28  1  0.83758100  0.53328439  0.79155362  1
  C  C29  1  0.33758100  0.29155362  0.03328439  1
