# generated using pymatgen
data_SO3
_symmetry_space_group_name_H-M   'P 1'
_cell_length_a   5.50829185
_cell_length_b   11.36220121
_cell_length_c   12.92133967
_cell_angle_alpha   90.00000000
_cell_angle_beta   90.00000000
_cell_angle_gamma   90.00000000
_symmetry_Int_Tables_number   1
_chemical_formula_structural   SO3
_chemical_formula_sum   'S12 O36'
_cell_volume   808.69910359
_cell_formula_units_Z   12
loop_
 _symmetry_equiv_pos_site_id
 _symmetry_equiv_pos_as_xyz
  1  'x, y, z'
loop_
 _atom_site_type_symbol
 _atom_site_label
 _atom_site_symmetry_multiplicity
 _atom_site_fract_x
 _atom_site_fract_y
 _atom_site_fract_z
 _atom_site_occupancy
  O  O0  1  0.13092855  0.01550816  0.10035501  1
  O  O1  1  0.63092855  0.98449184  0.89964499  1
  O  O2  1  0.63092855  0.48449184  0.60035501  1
  O  O3  1  0.13092855  0.51550816  0.39964499  1
  O  O4  1  0.44276248  0.17596465  0.08265824  1
  O  O5  1  0.94276248  0.82403535  0.91734176  1
  O  O6  1  0.94276248  0.32403535  0.58265824  1
  O  O7  1  0.44276248  0.67596465  0.41734176  1
  O  O8  1  0.06739946  0.16684639  0.97029446  1
  O  O9  1  0.56739946  0.83315361  0.02970554  1
  O  O10  1  0.56739946  0.33315361  0.47029446  1
  O  O11  1  0.06739946  0.66684639  0.52970554  1
  O  O12  1  0.86853772  0.29691326  0.84739153  1
  O  O13  1  0.36853772  0.70308674  0.15260847  1
  O  O14  1  0.36853772  0.20308674  0.34739153  1
  O  O15  1  0.86853772  0.79691326  0.65260847  1
  O  O16  1  0.27274966  0.35725980  0.92076470  1
  O  O17  1  0.77274966  0.64274020  0.07923530  1
  O  O18  1  0.77274966  0.14274020  0.42076470  1
  O  O19  1  0.27274966  0.85725980  0.57923530  1
  O  O20  1  0.88782655  0.35890801  0.02736177  1
  O  O21  1  0.38782655  0.64109199  0.97263823  1
  O  O22  1  0.38782655  0.14109199  0.52736177  1
  O  O23  1  0.88782655  0.85890801  0.47263823  1
  O  O24  1  0.22885423  0.41239925  0.14922213  1
  O  O25  1  0.72885423  0.58760075  0.85077787  1
  O  O26  1  0.72885423  0.08760075  0.64922213  1
  O  O27  1  0.22885423  0.91239925  0.35077787  1
  O  O28  1  0.79871331  0.38539164  0.21094923  1
  O  O29  1  0.29871331  0.61460836  0.78905077  1
  O  O30  1  0.29871331  0.11460836  0.71094923  1
  O  O31  1  0.79871331  0.88539164  0.28905077  1
  O  O32  1  0.02715782  0.21231604  0.15902770  1
  O  O33  1  0.52715782  0.78768396  0.84097230  1
  O  O34  1  0.52715782  0.28768396  0.65902770  1
  O  O35  1  0.02715782  0.71231604  0.34097230  1
  S  S36  1  0.20054683  0.13355636  0.08149720  1
  S  S37  1  0.70054683  0.86644364  0.91850280  1
  S  S38  1  0.70054683  0.36644364  0.58149720  1
  S  S39  1  0.20054683  0.63355636  0.41850280  1
  S  S40  1  0.04059036  0.30369595  0.92846559  1
  S  S41  1  0.54059036  0.69630405  0.07153441  1
  S  S42  1  0.54059036  0.19630405  0.42846559  1
  S  S43  1  0.04059036  0.80369595  0.57153441  1
  S  S44  1  0.99823303  0.35694650  0.14672176  1
  S  S45  1  0.49823303  0.64305350  0.85327824  1
  S  S46  1  0.49823303  0.14305350  0.64672176  1
  S  S47  1  0.99823303  0.85694650  0.35327824  1
