# generated using pymatgen
data_GaCl2
_symmetry_space_group_name_H-M   'P 1'
_cell_length_a   7.20295504
_cell_length_b   9.91830656
_cell_length_c   9.88494858
_cell_angle_alpha   90.00000000
_cell_angle_beta   90.00000000
_cell_angle_gamma   90.00000000
_symmetry_Int_Tables_number   1
_chemical_formula_structural   GaCl2
_chemical_formula_sum   'Ga8 Cl16'
_cell_volume   706.19176038
_cell_formula_units_Z   8
loop_
 _symmetry_equiv_pos_site_id
 _symmetry_equiv_pos_as_xyz
  1  'x, y, z'
loop_
 _atom_site_type_symbol
 _atom_site_label
 _atom_site_symmetry_multiplicity
 _atom_site_fract_x
 _atom_site_fract_y
 _atom_site_fract_z
 _atom_site_occupancy
  Ga  Ga0  1  0.25000000  0.18070261  0.00000000  1
  Ga  Ga1  1  0.75000000  0.68070261  0.50000000  1
  Ga  Ga2  1  0.17334249  0.75000000  0.25000000  1
  Ga  Ga3  1  0.82665751  0.25000000  0.75000000  1
  Ga  Ga4  1  0.75000000  0.81929739  0.00000000  1
  Ga  Ga5  1  0.32665751  0.75000000  0.75000000  1
  Ga  Ga6  1  0.25000000  0.31929739  0.50000000  1
  Ga  Ga7  1  0.67334249  0.25000000  0.25000000  1
  Cl  Cl8  1  0.66460439  0.55729548  0.67496025  1
  Cl  Cl9  1  0.50572383  0.81015413  0.45960503  1
  Cl  Cl10  1  0.33539561  0.44270452  0.32503975  1
  Cl  Cl11  1  0.66460439  0.94270452  0.82503975  1
  Cl  Cl12  1  0.99427617  0.68984587  0.95960503  1
  Cl  Cl13  1  0.33539561  0.05729548  0.17496025  1
  Cl  Cl14  1  0.16460439  0.44270452  0.67496025  1
  Cl  Cl15  1  0.00572383  0.18984587  0.45960503  1
  Cl  Cl16  1  0.83539561  0.55729548  0.32503975  1
  Cl  Cl17  1  0.99427617  0.81015413  0.54039497  1
  Cl  Cl18  1  0.50572383  0.68984587  0.04039497  1
  Cl  Cl19  1  0.16460439  0.05729548  0.82503975  1
  Cl  Cl20  1  0.83539561  0.94270452  0.17496025  1
  Cl  Cl21  1  0.00572383  0.31015413  0.04039497  1
  Cl  Cl22  1  0.49427617  0.18984587  0.54039497  1
  Cl  Cl23  1  0.49427617  0.31015413  0.95960503  1
