# generated using pymatgen
data_NdTaO4
_symmetry_space_group_name_H-M   'P 1'
_cell_length_a   5.28166748
_cell_length_b   5.47201745
_cell_length_c   5.66419207
_cell_angle_alpha   90.00000000
_cell_angle_beta   90.00000000
_cell_angle_gamma   96.82381833
_symmetry_Int_Tables_number   1
_chemical_formula_structural   NdTaO4
_chemical_formula_sum   'Nd2 Ta2 O8'
_cell_volume   162.54330941
_cell_formula_units_Z   2
loop_
 _symmetry_equiv_pos_site_id
 _symmetry_equiv_pos_as_xyz
  1  'x, y, z'
loop_
 _atom_site_type_symbol
 _atom_site_label
 _atom_site_symmetry_multiplicity
 _atom_site_fract_x
 _atom_site_fract_y
 _atom_site_fract_z
 _atom_site_occupancy
  O  O0  1  0.72486356  0.00731151  0.56271153  1
  O  O1  1  0.27513644  0.49268849  0.56271153  1
  O  O2  1  0.27513644  0.99268849  0.43728847  1
  O  O3  1  0.72486356  0.50731151  0.43728847  1
  O  O4  1  0.25553936  0.61090649  0.09477755  1
  O  O5  1  0.74446064  0.88909351  0.09477755  1
  O  O6  1  0.74446064  0.38909351  0.90522245  1
  O  O7  1  0.25553936  0.11090649  0.90522245  1
  Nd  Nd8  1  0.00000000  0.75000000  0.76505963  1
  Nd  Nd9  1  0.00000000  0.25000000  0.23494037  1
  Ta  Ta10  1  0.50000000  0.25000000  0.68626428  1
  Ta  Ta11  1  0.50000000  0.75000000  0.31373572  1
