# generated using pymatgen
data_VF3
_symmetry_space_group_name_H-M   'P 1'
_cell_length_a   5.49786612
_cell_length_b   5.49786619
_cell_length_c   5.49786628
_cell_angle_alpha   57.54017107
_cell_angle_beta   57.54017059
_cell_angle_gamma   57.54017153
_symmetry_Int_Tables_number   1
_chemical_formula_structural   VF3
_chemical_formula_sum   'V2 F6'
_cell_volume   110.86141190
_cell_formula_units_Z   2
loop_
 _symmetry_equiv_pos_site_id
 _symmetry_equiv_pos_as_xyz
  1  'x, y, z'
loop_
 _atom_site_type_symbol
 _atom_site_label
 _atom_site_symmetry_multiplicity
 _atom_site_fract_x
 _atom_site_fract_y
 _atom_site_fract_z
 _atom_site_occupancy
  V  V0  1  0.50000000  0.50000000  0.50000000  1
  V  V1  1  0.00000000  0.00000000  0.00000000  1
  F  F2  1  0.15174129  0.75000000  0.34825871  1
  F  F3  1  0.75000000  0.34825871  0.15174129  1
  F  F4  1  0.65174129  0.84825871  0.25000000  1
  F  F5  1  0.25000000  0.65174129  0.84825871  1
  F  F6  1  0.84825871  0.25000000  0.65174129  1
  F  F7  1  0.34825871  0.15174129  0.75000000  1
