# generated using pymatgen
data_Mg(ReO4)2
_symmetry_space_group_name_H-M   'P 1'
_cell_length_a   5.82011923
_cell_length_b   5.81978224
_cell_length_c   6.14706583
_cell_angle_alpha   90.00245339
_cell_angle_beta   89.99946011
_cell_angle_gamma   119.99856037
_symmetry_Int_Tables_number   1
_chemical_formula_structural   Mg(ReO4)2
_chemical_formula_sum   'Mg1 Re2 O8'
_cell_volume   180.31979805
_cell_formula_units_Z   1
loop_
 _symmetry_equiv_pos_site_id
 _symmetry_equiv_pos_as_xyz
  1  'x, y, z'
loop_
 _atom_site_type_symbol
 _atom_site_label
 _atom_site_symmetry_multiplicity
 _atom_site_fract_x
 _atom_site_fract_y
 _atom_site_fract_z
 _atom_site_occupancy
  Mg  Mg0  1  0.99998878  0.99999278  0.99998997  1
  Re  Re1  1  0.33332968  0.66668445  0.28862337  1
  Re  Re2  1  0.66664119  0.33331682  0.71140293  1
  O  O3  1  0.20350104  0.86381431  0.19486018  1
  O  O4  1  0.13620462  0.33972198  0.19488623  1
  O  O5  1  0.33332971  0.66669845  0.57031192  1
  O  O6  1  0.33966136  0.20349298  0.80511694  1
  O  O7  1  0.66026945  0.79650392  0.19487687  1
  O  O8  1  0.66661933  0.33330511  0.42972547  1
  O  O9  1  0.86377339  0.66028744  0.80509979  1
  O  O10  1  0.79648148  0.13618274  0.80510533  1
