# generated using pymatgen
data_Ca4CN4
_symmetry_space_group_name_H-M   'P 1'
_cell_length_a   3.57455560
_cell_length_b   11.46255350
_cell_length_c   14.05060850
_cell_angle_alpha   90.00000000
_cell_angle_beta   90.00000000
_cell_angle_gamma   90.00000000
_symmetry_Int_Tables_number   1
_chemical_formula_structural   Ca4CN4
_chemical_formula_sum   'Ca16 C4 N16'
_cell_volume   575.70309639
_cell_formula_units_Z   4
loop_
 _symmetry_equiv_pos_site_id
 _symmetry_equiv_pos_as_xyz
  1  'x, y, z'
loop_
 _atom_site_type_symbol
 _atom_site_label
 _atom_site_symmetry_multiplicity
 _atom_site_fract_x
 _atom_site_fract_y
 _atom_site_fract_z
 _atom_site_occupancy
  C  C0  1  0.25000000  0.36118893  0.08620771  1
  C  C1  1  0.75000000  0.63881107  0.91379229  1
  C  C2  1  0.25000000  0.86118893  0.41379229  1
  C  C3  1  0.75000000  0.13881107  0.58620771  1
  N  N4  1  0.25000000  0.45416630  0.13201530  1
  N  N5  1  0.75000000  0.54583370  0.86798470  1
  N  N6  1  0.25000000  0.95416630  0.36798470  1
  N  N7  1  0.75000000  0.04583370  0.63201530  1
  N  N8  1  0.25000000  0.26876031  0.03996925  1
  N  N9  1  0.75000000  0.73123969  0.96003075  1
  N  N10  1  0.25000000  0.76876031  0.46003075  1
  N  N11  1  0.75000000  0.23123969  0.53996925  1
  N  N12  1  0.25000000  0.99915092  0.88409519  1
  N  N13  1  0.75000000  0.00084908  0.11590481  1
  N  N14  1  0.25000000  0.49915092  0.61590481  1
  N  N15  1  0.75000000  0.50084908  0.38409519  1
  N  N16  1  0.75000000  0.76606582  0.68586683  1
  N  N17  1  0.25000000  0.23393418  0.31413317  1
  N  N18  1  0.75000000  0.26606582  0.81413317  1
  N  N19  1  0.25000000  0.73393418  0.18586683  1
  Ca  Ca20  1  0.25000000  0.13850105  0.76131221  1
  Ca  Ca21  1  0.75000000  0.86149895  0.23868779  1
  Ca  Ca22  1  0.25000000  0.63850105  0.73868779  1
  Ca  Ca23  1  0.75000000  0.36149895  0.26131221  1
  Ca  Ca24  1  0.25000000  0.37578650  0.88271498  1
  Ca  Ca25  1  0.75000000  0.62421350  0.11728502  1
  Ca  Ca26  1  0.25000000  0.87578650  0.61728502  1
  Ca  Ca27  1  0.75000000  0.12421350  0.38271498  1
  Ca  Ca28  1  0.25000000  0.87995912  0.04044809  1
  Ca  Ca29  1  0.75000000  0.12004088  0.95955191  1
  Ca  Ca30  1  0.25000000  0.37995912  0.45955191  1
  Ca  Ca31  1  0.75000000  0.62004088  0.54044809  1
  Ca  Ca32  1  0.25000000  0.11569204  0.17002469  1
  Ca  Ca33  1  0.75000000  0.88430796  0.82997531  1
  Ca  Ca34  1  0.25000000  0.61569204  0.32997531  1
  Ca  Ca35  1  0.75000000  0.38430796  0.67002469  1
