# generated using pymatgen
data_Ni(ClO4)2
_symmetry_space_group_name_H-M   'P 1'
_cell_length_a   8.12060726
_cell_length_b   8.12060726
_cell_length_c   8.12060726
_cell_angle_alpha   34.67506213
_cell_angle_beta   34.67506219
_cell_angle_gamma   34.67506214
_symmetry_Int_Tables_number   1
_chemical_formula_structural   Ni(ClO4)2
_chemical_formula_sum   'Ni1 Cl2 O8'
_cell_volume   154.67628782
_cell_formula_units_Z   1
loop_
 _symmetry_equiv_pos_site_id
 _symmetry_equiv_pos_as_xyz
  1  'x, y, z'
loop_
 _atom_site_type_symbol
 _atom_site_label
 _atom_site_symmetry_multiplicity
 _atom_site_fract_x
 _atom_site_fract_y
 _atom_site_fract_z
 _atom_site_occupancy
  O  O0  1  0.80549633  0.80549633  0.80549633  1
  O  O1  1  0.19450367  0.19450367  0.19450367  1
  O  O2  1  0.99602782  0.42506575  0.74185532  1
  O  O3  1  0.25814468  0.00397218  0.57493425  1
  O  O4  1  0.57493425  0.25814468  0.00397218  1
  O  O5  1  0.00397218  0.57493425  0.25814468  1
  O  O6  1  0.74185532  0.99602782  0.42506575  1
  O  O7  1  0.42506575  0.74185532  0.99602782  1
  Cl  Cl8  1  0.74358328  0.74358328  0.74358328  1
  Cl  Cl9  1  0.25641672  0.25641672  0.25641672  1
  Ni  Ni10  1  0.00000000  0.00000000  0.00000000  1
