# generated using pymatgen
data_CsHoO2
_symmetry_space_group_name_H-M   'P 1'
_cell_length_a   3.54414574
_cell_length_b   3.54418765
_cell_length_c   13.75339950
_cell_angle_alpha   89.99813046
_cell_angle_beta   90.00160917
_cell_angle_gamma   120.00080938
_symmetry_Int_Tables_number   1
_chemical_formula_structural   CsHoO2
_chemical_formula_sum   'Cs2 Ho2 O4'
_cell_volume   149.61165543
_cell_formula_units_Z   2
loop_
 _symmetry_equiv_pos_site_id
 _symmetry_equiv_pos_as_xyz
  1  'x, y, z'
loop_
 _atom_site_type_symbol
 _atom_site_label
 _atom_site_symmetry_multiplicity
 _atom_site_fract_x
 _atom_site_fract_y
 _atom_site_fract_z
 _atom_site_occupancy
  Cs  Cs0  1  0.33329590  0.66660383  0.74999950  1
  Cs  Cs1  1  0.66670699  0.33330239  0.24999962  1
  Ho  Ho2  1  0.00000086  0.00001699  0.00000124  1
  Ho  Ho3  1  0.00000254  0.00002515  0.49999945  1
  O  O4  1  0.33331109  0.66667167  0.41819375  1
  O  O5  1  0.33332135  0.66667135  0.08180997  1
  O  O6  1  0.66668897  0.33334081  0.58180633  1
  O  O7  1  0.66667328  0.33336880  0.91819013  1
