# generated using pymatgen
data_Hf3ZnN
_symmetry_space_group_name_H-M   'P 1'
_cell_length_a   3.31740416
_cell_length_b   11.28782350
_cell_length_c   8.82765771
_cell_angle_alpha   90.00000000
_cell_angle_beta   90.00000000
_cell_angle_gamma   90.00000000
_symmetry_Int_Tables_number   1
_chemical_formula_structural   Hf3ZnN
_chemical_formula_sum   'Hf12 Zn4 N4'
_cell_volume   330.56287735
_cell_formula_units_Z   4
loop_
 _symmetry_equiv_pos_site_id
 _symmetry_equiv_pos_as_xyz
  1  'x, y, z'
loop_
 _atom_site_type_symbol
 _atom_site_label
 _atom_site_symmetry_multiplicity
 _atom_site_fract_x
 _atom_site_fract_y
 _atom_site_fract_z
 _atom_site_occupancy
  Hf  Hf0  1  0.50000000  0.87218313  0.95419947  1
  Hf  Hf1  1  0.00000000  0.62781687  0.45419947  1
  Hf  Hf2  1  0.00000000  0.62781687  0.04580053  1
  Hf  Hf3  1  0.50000000  0.87218313  0.54580053  1
  Hf  Hf4  1  0.50000000  0.54525487  0.75000000  1
  Hf  Hf5  1  0.00000000  0.95474513  0.25000000  1
  Hf  Hf6  1  0.00000000  0.37218313  0.95419947  1
  Hf  Hf7  1  0.50000000  0.12781687  0.45419947  1
  Hf  Hf8  1  0.50000000  0.12781687  0.04580053  1
  Hf  Hf9  1  0.00000000  0.37218313  0.54580053  1
  Hf  Hf10  1  0.00000000  0.04525487  0.75000000  1
  Hf  Hf11  1  0.50000000  0.45474513  0.25000000  1
  Zn  Zn12  1  0.00000000  0.74587782  0.75000000  1
  Zn  Zn13  1  0.50000000  0.75412218  0.25000000  1
  Zn  Zn14  1  0.50000000  0.24587782  0.75000000  1
  Zn  Zn15  1  0.00000000  0.25412218  0.25000000  1
  N  N16  1  0.50000000  0.50000000  0.00000000  1
  N  N17  1  0.50000000  0.50000000  0.50000000  1
  N  N18  1  0.00000000  0.00000000  0.00000000  1
  N  N19  1  0.00000000  0.00000000  0.50000000  1
