# generated using pymatgen
data_CaHfN2
_symmetry_space_group_name_H-M   'P 1'
_cell_length_a   3.29082737
_cell_length_b   3.29082737
_cell_length_c   16.83166208
_cell_angle_alpha   90.00000000
_cell_angle_beta   90.00000000
_cell_angle_gamma   119.99998686
_symmetry_Int_Tables_number   1
_chemical_formula_structural   CaHfN2
_chemical_formula_sum   'Ca3 Hf3 N6'
_cell_volume   157.85847142
_cell_formula_units_Z   3
loop_
 _symmetry_equiv_pos_site_id
 _symmetry_equiv_pos_as_xyz
  1  'x, y, z'
loop_
 _atom_site_type_symbol
 _atom_site_label
 _atom_site_symmetry_multiplicity
 _atom_site_fract_x
 _atom_site_fract_y
 _atom_site_fract_z
 _atom_site_occupancy
  Ca  Ca0  1  0.00000000  0.00000000  0.00000000  1
  Ca  Ca1  1  0.66666700  0.33333300  0.33333300  1
  Ca  Ca2  1  0.33333300  0.66666700  0.66666700  1
  Hf  Hf3  1  0.33333300  0.66666700  0.16666700  1
  Hf  Hf4  1  0.00000000  0.00000000  0.50000000  1
  Hf  Hf5  1  0.66666700  0.33333300  0.83333300  1
  N  N6  1  0.00000000  0.00000000  0.23748677  1
  N  N7  1  0.66666700  0.33333300  0.09584723  1
  N  N8  1  0.66666700  0.33333300  0.57081977  1
  N  N9  1  0.33333300  0.66666700  0.42918023  1
  N  N10  1  0.33333300  0.66666700  0.90415277  1
  N  N11  1  0.00000000  0.00000000  0.76251323  1
