# generated using pymatgen
data_Pt3Rh
_symmetry_space_group_name_H-M   'P 1'
_cell_length_a   3.94692914
_cell_length_b   3.94689373
_cell_length_c   3.94689787
_cell_angle_alpha   90.00056499
_cell_angle_beta   89.99970633
_cell_angle_gamma   90.00043303
_symmetry_Int_Tables_number   1
_chemical_formula_structural   Pt3Rh
_chemical_formula_sum   'Pt3 Rh1'
_cell_volume   61.48520868
_cell_formula_units_Z   1
loop_
 _symmetry_equiv_pos_site_id
 _symmetry_equiv_pos_as_xyz
  1  'x, y, z'
loop_
 _atom_site_type_symbol
 _atom_site_label
 _atom_site_symmetry_multiplicity
 _atom_site_fract_x
 _atom_site_fract_y
 _atom_site_fract_z
 _atom_site_occupancy
  Pt  Pt0  1  0.99999834  0.49999953  0.50000082  1
  Pt  Pt1  1  0.49999901  0.00000022  0.49999880  1
  Pt  Pt2  1  0.49999905  0.49999846  0.00000269  1
  Rh  Rh3  1  0.00000160  -0.00000021  0.99999569  1
