# generated using pymatgen
data_Ta2CS2
_symmetry_space_group_name_H-M   'P 1'
_cell_length_a   9.80703531
_cell_length_b   9.80703531
_cell_length_c   9.80703531
_cell_angle_alpha   19.29293192
_cell_angle_beta   19.29293191
_cell_angle_gamma   19.29293193
_symmetry_Int_Tables_number   1
_chemical_formula_structural   Ta2CS2
_chemical_formula_sum   'Ta2 C1 S2'
_cell_volume   90.01229362
_cell_formula_units_Z   1
loop_
 _symmetry_equiv_pos_site_id
 _symmetry_equiv_pos_as_xyz
  1  'x, y, z'
loop_
 _atom_site_type_symbol
 _atom_site_label
 _atom_site_symmetry_multiplicity
 _atom_site_fract_x
 _atom_site_fract_y
 _atom_site_fract_z
 _atom_site_occupancy
  C  C0  1  0.00000000  0.00000000  0.00000000  1
  S  S1  1  0.76416206  0.76416206  0.76416206  1
  S  S2  1  0.23583794  0.23583794  0.23583794  1
  Ta  Ta3  1  0.62566518  0.62566518  0.62566518  1
  Ta  Ta4  1  0.37433482  0.37433482  0.37433482  1
