# generated using pymatgen
data_Ba2MgH6
_symmetry_space_group_name_H-M   'P 1'
_cell_length_a   5.73581821
_cell_length_b   5.73581760
_cell_length_c   4.54289373
_cell_angle_alpha   90.00000003
_cell_angle_beta   89.99873294
_cell_angle_gamma   119.99999297
_symmetry_Int_Tables_number   1
_chemical_formula_structural   Ba2MgH6
_chemical_formula_sum   'Ba2 Mg1 H6'
_cell_volume   129.43566244
_cell_formula_units_Z   1
loop_
 _symmetry_equiv_pos_site_id
 _symmetry_equiv_pos_as_xyz
  1  'x, y, z'
loop_
 _atom_site_type_symbol
 _atom_site_label
 _atom_site_symmetry_multiplicity
 _atom_site_fract_x
 _atom_site_fract_y
 _atom_site_fract_z
 _atom_site_occupancy
  Ba  Ba0  1  0.66663742  0.33331871  0.26609646  1
  Ba  Ba1  1  0.33336258  0.66668129  0.73390354  1
  Mg  Mg2  1  0.00000000  0.00000000  0.00000000  1
  H  H3  1  0.82867482  0.65735589  0.77589872  1
  H  H4  1  0.82867482  0.17131893  0.77589872  1
  H  H5  1  0.34264344  0.17132172  0.77589783  1
  H  H6  1  0.17132518  0.34264411  0.22410128  1
  H  H7  1  0.17132518  0.82868107  0.22410128  1
  H  H8  1  0.65735656  0.82867828  0.22410217  1
