# generated using pymatgen
data_MnInRh2
_symmetry_space_group_name_H-M   'P 1'
_cell_length_a   4.45604411
_cell_length_b   4.45605589
_cell_length_c   4.45605045
_cell_angle_alpha   60.00018824
_cell_angle_beta   60.00011013
_cell_angle_gamma   59.99999958
_symmetry_Int_Tables_number   1
_chemical_formula_structural   MnInRh2
_chemical_formula_sum   'Mn1 In1 Rh2'
_cell_volume   62.56568308
_cell_formula_units_Z   1
loop_
 _symmetry_equiv_pos_site_id
 _symmetry_equiv_pos_as_xyz
  1  'x, y, z'
loop_
 _atom_site_type_symbol
 _atom_site_label
 _atom_site_symmetry_multiplicity
 _atom_site_fract_x
 _atom_site_fract_y
 _atom_site_fract_z
 _atom_site_occupancy
  Mn  Mn0  1  0.74999965  0.75000024  0.75000031  1
  In  In1  1  0.25000113  0.25000087  0.25000080  1
  Rh  Rh2  1  0.99999985  0.00000056  0.99999988  1
  Rh  Rh3  1  0.50000137  0.50000033  0.50000100  1
