# generated using pymatgen
data_SrP
_symmetry_space_group_name_H-M   'P 1'
_cell_length_a   8.10038537
_cell_length_b   8.10038537
_cell_length_c   6.05051662
_cell_angle_alpha   90.00000000
_cell_angle_beta   90.00000000
_cell_angle_gamma   119.99999997
_symmetry_Int_Tables_number   1
_chemical_formula_structural   SrP
_chemical_formula_sum   'Sr6 P6'
_cell_volume   343.82262451
_cell_formula_units_Z   6
loop_
 _symmetry_equiv_pos_site_id
 _symmetry_equiv_pos_as_xyz
  1  'x, y, z'
loop_
 _atom_site_type_symbol
 _atom_site_label
 _atom_site_symmetry_multiplicity
 _atom_site_fract_x
 _atom_site_fract_y
 _atom_site_fract_z
 _atom_site_occupancy
  P  P0  1  0.66666667  0.33333333  0.19186313  1
  P  P1  1  0.66666667  0.33333333  0.80813687  1
  P  P2  1  0.33333333  0.66666667  0.80813687  1
  P  P3  1  0.33333333  0.66666667  0.19186313  1
  P  P4  1  0.00000000  0.00000000  0.68687376  1
  P  P5  1  0.00000000  0.00000000  0.31312624  1
  Sr  Sr6  1  0.00000000  0.64087366  0.50000000  1
  Sr  Sr7  1  0.35912634  0.35912634  0.50000000  1
  Sr  Sr8  1  0.64087366  0.00000000  0.50000000  1
  Sr  Sr9  1  0.00000000  0.30574940  0.00000000  1
  Sr  Sr10  1  0.69425060  0.69425060  0.00000000  1
  Sr  Sr11  1  0.30574940  0.00000000  0.00000000  1
