# generated using pymatgen
data_SrNb2O4
_symmetry_space_group_name_H-M   'P 1'
_cell_length_a   5.15161593
_cell_length_b   12.61506309
_cell_length_c   5.95432732
_cell_angle_alpha   90.00000000
_cell_angle_beta   90.00000000
_cell_angle_gamma   90.00000000
_symmetry_Int_Tables_number   1
_chemical_formula_structural   SrNb2O4
_chemical_formula_sum   'Sr4 Nb8 O16'
_cell_volume   386.95958553
_cell_formula_units_Z   4
loop_
 _symmetry_equiv_pos_site_id
 _symmetry_equiv_pos_as_xyz
  1  'x, y, z'
loop_
 _atom_site_type_symbol
 _atom_site_label
 _atom_site_symmetry_multiplicity
 _atom_site_fract_x
 _atom_site_fract_y
 _atom_site_fract_z
 _atom_site_occupancy
  Sr  Sr0  1  0.30368650  0.00377984  0.25000000  1
  Sr  Sr1  1  0.30368650  0.49622016  0.75000000  1
  Sr  Sr2  1  0.69631350  0.50377984  0.25000000  1
  Sr  Sr3  1  0.69631350  0.99622016  0.75000000  1
  Nb  Nb4  1  0.15597402  0.25000000  0.00000000  1
  Nb  Nb5  1  0.15597402  0.25000000  0.50000000  1
  Nb  Nb6  1  0.34123261  0.74707824  0.25000000  1
  Nb  Nb7  1  0.34123261  0.75292176  0.75000000  1
  Nb  Nb8  1  0.65876739  0.24707824  0.25000000  1
  Nb  Nb9  1  0.65876739  0.25292176  0.75000000  1
  Nb  Nb10  1  0.84402598  0.75000000  0.00000000  1
  Nb  Nb11  1  0.84402598  0.75000000  0.50000000  1
  O  O12  1  0.01063501  0.64513412  0.25000000  1
  O  O13  1  0.01063501  0.85486588  0.75000000  1
  O  O14  1  0.01062419  0.85161570  0.25000000  1
  O  O15  1  0.01062419  0.64838430  0.75000000  1
  O  O16  1  0.49225999  0.14362717  0.50460260  1
  O  O17  1  0.49225999  0.14362717  0.99539740  1
  O  O18  1  0.49225999  0.35637283  0.00460260  1
  O  O19  1  0.49225999  0.35637283  0.49539740  1
  O  O20  1  0.50774001  0.64362717  0.50460260  1
  O  O21  1  0.50774001  0.85637283  0.00460260  1
  O  O22  1  0.50774001  0.85637283  0.49539740  1
  O  O23  1  0.50774001  0.64362717  0.99539740  1
  O  O24  1  0.98937581  0.14838430  0.75000000  1
  O  O25  1  0.98937581  0.35161570  0.25000000  1
  O  O26  1  0.98936499  0.14513412  0.25000000  1
  O  O27  1  0.98936499  0.35486588  0.75000000  1
