# generated using pymatgen
data_Mg3(TiAl9)2
_symmetry_space_group_name_H-M   'P 1'
_cell_length_a   10.44024708
_cell_length_b   10.44024739
_cell_length_c   10.44024777
_cell_angle_alpha   59.99999878
_cell_angle_beta   59.99999778
_cell_angle_gamma   59.99999767
_symmetry_Int_Tables_number   1
_chemical_formula_structural   Mg3(TiAl9)2
_chemical_formula_sum   'Mg6 Ti4 Al36'
_cell_volume   804.66915768
_cell_formula_units_Z   2
loop_
 _symmetry_equiv_pos_site_id
 _symmetry_equiv_pos_as_xyz
  1  'x, y, z'
loop_
 _atom_site_type_symbol
 _atom_site_label
 _atom_site_symmetry_multiplicity
 _atom_site_fract_x
 _atom_site_fract_y
 _atom_site_fract_z
 _atom_site_occupancy
  Mg  Mg0  1  0.37500000  0.37500000  0.37500000  1
  Mg  Mg1  1  0.00000000  0.50000000  0.50000000  1
  Mg  Mg2  1  0.50000000  0.50000000  0.50000000  1
  Mg  Mg3  1  0.62500000  0.62500000  0.62500000  1
  Mg  Mg4  1  0.50000000  0.00000000  0.50000000  1
  Mg  Mg5  1  0.50000000  0.50000000  0.00000000  1
  Ti  Ti6  1  0.00000000  0.00000000  0.00000000  1
  Ti  Ti7  1  0.00000000  0.00000000  0.50000000  1
  Ti  Ti8  1  0.00000000  0.50000000  0.00000000  1
  Ti  Ti9  1  0.50000000  0.00000000  0.00000000  1
  Al  Al10  1  0.17522715  0.70661797  0.17522715  1
  Al  Al11  1  0.73620973  0.01379027  0.01379027  1
  Al  Al12  1  0.73620973  0.73620973  0.01379027  1
  Al  Al13  1  0.44292773  0.70661797  0.17522715  1
  Al  Al14  1  0.26379027  0.98620973  0.26379027  1
  Al  Al15  1  0.29338203  0.82477285  0.55707227  1
  Al  Al16  1  0.70661797  0.17522715  0.17522715  1
  Al  Al17  1  0.17522715  0.44292773  0.17522715  1
  Al  Al18  1  0.82477285  0.82477285  0.29338203  1
  Al  Al19  1  0.98620973  0.98620973  0.26379027  1
  Al  Al20  1  0.98620973  0.26379027  0.98620973  1
  Al  Al21  1  0.29338203  0.55707227  0.82477285  1
  Al  Al22  1  0.82477285  0.82477285  0.55707227  1
  Al  Al23  1  0.82477285  0.55707227  0.82477285  1
  Al  Al24  1  0.17522715  0.17522715  0.44292773  1
  Al  Al25  1  0.98620973  0.26379027  0.26379027  1
  Al  Al26  1  0.70661797  0.44292773  0.17522715  1
  Al  Al27  1  0.55707227  0.82477285  0.82477285  1
  Al  Al28  1  0.26379027  0.26379027  0.98620973  1
  Al  Al29  1  0.17522715  0.17522715  0.70661797  1
  Al  Al30  1  0.29338203  0.82477285  0.82477285  1
  Al  Al31  1  0.44292773  0.17522715  0.17522715  1
  Al  Al32  1  0.44292773  0.17522715  0.70661797  1
  Al  Al33  1  0.01379027  0.73620973  0.01379027  1
  Al  Al34  1  0.55707227  0.82477285  0.29338203  1
  Al  Al35  1  0.82477285  0.29338203  0.55707227  1
  Al  Al36  1  0.70661797  0.17522715  0.44292773  1
  Al  Al37  1  0.01379027  0.01379027  0.73620973  1
  Al  Al38  1  0.73620973  0.01379027  0.73620973  1
  Al  Al39  1  0.17522715  0.70661797  0.44292773  1
  Al  Al40  1  0.01379027  0.73620973  0.73620973  1
  Al  Al41  1  0.17522715  0.44292773  0.70661797  1
  Al  Al42  1  0.55707227  0.29338203  0.82477285  1
  Al  Al43  1  0.26379027  0.98620973  0.98620973  1
  Al  Al44  1  0.82477285  0.55707227  0.29338203  1
  Al  Al45  1  0.82477285  0.29338203  0.82477285  1
