# generated using pymatgen
data_DyB2Ir3
_symmetry_space_group_name_H-M   'P 1'
_cell_length_a   3.14741078
_cell_length_b   5.47451425
_cell_length_c   5.47451425
_cell_angle_alpha   120.00759380
_cell_angle_beta   89.99475691
_cell_angle_gamma   89.99475691
_symmetry_Int_Tables_number   1
_chemical_formula_structural   DyB2Ir3
_chemical_formula_sum   'Dy1 B2 Ir3'
_cell_volume   81.68494034
_cell_formula_units_Z   1
loop_
 _symmetry_equiv_pos_site_id
 _symmetry_equiv_pos_as_xyz
  1  'x, y, z'
loop_
 _atom_site_type_symbol
 _atom_site_label
 _atom_site_symmetry_multiplicity
 _atom_site_fract_x
 _atom_site_fract_y
 _atom_site_fract_z
 _atom_site_occupancy
  Dy  Dy0  1  0.50000000  0.50000000  0.50000000  1
  B  B1  1  0.50000000  0.83325702  0.16674298  1
  B  B2  1  0.50000000  0.16674298  0.83325702  1
  Ir  Ir3  1  -0.00000000  0.50000000  0.00000000  1
  Ir  Ir4  1  -0.00000000  -0.00000000  0.50000000  1
  Ir  Ir5  1  -0.00000000  -0.00000000  0.00000000  1
