# generated using pymatgen
data_AcFeO3
_symmetry_space_group_name_H-M   'P 1'
_cell_length_a   4.01435315
_cell_length_b   4.01434801
_cell_length_c   4.01435796
_cell_angle_alpha   90.00008107
_cell_angle_beta   89.99999315
_cell_angle_gamma   89.99998858
_symmetry_Int_Tables_number   1
_chemical_formula_structural   AcFeO3
_chemical_formula_sum   'Ac1 Fe1 O3'
_cell_volume   64.69142099
_cell_formula_units_Z   1
loop_
 _symmetry_equiv_pos_site_id
 _symmetry_equiv_pos_as_xyz
  1  'x, y, z'
loop_
 _atom_site_type_symbol
 _atom_site_label
 _atom_site_symmetry_multiplicity
 _atom_site_fract_x
 _atom_site_fract_y
 _atom_site_fract_z
 _atom_site_occupancy
  Ac  Ac0  1  0.99999982  0.00000047  0.99999997  1
  Fe  Fe1  1  0.49999907  0.49999664  0.49999872  1
  O  O2  1  0.49999811  0.49999866  0.99999902  1
  O  O3  1  0.49999807  0.99999965  0.49999811  1
  O  O4  1  0.99999893  0.49999858  0.49999817  1
