# generated using pymatgen
data_MnCr2O4
_symmetry_space_group_name_H-M   'P 1'
_cell_length_a   6.08841278
_cell_length_b   6.08841278
_cell_length_c   6.08841278
_cell_angle_alpha   60.00000001
_cell_angle_beta   60.00000002
_cell_angle_gamma   60.00000000
_symmetry_Int_Tables_number   1
_chemical_formula_structural   MnCr2O4
_chemical_formula_sum   'Mn2 Cr4 O8'
_cell_volume   159.58691131
_cell_formula_units_Z   2
loop_
 _symmetry_equiv_pos_site_id
 _symmetry_equiv_pos_as_xyz
  1  'x, y, z'
loop_
 _atom_site_type_symbol
 _atom_site_label
 _atom_site_symmetry_multiplicity
 _atom_site_fract_x
 _atom_site_fract_y
 _atom_site_fract_z
 _atom_site_occupancy
  O  O0  1  0.73612329  0.73612329  0.73612329  1
  O  O1  1  0.26387671  0.26387671  0.70836987  1
  O  O2  1  0.26387671  0.70836987  0.26387671  1
  O  O3  1  0.70836987  0.26387671  0.26387671  1
  O  O4  1  0.73612329  0.29163013  0.73612329  1
  O  O5  1  0.29163013  0.73612329  0.73612329  1
  O  O6  1  0.26387671  0.26387671  0.26387671  1
  O  O7  1  0.73612329  0.73612329  0.29163013  1
  Cr  Cr8  1  0.50000000  0.00000000  0.50000000  1
  Cr  Cr9  1  0.00000000  0.50000000  0.50000000  1
  Cr  Cr10  1  0.50000000  0.50000000  0.00000000  1
  Cr  Cr11  1  0.50000000  0.50000000  0.50000000  1
  Mn  Mn12  1  0.12500000  0.12500000  0.12500000  1
  Mn  Mn13  1  0.87500000  0.87500000  0.87500000  1
