# generated using pymatgen
data_CuS
_symmetry_space_group_name_H-M   'P 1'
_cell_length_a   3.78891988
_cell_length_b   3.80299788
_cell_length_c   16.42138828
_cell_angle_alpha   90.00000000
_cell_angle_beta   90.00000000
_cell_angle_gamma   119.87762023
_symmetry_Int_Tables_number   1
_chemical_formula_structural   CuS
_chemical_formula_sum   'Cu6 S6'
_cell_volume   205.17113009
_cell_formula_units_Z   6
loop_
 _symmetry_equiv_pos_site_id
 _symmetry_equiv_pos_as_xyz
  1  'x, y, z'
loop_
 _atom_site_type_symbol
 _atom_site_label
 _atom_site_symmetry_multiplicity
 _atom_site_fract_x
 _atom_site_fract_y
 _atom_site_fract_z
 _atom_site_occupancy
  Cu  Cu0  1  0.33645858  0.67291716  0.60719856  1
  Cu  Cu1  1  0.66354142  0.32708284  0.10719856  1
  Cu  Cu2  1  0.33645858  0.67291716  0.89280144  1
  Cu  Cu3  1  0.36202433  0.72404866  0.25000000  1
  Cu  Cu4  1  0.66354142  0.32708284  0.39280144  1
  Cu  Cu5  1  0.63797567  0.27595134  0.75000000  1
  S  S6  1  0.00235045  0.00470090  0.56416670  1
  S  S7  1  0.30614345  0.61228690  0.75000000  1
  S  S8  1  0.99764955  0.99529910  0.06416670  1
  S  S9  1  0.69385655  0.38771310  0.25000000  1
  S  S10  1  0.00235045  0.00470090  0.93583330  1
  S  S11  1  0.99764955  0.99529910  0.43583330  1
