# generated using pymatgen
data_YbSiAu
_symmetry_space_group_name_H-M   'P 1'
_cell_length_a   4.46323912
_cell_length_b   5.65179036
_cell_length_c   5.65179036
_cell_angle_alpha   76.79968574
_cell_angle_beta   66.74326887
_cell_angle_gamma   66.74326886
_symmetry_Int_Tables_number   1
_chemical_formula_structural   YbSiAu
_chemical_formula_sum   'Yb2 Si2 Au2'
_cell_volume   119.89648939
_cell_formula_units_Z   2
loop_
 _symmetry_equiv_pos_site_id
 _symmetry_equiv_pos_as_xyz
  1  'x, y, z'
loop_
 _atom_site_type_symbol
 _atom_site_label
 _atom_site_symmetry_multiplicity
 _atom_site_fract_x
 _atom_site_fract_y
 _atom_site_fract_z
 _atom_site_occupancy
  Si  Si0  1  0.66008107  0.65949378  0.02034409  1
  Si  Si1  1  0.66008107  0.02034409  0.65949378  1
  Yb  Yb2  1  0.29339803  0.20660197  0.20660197  1
  Yb  Yb3  1  0.36393760  0.63606240  0.63606240  1
  Au  Au4  1  0.99215112  0.78226364  0.23343412  1
  Au  Au5  1  0.99215112  0.23343412  0.78226364  1
