# generated using pymatgen
data_CoSbS
_symmetry_space_group_name_H-M   'P 1'
_cell_length_a   5.84002051
_cell_length_b   5.97445979
_cell_length_c   11.68992578
_cell_angle_alpha   90.00000000
_cell_angle_beta   90.00000000
_cell_angle_gamma   90.00000000
_symmetry_Int_Tables_number   1
_chemical_formula_structural   CoSbS
_chemical_formula_sum   'Co8 Sb8 S8'
_cell_volume   407.87282292
_cell_formula_units_Z   8
loop_
 _symmetry_equiv_pos_site_id
 _symmetry_equiv_pos_as_xyz
  1  'x, y, z'
loop_
 _atom_site_type_symbol
 _atom_site_label
 _atom_site_symmetry_multiplicity
 _atom_site_fract_x
 _atom_site_fract_y
 _atom_site_fract_z
 _atom_site_occupancy
  S  S0  1  0.63456492  0.68550355  0.56487198  1
  S  S1  1  0.86543508  0.31449645  0.06487198  1
  S  S2  1  0.36543508  0.18550355  0.93512802  1
  S  S3  1  0.13456492  0.81449645  0.43512802  1
  S  S4  1  0.13456492  0.68550355  0.93512802  1
  S  S5  1  0.63456492  0.81449645  0.06487198  1
  S  S6  1  0.86543508  0.18550355  0.56487198  1
  S  S7  1  0.36543508  0.31449645  0.43512802  1
  Co  Co8  1  0.01470345  0.16648055  0.38490328  1
  Co  Co9  1  0.01470345  0.33351945  0.88490328  1
  Co  Co10  1  0.48529655  0.66648055  0.38490328  1
  Co  Co11  1  0.98529655  0.83351945  0.61509672  1
  Co  Co12  1  0.51470345  0.33351945  0.61509672  1
  Co  Co13  1  0.48529655  0.83351945  0.88490328  1
  Co  Co14  1  0.98529655  0.66648055  0.11509672  1
  Co  Co15  1  0.51470345  0.16648055  0.11509672  1
  Sb  Sb16  1  0.11902613  0.04978442  0.18026758  1
  Sb  Sb17  1  0.61902613  0.45021558  0.81973242  1
  Sb  Sb18  1  0.88097387  0.54978442  0.31973242  1
  Sb  Sb19  1  0.38097387  0.95021558  0.68026758  1
  Sb  Sb20  1  0.88097387  0.95021558  0.81973242  1
  Sb  Sb21  1  0.38097387  0.54978442  0.18026758  1
  Sb  Sb22  1  0.11902613  0.45021558  0.68026758  1
  Sb  Sb23  1  0.61902613  0.04978442  0.31973242  1
