# generated using pymatgen
data_Re2NiO8
_symmetry_space_group_name_H-M   'P 1'
_cell_length_a   5.75207692
_cell_length_b   5.75207692
_cell_length_c   6.64532530
_cell_angle_alpha   90.00000000
_cell_angle_beta   90.00000000
_cell_angle_gamma   120.00000003
_symmetry_Int_Tables_number   1
_chemical_formula_structural   Re2NiO8
_chemical_formula_sum   'Re2 Ni1 O8'
_cell_volume   190.41284714
_cell_formula_units_Z   1
loop_
 _symmetry_equiv_pos_site_id
 _symmetry_equiv_pos_as_xyz
  1  'x, y, z'
loop_
 _atom_site_type_symbol
 _atom_site_label
 _atom_site_symmetry_multiplicity
 _atom_site_fract_x
 _atom_site_fract_y
 _atom_site_fract_z
 _atom_site_occupancy
  O  O0  1  0.66666667  0.33333333  0.47280660  1
  O  O1  1  0.33333333  0.66666667  0.52719340  1
  O  O2  1  0.81403981  0.14879744  0.82135218  1
  O  O3  1  0.14879744  0.33475764  0.17864782  1
  O  O4  1  0.66524236  0.81403981  0.17864782  1
  O  O5  1  0.18596019  0.85120256  0.17864782  1
  O  O6  1  0.85120256  0.66524236  0.82135218  1
  O  O7  1  0.33475764  0.18596019  0.82135218  1
  Ni  Ni8  1  0.00000000  0.00000000  0.00000000  1
  Re  Re9  1  0.33333333  0.66666667  0.26622473  1
  Re  Re10  1  0.66666667  0.33333333  0.73377527  1
