# generated using pymatgen
data_Fe9Co7
_symmetry_space_group_name_H-M   'P 1'
_cell_length_a   5.69972480
_cell_length_b   5.69971322
_cell_length_c   5.69971595
_cell_angle_alpha   89.99881995
_cell_angle_beta   90.00029182
_cell_angle_gamma   89.99959690
_symmetry_Int_Tables_number   1
_chemical_formula_structural   Fe9Co7
_chemical_formula_sum   'Fe9 Co7'
_cell_volume   185.16551382
_cell_formula_units_Z   1
loop_
 _symmetry_equiv_pos_site_id
 _symmetry_equiv_pos_as_xyz
  1  'x, y, z'
loop_
 _atom_site_type_symbol
 _atom_site_label
 _atom_site_symmetry_multiplicity
 _atom_site_fract_x
 _atom_site_fract_y
 _atom_site_fract_z
 _atom_site_occupancy
  Fe  Fe0  1  0.24999577  0.24999542  0.24999536  1
  Fe  Fe1  1  0.75000982  0.24998950  0.24998912  1
  Fe  Fe2  1  0.75000976  0.75001086  0.75000965  1
  Fe  Fe3  1  0.24999012  0.75001126  0.24998957  1
  Fe  Fe4  1  0.24999187  0.24999059  0.75000854  1
  Fe  Fe5  1  0.24999626  0.75000473  0.75000308  1
  Fe  Fe6  1  0.75000373  0.75000533  0.24999569  1
  Fe  Fe7  1  0.75000114  0.24999793  0.75000145  1
  Fe  Fe8  1  0.50000426  0.49998507  0.50001933  1
  Co  Co9  1  0.50000315  0.00000991  0.99998719  1
  Co  Co10  1  -0.00000292  0.49999066  0.50001211  1
  Co  Co11  1  -0.00000307  0.00000998  0.50001294  1
  Co  Co12  1  -0.00000311  0.49999003  0.99998718  1
  Co  Co13  1  0.50000296  0.49999069  0.99998812  1
  Co  Co14  1  -0.00000270  0.00000885  0.99998855  1
  Co  Co15  1  0.50000295  0.00000917  0.50001212  1
