# generated using pymatgen
data_La2Co3
_symmetry_space_group_name_H-M   'P 1'
_cell_length_a   4.79878893
_cell_length_b   5.69328634
_cell_length_c   7.74250412
_cell_angle_alpha   90.00000000
_cell_angle_beta   90.00000000
_cell_angle_gamma   114.92571020
_symmetry_Int_Tables_number   1
_chemical_formula_structural   La2Co3
_chemical_formula_sum   'La4 Co6'
_cell_volume   191.82887001
_cell_formula_units_Z   2
loop_
 _symmetry_equiv_pos_site_id
 _symmetry_equiv_pos_as_xyz
  1  'x, y, z'
loop_
 _atom_site_type_symbol
 _atom_site_label
 _atom_site_symmetry_multiplicity
 _atom_site_fract_x
 _atom_site_fract_y
 _atom_site_fract_z
 _atom_site_occupancy
  La  La0  1  0.15045077  0.30090153  0.58828273  1
  La  La1  1  0.84954923  0.69909847  0.41171727  1
  La  La2  1  0.65045077  0.30090153  0.91171727  1
  La  La3  1  0.34954923  0.69909847  0.08828273  1
  Co  Co4  1  0.66126539  0.82253079  0.75000000  1
  Co  Co5  1  0.33873461  0.17746921  0.25000000  1
  Co  Co6  1  0.16126539  0.82253079  0.75000000  1
  Co  Co7  1  0.83873461  0.17746921  0.25000000  1
  Co  Co8  1  0.00000000  0.00000000  0.00000000  1
  Co  Co9  1  0.50000000  0.00000000  0.50000000  1
