# generated using pymatgen
data_ThBr4
_symmetry_space_group_name_H-M   'P 1'
_cell_length_a   8.42946573
_cell_length_b   8.42946529
_cell_length_c   8.42946519
_cell_angle_alpha   131.14443794
_cell_angle_beta   131.14444645
_cell_angle_gamma   71.58369018
_symmetry_Int_Tables_number   1
_chemical_formula_structural   ThBr4
_chemical_formula_sum   'Th2 Br8'
_cell_volume   332.35877801
_cell_formula_units_Z   2
loop_
 _symmetry_equiv_pos_site_id
 _symmetry_equiv_pos_as_xyz
  1  'x, y, z'
loop_
 _atom_site_type_symbol
 _atom_site_label
 _atom_site_symmetry_multiplicity
 _atom_site_fract_x
 _atom_site_fract_y
 _atom_site_fract_z
 _atom_site_occupancy
  Th  Th0  1  0.37500000  0.12500000  0.25000000  1
  Th  Th1  1  0.62500000  0.87500000  0.75000000  1
  Br  Br2  1  0.66248832  0.53520995  0.79857998  1
  Br  Br3  1  0.36390834  0.16248832  0.62727837  1
  Br  Br4  1  0.33751168  0.46479005  0.20142002  1
  Br  Br5  1  0.96479005  0.26337003  0.12727837  1
  Br  Br6  1  0.03520995  0.73662997  0.87272163  1
  Br  Br7  1  0.76337003  0.13609166  0.29857998  1
  Br  Br8  1  0.63609166  0.83751168  0.37272163  1
  Br  Br9  1  0.23662997  0.86390834  0.70142002  1
