# generated using pymatgen
data_Ce2Fe12P7
_symmetry_space_group_name_H-M   'P 1'
_cell_length_a   9.00486819
_cell_length_b   9.00486814
_cell_length_c   3.65676217
_cell_angle_alpha   90.00000000
_cell_angle_beta   90.00000000
_cell_angle_gamma   120.00000020
_symmetry_Int_Tables_number   1
_chemical_formula_structural   Ce2Fe12P7
_chemical_formula_sum   'Ce2 Fe12 P7'
_cell_volume   256.79233959
_cell_formula_units_Z   1
loop_
 _symmetry_equiv_pos_site_id
 _symmetry_equiv_pos_as_xyz
  1  'x, y, z'
loop_
 _atom_site_type_symbol
 _atom_site_label
 _atom_site_symmetry_multiplicity
 _atom_site_fract_x
 _atom_site_fract_y
 _atom_site_fract_z
 _atom_site_occupancy
  Fe  Fe0  1  0.42945226  0.06094119  0.00000000  1
  Fe  Fe1  1  0.63148893  0.57054774  0.00000000  1
  Fe  Fe2  1  0.93905881  0.36851107  0.00000000  1
  Fe  Fe3  1  0.15109460  0.27257490  0.00000000  1
  Fe  Fe4  1  0.12148030  0.84890540  0.00000000  1
  Fe  Fe5  1  0.72742510  0.87851970  0.00000000  1
  Fe  Fe6  1  0.38167016  0.43457310  0.50000000  1
  Fe  Fe7  1  0.05290294  0.61832984  0.50000000  1
  Fe  Fe8  1  0.56542690  0.94709706  0.50000000  1
  Fe  Fe9  1  0.21737912  0.09964764  0.50000000  1
  Fe  Fe10  1  0.88226852  0.78262088  0.50000000  1
  Fe  Fe11  1  0.90035236  0.11773148  0.50000000  1
  Ce  Ce12  1  0.33333300  0.66666700  0.00000000  1
  Ce  Ce13  1  0.66666700  0.33333300  0.50000000  1
  P  P14  1  0.40579935  0.29976909  0.00000000  1
  P  P15  1  0.89396973  0.59420065  0.00000000  1
  P  P16  1  0.70023091  0.10603027  0.00000000  1
  P  P17  1  0.10576325  0.39675745  0.50000000  1
  P  P18  1  0.29099420  0.89423675  0.50000000  1
  P  P19  1  0.60324255  0.70900580  0.50000000  1
  P  P20  1  0.00000000  0.00000000  0.00000000  1
