# generated using pymatgen
data_SiB3
_symmetry_space_group_name_H-M   'P 1'
_cell_length_a   6.22321633
_cell_length_b   8.17498212
_cell_length_c   8.17498184
_cell_angle_alpha   61.66695999
_cell_angle_beta   67.62755466
_cell_angle_gamma   67.62755378
_symmetry_Int_Tables_number   1
_chemical_formula_structural   SiB3
_chemical_formula_sum   'Si8 B24'
_cell_volume   328.14503524
_cell_formula_units_Z   8
loop_
 _symmetry_equiv_pos_site_id
 _symmetry_equiv_pos_as_xyz
  1  'x, y, z'
loop_
 _atom_site_type_symbol
 _atom_site_label
 _atom_site_symmetry_multiplicity
 _atom_site_fract_x
 _atom_site_fract_y
 _atom_site_fract_z
 _atom_site_occupancy
  Si  Si0  1  0.31387149  0.48066169  0.01933831  1
  Si  Si1  1  0.68612851  0.98066169  0.51933831  1
  Si  Si2  1  0.84774988  0.15446247  0.15446247  1
  Si  Si3  1  0.31387149  0.01933831  0.48066169  1
  Si  Si4  1  0.68612851  0.51933831  0.98066169  1
  Si  Si5  1  0.65667482  0.34553753  0.34553753  1
  Si  Si6  1  0.34332518  0.65446247  0.65446247  1
  Si  Si7  1  0.15225012  0.84553753  0.84553753  1
  B  B8  1  0.14922349  0.57424860  0.57424860  1
  B  B9  1  0.11508029  0.49818370  0.27699671  1
  B  B10  1  0.60973930  0.99818370  0.77699671  1
  B  B11  1  0.88491971  0.50181630  0.72300329  1
  B  B12  1  0.85077651  0.42575140  0.42575140  1
  B  B13  1  0.88491971  0.72300329  0.50181630  1
  B  B14  1  0.15355487  0.67658645  0.32659665  1
  B  B15  1  0.65673797  0.82341355  0.17340335  1
  B  B16  1  0.34326203  0.17658645  0.82659665  1
  B  B17  1  0.20227930  0.07424860  0.07424860  1
  B  B18  1  0.60973930  0.77699671  0.99818370  1
  B  B19  1  0.84644513  0.67340335  0.32341355  1
  B  B20  1  0.84644513  0.32341355  0.67340335  1
  B  B21  1  0.11508029  0.27699671  0.49818370  1
  B  B22  1  0.34080926  0.93088906  0.93088906  1
  B  B23  1  0.70258739  0.56911094  0.56911094  1
  B  B24  1  0.65673797  0.17340335  0.82341355  1
  B  B25  1  0.39026070  0.00181630  0.22300329  1
  B  B26  1  0.15355487  0.32659665  0.67658645  1
  B  B27  1  0.65919074  0.06911094  0.06911094  1
  B  B28  1  0.29741261  0.43088906  0.43088906  1
  B  B29  1  0.39026070  0.22300329  0.00181630  1
  B  B30  1  0.79772070  0.92575140  0.92575140  1
  B  B31  1  0.34326203  0.82659665  0.17658645  1
