# generated using pymatgen
data_K2PtS2
_symmetry_space_group_name_H-M   'P 1'
_cell_length_a   3.65681495
_cell_length_b   6.24802161
_cell_length_c   6.24802160
_cell_angle_alpha   69.82558131
_cell_angle_beta   72.98405489
_cell_angle_gamma   72.98405489
_symmetry_Int_Tables_number   1
_chemical_formula_structural   K2PtS2
_chemical_formula_sum   'K2 Pt1 S2'
_cell_volume   125.17274639
_cell_formula_units_Z   1
loop_
 _symmetry_equiv_pos_site_id
 _symmetry_equiv_pos_as_xyz
  1  'x, y, z'
loop_
 _atom_site_type_symbol
 _atom_site_label
 _atom_site_symmetry_multiplicity
 _atom_site_fract_x
 _atom_site_fract_y
 _atom_site_fract_z
 _atom_site_occupancy
  S  S0  1  0.50000000  0.78520714  0.21479286  1
  S  S1  1  0.50000000  0.21479286  0.78520714  1
  K  K2  1  0.80568457  0.69431543  0.69431543  1
  K  K3  1  0.19431543  0.30568457  0.30568457  1
  Pt  Pt4  1  0.00000000  0.00000000  0.00000000  1
