# generated using pymatgen
data_TaVO5
_symmetry_space_group_name_H-M   'P 1'
_cell_length_a   5.61589139
_cell_length_b   7.05995701
_cell_length_c   12.06699878
_cell_angle_alpha   90.00000000
_cell_angle_beta   90.00000000
_cell_angle_gamma   90.00000000
_symmetry_Int_Tables_number   1
_chemical_formula_structural   TaVO5
_chemical_formula_sum   'Ta4 V4 O20'
_cell_volume   478.43178583
_cell_formula_units_Z   4
loop_
 _symmetry_equiv_pos_site_id
 _symmetry_equiv_pos_as_xyz
  1  'x, y, z'
loop_
 _atom_site_type_symbol
 _atom_site_label
 _atom_site_symmetry_multiplicity
 _atom_site_fract_x
 _atom_site_fract_y
 _atom_site_fract_z
 _atom_site_occupancy
  O  O0  1  0.24999942  0.17778513  0.92417297  1
  O  O1  1  0.75000005  0.82221511  0.07582744  1
  O  O2  1  0.75000005  0.67778525  0.57582764  1
  O  O3  1  0.24999942  0.32221499  0.42417276  1
  O  O4  1  0.24999942  0.02826967  0.70377267  1
  O  O5  1  0.75000005  0.97173057  0.29622690  1
  O  O6  1  0.75000005  0.52826837  0.79622711  1
  O  O7  1  0.24999942  0.47173045  0.20377330  1
  O  O8  1  0.00000000  0.50000012  0.00000000  1
  O  O9  1  0.50000063  0.50000012  0.00000000  1
  O  O10  1  0.00000000  0.00000000  0.50000020  1
  O  O11  1  0.50000063  0.00000000  0.50000020  1
  O  O12  1  0.00122966  0.15950615  0.12380191  1
  O  O13  1  0.50123081  0.84049409  0.87619767  1
  O  O14  1  0.50123081  0.65950627  0.37619747  1
  O  O15  1  0.49877045  0.34049397  0.62380211  1
  O  O16  1  0.99876982  0.84049409  0.87619767  1
  O  O17  1  0.49877045  0.15950615  0.12380191  1
  O  O18  1  0.00122966  0.34049397  0.62380211  1
  O  O19  1  0.99876982  0.65950627  0.37619747  1
  V  V20  1  0.24999942  0.97002880  0.84561431  1
  V  V21  1  0.75000005  0.02997144  0.15438526  1
  V  V22  1  0.75000005  0.47002868  0.65438546  1
  V  V23  1  0.24999942  0.52997155  0.34561411  1
  Ta  Ta24  1  0.24999942  0.15658637  0.55859914  1
  Ta  Ta25  1  0.75000005  0.84341386  0.44140044  1
  Ta  Ta26  1  0.75000005  0.65658649  0.94140064  1
  Ta  Ta27  1  0.24999942  0.34341374  0.05859976  1
