# generated using pymatgen
data_Sr(SbPd)2
_symmetry_space_group_name_H-M   'P 1'
_cell_length_a   4.71502588
_cell_length_b   4.71502588
_cell_length_c   10.79668429
_cell_angle_alpha   90.00000000
_cell_angle_beta   90.00000000
_cell_angle_gamma   90.00000000
_symmetry_Int_Tables_number   1
_chemical_formula_structural   Sr(SbPd)2
_chemical_formula_sum   'Sr2 Sb4 Pd4'
_cell_volume   240.02615263
_cell_formula_units_Z   2
loop_
 _symmetry_equiv_pos_site_id
 _symmetry_equiv_pos_as_xyz
  1  'x, y, z'
loop_
 _atom_site_type_symbol
 _atom_site_label
 _atom_site_symmetry_multiplicity
 _atom_site_fract_x
 _atom_site_fract_y
 _atom_site_fract_z
 _atom_site_occupancy
  Sr  Sr0  1  0.25000000  0.25000000  0.75907139  1
  Sr  Sr1  1  0.75000000  0.75000000  0.24092861  1
  Pd  Pd2  1  0.75000000  0.25000000  0.00000000  1
  Pd  Pd3  1  0.25000000  0.75000000  0.00000000  1
  Pd  Pd4  1  0.25000000  0.25000000  0.37151071  1
  Pd  Pd5  1  0.75000000  0.75000000  0.62848929  1
  Sb  Sb6  1  0.75000000  0.25000000  0.50000000  1
  Sb  Sb7  1  0.25000000  0.75000000  0.50000000  1
  Sb  Sb8  1  0.25000000  0.25000000  0.12572972  1
  Sb  Sb9  1  0.75000000  0.75000000  0.87427028  1
