# generated using pymatgen
data_Y2S3
_symmetry_space_group_name_H-M   'P 1'
_cell_length_a   4.04419385
_cell_length_b   10.23405244
_cell_length_c   17.67181206
_cell_angle_alpha   98.65912911
_cell_angle_beta   90.00000000
_cell_angle_gamma   90.00000000
_symmetry_Int_Tables_number   1
_chemical_formula_structural   Y2S3
_chemical_formula_sum   'Y12 S18'
_cell_volume   723.07270315
_cell_formula_units_Z   6
loop_
 _symmetry_equiv_pos_site_id
 _symmetry_equiv_pos_as_xyz
  1  'x, y, z'
loop_
 _atom_site_type_symbol
 _atom_site_label
 _atom_site_symmetry_multiplicity
 _atom_site_fract_x
 _atom_site_fract_y
 _atom_site_fract_z
 _atom_site_occupancy
  Y  Y0  1  0.25000000  0.18916780  0.02066581  1
  Y  Y1  1  0.75000000  0.81083220  0.97933419  1
  Y  Y2  1  0.25000000  0.12451005  0.43014377  1
  Y  Y3  1  0.75000000  0.87548995  0.56985623  1
  Y  Y4  1  0.25000000  0.82918515  0.78106678  1
  Y  Y5  1  0.75000000  0.17081485  0.21893322  1
  Y  Y6  1  0.25000000  0.18726492  0.72046553  1
  Y  Y7  1  0.75000000  0.81273508  0.27953447  1
  Y  Y8  1  0.25000000  0.48643837  0.39881134  1
  Y  Y9  1  0.75000000  0.51356163  0.60118866  1
  Y  Y10  1  0.25000000  0.54955265  0.11508547  1
  Y  Y11  1  0.75000000  0.45044735  0.88491453  1
  S  S12  1  0.25000000  0.05140006  0.57515990  1
  S  S13  1  0.75000000  0.94859994  0.42484010  1
  S  S14  1  0.25000000  0.26821729  0.87316074  1
  S  S15  1  0.75000000  0.73178271  0.12683926  1
  S  S16  1  0.25000000  0.61501692  0.96661838  1
  S  S17  1  0.75000000  0.38498308  0.03338162  1
  S  S18  1  0.25000000  0.63827008  0.28156930  1
  S  S19  1  0.75000000  0.36172992  0.71843070  1
  S  S20  1  0.25000000  0.00747594  0.26810473  1
  S  S21  1  0.75000000  0.99252406  0.73189527  1
  S  S22  1  0.25000000  0.71047221  0.63023227  1
  S  S23  1  0.75000000  0.28952779  0.36976773  1
  S  S24  1  0.25000000  0.95066373  0.92426667  1
  S  S25  1  0.75000000  0.04933627  0.07573333  1
  S  S26  1  0.25000000  0.32046054  0.18343291  1
  S  S27  1  0.75000000  0.67953946  0.81656709  1
  S  S28  1  0.25000000  0.36771431  0.53193081  1
  S  S29  1  0.75000000  0.63228569  0.46806919  1
