# generated using pymatgen
data_Ti5Sb3
_symmetry_space_group_name_H-M   'P 1'
_cell_length_a   7.21201139
_cell_length_b   8.35261864
_cell_length_c   10.20637977
_cell_angle_alpha   90.00000000
_cell_angle_beta   90.00000000
_cell_angle_gamma   90.00000000
_symmetry_Int_Tables_number   1
_chemical_formula_structural   Ti5Sb3
_chemical_formula_sum   'Ti20 Sb12'
_cell_volume   614.82395595
_cell_formula_units_Z   4
loop_
 _symmetry_equiv_pos_site_id
 _symmetry_equiv_pos_as_xyz
  1  'x, y, z'
loop_
 _atom_site_type_symbol
 _atom_site_label
 _atom_site_symmetry_multiplicity
 _atom_site_fract_x
 _atom_site_fract_y
 _atom_site_fract_z
 _atom_site_occupancy
  Ti  Ti0  1  0.67174339  0.75000000  0.71236519  1
  Ti  Ti1  1  0.79594608  0.93673633  0.94519334  1
  Ti  Ti2  1  0.29594608  0.06326367  0.55480666  1
  Ti  Ti3  1  0.02144909  0.75000000  0.49424990  1
  Ti  Ti4  1  0.32825661  0.25000000  0.28763481  1
  Ti  Ti5  1  0.47855091  0.75000000  0.99424990  1
  Ti  Ti6  1  0.70405392  0.56326367  0.44519334  1
  Ti  Ti7  1  0.68297860  0.25000000  0.73885224  1
  Ti  Ti8  1  0.29594608  0.43673633  0.55480666  1
  Ti  Ti9  1  0.70405392  0.93673633  0.44519334  1
  Ti  Ti10  1  0.52144909  0.25000000  0.00575010  1
  Ti  Ti11  1  0.79594608  0.56326367  0.94519334  1
  Ti  Ti12  1  0.97855091  0.25000000  0.50575010  1
  Ti  Ti13  1  0.31702140  0.75000000  0.26114776  1
  Ti  Ti14  1  0.20405392  0.06326367  0.05480666  1
  Ti  Ti15  1  0.18297860  0.75000000  0.76114776  1
  Ti  Ti16  1  0.81702140  0.25000000  0.23885224  1
  Ti  Ti17  1  0.20405392  0.43673633  0.05480666  1
  Ti  Ti18  1  0.17174339  0.25000000  0.78763481  1
  Ti  Ti19  1  0.82825661  0.75000000  0.21236519  1
  Sb  Sb20  1  0.09252878  0.75000000  0.02255484  1
  Sb  Sb21  1  0.59252878  0.25000000  0.47744516  1
  Sb  Sb22  1  0.56544135  0.50846562  0.17789795  1
  Sb  Sb23  1  0.56544135  0.99153438  0.17789795  1
  Sb  Sb24  1  0.43455865  0.49153438  0.82210205  1
  Sb  Sb25  1  0.06544135  0.00846562  0.32210205  1
  Sb  Sb26  1  0.93455865  0.99153438  0.67789795  1
  Sb  Sb27  1  0.40747122  0.75000000  0.52255484  1
  Sb  Sb28  1  0.90747122  0.25000000  0.97744516  1
  Sb  Sb29  1  0.06544135  0.49153438  0.32210205  1
  Sb  Sb30  1  0.93455865  0.50846562  0.67789795  1
  Sb  Sb31  1  0.43455865  0.00846562  0.82210205  1
