# generated using pymatgen
data_ZrIn2
_symmetry_space_group_name_H-M   'P 1'
_cell_length_a   4.44235239
_cell_length_b   4.44235239
_cell_length_c   14.14489193
_cell_angle_alpha   99.03456431
_cell_angle_beta   99.03456429
_cell_angle_gamma   89.99999997
_symmetry_Int_Tables_number   1
_chemical_formula_structural   ZrIn2
_chemical_formula_sum   'Zr4 In8'
_cell_volume   272.17203897
_cell_formula_units_Z   4
loop_
 _symmetry_equiv_pos_site_id
 _symmetry_equiv_pos_as_xyz
  1  'x, y, z'
loop_
 _atom_site_type_symbol
 _atom_site_label
 _atom_site_symmetry_multiplicity
 _atom_site_fract_x
 _atom_site_fract_y
 _atom_site_fract_z
 _atom_site_occupancy
  Zr  Zr0  1  0.70237744  0.95237744  0.90475488  1
  Zr  Zr1  1  0.45237744  0.20237744  0.40475488  1
  Zr  Zr2  1  0.29762256  0.04762256  0.09524512  1
  Zr  Zr3  1  0.54762256  0.79762256  0.59524512  1
  In  In4  1  0.87550893  0.12550893  0.25101786  1
  In  In5  1  0.62550893  0.37550893  0.75101786  1
  In  In6  1  0.12449107  0.87449107  0.74898214  1
  In  In7  1  0.37449107  0.62449107  0.24898214  1
  In  In8  1  0.03711994  0.28711994  0.57423989  1
  In  In9  1  0.78711994  0.53711994  0.07423989  1
  In  In10  1  0.96288006  0.71288006  0.42576011  1
  In  In11  1  0.21288006  0.46288006  0.92576011  1
