# generated using pymatgen
data_Ge2N2O
_symmetry_space_group_name_H-M   'P 1'
_cell_length_a   5.17655847
_cell_length_b   5.54408254
_cell_length_c   5.54408254
_cell_angle_alpha   116.49879888
_cell_angle_beta   90.00000000
_cell_angle_gamma   90.00000000
_symmetry_Int_Tables_number   1
_chemical_formula_structural   Ge2N2O
_chemical_formula_sum   'Ge4 N4 O2'
_cell_volume   142.39548549
_cell_formula_units_Z   2
loop_
 _symmetry_equiv_pos_site_id
 _symmetry_equiv_pos_as_xyz
  1  'x, y, z'
loop_
 _atom_site_type_symbol
 _atom_site_label
 _atom_site_symmetry_multiplicity
 _atom_site_fract_x
 _atom_site_fract_y
 _atom_site_fract_z
 _atom_site_occupancy
  N  N0  1  0.23112392  0.66333763  0.08135449  1
  N  N1  1  0.73112392  0.33666237  0.91864551  1
  N  N2  1  0.73112392  0.91864551  0.33666237  1
  N  N3  1  0.23112392  0.08135449  0.66333763  1
  O  O4  1  0.30086147  0.24134465  0.24134465  1
  O  O5  1  0.80086147  0.75865535  0.75865535  1
  Ge  Ge6  1  0.38244534  0.97911476  0.32949778  1
  Ge  Ge7  1  0.88244534  0.02088524  0.67050222  1
  Ge  Ge8  1  0.88244534  0.67050222  0.02088524  1
  Ge  Ge9  1  0.38244534  0.32949778  0.97911476  1
