# generated using pymatgen
data_ZrI2
_symmetry_space_group_name_H-M   'P 1'
_cell_length_a   3.77640919
_cell_length_b   6.92474105
_cell_length_c   16.36433618
_cell_angle_alpha   90.00000000
_cell_angle_beta   90.00000000
_cell_angle_gamma   90.00000000
_symmetry_Int_Tables_number   1
_chemical_formula_structural   ZrI2
_chemical_formula_sum   'Zr4 I8'
_cell_volume   427.93812185
_cell_formula_units_Z   4
loop_
 _symmetry_equiv_pos_site_id
 _symmetry_equiv_pos_as_xyz
  1  'x, y, z'
loop_
 _atom_site_type_symbol
 _atom_site_label
 _atom_site_symmetry_multiplicity
 _atom_site_fract_x
 _atom_site_fract_y
 _atom_site_fract_z
 _atom_site_occupancy
  Zr  Zr0  1  0.00000000  0.49084679  0.00697042  1
  Zr  Zr1  1  0.00000000  0.88356313  0.50048268  1
  Zr  Zr2  1  0.50000000  0.11643687  0.00048268  1
  Zr  Zr3  1  0.50000000  0.50915321  0.50697042  1
  I  I4  1  0.00000000  0.88421699  0.10367683  1
  I  I5  1  0.50000000  0.77777624  0.36889610  1
  I  I6  1  0.00000000  0.22222376  0.86889610  1
  I  I7  1  0.50000000  0.72302584  0.90373129  1
  I  I8  1  0.50000000  0.11578301  0.60367683  1
  I  I9  1  0.50000000  0.38467463  0.13854267  1
  I  I10  1  0.00000000  0.27697416  0.40373129  1
  I  I11  1  0.00000000  0.61532537  0.63854267  1
