# generated using pymatgen
data_VSbO4
_symmetry_space_group_name_H-M   'P 1'
_cell_length_a   5.64675535
_cell_length_b   5.64675535
_cell_length_c   5.64675535
_cell_angle_alpha   108.18649176
_cell_angle_beta   108.18649175
_cell_angle_gamma   112.07241339
_symmetry_Int_Tables_number   1
_chemical_formula_structural   VSbO4
_chemical_formula_sum   'V2 Sb2 O8'
_cell_volume   138.38843900
_cell_formula_units_Z   2
loop_
 _symmetry_equiv_pos_site_id
 _symmetry_equiv_pos_as_xyz
  1  'x, y, z'
loop_
 _atom_site_type_symbol
 _atom_site_label
 _atom_site_symmetry_multiplicity
 _atom_site_fract_x
 _atom_site_fract_y
 _atom_site_fract_z
 _atom_site_occupancy
  O  O0  1  0.81429792  0.50582561  0.30847230  1
  O  O1  1  0.25582561  0.44735331  0.19152770  1
  O  O2  1  0.25582561  0.06429792  0.80847230  1
  O  O3  1  0.19735331  0.50582561  0.69152770  1
  O  O4  1  0.29720413  0.99455520  0.30264893  1
  O  O5  1  0.74455520  0.94190627  0.19735107  1
  O  O6  1  0.74455520  0.54720413  0.80264893  1
  O  O7  1  0.69190627  0.99455520  0.69735107  1
  V  V8  1  0.99244346  0.99244346  0.00000000  1
  V  V9  1  0.74244346  0.24244346  0.50000000  1
  Sb  Sb10  1  0.50679491  0.50679491  0.00000000  1
  Sb  Sb11  1  0.25679491  0.75679491  0.50000000  1
