# generated using pymatgen
data_CrF3
_symmetry_space_group_name_H-M   'P 1'
_cell_length_a   5.38068363
_cell_length_b   5.38068382
_cell_length_c   5.38068447
_cell_angle_alpha   56.71210667
_cell_angle_beta   56.71210536
_cell_angle_gamma   56.71210336
_symmetry_Int_Tables_number   1
_chemical_formula_structural   CrF3
_chemical_formula_sum   'Cr2 F6'
_cell_volume   101.79066723
_cell_formula_units_Z   2
loop_
 _symmetry_equiv_pos_site_id
 _symmetry_equiv_pos_as_xyz
  1  'x, y, z'
loop_
 _atom_site_type_symbol
 _atom_site_label
 _atom_site_symmetry_multiplicity
 _atom_site_fract_x
 _atom_site_fract_y
 _atom_site_fract_z
 _atom_site_occupancy
  Cr  Cr0  1  0.00000000  0.00000000  0.00000000  1
  Cr  Cr1  1  0.50000000  0.50000000  0.50000000  1
  F  F2  1  0.13247206  0.36752794  0.75000000  1
  F  F3  1  0.63247206  0.25000000  0.86752794  1
  F  F4  1  0.36752794  0.75000000  0.13247206  1
  F  F5  1  0.86752794  0.63247206  0.25000000  1
  F  F6  1  0.25000000  0.86752794  0.63247206  1
  F  F7  1  0.75000000  0.13247206  0.36752794  1
