# generated using pymatgen
data_La2Pd2O5
_symmetry_space_group_name_H-M   'P 1'
_cell_length_a   5.66666412
_cell_length_b   6.75307247
_cell_length_c   6.75307247
_cell_angle_alpha   90.00000000
_cell_angle_beta   90.00000000
_cell_angle_gamma   90.00000000
_symmetry_Int_Tables_number   1
_chemical_formula_structural   La2Pd2O5
_chemical_formula_sum   'La4 Pd4 O10'
_cell_volume   258.42248131
_cell_formula_units_Z   2
loop_
 _symmetry_equiv_pos_site_id
 _symmetry_equiv_pos_as_xyz
  1  'x, y, z'
loop_
 _atom_site_type_symbol
 _atom_site_label
 _atom_site_symmetry_multiplicity
 _atom_site_fract_x
 _atom_site_fract_y
 _atom_site_fract_z
 _atom_site_occupancy
  La  La0  1  0.50000000  0.10759176  0.73803226  1
  La  La1  1  0.00000000  0.73803226  0.89240824  1
  La  La2  1  0.50000000  0.89240824  0.26196774  1
  La  La3  1  0.00000000  0.26196774  0.10759176  1
  Pd  Pd4  1  0.00000000  0.30898974  0.59459839  1
  Pd  Pd5  1  0.50000000  0.40540161  0.30898974  1
  Pd  Pd6  1  0.00000000  0.69101026  0.40540161  1
  Pd  Pd7  1  0.50000000  0.59459839  0.69101026  1
  O  O8  1  0.25743842  0.80070829  0.59662298  1
  O  O9  1  0.75743842  0.40337702  0.80070829  1
  O  O10  1  0.74256158  0.19929171  0.40337702  1
  O  O11  1  0.25743842  0.19929171  0.40337702  1
  O  O12  1  0.75000000  0.00000000  0.00000000  1
  O  O13  1  0.75743842  0.59662298  0.19929171  1
  O  O14  1  0.24256158  0.59662298  0.19929171  1
  O  O15  1  0.74256158  0.80070829  0.59662298  1
  O  O16  1  0.25000000  0.00000000  0.00000000  1
  O  O17  1  0.24256158  0.40337702  0.80070829  1
