# generated using pymatgen
data_Cs2SO4
_symmetry_space_group_name_H-M   'P 1'
_cell_length_a   6.35420047
_cell_length_b   8.42495543
_cell_length_c   11.13418580
_cell_angle_alpha   90.00000000
_cell_angle_beta   90.00000000
_cell_angle_gamma   90.00000000
_symmetry_Int_Tables_number   1
_chemical_formula_structural   Cs2SO4
_chemical_formula_sum   'Cs8 S4 O16'
_cell_volume   596.05589654
_cell_formula_units_Z   4
loop_
 _symmetry_equiv_pos_site_id
 _symmetry_equiv_pos_as_xyz
  1  'x, y, z'
loop_
 _atom_site_type_symbol
 _atom_site_label
 _atom_site_symmetry_multiplicity
 _atom_site_fract_x
 _atom_site_fract_y
 _atom_site_fract_z
 _atom_site_occupancy
  Cs  Cs0  1  0.75000000  0.32262439  0.58877290  1
  Cs  Cs1  1  0.25000000  0.67737561  0.41122710  1
  Cs  Cs2  1  0.75000000  0.82262439  0.91122710  1
  Cs  Cs3  1  0.25000000  0.17737561  0.08877290  1
  Cs  Cs4  1  0.25000000  0.99168837  0.69704640  1
  Cs  Cs5  1  0.75000000  0.00831163  0.30295360  1
  Cs  Cs6  1  0.25000000  0.49168837  0.80295360  1
  Cs  Cs7  1  0.75000000  0.50831163  0.19704640  1
  S  S8  1  0.75000000  0.75443070  0.58349841  1
  S  S9  1  0.25000000  0.24556930  0.41650159  1
  S  S10  1  0.75000000  0.25443070  0.91650159  1
  S  S11  1  0.25000000  0.74556930  0.08349841  1
  O  O12  1  0.75000000  0.93196758  0.58492301  1
  O  O13  1  0.25000000  0.06803242  0.41507699  1
  O  O14  1  0.75000000  0.43196758  0.91507699  1
  O  O15  1  0.25000000  0.56803242  0.08492301  1
  O  O16  1  0.75000000  0.69500250  0.45637002  1
  O  O17  1  0.25000000  0.30499750  0.54362998  1
  O  O18  1  0.75000000  0.19500250  0.04362998  1
  O  O19  1  0.25000000  0.80499750  0.95637002  1
  O  O20  1  0.94285675  0.69445060  0.64657348  1
  O  O21  1  0.44285675  0.30554940  0.35342652  1
  O  O22  1  0.55714325  0.19445060  0.85342652  1
  O  O23  1  0.05714325  0.80554940  0.14657348  1
  O  O24  1  0.05714325  0.30554940  0.35342652  1
  O  O25  1  0.55714325  0.69445060  0.64657348  1
  O  O26  1  0.44285675  0.80554940  0.14657348  1
  O  O27  1  0.94285675  0.19445060  0.85342652  1
