# generated using pymatgen
data_VOF3
_symmetry_space_group_name_H-M   'P 1'
_cell_length_a   5.38240287
_cell_length_b   5.87112687
_cell_length_c   9.69663142
_cell_angle_alpha   89.64833450
_cell_angle_beta   90.00000000
_cell_angle_gamma   90.00000000
_symmetry_Int_Tables_number   1
_chemical_formula_structural   VOF3
_chemical_formula_sum   'V4 O4 F12'
_cell_volume   306.41524864
_cell_formula_units_Z   4
loop_
 _symmetry_equiv_pos_site_id
 _symmetry_equiv_pos_as_xyz
  1  'x, y, z'
loop_
 _atom_site_type_symbol
 _atom_site_label
 _atom_site_symmetry_multiplicity
 _atom_site_fract_x
 _atom_site_fract_y
 _atom_site_fract_z
 _atom_site_occupancy
  V  V0  1  0.91068364  0.66873176  0.37886184  1
  V  V1  1  0.58931636  0.66873176  0.87886184  1
  V  V2  1  0.41068364  0.33126824  0.12113816  1
  V  V3  1  0.08931636  0.33126824  0.62113816  1
  O  O4  1  0.32127026  0.20295308  0.55682557  1
  O  O5  1  0.82127026  0.79704692  0.94317443  1
  O  O6  1  0.17872974  0.20295308  0.05682557  1
  O  O7  1  0.67872974  0.79704692  0.44317443  1
  F  F8  1  0.09919884  0.88952566  0.31397335  1
  F  F9  1  0.90080116  0.11047434  0.68602665  1
  F  F10  1  0.29045293  0.44607013  0.27937240  1
  F  F11  1  0.20954707  0.44607013  0.77937240  1
  F  F12  1  0.13129581  0.64273291  0.54044847  1
  F  F13  1  0.70954707  0.55392987  0.72062760  1
  F  F14  1  0.63129581  0.35726709  0.95955153  1
  F  F15  1  0.36870419  0.64273291  0.04044847  1
  F  F16  1  0.59919884  0.11047434  0.18602665  1
  F  F17  1  0.79045293  0.55392987  0.22062760  1
  F  F18  1  0.86870419  0.35726709  0.45955153  1
  F  F19  1  0.40080116  0.88952566  0.81397335  1
