# generated using pymatgen
data_Zn3N2
_symmetry_space_group_name_H-M   'P 1'
_cell_length_a   8.53854428
_cell_length_b   8.53854428
_cell_length_c   8.53854428
_cell_angle_alpha   109.47122066
_cell_angle_beta   109.47122065
_cell_angle_gamma   109.47122059
_symmetry_Int_Tables_number   1
_chemical_formula_structural   Zn3N2
_chemical_formula_sum   'Zn24 N16'
_cell_volume   479.21412898
_cell_formula_units_Z   8
loop_
 _symmetry_equiv_pos_site_id
 _symmetry_equiv_pos_as_xyz
  1  'x, y, z'
loop_
 _atom_site_type_symbol
 _atom_site_label
 _atom_site_symmetry_multiplicity
 _atom_site_fract_x
 _atom_site_fract_y
 _atom_site_fract_z
 _atom_site_occupancy
  N  N0  1  0.25000000  0.73083221  0.48083221  1
  N  N1  1  0.01916779  0.75000000  0.76916779  1
  N  N2  1  0.76916779  0.01916779  0.75000000  1
  N  N3  1  0.48083221  0.25000000  0.73083221  1
  N  N4  1  0.73083221  0.48083221  0.25000000  1
  N  N5  1  0.75000000  0.76916779  0.01916779  1
  N  N6  1  0.75000000  0.26916779  0.51916779  1
  N  N7  1  0.98083221  0.25000000  0.23083221  1
  N  N8  1  0.23083221  0.98083221  0.25000000  1
  N  N9  1  0.51916779  0.75000000  0.26916779  1
  N  N10  1  0.26916779  0.51916779  0.75000000  1
  N  N11  1  0.25000000  0.23083221  0.98083221  1
  N  N12  1  0.00000000  0.50000000  0.00000000  1
  N  N13  1  0.50000000  0.00000000  0.00000000  1
  N  N14  1  0.00000000  0.00000000  0.50000000  1
  N  N15  1  0.50000000  0.50000000  0.50000000  1
  Zn  Zn16  1  0.04878799  0.27739046  0.02693158  1
  Zn  Zn17  1  0.27139753  0.74954111  0.22260954  1
  Zn  Zn18  1  0.75045889  0.02185641  0.47306842  1
  Zn  Zn19  1  0.45121201  0.47814359  0.22860247  1
  Zn  Zn20  1  0.22860247  0.45121201  0.47814359  1
  Zn  Zn21  1  0.27739046  0.02693158  0.04878799  1
  Zn  Zn22  1  0.22260954  0.27139753  0.74954111  1
  Zn  Zn23  1  0.02185641  0.47306842  0.75045889  1
  Zn  Zn24  1  0.47306842  0.75045889  0.02185641  1
  Zn  Zn25  1  0.74954111  0.22260954  0.27139753  1
  Zn  Zn26  1  0.02693158  0.04878799  0.27739046  1
  Zn  Zn27  1  0.47814359  0.22860247  0.45121201  1
  Zn  Zn28  1  0.97814359  0.52693158  0.24954111  1
  Zn  Zn29  1  0.77739046  0.72860247  0.25045889  1
  Zn  Zn30  1  0.72260954  0.97306842  0.95121201  1
  Zn  Zn31  1  0.77139753  0.54878799  0.52185641  1
  Zn  Zn32  1  0.54878799  0.52185641  0.77139753  1
  Zn  Zn33  1  0.24954111  0.97814359  0.52693158  1
  Zn  Zn34  1  0.72860247  0.25045889  0.77739046  1
  Zn  Zn35  1  0.95121201  0.72260954  0.97306842  1
  Zn  Zn36  1  0.52693158  0.24954111  0.97814359  1
  Zn  Zn37  1  0.25045889  0.77739046  0.72860247  1
  Zn  Zn38  1  0.97306842  0.95121201  0.72260954  1
  Zn  Zn39  1  0.52185641  0.77139753  0.54878799  1
