# generated using pymatgen
data_TmFeO3
_symmetry_space_group_name_H-M   'P 1'
_cell_length_a   6.07291002
_cell_length_b   6.07291058
_cell_length_c   11.75054403
_cell_angle_alpha   90.00000000
_cell_angle_beta   90.00000000
_cell_angle_gamma   119.99999694
_symmetry_Int_Tables_number   1
_chemical_formula_structural   TmFeO3
_chemical_formula_sum   'Tm6 Fe6 O18'
_cell_volume   375.30327321
_cell_formula_units_Z   6
loop_
 _symmetry_equiv_pos_site_id
 _symmetry_equiv_pos_as_xyz
  1  'x, y, z'
loop_
 _atom_site_type_symbol
 _atom_site_label
 _atom_site_symmetry_multiplicity
 _atom_site_fract_x
 _atom_site_fract_y
 _atom_site_fract_z
 _atom_site_occupancy
  Tm  Tm0  1  0.66666700  0.33333300  0.73244432  1
  Tm  Tm1  1  0.66666700  0.33333300  0.23244432  1
  Tm  Tm2  1  0.00000000  0.00000000  0.27582521  1
  Tm  Tm3  1  0.33333300  0.66666700  0.23244432  1
  Tm  Tm4  1  0.00000000  0.00000000  0.77582521  1
  Tm  Tm5  1  0.33333300  0.66666700  0.73244432  1
  Fe  Fe6  1  0.33388234  0.00000000  0.00067211  1
  Fe  Fe7  1  0.00000000  0.33388234  0.00067211  1
  Fe  Fe8  1  1.00000000  0.66611766  0.50067211  1
  Fe  Fe9  1  0.66611766  0.00000000  0.50067211  1
  Fe  Fe10  1  0.66611766  0.66611766  0.00067211  1
  Fe  Fe11  1  0.33388234  0.33388234  0.50067211  1
  O  O12  1  0.00000000  0.36134663  0.83631087  1
  O  O13  1  0.30523235  0.30523235  0.66693198  1
  O  O14  1  0.66666700  0.33333300  0.02312121  1
  O  O15  1  0.00000000  0.69476765  0.66693198  1
  O  O16  1  0.66666700  0.33333300  0.52312121  1
  O  O17  1  0.00000000  0.00000000  0.47519786  1
  O  O18  1  0.36134663  0.00000000  0.83631087  1
  O  O19  1  0.33333300  0.66666700  0.52312121  1
  O  O20  1  0.30523235  0.00000000  0.16693198  1
  O  O21  1  0.63865337  0.00000000  0.33631087  1
  O  O22  1  0.63865337  0.63865337  0.83631087  1
  O  O23  1  0.36134663  0.36134663  0.33631087  1
  O  O24  1  0.00000000  0.63865337  0.33631087  1
  O  O25  1  0.00000000  0.30523235  0.16693198  1
  O  O26  1  0.69476765  0.00000000  0.66693198  1
  O  O27  1  0.69476765  0.69476765  0.16693198  1
  O  O28  1  0.00000000  0.00000000  0.97519786  1
  O  O29  1  0.33333300  0.66666700  0.02312121  1
