# generated using pymatgen
data_Rb7Au5O2
_symmetry_space_group_name_H-M   'P 1'
_cell_length_a   5.80988627
_cell_length_b   9.47938094
_cell_length_c   10.15256737
_cell_angle_alpha   117.82979266
_cell_angle_beta   106.62634266
_cell_angle_gamma   89.99999745
_symmetry_Int_Tables_number   1
_chemical_formula_structural   Rb7Au5O2
_chemical_formula_sum   'Rb7 Au5 O2'
_cell_volume   467.87490113
_cell_formula_units_Z   1
loop_
 _symmetry_equiv_pos_site_id
 _symmetry_equiv_pos_as_xyz
  1  'x, y, z'
loop_
 _atom_site_type_symbol
 _atom_site_label
 _atom_site_symmetry_multiplicity
 _atom_site_fract_x
 _atom_site_fract_y
 _atom_site_fract_z
 _atom_site_occupancy
  Rb  Rb0  1  0.83390134  0.61192144  0.66780268  1
  Rb  Rb1  1  0.50000000  0.78885740  1.00000000  1
  Rb  Rb2  1  0.83390134  0.05588124  0.66780268  1
  Rb  Rb3  1  0.16609866  0.38807856  0.33219732  1
  Rb  Rb4  1  0.16609866  0.94411876  0.33219732  1
  Rb  Rb5  1  0.50000000  0.21114260  0.00000000  1
  Rb  Rb6  1  0.00000000  0.50000000  0.00000000  1
  Au  Au7  1  0.65176240  0.65176240  0.30352480  1
  Au  Au8  1  0.30709050  0.80709050  0.61418099  1
  Au  Au9  1  0.00000000  0.00000000  0.00000000  1
  Au  Au10  1  0.34823760  0.34823760  0.69647520  1
  Au  Au11  1  0.69290950  0.19290950  0.38581901  1
  O  O12  1  1.00000000  0.78463247  0.00000000  1
  O  O13  1  0.00000000  0.21536753  1.00000000  1
