# generated using pymatgen
data_Sr2MnMoO6
_symmetry_space_group_name_H-M   'P 1'
_cell_length_a   5.76091968
_cell_length_b   5.73325542
_cell_length_c   8.09817890
_cell_angle_alpha   90.13240120
_cell_angle_beta   90.00000000
_cell_angle_gamma   90.00000000
_symmetry_Int_Tables_number   1
_chemical_formula_structural   Sr2MnMoO6
_chemical_formula_sum   'Sr4 Mn2 Mo2 O12'
_cell_volume   267.47261135
_cell_formula_units_Z   2
loop_
 _symmetry_equiv_pos_site_id
 _symmetry_equiv_pos_as_xyz
  1  'x, y, z'
loop_
 _atom_site_type_symbol
 _atom_site_label
 _atom_site_symmetry_multiplicity
 _atom_site_fract_x
 _atom_site_fract_y
 _atom_site_fract_z
 _atom_site_occupancy
  Sr  Sr0  1  0.53098984  0.49445215  0.24955408  1
  Sr  Sr1  1  0.03098984  0.00554785  0.25044592  1
  Sr  Sr2  1  0.96901016  0.99445215  0.74955408  1
  Sr  Sr3  1  0.46901016  0.50554785  0.75044592  1
  Mn  Mn4  1  0.00000000  0.50000000  0.00000000  1
  Mn  Mn5  1  0.50000000  0.00000000  0.50000000  1
  Mo  Mo6  1  0.50000000  0.00000000  0.00000000  1
  Mo  Mo7  1  0.00000000  0.50000000  0.50000000  1
  O  O8  1  0.20354486  0.76832844  0.53481764  1
  O  O9  1  0.79645514  0.23167156  0.46518236  1
  O  O10  1  0.98466442  0.56840746  0.26408405  1
  O  O11  1  0.27014064  0.29935717  0.46291721  1
  O  O12  1  0.48466442  0.93159254  0.23591595  1
  O  O13  1  0.22985936  0.79935717  0.96291721  1
  O  O14  1  0.51533558  0.06840746  0.76408405  1
  O  O15  1  0.77014064  0.20064283  0.03708279  1
  O  O16  1  0.29645514  0.26832844  0.03481764  1
  O  O17  1  0.72985936  0.70064283  0.53708279  1
  O  O18  1  0.01533558  0.43159254  0.73591595  1
  O  O19  1  0.70354486  0.73167156  0.96518236  1
