# generated using pymatgen
data_Lu2WO6
_symmetry_space_group_name_H-M   'P 1'
_cell_length_a   5.29621132
_cell_length_b   7.58302403
_cell_length_c   11.28936130
_cell_angle_alpha   104.82242900
_cell_angle_beta   90.00000000
_cell_angle_gamma   90.00000000
_symmetry_Int_Tables_number   1
_chemical_formula_structural   Lu2WO6
_chemical_formula_sum   'Lu8 W4 O24'
_cell_volume   438.30790559
_cell_formula_units_Z   4
loop_
 _symmetry_equiv_pos_site_id
 _symmetry_equiv_pos_as_xyz
  1  'x, y, z'
loop_
 _atom_site_type_symbol
 _atom_site_label
 _atom_site_symmetry_multiplicity
 _atom_site_fract_x
 _atom_site_fract_y
 _atom_site_fract_z
 _atom_site_occupancy
  Lu  Lu0  1  0.26005782  0.00000000  0.75000000  1
  Lu  Lu1  1  0.18350337  0.20504128  0.07910891  1
  Lu  Lu2  1  0.18350337  0.79495872  0.42089109  1
  Lu  Lu3  1  0.73994218  0.00000000  0.25000000  1
  Lu  Lu4  1  0.31495862  0.50000000  0.75000000  1
  Lu  Lu5  1  0.81649663  0.79495872  0.92089109  1
  Lu  Lu6  1  0.81649663  0.20504128  0.57910891  1
  Lu  Lu7  1  0.68504138  0.50000000  0.25000000  1
  W  W8  1  0.74391447  0.27705329  0.88574027  1
  W  W9  1  0.25608553  0.27705329  0.38574027  1
  W  W10  1  0.74391447  0.72294671  0.61425973  1
  W  W11  1  0.25608553  0.72294671  0.11425973  1
  O  O12  1  0.53974342  0.84773351  0.06891790  1
  O  O13  1  0.04132805  0.94231795  0.10485527  1
  O  O14  1  0.02309653  0.28985358  0.77010177  1
  O  O15  1  0.46025658  0.84773351  0.56891790  1
  O  O16  1  0.36343248  0.51366378  0.38498305  1
  O  O17  1  0.95867195  0.94231795  0.60485527  1
  O  O18  1  0.53946943  0.20665488  0.72493088  1
  O  O19  1  0.46053057  0.20665488  0.22493088  1
  O  O20  1  0.14861266  0.36672911  0.55112918  1
  O  O21  1  0.04132805  0.05768205  0.39514473  1
  O  O22  1  0.46025658  0.15226649  0.93108210  1
  O  O23  1  0.46053057  0.79334512  0.27506912  1
  O  O24  1  0.85138734  0.63327089  0.44887082  1
  O  O25  1  0.63656752  0.51366378  0.88498305  1
  O  O26  1  0.36343248  0.48633622  0.11501695  1
  O  O27  1  0.95867195  0.05768205  0.89514473  1
  O  O28  1  0.53974342  0.15226649  0.43108210  1
  O  O29  1  0.97690347  0.71014642  0.22989823  1
  O  O30  1  0.53946943  0.79334512  0.77506912  1
  O  O31  1  0.85138734  0.36672911  0.05112918  1
  O  O32  1  0.02309653  0.71014642  0.72989823  1
  O  O33  1  0.14861266  0.63327089  0.94887082  1
  O  O34  1  0.97690347  0.28985358  0.27010177  1
  O  O35  1  0.63656752  0.48633622  0.61501695  1
