# generated using pymatgen
data_SiB2Mo5
_symmetry_space_group_name_H-M   'P 1'
_cell_length_a   6.05454250
_cell_length_b   6.05437519
_cell_length_c   7.03165083
_cell_angle_alpha   115.49020763
_cell_angle_beta   115.50060974
_cell_angle_gamma   89.99999997
_symmetry_Int_Tables_number   1
_chemical_formula_structural   SiB2Mo5
_chemical_formula_sum   'Si2 B4 Mo10'
_cell_volume   204.49694633
_cell_formula_units_Z   2
loop_
 _symmetry_equiv_pos_site_id
 _symmetry_equiv_pos_as_xyz
  1  'x, y, z'
loop_
 _atom_site_type_symbol
 _atom_site_label
 _atom_site_symmetry_multiplicity
 _atom_site_fract_x
 _atom_site_fract_y
 _atom_site_fract_z
 _atom_site_occupancy
  B  B0  1  0.37945698  0.87945700  0.00004284  1
  B  B1  1  0.12058586  0.37945700  0.00004284  1
  B  B2  1  0.62054302  0.12054300  0.99995716  1
  B  B3  1  0.87941414  0.62054300  0.99995716  1
  Si  Si4  1  0.25005140  0.25000000  0.50000000  1
  Si  Si5  1  0.74994860  0.75000000  0.50000000  1
  Mo  Mo6  1  0.50000000  0.50000000  0.00000000  1
  Mo  Mo7  1  0.47529714  0.30334570  0.27860704  1
  Mo  Mo8  1  0.30330990  0.80334570  0.27860704  1
  Mo  Mo9  1  0.52470286  0.69665430  0.72139296  1
  Mo  Mo10  1  0.19657285  0.02476263  0.72136003  1
  Mo  Mo11  1  0.02478718  0.52476263  0.72136003  1
  Mo  Mo12  1  0.69669010  0.19665430  0.72139296  1
  Mo  Mo13  1  0.97521282  0.47523737  0.27863997  1
  Mo  Mo14  1  0.00000000  0.00000000  0.00000000  1
  Mo  Mo15  1  0.80342715  0.97523737  0.27863997  1
