# generated using pymatgen
data_RbH3O2
_symmetry_space_group_name_H-M   'P 1'
_cell_length_a   4.22775795
_cell_length_b   6.07548689
_cell_length_c   6.02474570
_cell_angle_alpha   90.00000000
_cell_angle_beta   90.00000000
_cell_angle_gamma   110.36110706
_symmetry_Int_Tables_number   1
_chemical_formula_structural   RbH3O2
_chemical_formula_sum   'Rb2 H6 O4'
_cell_volume   145.08072508
_cell_formula_units_Z   2
loop_
 _symmetry_equiv_pos_site_id
 _symmetry_equiv_pos_as_xyz
  1  'x, y, z'
loop_
 _atom_site_type_symbol
 _atom_site_label
 _atom_site_symmetry_multiplicity
 _atom_site_fract_x
 _atom_site_fract_y
 _atom_site_fract_z
 _atom_site_occupancy
  H  H0  1  0.48802364  -0.02395272  0.01180679  1
  H  H1  1  0.51197636  1.02395272  0.51180679  1
  H  H2  1  0.30233025  0.21603544  0.30009836  1
  H  H3  1  0.69766975  0.78396456  0.80009836  1
  H  H4  1  0.08629481  0.78396456  0.80009836  1
  H  H5  1  0.91370519  0.21603544  0.30009836  1
  O  O6  1  0.84059818  0.68119635  0.76440366  1
  O  O7  1  0.46810160  0.93620320  0.85344894  1
  O  O8  1  0.15940182  0.31880365  0.26440366  1
  O  O9  1  0.53189840  0.06379680  0.35344894  1
  Rb  Rb10  1  0.84651573  0.69303146  0.27424389  1
  Rb  Rb11  1  0.15348427  0.30696854  0.77424389  1
