# generated using pymatgen
data_IrF6
_symmetry_space_group_name_H-M   'P 1'
_cell_length_a   5.13438813
_cell_length_b   8.85650436
_cell_length_c   9.74950261
_cell_angle_alpha   90.00000000
_cell_angle_beta   90.00000000
_cell_angle_gamma   90.00000000
_symmetry_Int_Tables_number   1
_chemical_formula_structural   IrF6
_chemical_formula_sum   'Ir4 F24'
_cell_volume   443.33650820
_cell_formula_units_Z   4
loop_
 _symmetry_equiv_pos_site_id
 _symmetry_equiv_pos_as_xyz
  1  'x, y, z'
loop_
 _atom_site_type_symbol
 _atom_site_label
 _atom_site_symmetry_multiplicity
 _atom_site_fract_x
 _atom_site_fract_y
 _atom_site_fract_z
 _atom_site_occupancy
  Ir  Ir0  1  0.59412798  0.25000000  0.12693746  1
  Ir  Ir1  1  0.90587202  0.25000000  0.62693746  1
  Ir  Ir2  1  0.40587202  0.75000000  0.87306254  1
  Ir  Ir3  1  0.09412798  0.75000000  0.37306254  1
  F  F4  1  0.24967021  0.60022302  0.48174415  1
  F  F5  1  0.25032979  0.89977698  0.98174415  1
  F  F6  1  0.93899221  0.89956819  0.26416620  1
  F  F7  1  0.19754627  0.25000000  0.51110093  1
  F  F8  1  0.74967021  0.10022302  0.01825585  1
  F  F9  1  0.56100779  0.89956819  0.76416620  1
  F  F10  1  0.30245373  0.25000000  0.01110093  1
  F  F11  1  0.24967021  0.89977698  0.48174415  1
  F  F12  1  0.75032979  0.39977698  0.51825585  1
  F  F13  1  0.43899221  0.39956819  0.23583380  1
  F  F14  1  0.74967021  0.39977698  0.01825585  1
  F  F15  1  0.80245373  0.75000000  0.48889907  1
  F  F16  1  0.69754627  0.75000000  0.98889907  1
  F  F17  1  0.25032979  0.60022302  0.98174415  1
  F  F18  1  0.43899221  0.10043181  0.23583380  1
  F  F19  1  0.06100779  0.39956819  0.73583380  1
  F  F20  1  0.61339038  0.25000000  0.74231241  1
  F  F21  1  0.56100779  0.60043181  0.76416620  1
  F  F22  1  0.88660962  0.25000000  0.24231241  1
  F  F23  1  0.11339038  0.75000000  0.75768759  1
  F  F24  1  0.06100779  0.10043181  0.73583380  1
  F  F25  1  0.93899221  0.60043181  0.26416620  1
  F  F26  1  0.38660962  0.75000000  0.25768759  1
  F  F27  1  0.75032979  0.10022302  0.51825585  1
