# generated using pymatgen
data_KSb(PS3)2
_symmetry_space_group_name_H-M   'P 1'
_cell_length_a   6.76063380
_cell_length_b   7.87765186
_cell_length_c   9.90608395
_cell_angle_alpha   90.00000000
_cell_angle_beta   92.39244457
_cell_angle_gamma   90.00000000
_symmetry_Int_Tables_number   1
_chemical_formula_structural   KSb(PS3)2
_chemical_formula_sum   'K2 Sb2 P4 S12'
_cell_volume   527.11755411
_cell_formula_units_Z   2
loop_
 _symmetry_equiv_pos_site_id
 _symmetry_equiv_pos_as_xyz
  1  'x, y, z'
loop_
 _atom_site_type_symbol
 _atom_site_label
 _atom_site_symmetry_multiplicity
 _atom_site_fract_x
 _atom_site_fract_y
 _atom_site_fract_z
 _atom_site_occupancy
  K  K0  1  0.30526275  0.55425094  0.49244706  1
  K  K1  1  0.69473725  0.05425094  0.50755294  1
  Sb  Sb2  1  0.18539312  0.26310825  0.01803032  1
  Sb  Sb3  1  0.81460688  0.76310825  0.98196968  1
  P  P4  1  0.20434817  0.06726039  0.30191535  1
  P  P5  1  0.69359928  0.35092918  0.82864958  1
  P  P6  1  0.30640072  0.85092918  0.17135042  1
  P  P7  1  0.79565183  0.56726039  0.69808465  1
  S  S8  1  0.04995465  0.64086272  0.80743938  1
  S  S9  1  0.32691560  0.96472576  0.98167283  1
  S  S10  1  0.59195040  0.75068547  0.73088404  1
  S  S11  1  0.67308440  0.46472576  0.01832717  1
  S  S12  1  0.90686777  0.16372675  0.82989652  1
  S  S13  1  0.09313223  0.66372675  0.17010348  1
  S  S14  1  0.40804960  0.25068547  0.26911596  1
  S  S15  1  0.95004535  0.14086272  0.19256062  1
  S  S16  1  0.82587420  0.48628326  0.51164146  1
  S  S17  1  0.43329820  0.26501728  0.75277422  1
  S  S18  1  0.17412580  0.98628326  0.48835854  1
  S  S19  1  0.56670180  0.76501728  0.24722578  1
