# generated using pymatgen
data_Ti6Al16Pt7
_symmetry_space_group_name_H-M   'P 1'
_cell_length_a   8.65853363
_cell_length_b   8.65888752
_cell_length_c   8.65865547
_cell_angle_alpha   59.99816864
_cell_angle_beta   60.00209369
_cell_angle_gamma   59.99957147
_symmetry_Int_Tables_number   1
_chemical_formula_structural   Ti6Al16Pt7
_chemical_formula_sum   'Ti6 Al16 Pt7'
_cell_volume   459.03030797
_cell_formula_units_Z   1
loop_
 _symmetry_equiv_pos_site_id
 _symmetry_equiv_pos_as_xyz
  1  'x, y, z'
loop_
 _atom_site_type_symbol
 _atom_site_label
 _atom_site_symmetry_multiplicity
 _atom_site_fract_x
 _atom_site_fract_y
 _atom_site_fract_z
 _atom_site_occupancy
  Ti  Ti0  1  0.67265324  0.32734677  0.32734408  1
  Ti  Ti1  1  0.32733939  0.67266044  0.67265889  1
  Ti  Ti2  1  0.32738070  0.67261924  0.32735427  1
  Ti  Ti3  1  0.32736580  0.32734303  0.67263080  1
  Ti  Ti4  1  0.67264609  0.32735310  0.67261996  1
  Ti  Ti5  1  0.67265711  0.67263447  0.32734026  1
  Al  Al6  1  0.34032757  0.34029406  0.34030757  1
  Al  Al7  1  0.34029147  0.34030349  0.97909840  1
  Al  Al8  1  0.97907421  0.34030732  0.34029165  1
  Al  Al9  1  0.34030717  0.97909614  0.34030360  1
  Al  Al10  1  0.65969723  0.65970940  0.65969357  1
  Al  Al11  1  0.65970663  0.65967315  0.02092816  1
  Al  Al12  1  0.65969317  0.02092592  0.65967308  1
  Al  Al13  1  0.02090390  0.65969331  0.65970684  1
  Al  Al14  1  0.12028804  0.12030869  0.12030375  1
  Al  Al15  1  0.12030094  0.12030181  0.63910415  1
  Al  Al16  1  0.63910004  0.12030281  0.12031025  1
  Al  Al17  1  0.12029435  0.63910367  0.12030282  1
  Al  Al18  1  0.87969826  0.87969937  0.87970672  1
  Al  Al19  1  0.87969126  0.87971221  0.36090025  1
  Al  Al20  1  0.87969733  0.36089994  0.87971295  1
  Al  Al21  1  0.36089632  0.87970578  0.87970055  1
  Pt  Pt22  1  0.50000096  0.99999894  0.99999966  1
  Pt  Pt23  1  0.00000152  0.49999904  0.49999936  1
  Pt  Pt24  1  0.99999621  0.50000101  0.00000414  1
  Pt  Pt25  1  0.99999656  0.00000387  0.50000124  1
  Pt  Pt26  1  0.49999886  0.00000442  0.50000114  1
  Pt  Pt27  1  0.49999926  0.50000096  0.00000413  1
  Pt  Pt28  1  0.99999944  0.00000063  0.00000076  1
