# generated using pymatgen
data_VPO4
_symmetry_space_group_name_H-M   'P 1'
_cell_length_a   4.76232297
_cell_length_b   4.76232296
_cell_length_c   6.48679336
_cell_angle_alpha   90.00000000
_cell_angle_beta   90.00000000
_cell_angle_gamma   67.33561211
_symmetry_Int_Tables_number   1
_chemical_formula_structural   VPO4
_chemical_formula_sum   'V2 P2 O8'
_cell_volume   135.75782628
_cell_formula_units_Z   2
loop_
 _symmetry_equiv_pos_site_id
 _symmetry_equiv_pos_as_xyz
  1  'x, y, z'
loop_
 _atom_site_type_symbol
 _atom_site_label
 _atom_site_symmetry_multiplicity
 _atom_site_fract_x
 _atom_site_fract_y
 _atom_site_fract_z
 _atom_site_occupancy
  O  O0  1  0.24355934  0.24355934  0.05231514  1
  O  O1  1  0.24355934  0.24355934  0.44768486  1
  O  O2  1  0.21973515  0.70764753  0.25000000  1
  O  O3  1  0.29235247  0.78026485  0.75000000  1
  O  O4  1  0.70764753  0.21973515  0.25000000  1
  O  O5  1  0.78026485  0.29235247  0.75000000  1
  O  O6  1  0.75644066  0.75644066  0.55231514  1
  O  O7  1  0.75644066  0.75644066  0.94768486  1
  P  P8  1  0.34885291  0.34885291  0.25000000  1
  P  P9  1  0.65114709  0.65114709  0.75000000  1
  V  V10  1  0.00000000  0.00000000  0.00000000  1
  V  V11  1  0.00000000  0.00000000  0.50000000  1
