# generated using pymatgen
data_K3Mn2F7
_symmetry_space_group_name_H-M   'P 1'
_cell_length_a   4.25998437
_cell_length_b   4.25998437
_cell_length_c   11.34849499
_cell_angle_alpha   100.81797059
_cell_angle_beta   100.81797063
_cell_angle_gamma   90.00000005
_symmetry_Int_Tables_number   1
_chemical_formula_structural   K3Mn2F7
_chemical_formula_sum   'K3 Mn2 F7'
_cell_volume   198.55900138
_cell_formula_units_Z   1
loop_
 _symmetry_equiv_pos_site_id
 _symmetry_equiv_pos_as_xyz
  1  'x, y, z'
loop_
 _atom_site_type_symbol
 _atom_site_label
 _atom_site_symmetry_multiplicity
 _atom_site_fract_x
 _atom_site_fract_y
 _atom_site_fract_z
 _atom_site_occupancy
  F  F0  1  0.00000000  0.00000000  0.00000000  1
  F  F1  1  0.40354180  0.90354180  0.80708361  1
  F  F2  1  0.90354180  0.40354180  0.80708361  1
  F  F3  1  0.59645820  0.09645820  0.19291639  1
  F  F4  1  0.09645820  0.59645820  0.19291639  1
  F  F5  1  0.19505674  0.19505674  0.39011348  1
  F  F6  1  0.80494326  0.80494326  0.60988652  1
  K  K7  1  0.31439355  0.31439355  0.62878711  1
  K  K8  1  0.68560645  0.68560645  0.37121289  1
  K  K9  1  0.50000000  0.50000000  0.00000000  1
  Mn  Mn10  1  0.09813102  0.09813102  0.19626204  1
  Mn  Mn11  1  0.90186898  0.90186898  0.80373796  1
