# generated using pymatgen
data_Al2S3
_symmetry_space_group_name_H-M   'P 1'
_cell_length_a   6.61014634
_cell_length_b   6.61014643
_cell_length_c   17.28142839
_cell_angle_alpha   90.00000000
_cell_angle_beta   90.00000000
_cell_angle_gamma   119.99999956
_symmetry_Int_Tables_number   1
_chemical_formula_structural   Al2S3
_chemical_formula_sum   'Al12 S18'
_cell_volume   653.93175081
_cell_formula_units_Z   6
loop_
 _symmetry_equiv_pos_site_id
 _symmetry_equiv_pos_as_xyz
  1  'x, y, z'
loop_
 _atom_site_type_symbol
 _atom_site_label
 _atom_site_symmetry_multiplicity
 _atom_site_fract_x
 _atom_site_fract_y
 _atom_site_fract_z
 _atom_site_occupancy
  Al  Al0  1  0.65809925  0.00934910  0.54947805  1
  Al  Al1  1  0.69934421  0.00578480  0.18385299  1
  Al  Al2  1  0.00578480  0.30644058  0.01718699  1
  Al  Al3  1  0.99065090  0.64875015  0.88281205  1
  Al  Al4  1  0.00934910  0.35124985  0.38281205  1
  Al  Al5  1  0.99421520  0.69355942  0.51718699  1
  Al  Al6  1  0.64875015  0.65809925  0.71614505  1
  Al  Al7  1  0.69355942  0.69934421  0.35051999  1
  Al  Al8  1  0.30644058  0.30065579  0.85051999  1
  Al  Al9  1  0.30065579  0.99421520  0.68385299  1
  Al  Al10  1  0.35124985  0.34190075  0.21614505  1
  Al  Al11  1  0.34190075  0.99065090  0.04947805  1
  S  S12  1  0.33962756  0.34289793  0.34829037  1
  S  S13  1  0.66554740  0.95910138  0.04087592  1
  S  S14  1  0.04089862  0.70644602  0.37420992  1
  S  S15  1  0.65357748  0.69899127  0.49485468  1
  S  S16  1  0.33445260  0.04089862  0.54087592  1
  S  S17  1  0.66037244  0.65710207  0.84829037  1
  S  S18  1  0.65710207  -0.00327037  0.68162337  1
  S  S19  1  0.30100873  0.95458620  0.82818868  1
  S  S20  1  0.04541380  0.34642252  0.16152168  1
  S  S21  1  0.95458620  0.65357748  0.66152168  1
  S  S22  1  0.34289793  1.00327037  0.18162337  1
  S  S23  1  0.69899127  0.04541380  0.32818868  1
  S  S24  1  0.70644602  0.66554740  0.20754292  1
  S  S25  1  1.00327037  0.66037244  0.01495737  1
  S  S26  1  0.34642252  0.30100873  0.99485468  1
  S  S27  1  0.95910138  0.29355398  0.87420992  1
  S  S28  1  0.29355398  0.33445260  0.70754292  1
  S  S29  1  -0.00327037  0.33962756  0.51495737  1
