# generated using pymatgen
data_MgB7
_symmetry_space_group_name_H-M   'P 1'
_cell_length_a   5.97398862
_cell_length_b   7.26397248
_cell_length_c   7.26397248
_cell_angle_alpha   92.19162023
_cell_angle_beta   114.28065741
_cell_angle_gamma   114.28065741
_symmetry_Int_Tables_number   1
_chemical_formula_structural   MgB7
_chemical_formula_sum   'Mg4 B28'
_cell_volume   253.63365062
_cell_formula_units_Z   4
loop_
 _symmetry_equiv_pos_site_id
 _symmetry_equiv_pos_as_xyz
  1  'x, y, z'
loop_
 _atom_site_type_symbol
 _atom_site_label
 _atom_site_symmetry_multiplicity
 _atom_site_fract_x
 _atom_site_fract_y
 _atom_site_fract_z
 _atom_site_occupancy
  Mg  Mg0  1  0.00000000  0.00000000  0.00000000  1
  Mg  Mg1  1  0.50000000  0.00000000  0.00000000  1
  Mg  Mg2  1  0.13615297  0.38615297  0.38615297  1
  Mg  Mg3  1  0.86384703  0.61384703  0.61384703  1
  B  B4  1  0.88493629  0.24399194  0.02588163  1
  B  B5  1  0.20887912  0.37748433  0.03317323  1
  B  B6  1  0.70177744  0.37748433  0.03317323  1
  B  B7  1  0.67638972  0.75861782  0.09416162  1
  B  B8  1  0.52427760  0.35820390  0.19035129  1
  B  B9  1  0.50777233  0.59966594  0.22675014  1
  B  B10  1  0.81864275  0.59966594  0.22675014  1
  B  B11  1  0.32361028  0.90583838  0.24138218  1
  B  B12  1  0.88493629  0.02588163  0.24399194  1
  B  B13  1  0.52427760  0.19035129  0.35820390  1
  B  B14  1  0.20887912  0.03317323  0.37748433  1
  B  B15  1  0.70177744  0.03317323  0.37748433  1
  B  B16  1  0.18135725  0.77324986  0.40033406  1
  B  B17  1  0.49222767  0.77324986  0.40033406  1
  B  B18  1  0.50777233  0.22675014  0.59966594  1
  B  B19  1  0.81864275  0.22675014  0.59966594  1
  B  B20  1  0.29822256  0.96682677  0.62251567  1
  B  B21  1  0.79112088  0.96682677  0.62251567  1
  B  B22  1  0.47572240  0.80964871  0.64179610  1
  B  B23  1  0.11506371  0.97411837  0.75600806  1
  B  B24  1  0.67638972  0.09416162  0.75861782  1
  B  B25  1  0.18135725  0.40033406  0.77324986  1
  B  B26  1  0.49222767  0.40033406  0.77324986  1
  B  B27  1  0.47572240  0.64179610  0.80964871  1
  B  B28  1  0.32361028  0.24138218  0.90583838  1
  B  B29  1  0.29822256  0.62251567  0.96682677  1
  B  B30  1  0.79112088  0.62251567  0.96682677  1
  B  B31  1  0.11506371  0.75600806  0.97411837  1
