# generated using pymatgen
data_Sm3Hg
_symmetry_space_group_name_H-M   'P 1'
_cell_length_a   7.03764585
_cell_length_b   7.03764533
_cell_length_c   5.50202354
_cell_angle_alpha   90.00000000
_cell_angle_beta   90.00000000
_cell_angle_gamma   120.00000251
_symmetry_Int_Tables_number   1
_chemical_formula_structural   Sm3Hg
_chemical_formula_sum   'Sm6 Hg2'
_cell_volume   235.99774283
_cell_formula_units_Z   2
loop_
 _symmetry_equiv_pos_site_id
 _symmetry_equiv_pos_as_xyz
  1  'x, y, z'
loop_
 _atom_site_type_symbol
 _atom_site_label
 _atom_site_symmetry_multiplicity
 _atom_site_fract_x
 _atom_site_fract_y
 _atom_site_fract_z
 _atom_site_occupancy
  Sm  Sm0  1  0.17426009  0.34852117  0.25032593  1
  Sm  Sm1  1  0.65147983  0.82573991  0.25032593  1
  Sm  Sm2  1  0.17426009  0.82573991  0.25032593  1
  Sm  Sm3  1  0.82573991  0.65147983  0.74967507  1
  Sm  Sm4  1  0.34852117  0.17426009  0.74967507  1
  Sm  Sm5  1  0.82573791  0.17426009  0.74967507  1
  Hg  Hg6  1  0.33333400  0.66666700  0.75010578  1
  Hg  Hg7  1  0.66666600  0.33333200  0.24989522  1
