# generated using pymatgen
data_Mn2SiO4
_symmetry_space_group_name_H-M   'P 1'
_cell_length_a   4.95463685
_cell_length_b   6.34816131
_cell_length_c   10.77210474
_cell_angle_alpha   90.00000000
_cell_angle_beta   90.00000000
_cell_angle_gamma   90.00000000
_symmetry_Int_Tables_number   1
_chemical_formula_structural   Mn2SiO4
_chemical_formula_sum   'Mn8 Si4 O16'
_cell_volume   338.81322175
_cell_formula_units_Z   4
loop_
 _symmetry_equiv_pos_site_id
 _symmetry_equiv_pos_as_xyz
  1  'x, y, z'
loop_
 _atom_site_type_symbol
 _atom_site_label
 _atom_site_symmetry_multiplicity
 _atom_site_fract_x
 _atom_site_fract_y
 _atom_site_fract_z
 _atom_site_occupancy
  O  O0  1  0.21301748  0.45809585  0.66336156  1
  O  O1  1  0.71301748  0.54190415  0.83663844  1
  O  O2  1  0.78698252  0.95809585  0.33663844  1
  O  O3  1  0.28698252  0.04190415  0.16336156  1
  O  O4  1  0.78698252  0.54190415  0.33663844  1
  O  O5  1  0.28698252  0.45809585  0.16336156  1
  O  O6  1  0.21301748  0.04190415  0.66336156  1
  O  O7  1  0.71301748  0.95809585  0.83663844  1
  O  O8  1  0.71048705  0.75000000  0.04634083  1
  O  O9  1  0.21048705  0.25000000  0.45365917  1
  O  O10  1  0.28951295  0.25000000  0.95365917  1
  O  O11  1  0.78951295  0.75000000  0.54634083  1
  O  O12  1  0.24206769  0.75000000  0.90629465  1
  O  O13  1  0.74206769  0.25000000  0.59370535  1
  O  O14  1  0.75793231  0.25000000  0.09370535  1
  O  O15  1  0.25793231  0.75000000  0.40629465  1
  Si  Si16  1  0.92708118  0.75000000  0.40400282  1
  Si  Si17  1  0.42708118  0.25000000  0.09599718  1
  Si  Si18  1  0.07291882  0.25000000  0.59599718  1
  Si  Si19  1  0.57291882  0.75000000  0.90400282  1
  Mn  Mn20  1  0.48892913  0.75000000  0.22022719  1
  Mn  Mn21  1  0.98892913  0.25000000  0.27977281  1
  Mn  Mn22  1  0.51107087  0.25000000  0.77977281  1
  Mn  Mn23  1  0.01107087  0.75000000  0.72022719  1
  Mn  Mn24  1  0.50000000  0.50000000  0.50000000  1
  Mn  Mn25  1  0.00000000  0.50000000  0.00000000  1
  Mn  Mn26  1  0.50000000  0.00000000  0.50000000  1
  Mn  Mn27  1  0.00000000  0.00000000  0.00000000  1
