# generated using pymatgen
data_La(FeSb3)4
_symmetry_space_group_name_H-M   'P 1'
_cell_length_a   7.95607456
_cell_length_b   7.95607456
_cell_length_c   7.95607456
_cell_angle_alpha   109.47122060
_cell_angle_beta   109.47122061
_cell_angle_gamma   109.47122068
_symmetry_Int_Tables_number   1
_chemical_formula_structural   La(FeSb3)4
_chemical_formula_sum   'La1 Fe4 Sb12'
_cell_volume   387.68111228
_cell_formula_units_Z   1
loop_
 _symmetry_equiv_pos_site_id
 _symmetry_equiv_pos_as_xyz
  1  'x, y, z'
loop_
 _atom_site_type_symbol
 _atom_site_label
 _atom_site_symmetry_multiplicity
 _atom_site_fract_x
 _atom_site_fract_y
 _atom_site_fract_z
 _atom_site_occupancy
  Fe  Fe0  1  0.50000000  0.50000000  0.50000000  1
  Fe  Fe1  1  0.00000000  0.50000000  0.00000000  1
  Fe  Fe2  1  0.00000000  0.00000000  0.50000000  1
  Fe  Fe3  1  0.50000000  0.00000000  0.00000000  1
  Sb  Sb4  1  0.33501936  0.17201310  0.83699374  1
  Sb  Sb5  1  0.49802562  0.16300626  0.33501936  1
  Sb  Sb6  1  0.16300626  0.66498064  0.82798690  1
  Sb  Sb7  1  0.83699374  0.66498064  0.50197438  1
  Sb  Sb8  1  0.66498064  0.50197438  0.83699374  1
  Sb  Sb9  1  0.66498064  0.82798690  0.16300626  1
  Sb  Sb10  1  0.83699374  0.33501936  0.17201310  1
  Sb  Sb11  1  0.17201310  0.83699374  0.33501936  1
  Sb  Sb12  1  0.33501936  0.49802562  0.16300626  1
  Sb  Sb13  1  0.16300626  0.33501936  0.49802562  1
  Sb  Sb14  1  0.82798690  0.16300626  0.66498064  1
  Sb  Sb15  1  0.50197438  0.83699374  0.66498064  1
  La  La16  1  0.00000000  0.00000000  0.00000000  1
