# generated using pymatgen
data_Zr2Fe3Ge
_symmetry_space_group_name_H-M   'P 1'
_cell_length_a   5.02520126
_cell_length_b   5.02520126
_cell_length_c   8.20226704
_cell_angle_alpha   90.00000000
_cell_angle_beta   90.00000000
_cell_angle_gamma   120.00000000
_symmetry_Int_Tables_number   1
_chemical_formula_structural   Zr2Fe3Ge
_chemical_formula_sum   'Zr4 Fe6 Ge2'
_cell_volume   179.37894115
_cell_formula_units_Z   2
loop_
 _symmetry_equiv_pos_site_id
 _symmetry_equiv_pos_as_xyz
  1  'x, y, z'
loop_
 _atom_site_type_symbol
 _atom_site_label
 _atom_site_symmetry_multiplicity
 _atom_site_fract_x
 _atom_site_fract_y
 _atom_site_fract_z
 _atom_site_occupancy
  Fe  Fe0  1  0.82732621  0.65465241  0.25000000  1
  Fe  Fe1  1  0.17267379  0.82732621  0.75000000  1
  Fe  Fe2  1  0.65465241  0.82732621  0.75000000  1
  Fe  Fe3  1  0.34534759  0.17267379  0.25000000  1
  Fe  Fe4  1  0.82732621  0.17267379  0.25000000  1
  Fe  Fe5  1  0.17267379  0.34534759  0.75000000  1
  Ge  Ge6  1  0.00000000  0.00000000  0.50000000  1
  Ge  Ge7  1  0.00000000  0.00000000  0.00000000  1
  Zr  Zr8  1  0.66666667  0.33333333  0.93464832  1
  Zr  Zr9  1  0.33333333  0.66666667  0.43464832  1
  Zr  Zr10  1  0.66666667  0.33333333  0.56535168  1
  Zr  Zr11  1  0.33333333  0.66666667  0.06535168  1
