# generated using pymatgen
data_VBO3
_symmetry_space_group_name_H-M   'P 1'
_cell_length_a   5.63581858
_cell_length_b   5.63581858
_cell_length_c   5.63581859
_cell_angle_alpha   49.13855248
_cell_angle_beta   49.13855249
_cell_angle_gamma   49.13855244
_symmetry_Int_Tables_number   1
_chemical_formula_structural   VBO3
_chemical_formula_sum   'V2 B2 O6'
_cell_volume   94.04100981
_cell_formula_units_Z   2
loop_
 _symmetry_equiv_pos_site_id
 _symmetry_equiv_pos_as_xyz
  1  'x, y, z'
loop_
 _atom_site_type_symbol
 _atom_site_label
 _atom_site_symmetry_multiplicity
 _atom_site_fract_x
 _atom_site_fract_y
 _atom_site_fract_z
 _atom_site_occupancy
  B  B0  1  0.75000000  0.75000000  0.75000000  1
  B  B1  1  0.25000000  0.25000000  0.25000000  1
  O  O2  1  0.45400960  0.04599040  0.75000000  1
  O  O3  1  0.75000000  0.45400960  0.04599040  1
  O  O4  1  0.95400960  0.25000000  0.54599040  1
  O  O5  1  0.54599040  0.95400960  0.25000000  1
  O  O6  1  0.25000000  0.54599040  0.95400960  1
  O  O7  1  0.04599040  0.75000000  0.45400960  1
  V  V8  1  0.50000000  0.50000000  0.50000000  1
  V  V9  1  0.00000000  0.00000000  0.00000000  1
