# generated using pymatgen
data_Y2ZnIn
_symmetry_space_group_name_H-M   'P 1'
_cell_length_a   5.21340713
_cell_length_b   5.21340713
_cell_length_c   5.21340713
_cell_angle_alpha   60.03686375
_cell_angle_beta   60.03686375
_cell_angle_gamma   60.03686375
_symmetry_Int_Tables_number   1
_chemical_formula_structural   Y2ZnIn
_chemical_formula_sum   'Y2 Zn1 In1'
_cell_volume   100.27961819
_cell_formula_units_Z   1
loop_
 _symmetry_equiv_pos_site_id
 _symmetry_equiv_pos_as_xyz
  1  'x, y, z'
loop_
 _atom_site_type_symbol
 _atom_site_label
 _atom_site_symmetry_multiplicity
 _atom_site_fract_x
 _atom_site_fract_y
 _atom_site_fract_z
 _atom_site_occupancy
  Y  Y0  1  0.99998270  0.99998270  0.99998270  1
  Y  Y1  1  0.50001875  0.50001875  0.50001875  1
  Zn  Zn2  1  0.74999646  0.74999646  0.74999646  1
  In  In3  1  0.25000209  0.25000209  0.25000209  1
