# generated using pymatgen
data_LaSi
_symmetry_space_group_name_H-M   'P 1'
_cell_length_a   4.58413451
_cell_length_b   6.64489770
_cell_length_c   7.09399486
_cell_angle_alpha   90.00000000
_cell_angle_beta   108.85048261
_cell_angle_gamma   90.00000000
_symmetry_Int_Tables_number   1
_chemical_formula_structural   LaSi
_chemical_formula_sum   'La4 Si4'
_cell_volume   204.50087388
_cell_formula_units_Z   4
loop_
 _symmetry_equiv_pos_site_id
 _symmetry_equiv_pos_as_xyz
  1  'x, y, z'
loop_
 _atom_site_type_symbol
 _atom_site_label
 _atom_site_symmetry_multiplicity
 _atom_site_fract_x
 _atom_site_fract_y
 _atom_site_fract_z
 _atom_site_occupancy
  Si  Si0  1  0.90853747  0.06268669  0.81707494  1
  Si  Si1  1  0.09146253  0.93731331  0.18292506  1
  Si  Si2  1  0.09146253  0.56268669  0.18292506  1
  Si  Si3  1  0.90853747  0.43731331  0.81707494  1
  La  La4  1  0.72504083  0.75000000  0.45008166  1
  La  La5  1  0.27495917  0.25000000  0.54991834  1
  La  La6  1  0.44845179  0.75000000  0.89690358  1
  La  La7  1  0.55154821  0.25000000  0.10309642  1
