# generated using pymatgen
data_Na2ZnS2
_symmetry_space_group_name_H-M   'P 1'
_cell_length_a   6.87895400
_cell_length_b   7.08512005
_cell_length_c   9.01732149
_cell_angle_alpha   90.00000000
_cell_angle_beta   93.11629072
_cell_angle_gamma   90.00000000
_symmetry_Int_Tables_number   1
_chemical_formula_structural   Na2ZnS2
_chemical_formula_sum   'Na8 Zn4 S8'
_cell_volume   438.83826131
_cell_formula_units_Z   4
loop_
 _symmetry_equiv_pos_site_id
 _symmetry_equiv_pos_as_xyz
  1  'x, y, z'
loop_
 _atom_site_type_symbol
 _atom_site_label
 _atom_site_symmetry_multiplicity
 _atom_site_fract_x
 _atom_site_fract_y
 _atom_site_fract_z
 _atom_site_occupancy
  Na  Na0  1  0.44666541  0.66576293  0.32302404  1
  Na  Na1  1  0.05333459  0.16576293  0.67697596  1
  Na  Na2  1  0.55333459  0.33423707  0.67697596  1
  Na  Na3  1  0.94666541  0.83423707  0.32302404  1
  Na  Na4  1  0.49095229  0.76187498  0.95516656  1
  Na  Na5  1  0.00904771  0.26187498  0.04483344  1
  Na  Na6  1  0.50904771  0.23812502  0.04483344  1
  Na  Na7  1  0.99095229  0.73812502  0.95516656  1
  Zn  Zn8  1  0.15358761  0.59311172  0.62816892  1
  Zn  Zn9  1  0.34641239  0.09311172  0.37183108  1
  Zn  Zn10  1  0.84641239  0.40688828  0.37183108  1
  Zn  Zn11  1  0.65358761  0.90688828  0.62816892  1
  S  S12  1  0.69357427  0.11440203  0.41417462  1
  S  S13  1  0.80642573  0.61440203  0.58582538  1
  S  S14  1  0.30642573  0.88559797  0.58582538  1
  S  S15  1  0.19357427  0.38559797  0.41417462  1
  S  S16  1  0.75276093  0.04123108  0.85200308  1
  S  S17  1  0.74723907  0.54123108  0.14799692  1
  S  S18  1  0.24723907  0.95876892  0.14799692  1
  S  S19  1  0.25276093  0.45876892  0.85200308  1
