# generated using pymatgen
data_Lu2(NiB2)3
_symmetry_space_group_name_H-M   'P 1'
_cell_length_a   3.43014637
_cell_length_b   5.73390747
_cell_length_c   5.73390747
_cell_angle_alpha   96.55117900
_cell_angle_beta   90.00000000
_cell_angle_gamma   90.00000000
_symmetry_Int_Tables_number   1
_chemical_formula_structural   Lu2(NiB2)3
_chemical_formula_sum   'Lu2 Ni3 B6'
_cell_volume   112.03892146
_cell_formula_units_Z   1
loop_
 _symmetry_equiv_pos_site_id
 _symmetry_equiv_pos_as_xyz
  1  'x, y, z'
loop_
 _atom_site_type_symbol
 _atom_site_label
 _atom_site_symmetry_multiplicity
 _atom_site_fract_x
 _atom_site_fract_y
 _atom_site_fract_z
 _atom_site_occupancy
  B  B0  1  0.50000000  0.61187135  0.61187135  1
  B  B1  1  0.50000000  0.38812865  0.38812865  1
  B  B2  1  0.50000000  0.91690981  0.61560328  1
  B  B3  1  0.50000000  0.08309019  0.38439672  1
  B  B4  1  0.50000000  0.61560328  0.91690981  1
  B  B5  1  0.50000000  0.38439672  0.08309019  1
  Ni  Ni6  1  0.00000000  0.77131251  0.77131251  1
  Ni  Ni7  1  0.00000000  0.22868749  0.22868749  1
  Ni  Ni8  1  0.50000000  0.00000000  0.00000000  1
  Lu  Lu9  1  0.00000000  0.72459877  0.27540123  1
  Lu  Lu10  1  0.00000000  0.27540123  0.72459877  1
