# generated using pymatgen
data_Sm2O3
_symmetry_space_group_name_H-M   'P 1'
_cell_length_a   9.52588675
_cell_length_b   9.52588675
_cell_length_c   9.52588675
_cell_angle_alpha   109.47122062
_cell_angle_beta   109.47122061
_cell_angle_gamma   109.47122067
_symmetry_Int_Tables_number   1
_chemical_formula_structural   Sm2O3
_chemical_formula_sum   'Sm16 O24'
_cell_volume   665.41770389
_cell_formula_units_Z   8
loop_
 _symmetry_equiv_pos_site_id
 _symmetry_equiv_pos_as_xyz
  1  'x, y, z'
loop_
 _atom_site_type_symbol
 _atom_site_label
 _atom_site_symmetry_multiplicity
 _atom_site_fract_x
 _atom_site_fract_y
 _atom_site_fract_z
 _atom_site_occupancy
  O  O0  1  0.52906233  0.76967525  0.54099699  1
  O  O1  1  0.98806535  0.95900301  0.72867826  1
  O  O2  1  0.25938709  0.77132174  0.73032475  1
  O  O3  1  0.51193465  0.24061291  0.97093767  1
  O  O4  1  0.95900301  0.72867826  0.98806535  1
  O  O5  1  0.73032475  0.25938709  0.77132174  1
  O  O6  1  0.24061291  0.97093767  0.51193465  1
  O  O7  1  0.54099699  0.52906233  0.76967525  1
  O  O8  1  0.76967525  0.54099699  0.52906233  1
  O  O9  1  0.72867826  0.98806535  0.95900301  1
  O  O10  1  0.77132174  0.73032475  0.25938709  1
  O  O11  1  0.97093767  0.51193465  0.24061291  1
  O  O12  1  0.47093767  0.23032475  0.45900301  1
  O  O13  1  0.01193465  0.04099699  0.27132174  1
  O  O14  1  0.74061291  0.22867826  0.26967525  1
  O  O15  1  0.48806535  0.75938709  0.02906233  1
  O  O16  1  0.04099699  0.27132174  0.01193465  1
  O  O17  1  0.26967525  0.74061291  0.22867826  1
  O  O18  1  0.75938709  0.02906233  0.48806535  1
  O  O19  1  0.45900301  0.47093767  0.23032475  1
  O  O20  1  0.23032475  0.45900301  0.47093767  1
  O  O21  1  0.27132174  0.01193465  0.04099699  1
  O  O22  1  0.22867826  0.26967525  0.74061291  1
  O  O23  1  0.02906233  0.48806535  0.75938709  1
  Sm  Sm24  1  0.50000000  0.50000000  0.50000000  1
  Sm  Sm25  1  0.00000000  0.00000000  0.50000000  1
  Sm  Sm26  1  0.50000000  0.00000000  0.00000000  1
  Sm  Sm27  1  0.00000000  0.50000000  0.00000000  1
  Sm  Sm28  1  0.25000000  0.21863699  0.96863699  1
  Sm  Sm29  1  0.28136301  0.53136301  0.75000000  1
  Sm  Sm30  1  0.53136301  0.75000000  0.28136301  1
  Sm  Sm31  1  0.21863699  0.96863699  0.25000000  1
  Sm  Sm32  1  0.96863699  0.25000000  0.21863699  1
  Sm  Sm33  1  0.75000000  0.28136301  0.53136301  1
  Sm  Sm34  1  0.75000000  0.78136301  0.03136301  1
  Sm  Sm35  1  0.71863699  0.46863699  0.25000000  1
  Sm  Sm36  1  0.46863699  0.25000000  0.71863699  1
  Sm  Sm37  1  0.78136301  0.03136301  0.75000000  1
  Sm  Sm38  1  0.03136301  0.75000000  0.78136301  1
  Sm  Sm39  1  0.25000000  0.71863699  0.46863699  1
