# generated using pymatgen
data_PbSO4
_symmetry_space_group_name_H-M   'P 1'
_cell_length_a   5.52183690
_cell_length_b   7.09933499
_cell_length_c   8.56079757
_cell_angle_alpha   90.00000000
_cell_angle_beta   90.00000000
_cell_angle_gamma   90.00000000
_symmetry_Int_Tables_number   1
_chemical_formula_structural   PbSO4
_chemical_formula_sum   'Pb4 S4 O16'
_cell_volume   335.59499229
_cell_formula_units_Z   4
loop_
 _symmetry_equiv_pos_site_id
 _symmetry_equiv_pos_as_xyz
  1  'x, y, z'
loop_
 _atom_site_type_symbol
 _atom_site_label
 _atom_site_symmetry_multiplicity
 _atom_site_fract_x
 _atom_site_fract_y
 _atom_site_fract_z
 _atom_site_occupancy
  O  O0  1  0.75000000  0.40578709  0.09306881  1
  O  O1  1  0.25000000  0.59421291  0.90693119  1
  O  O2  1  0.25000000  0.90578709  0.40693119  1
  O  O3  1  0.75000000  0.09421291  0.59306881  1
  O  O4  1  0.47146455  0.80278446  0.08124122  1
  O  O5  1  0.97146455  0.19721554  0.91875878  1
  O  O6  1  0.52853545  0.30278446  0.41875878  1
  O  O7  1  0.02853545  0.69721554  0.58124122  1
  O  O8  1  0.75000000  0.03822028  0.30784074  1
  O  O9  1  0.25000000  0.96177972  0.69215926  1
  O  O10  1  0.25000000  0.53822028  0.19215926  1
  O  O11  1  0.75000000  0.46177972  0.80784074  1
  O  O12  1  0.97146455  0.30278446  0.41875878  1
  O  O13  1  0.47146455  0.69721554  0.58124122  1
  O  O14  1  0.02853545  0.80278446  0.08124122  1
  O  O15  1  0.52853545  0.19721554  0.91875878  1
  S  S16  1  0.75000000  0.31971175  0.93655368  1
  S  S17  1  0.25000000  0.68028825  0.06344632  1
  S  S18  1  0.25000000  0.81971175  0.56344632  1
  S  S19  1  0.75000000  0.18028825  0.43655368  1
  Pb  Pb20  1  0.25000000  0.32775928  0.69633811  1
  Pb  Pb21  1  0.75000000  0.67224072  0.30366189  1
  Pb  Pb22  1  0.75000000  0.82775928  0.80366189  1
  Pb  Pb23  1  0.25000000  0.17224072  0.19633811  1
