# generated using pymatgen
data_TiF3
_symmetry_space_group_name_H-M   'P 1'
_cell_length_a   5.58819833
_cell_length_b   5.58819834
_cell_length_c   5.58819834
_cell_angle_alpha   59.96747865
_cell_angle_beta   59.96747866
_cell_angle_gamma   59.96747861
_symmetry_Int_Tables_number   1
_chemical_formula_structural   TiF3
_chemical_formula_sum   'Ti2 F6'
_cell_volume   123.30481344
_cell_formula_units_Z   2
loop_
 _symmetry_equiv_pos_site_id
 _symmetry_equiv_pos_as_xyz
  1  'x, y, z'
loop_
 _atom_site_type_symbol
 _atom_site_label
 _atom_site_symmetry_multiplicity
 _atom_site_fract_x
 _atom_site_fract_y
 _atom_site_fract_z
 _atom_site_occupancy
  F  F0  1  0.25322539  0.75000000  0.24677461  1
  F  F1  1  0.75000000  0.24677461  0.25322539  1
  F  F2  1  0.75322539  0.74677461  0.25000000  1
  F  F3  1  0.25000000  0.75322539  0.74677461  1
  F  F4  1  0.74677461  0.25000000  0.75322539  1
  F  F5  1  0.24677461  0.25322539  0.75000000  1
  Ti  Ti6  1  0.50000000  0.50000000  0.50000000  1
  Ti  Ti7  1  0.00000000  0.00000000  0.00000000  1
