# generated using pymatgen
data_Ni2Mo3N
_symmetry_space_group_name_H-M   'P 1'
_cell_length_a   6.66013109
_cell_length_b   6.66013109
_cell_length_c   6.66013109
_cell_angle_alpha   90.00000000
_cell_angle_beta   90.00000000
_cell_angle_gamma   90.00000000
_symmetry_Int_Tables_number   1
_chemical_formula_structural   Ni2Mo3N
_chemical_formula_sum   'Ni8 Mo12 N4'
_cell_volume   295.42574007
_cell_formula_units_Z   4
loop_
 _symmetry_equiv_pos_site_id
 _symmetry_equiv_pos_as_xyz
  1  'x, y, z'
loop_
 _atom_site_type_symbol
 _atom_site_label
 _atom_site_symmetry_multiplicity
 _atom_site_fract_x
 _atom_site_fract_y
 _atom_site_fract_z
 _atom_site_occupancy
  N  N0  1  0.87500000  0.12500000  0.62500000  1
  N  N1  1  0.62500000  0.87500000  0.12500000  1
  N  N2  1  0.12500000  0.62500000  0.87500000  1
  N  N3  1  0.37500000  0.37500000  0.37500000  1
  Ni  Ni4  1  0.93355704  0.56644296  0.43355704  1
  Ni  Ni5  1  0.18355704  0.81644296  0.31644296  1
  Ni  Ni6  1  0.43355704  0.93355704  0.56644296  1
  Ni  Ni7  1  0.68355704  0.68355704  0.68355704  1
  Ni  Ni8  1  0.81644296  0.31644296  0.18355704  1
  Ni  Ni9  1  0.31644296  0.18355704  0.81644296  1
  Ni  Ni10  1  0.56644296  0.43355704  0.93355704  1
  Ni  Ni11  1  0.06644296  0.06644296  0.06644296  1
  Mo  Mo12  1  0.20071667  0.45071667  0.12500000  1
  Mo  Mo13  1  0.04928333  0.87500000  0.70071667  1
  Mo  Mo14  1  0.45071667  0.12500000  0.20071667  1
  Mo  Mo15  1  0.29928333  0.54928333  0.62500000  1
  Mo  Mo16  1  0.95071667  0.37500000  0.79928333  1
  Mo  Mo17  1  0.54928333  0.62500000  0.29928333  1
  Mo  Mo18  1  0.70071667  0.04928333  0.87500000  1
  Mo  Mo19  1  0.62500000  0.29928333  0.54928333  1
  Mo  Mo20  1  0.87500000  0.70071667  0.04928333  1
  Mo  Mo21  1  0.37500000  0.79928333  0.95071667  1
  Mo  Mo22  1  0.12500000  0.20071667  0.45071667  1
  Mo  Mo23  1  0.79928333  0.95071667  0.37500000  1
