# generated using pymatgen
data_LaSi2Pt
_symmetry_space_group_name_H-M   'P 1'
_cell_length_a   4.28866483
_cell_length_b   4.37158234
_cell_length_c   8.74530735
_cell_angle_alpha   104.47388771
_cell_angle_beta   90.00000000
_cell_angle_gamma   90.00000000
_symmetry_Int_Tables_number   1
_chemical_formula_structural   LaSi2Pt
_chemical_formula_sum   'La2 Si4 Pt2'
_cell_volume   158.75542578
_cell_formula_units_Z   2
loop_
 _symmetry_equiv_pos_site_id
 _symmetry_equiv_pos_as_xyz
  1  'x, y, z'
loop_
 _atom_site_type_symbol
 _atom_site_label
 _atom_site_symmetry_multiplicity
 _atom_site_fract_x
 _atom_site_fract_y
 _atom_site_fract_z
 _atom_site_occupancy
  Si  Si0  1  0.25000000  0.24917028  0.49834057  1
  Si  Si1  1  0.75000000  0.75082972  0.50165943  1
  Si  Si2  1  0.75000000  0.46392864  0.92785727  1
  Si  Si3  1  0.25000000  0.53607136  0.07214273  1
  La  La4  1  0.25000000  0.89407181  0.78814361  1
  La  La5  1  0.75000000  0.10592819  0.21185639  1
  Pt  Pt6  1  0.75000000  0.31964829  0.63929657  1
  Pt  Pt7  1  0.25000000  0.68035171  0.36070343  1
