# generated using pymatgen
data_Sr2SnO4
_symmetry_space_group_name_H-M   'P 1'
_cell_length_a   5.87343495
_cell_length_b   5.88105044
_cell_length_c   12.52429623
_cell_angle_alpha   90.00000000
_cell_angle_beta   90.00000000
_cell_angle_gamma   90.00000000
_symmetry_Int_Tables_number   1
_chemical_formula_structural   Sr2SnO4
_chemical_formula_sum   'Sr8 Sn4 O16'
_cell_volume   432.61382954
_cell_formula_units_Z   4
loop_
 _symmetry_equiv_pos_site_id
 _symmetry_equiv_pos_as_xyz
  1  'x, y, z'
loop_
 _atom_site_type_symbol
 _atom_site_label
 _atom_site_symmetry_multiplicity
 _atom_site_fract_x
 _atom_site_fract_y
 _atom_site_fract_z
 _atom_site_occupancy
  O  O0  1  0.45744235  0.45471339  0.83665603  1
  O  O1  1  0.95744235  0.54528661  0.66334397  1
  O  O2  1  0.54255765  0.95471339  0.66334397  1
  O  O3  1  0.04255765  0.04528661  0.83665603  1
  O  O4  1  0.54255765  0.54528661  0.16334397  1
  O  O5  1  0.04255765  0.45471339  0.33665603  1
  O  O6  1  0.45744235  0.04528661  0.33665603  1
  O  O7  1  0.95744235  0.95471339  0.16334397  1
  O  O8  1  0.75000000  0.25000000  0.50119068  1
  O  O9  1  0.25000000  0.75000000  0.99880932  1
  O  O10  1  0.25000000  0.75000000  0.49880932  1
  O  O11  1  0.75000000  0.25000000  0.00119068  1
  O  O12  1  0.25000000  0.25000000  0.03083015  1
  O  O13  1  0.75000000  0.75000000  0.46916985  1
  O  O14  1  0.75000000  0.75000000  0.96916985  1
  O  O15  1  0.25000000  0.25000000  0.53083015  1
  Sr  Sr16  1  0.51465092  0.51482348  0.64687873  1
  Sr  Sr17  1  0.01465092  0.48517652  0.85312127  1
  Sr  Sr18  1  0.48534908  0.01482348  0.85312127  1
  Sr  Sr19  1  0.98534908  0.98517652  0.64687873  1
  Sr  Sr20  1  0.48534908  0.48517652  0.35312127  1
  Sr  Sr21  1  0.98534908  0.51482348  0.14687873  1
  Sr  Sr22  1  0.51465092  0.98517652  0.14687873  1
  Sr  Sr23  1  0.01465092  0.01482348  0.35312127  1
  Sn  Sn24  1  0.50000000  0.50000000  0.00000000  1
  Sn  Sn25  1  0.00000000  0.50000000  0.50000000  1
  Sn  Sn26  1  0.50000000  0.00000000  0.50000000  1
  Sn  Sn27  1  0.00000000  0.00000000  0.00000000  1
