# generated using pymatgen
data_Ba(NO3)2
_symmetry_space_group_name_H-M   'P 1'
_cell_length_a   8.29526906
_cell_length_b   8.29526906
_cell_length_c   8.29526906
_cell_angle_alpha   90.00000000
_cell_angle_beta   90.00000000
_cell_angle_gamma   90.00000000
_symmetry_Int_Tables_number   1
_chemical_formula_structural   Ba(NO3)2
_chemical_formula_sum   'Ba4 N8 O24'
_cell_volume   570.80981383
_cell_formula_units_Z   4
loop_
 _symmetry_equiv_pos_site_id
 _symmetry_equiv_pos_as_xyz
  1  'x, y, z'
loop_
 _atom_site_type_symbol
 _atom_site_label
 _atom_site_symmetry_multiplicity
 _atom_site_fract_x
 _atom_site_fract_y
 _atom_site_fract_z
 _atom_site_occupancy
  N  N0  1  0.34449276  0.34449276  0.34449276  1
  N  N1  1  0.34449276  0.15550724  0.84449276  1
  N  N2  1  0.15550724  0.84449276  0.34449276  1
  N  N3  1  0.84449276  0.34449276  0.15550724  1
  N  N4  1  0.65550724  0.65550724  0.65550724  1
  N  N5  1  0.15550724  0.65550724  0.84449276  1
  N  N6  1  0.84449276  0.15550724  0.65550724  1
  N  N7  1  0.65550724  0.84449276  0.15550724  1
  O  O8  1  0.77907597  0.28507025  0.03066158  1
  O  O9  1  0.21492975  0.96933842  0.27907597  1
  O  O10  1  0.22092403  0.78507025  0.46933842  1
  O  O11  1  0.27907597  0.21492975  0.96933842  1
  O  O12  1  0.27907597  0.28507025  0.46933842  1
  O  O13  1  0.46933842  0.27907597  0.28507025  1
  O  O14  1  0.28507025  0.46933842  0.27907597  1
  O  O15  1  0.21492975  0.53066158  0.77907597  1
  O  O16  1  0.96933842  0.22092403  0.71492975  1
  O  O17  1  0.71492975  0.96933842  0.22092403  1
  O  O18  1  0.03066158  0.72092403  0.78507025  1
  O  O19  1  0.53066158  0.77907597  0.21492975  1
  O  O20  1  0.78507025  0.03066158  0.72092403  1
  O  O21  1  0.77907597  0.21492975  0.53066158  1
  O  O22  1  0.72092403  0.78507025  0.03066158  1
  O  O23  1  0.22092403  0.71492975  0.96933842  1
  O  O24  1  0.72092403  0.71492975  0.53066158  1
  O  O25  1  0.53066158  0.72092403  0.71492975  1
  O  O26  1  0.71492975  0.53066158  0.72092403  1
  O  O27  1  0.78507025  0.46933842  0.22092403  1
  O  O28  1  0.03066158  0.77907597  0.28507025  1
  O  O29  1  0.28507025  0.03066158  0.77907597  1
  O  O30  1  0.96933842  0.27907597  0.21492975  1
  O  O31  1  0.46933842  0.22092403  0.78507025  1
  Ba  Ba32  1  0.00000000  0.50000000  0.50000000  1
  Ba  Ba33  1  0.50000000  0.50000000  0.00000000  1
  Ba  Ba34  1  0.50000000  0.00000000  0.50000000  1
  Ba  Ba35  1  0.00000000  0.00000000  0.00000000  1
