# generated using pymatgen
data_CrTe2
_symmetry_space_group_name_H-M   'P 1'
_cell_length_a   7.69356654
_cell_length_b   7.69356643
_cell_length_c   12.33542378
_cell_angle_alpha   90.00000000
_cell_angle_beta   90.00000000
_cell_angle_gamma   120.00000048
_symmetry_Int_Tables_number   1
_chemical_formula_structural   CrTe2
_chemical_formula_sum   'Cr8 Te16'
_cell_volume   632.32466983
_cell_formula_units_Z   8
loop_
 _symmetry_equiv_pos_site_id
 _symmetry_equiv_pos_as_xyz
  1  'x, y, z'
loop_
 _atom_site_type_symbol
 _atom_site_label
 _atom_site_symmetry_multiplicity
 _atom_site_fract_x
 _atom_site_fract_y
 _atom_site_fract_z
 _atom_site_occupancy
  Cr  Cr0  1  0.00113040  0.50056520  0.25010234  1
  Cr  Cr1  1  0.49943480  0.99886960  0.25010234  1
  Cr  Cr2  1  0.00000000  0.00000000  0.24932159  1
  Cr  Cr3  1  0.00000000  0.00000000  0.75067841  1
  Cr  Cr4  1  0.49943480  0.50056520  0.25010234  1
  Cr  Cr5  1  0.50056520  0.49943480  0.74989766  1
  Cr  Cr6  1  0.50056520  0.00113040  0.74989766  1
  Cr  Cr7  1  0.99886960  0.49943480  0.74989766  1
  Te  Te8  1  0.16673637  0.83326363  0.12381161  1
  Te  Te9  1  0.16649060  0.83350940  0.62446581  1
  Te  Te10  1  0.33333300  0.66666700  0.37682100  1
  Te  Te11  1  0.33333300  0.66666700  0.87496756  1
  Te  Te12  1  0.16649060  0.33298121  0.62446581  1
  Te  Te13  1  0.16673637  0.33347274  0.12381161  1
  Te  Te14  1  0.66701879  0.83350940  0.62446581  1
  Te  Te15  1  0.66652726  0.83326363  0.12381161  1
  Te  Te16  1  0.33347274  0.16673637  0.87618839  1
  Te  Te17  1  0.33298121  0.16649060  0.37553419  1
  Te  Te18  1  0.83350940  0.66701879  0.37553419  1
  Te  Te19  1  0.83326363  0.66652726  0.87618839  1
  Te  Te20  1  0.66666700  0.33333300  0.62317900  1
  Te  Te21  1  0.66666700  0.33333300  0.12503244  1
  Te  Te22  1  0.83350940  0.16649060  0.37553419  1
  Te  Te23  1  0.83326363  0.16673637  0.87618839  1
