# generated using pymatgen
data_FeBO3
_symmetry_space_group_name_H-M   'P 1'
_cell_length_a   5.60121197
_cell_length_b   5.60121198
_cell_length_c   5.60121197
_cell_angle_alpha   49.43748430
_cell_angle_beta   49.43748431
_cell_angle_gamma   49.43748427
_symmetry_Int_Tables_number   1
_chemical_formula_structural   FeBO3
_chemical_formula_sum   'Fe2 B2 O6'
_cell_volume   93.21505795
_cell_formula_units_Z   2
loop_
 _symmetry_equiv_pos_site_id
 _symmetry_equiv_pos_as_xyz
  1  'x, y, z'
loop_
 _atom_site_type_symbol
 _atom_site_label
 _atom_site_symmetry_multiplicity
 _atom_site_fract_x
 _atom_site_fract_y
 _atom_site_fract_z
 _atom_site_occupancy
  B  B0  1  0.75000000  0.75000000  0.75000000  1
  B  B1  1  0.25000000  0.25000000  0.25000000  1
  O  O2  1  0.75000000  0.45402717  0.04597283  1
  O  O3  1  0.04597283  0.75000000  0.45402717  1
  O  O4  1  0.54597283  0.95402717  0.25000000  1
  O  O5  1  0.25000000  0.54597283  0.95402717  1
  O  O6  1  0.95402717  0.25000000  0.54597283  1
  O  O7  1  0.45402717  0.04597283  0.75000000  1
  Fe  Fe8  1  0.50000000  0.50000000  0.50000000  1
  Fe  Fe9  1  0.00000000  0.00000000  0.00000000  1
