# generated using pymatgen
data_Lu(NiGe)2
_symmetry_space_group_name_H-M   'P 1'
_cell_length_a   4.02115871
_cell_length_b   4.02115871
_cell_length_c   5.64791395
_cell_angle_alpha   110.85389765
_cell_angle_beta   110.85389767
_cell_angle_gamma   89.99999999
_symmetry_Int_Tables_number   1
_chemical_formula_structural   Lu(NiGe)2
_chemical_formula_sum   'Lu1 Ni2 Ge2'
_cell_volume   78.90767936
_cell_formula_units_Z   1
loop_
 _symmetry_equiv_pos_site_id
 _symmetry_equiv_pos_as_xyz
  1  'x, y, z'
loop_
 _atom_site_type_symbol
 _atom_site_label
 _atom_site_symmetry_multiplicity
 _atom_site_fract_x
 _atom_site_fract_y
 _atom_site_fract_z
 _atom_site_occupancy
  Ni  Ni0  1  0.75000000  0.25000000  0.50000000  1
  Ni  Ni1  1  0.25000000  0.75000000  0.50000000  1
  Ge  Ge2  1  0.62663162  0.62663162  0.25326323  1
  Ge  Ge3  1  0.37336838  0.37336838  0.74673677  1
  Lu  Lu4  1  0.00000000  0.00000000  0.00000000  1
