# generated using pymatgen
data_V4GaS8
_symmetry_space_group_name_H-M   'P 1'
_cell_length_a   6.87983518
_cell_length_b   6.87983518
_cell_length_c   6.87983518
_cell_angle_alpha   60.00000000
_cell_angle_beta   60.00000000
_cell_angle_gamma   59.99999997
_symmetry_Int_Tables_number   1
_chemical_formula_structural   V4GaS8
_chemical_formula_sum   'V4 Ga1 S8'
_cell_volume   230.26032006
_cell_formula_units_Z   1
loop_
 _symmetry_equiv_pos_site_id
 _symmetry_equiv_pos_as_xyz
  1  'x, y, z'
loop_
 _atom_site_type_symbol
 _atom_site_label
 _atom_site_symmetry_multiplicity
 _atom_site_fract_x
 _atom_site_fract_y
 _atom_site_fract_z
 _atom_site_occupancy
  S  S0  1  0.86335194  0.40994418  0.86335194  1
  S  S1  1  0.40994418  0.86335194  0.86335194  1
  S  S2  1  0.86335194  0.86335194  0.40994418  1
  S  S3  1  0.86335194  0.86335194  0.86335194  1
  S  S4  1  0.37112232  0.88663303  0.37112232  1
  S  S5  1  0.37112232  0.37112232  0.37112232  1
  S  S6  1  0.37112232  0.37112232  0.88663303  1
  S  S7  1  0.88663303  0.37112232  0.37112232  1
  V  V8  1  0.60591860  0.18224419  0.60591860  1
  V  V9  1  0.18224419  0.60591860  0.60591860  1
  V  V10  1  0.60591860  0.60591860  0.18224419  1
  V  V11  1  0.60591860  0.60591860  0.60591860  1
  Ga  Ga12  1  0.00000000  0.00000000  0.00000000  1
