# generated using pymatgen
data_CaZrO3
_symmetry_space_group_name_H-M   'P 1'
_cell_length_a   5.63837214
_cell_length_b   5.83322589
_cell_length_c   8.10692434
_cell_angle_alpha   90.00000000
_cell_angle_beta   90.00000000
_cell_angle_gamma   90.00000000
_symmetry_Int_Tables_number   1
_chemical_formula_structural   CaZrO3
_chemical_formula_sum   'Ca4 Zr4 O12'
_cell_volume   266.63591743
_cell_formula_units_Z   4
loop_
 _symmetry_equiv_pos_site_id
 _symmetry_equiv_pos_as_xyz
  1  'x, y, z'
loop_
 _atom_site_type_symbol
 _atom_site_label
 _atom_site_symmetry_multiplicity
 _atom_site_fract_x
 _atom_site_fract_y
 _atom_site_fract_z
 _atom_site_occupancy
  O  O0  1  0.30340395  0.69927722  0.44224397  1
  O  O1  1  0.80340395  0.80072278  0.55775603  1
  O  O2  1  0.19659605  0.19927722  0.05775603  1
  O  O3  1  0.69659605  0.30072278  0.94224397  1
  O  O4  1  0.69659605  0.30072278  0.55775603  1
  O  O5  1  0.19659605  0.19927722  0.44224397  1
  O  O6  1  0.80340395  0.80072278  0.94224397  1
  O  O7  1  0.30340395  0.69927722  0.05775603  1
  O  O8  1  0.60880396  0.04265649  0.25000000  1
  O  O9  1  0.10880396  0.45734351  0.75000000  1
  O  O10  1  0.89119604  0.54265649  0.25000000  1
  O  O11  1  0.39119604  0.95734351  0.75000000  1
  Ca  Ca12  1  0.01312532  0.94920535  0.25000000  1
  Ca  Ca13  1  0.51312532  0.55079465  0.75000000  1
  Ca  Ca14  1  0.48687468  0.44920535  0.25000000  1
  Ca  Ca15  1  0.98687468  0.05079465  0.75000000  1
  Zr  Zr16  1  0.00000000  0.50000000  0.00000000  1
  Zr  Zr17  1  0.50000000  0.00000000  0.00000000  1
  Zr  Zr18  1  0.50000000  0.00000000  0.50000000  1
  Zr  Zr19  1  0.00000000  0.50000000  0.50000000  1
