# generated using pymatgen
data_Li2RuO3
_symmetry_space_group_name_H-M   'P 1'
_cell_length_a   5.10566668
_cell_length_b   5.10566684
_cell_length_c   9.97878255
_cell_angle_alpha   94.90841034
_cell_angle_beta   94.90841050
_cell_angle_gamma   119.93244405
_symmetry_Int_Tables_number   1
_chemical_formula_structural   Li2RuO3
_chemical_formula_sum   'Li8 Ru4 O12'
_cell_volume   222.10981929
_cell_formula_units_Z   4
loop_
 _symmetry_equiv_pos_site_id
 _symmetry_equiv_pos_as_xyz
  1  'x, y, z'
loop_
 _atom_site_type_symbol
 _atom_site_label
 _atom_site_symmetry_multiplicity
 _atom_site_fract_x
 _atom_site_fract_y
 _atom_site_fract_z
 _atom_site_occupancy
  Li  Li0  1  0.91094862  0.08905138  0.75000000  1
  Li  Li1  1  0.41072303  0.58927697  0.25000000  1
  Li  Li2  1  0.25012330  0.74987670  0.75000000  1
  Li  Li3  1  0.58927697  0.41072303  0.75000000  1
  Li  Li4  1  0.08905138  0.91094862  0.25000000  1
  Li  Li5  1  0.74987670  0.25012330  0.25000000  1
  Li  Li6  1  0.00000000  0.50000000  0.00000000  1
  Li  Li7  1  0.50000000  0.00000000  0.50000000  1
  Ru  Ru8  1  0.16638389  0.33341388  0.50000918  1
  Ru  Ru9  1  0.66658612  0.83361611  -0.00000918  1
  Ru  Ru10  1  0.83361611  0.66658612  0.49999082  1
  Ru  Ru11  1  0.33341388  0.16638389  1.00000918  1
  O  O12  1  0.88401281  0.38394582  0.61913983  1
  O  O13  1  0.53947024  0.69520830  0.61775838  1
  O  O14  1  0.03941074  0.19534789  0.11782005  1
  O  O15  1  0.11598719  0.61605418  0.38086017  1
  O  O16  1  0.30479170  0.46052976  0.88224162  1
  O  O17  1  0.80465211  0.96058926  0.38217995  1
  O  O18  1  0.69520830  0.53947024  0.11775838  1
  O  O19  1  0.96058926  0.80465211  0.88217995  1
  O  O20  1  0.61605418  0.11598719  0.88086017  1
  O  O21  1  0.46052976  0.30479170  0.38224162  1
  O  O22  1  0.19534789  0.03941074  0.61782005  1
  O  O23  1  0.38394582  0.88401281  0.11913983  1
