# generated using pymatgen
data_ErSi2Ni
_symmetry_space_group_name_H-M   'P 1'
_cell_length_a   3.95223873
_cell_length_b   3.92909501
_cell_length_c   8.48166407
_cell_angle_alpha   103.39263660
_cell_angle_beta   90.00000000
_cell_angle_gamma   90.00000000
_symmetry_Int_Tables_number   1
_chemical_formula_structural   ErSi2Ni
_chemical_formula_sum   'Er2 Si4 Ni2'
_cell_volume   128.12764804
_cell_formula_units_Z   2
loop_
 _symmetry_equiv_pos_site_id
 _symmetry_equiv_pos_as_xyz
  1  'x, y, z'
loop_
 _atom_site_type_symbol
 _atom_site_label
 _atom_site_symmetry_multiplicity
 _atom_site_fract_x
 _atom_site_fract_y
 _atom_site_fract_z
 _atom_site_occupancy
  Si  Si0  1  0.25000000  0.25080465  0.50160931  1
  Si  Si1  1  0.75000000  0.74919535  0.49839069  1
  Si  Si2  1  0.75000000  0.46049040  0.92098080  1
  Si  Si3  1  0.25000000  0.53950960  0.07901920  1
  Ni  Ni4  1  0.75000000  0.32396512  0.64793025  1
  Ni  Ni5  1  0.25000000  0.67603488  0.35206975  1
  Er  Er6  1  0.25000000  0.89449018  0.78898037  1
  Er  Er7  1  0.75000000  0.10550982  0.21101963  1
