# generated using pymatgen
data_DyFeO3
_symmetry_space_group_name_H-M   'P 1'
_cell_length_a   5.33683919
_cell_length_b   5.65107405
_cell_length_c   7.72368625
_cell_angle_alpha   90.00000000
_cell_angle_beta   90.00000000
_cell_angle_gamma   90.00000000
_symmetry_Int_Tables_number   1
_chemical_formula_structural   DyFeO3
_chemical_formula_sum   'Dy4 Fe4 O12'
_cell_volume   232.93767622
_cell_formula_units_Z   4
loop_
 _symmetry_equiv_pos_site_id
 _symmetry_equiv_pos_as_xyz
  1  'x, y, z'
loop_
 _atom_site_type_symbol
 _atom_site_label
 _atom_site_symmetry_multiplicity
 _atom_site_fract_x
 _atom_site_fract_y
 _atom_site_fract_z
 _atom_site_occupancy
  O  O0  1  0.30782132  0.69458247  0.56005616  1
  O  O1  1  0.80782156  0.80541746  0.43994354  1
  O  O2  1  0.19217701  0.19458366  0.93994339  1
  O  O3  1  0.69217724  0.30541690  0.06005631  1
  O  O4  1  0.69217724  0.30541690  0.43994354  1
  O  O5  1  0.19217701  0.19458366  0.56005616  1
  O  O6  1  0.80782156  0.80541746  0.06005631  1
  O  O7  1  0.30782132  0.69458247  0.93994339  1
  O  O8  1  0.11696472  0.45674547  0.25000059  1
  O  O9  1  0.61696495  0.04325335  0.75000044  1
  O  O10  1  0.88303385  0.54325391  0.75000044  1
  O  O11  1  0.38303552  0.95674603  0.25000059  1
  Fe  Fe12  1  0.50000024  0.00000000  0.49999985  1
  Fe  Fe13  1  0.00000000  0.50000056  0.49999985  1
  Fe  Fe14  1  0.00000000  0.50000056  0.00000000  1
  Fe  Fe15  1  0.50000024  0.00000000  0.00000000  1
  Dy  Dy16  1  0.01940082  0.93139185  0.75000044  1
  Dy  Dy17  1  0.51940106  0.56860808  0.25000059  1
  Dy  Dy18  1  0.48059941  0.43139129  0.75000044  1
  Dy  Dy19  1  0.98059965  0.06860927  0.25000059  1
