# generated using pymatgen
data_HoFeO3
_symmetry_space_group_name_H-M   'P 1'
_cell_length_a   5.31737283
_cell_length_b   5.63924981
_cell_length_c   7.70282422
_cell_angle_alpha   90.00000000
_cell_angle_beta   90.00000000
_cell_angle_gamma   90.00000000
_symmetry_Int_Tables_number   1
_chemical_formula_structural   HoFeO3
_chemical_formula_sum   'Ho4 Fe4 O12'
_cell_volume   230.97683870
_cell_formula_units_Z   4
loop_
 _symmetry_equiv_pos_site_id
 _symmetry_equiv_pos_as_xyz
  1  'x, y, z'
loop_
 _atom_site_type_symbol
 _atom_site_label
 _atom_site_symmetry_multiplicity
 _atom_site_fract_x
 _atom_site_fract_y
 _atom_site_fract_z
 _atom_site_occupancy
  O  O0  1  0.69111570  0.30632156  0.43878168  1
  O  O1  1  0.19111649  0.19367953  0.56121779  1
  O  O2  1  0.80888383  0.80632090  0.06121805  1
  O  O3  1  0.30888463  0.69367887  0.93878276  1
  O  O4  1  0.30888463  0.69367887  0.56121779  1
  O  O5  1  0.80888383  0.80632090  0.43878168  1
  O  O6  1  0.19111649  0.19367953  0.93878276  1
  O  O7  1  0.69111570  0.30632156  0.06121805  1
  O  O8  1  0.11972410  0.45478602  0.24999987  1
  O  O9  1  0.61972330  0.04521507  0.74999961  1
  O  O10  1  0.88027623  0.54521441  0.74999961  1
  O  O11  1  0.38027511  0.95478536  0.24999987  1
  Fe  Fe12  1  0.00000000  0.49999934  0.49999974  1
  Fe  Fe13  1  0.49999921  0.00000000  0.49999974  1
  Fe  Fe14  1  0.49999921  0.00000000  0.00000000  1
  Fe  Fe15  1  0.00000000  0.49999934  0.00000000  1
  Ho  Ho16  1  0.01985610  0.93049974  0.74999961  1
  Ho  Ho17  1  0.51985530  0.56950003  0.24999987  1
  Ho  Ho18  1  0.48014502  0.43050040  0.74999961  1
  Ho  Ho19  1  0.98014423  0.06950069  0.24999987  1
