# generated using pymatgen
data_Mg2SbN3
_symmetry_space_group_name_H-M   'P 1'
_cell_length_a   5.96996426
_cell_length_b   5.95472817
_cell_length_c   5.42062789
_cell_angle_alpha   90.00000000
_cell_angle_beta   90.00000000
_cell_angle_gamma   119.91561946
_symmetry_Int_Tables_number   1
_chemical_formula_structural   Mg2SbN3
_chemical_formula_sum   'Mg4 Sb2 N6'
_cell_volume   167.02540806
_cell_formula_units_Z   2
loop_
 _symmetry_equiv_pos_site_id
 _symmetry_equiv_pos_as_xyz
  1  'x, y, z'
loop_
 _atom_site_type_symbol
 _atom_site_label
 _atom_site_symmetry_multiplicity
 _atom_site_fract_x
 _atom_site_fract_y
 _atom_site_fract_z
 _atom_site_occupancy
  Mg  Mg0  1  0.34046806  0.33222969  0.48797630  1
  Mg  Mg1  1  0.65953194  0.99176162  0.48797630  1
  Mg  Mg2  1  0.65953194  0.66777031  0.98797630  1
  Mg  Mg3  1  0.34046806  0.00823838  0.98797630  1
  Sb  Sb4  1  0.00000000  0.67559432  0.48102626  1
  Sb  Sb5  1  1.00000000  0.32440568  0.98102626  1
  N  N6  1  0.32228592  0.33522871  0.87596925  1
  N  N7  1  0.67771408  0.01294280  0.87596925  1
  N  N8  1  0.67771408  0.66477129  0.37596925  1
  N  N9  1  0.32228592  0.98705720  0.37596925  1
  N  N10  1  0.00000000  0.65463707  0.86308365  1
  N  N11  1  1.00000000  0.34536293  0.36308365  1
