# generated using pymatgen
data_Sr3WN3
_symmetry_space_group_name_H-M   'P 1'
_cell_length_a   7.98222400
_cell_length_b   7.98228696
_cell_length_c   5.38429400
_cell_angle_alpha   90.00000000
_cell_angle_beta   90.00000000
_cell_angle_gamma   119.99986059
_symmetry_Int_Tables_number   1
_chemical_formula_structural   Sr3WN3
_chemical_formula_sum   'Sr6 W2 N6'
_cell_volume   297.10588549
_cell_formula_units_Z   2
loop_
 _symmetry_equiv_pos_site_id
 _symmetry_equiv_pos_as_xyz
  1  'x, y, z'
loop_
 _atom_site_type_symbol
 _atom_site_label
 _atom_site_symmetry_multiplicity
 _atom_site_fract_x
 _atom_site_fract_y
 _atom_site_fract_z
 _atom_site_occupancy
  Sr  Sr0  1  0.90235800  0.64813300  0.25000000  1
  Sr  Sr1  1  0.74577700  0.09764300  0.25000000  1
  Sr  Sr2  1  0.35186000  0.25421900  0.25000000  1
  Sr  Sr3  1  0.09764200  0.35186700  0.75000000  1
  Sr  Sr4  1  0.25422300  0.90235700  0.75000000  1
  Sr  Sr5  1  0.64814000  0.74578100  0.75000000  1
  W  W6  1  0.66665600  0.33333000  0.75000000  1
  W  W7  1  0.33334400  0.66667000  0.25000000  1
  N  N8  1  0.88330200  0.58199000  0.75000000  1
  N  N9  1  0.69868500  0.11669600  0.75000000  1
  N  N10  1  0.41800400  0.30130900  0.75000000  1
  N  N11  1  0.11669800  0.41801000  0.25000000  1
  N  N12  1  0.30131500  0.88330400  0.25000000  1
  N  N13  1  0.58199600  0.69869100  0.25000000  1
