# generated using pymatgen
data_UFe3B2
_symmetry_space_group_name_H-M   'P 1'
_cell_length_a   2.83284651
_cell_length_b   5.11685747
_cell_length_c   5.11853739
_cell_angle_alpha   119.98913812
_cell_angle_beta   90.00000000
_cell_angle_gamma   90.00000000
_symmetry_Int_Tables_number   1
_chemical_formula_structural   UFe3B2
_chemical_formula_sum   'U1 Fe3 B2'
_cell_volume   64.26143203
_cell_formula_units_Z   1
loop_
 _symmetry_equiv_pos_site_id
 _symmetry_equiv_pos_as_xyz
  1  'x, y, z'
loop_
 _atom_site_type_symbol
 _atom_site_label
 _atom_site_symmetry_multiplicity
 _atom_site_fract_x
 _atom_site_fract_y
 _atom_site_fract_z
 _atom_site_occupancy
  U  U0  1  0.00000000  0.99998421  0.00000000  1
  Fe  Fe1  1  0.50000000  0.49998260  0.50000121  1
  Fe  Fe2  1  0.50000000  0.99998138  0.49999879  1
  Fe  Fe3  1  0.50000000  0.49998842  0.00000000  1
  B  B4  1  0.00000000  0.33336435  0.66676531  1
  B  B5  1  0.00000000  0.66659904  0.33323469  1
