# generated using pymatgen
data_CdSO4
_symmetry_space_group_name_H-M   'P 1'
_cell_length_a   4.99780579
_cell_length_b   4.99780579
_cell_length_c   7.31344648
_cell_angle_alpha   90.00000000
_cell_angle_beta   90.00000000
_cell_angle_gamma   114.64348385
_symmetry_Int_Tables_number   1
_chemical_formula_structural   CdSO4
_chemical_formula_sum   'Cd2 S2 O8'
_cell_volume   166.03760456
_cell_formula_units_Z   2
loop_
 _symmetry_equiv_pos_site_id
 _symmetry_equiv_pos_as_xyz
  1  'x, y, z'
loop_
 _atom_site_type_symbol
 _atom_site_label
 _atom_site_symmetry_multiplicity
 _atom_site_fract_x
 _atom_site_fract_y
 _atom_site_fract_z
 _atom_site_occupancy
  O  O0  1  0.23424554  0.31184053  0.75000000  1
  O  O1  1  0.76575446  0.68815947  0.25000000  1
  O  O2  1  0.31184053  0.23424554  0.25000000  1
  O  O3  1  0.68815947  0.76575446  0.75000000  1
  O  O4  1  0.26119926  0.73880074  0.91967581  1
  O  O5  1  0.73880074  0.26119926  0.41967581  1
  O  O6  1  0.73880074  0.26119926  0.08032419  1
  O  O7  1  0.26119926  0.73880074  0.58032419  1
  S  S8  1  0.64484664  0.35515336  0.25000000  1
  S  S9  1  0.35515336  0.64484664  0.75000000  1
  Cd  Cd10  1  0.00000000  0.00000000  0.50000000  1
  Cd  Cd11  1  0.00000000  0.00000000  0.00000000  1
