# generated using pymatgen
data_Ca4As2O
_symmetry_space_group_name_H-M   'P 1'
_cell_length_a   4.56655211
_cell_length_b   4.56655212
_cell_length_c   8.39459945
_cell_angle_alpha   105.78292319
_cell_angle_beta   105.78292318
_cell_angle_gamma   90.00000002
_symmetry_Int_Tables_number   1
_chemical_formula_structural   Ca4As2O
_chemical_formula_sum   'Ca4 As2 O1'
_cell_volume   161.58706206
_cell_formula_units_Z   1
loop_
 _symmetry_equiv_pos_site_id
 _symmetry_equiv_pos_as_xyz
  1  'x, y, z'
loop_
 _atom_site_type_symbol
 _atom_site_label
 _atom_site_symmetry_multiplicity
 _atom_site_fract_x
 _atom_site_fract_y
 _atom_site_fract_z
 _atom_site_occupancy
  O  O0  1  0.50000000  0.50000000  0.00000000  1
  Ca  Ca1  1  0.67169218  0.67169218  0.34338436  1
  Ca  Ca2  1  0.32830782  0.32830782  0.65661564  1
  Ca  Ca3  1  0.50000000  0.00000000  0.00000000  1
  Ca  Ca4  1  0.00000000  0.50000000  0.00000000  1
  As  As5  1  0.86282648  0.86282648  0.72565297  1
  As  As6  1  0.13717352  0.13717352  0.27434703  1
