# generated using pymatgen
data_SrHClO
_symmetry_space_group_name_H-M   'P 1'
_cell_length_a   4.18258567
_cell_length_b   4.18258567
_cell_length_c   10.07966530
_cell_angle_alpha   90.00000000
_cell_angle_beta   90.00000000
_cell_angle_gamma   120.00000008
_symmetry_Int_Tables_number   1
_chemical_formula_structural   SrHClO
_chemical_formula_sum   'Sr2 H2 Cl2 O2'
_cell_volume   152.70963285
_cell_formula_units_Z   2
loop_
 _symmetry_equiv_pos_site_id
 _symmetry_equiv_pos_as_xyz
  1  'x, y, z'
loop_
 _atom_site_type_symbol
 _atom_site_label
 _atom_site_symmetry_multiplicity
 _atom_site_fract_x
 _atom_site_fract_y
 _atom_site_fract_z
 _atom_site_occupancy
  H  H0  1  0.00000000  0.00000000  0.86025024  1
  H  H1  1  0.00000000  0.00000000  0.36025024  1
  O  O2  1  0.00000000  0.00000000  0.26341005  1
  O  O3  1  0.00000000  0.00000000  0.76341005  1
  Cl  Cl4  1  0.33333333  0.66666667  0.01061567  1
  Cl  Cl5  1  0.66666667  0.33333333  0.51061567  1
  Sr  Sr6  1  0.66666667  0.33333333  0.19722404  1
  Sr  Sr7  1  0.33333333  0.66666667  0.69722404  1
