# generated using pymatgen
data_TmAgTe2
_symmetry_space_group_name_H-M   'P 1'
_cell_length_a   4.65426282
_cell_length_b   7.09623580
_cell_length_c   7.09623580
_cell_angle_alpha   90.00000000
_cell_angle_beta   90.00000000
_cell_angle_gamma   90.00000000
_symmetry_Int_Tables_number   1
_chemical_formula_structural   TmAgTe2
_chemical_formula_sum   'Tm2 Ag2 Te4'
_cell_volume   234.37267672
_cell_formula_units_Z   2
loop_
 _symmetry_equiv_pos_site_id
 _symmetry_equiv_pos_as_xyz
  1  'x, y, z'
loop_
 _atom_site_type_symbol
 _atom_site_label
 _atom_site_symmetry_multiplicity
 _atom_site_fract_x
 _atom_site_fract_y
 _atom_site_fract_z
 _atom_site_occupancy
  Tm  Tm0  1  0.80120951  0.00000000  0.50000000  1
  Tm  Tm1  1  0.19879049  0.50000000  0.00000000  1
  Ag  Ag2  1  0.00000000  0.50000000  0.50000000  1
  Ag  Ag3  1  0.00000000  -0.00000000  0.00000000  1
  Te  Te4  1  0.28807805  0.20185002  0.70185002  1
  Te  Te5  1  0.71192195  0.29814998  0.20185002  1
  Te  Te6  1  0.28807805  0.79814998  0.29814998  1
  Te  Te7  1  0.71192195  0.70185002  0.79814998  1
