# generated using pymatgen
data_Ca3FeN3
_symmetry_space_group_name_H-M   'P 1'
_cell_length_a   7.21951058
_cell_length_b   4.97969561
_cell_length_c   7.21990852
_cell_angle_alpha   90.00000000
_cell_angle_beta   119.97953178
_cell_angle_gamma   90.00000000
_symmetry_Int_Tables_number   1
_chemical_formula_structural   Ca3FeN3
_chemical_formula_sum   'Ca6 Fe2 N6'
_cell_volume   224.83422282
_cell_formula_units_Z   2
loop_
 _symmetry_equiv_pos_site_id
 _symmetry_equiv_pos_as_xyz
  1  'x, y, z'
loop_
 _atom_site_type_symbol
 _atom_site_label
 _atom_site_symmetry_multiplicity
 _atom_site_fract_x
 _atom_site_fract_y
 _atom_site_fract_z
 _atom_site_occupancy
  Ca  Ca0  1  0.72522523  0.25000000  0.08524126  1
  Ca  Ca1  1  0.35977823  0.25000000  0.27439349  1
  Ca  Ca2  1  0.91513939  0.25000000  0.64063337  1
  Ca  Ca3  1  0.27477477  0.75000000  0.91475874  1
  Ca  Ca4  1  0.64022177  0.75000000  0.72560651  1
  Ca  Ca5  1  0.08486061  0.75000000  0.35936663  1
  Fe  Fe6  1  0.66643724  0.75000000  0.33325465  1
  Fe  Fe7  1  0.33356276  0.25000000  0.66674535  1
  N  N8  1  0.69461902  0.75000000  0.10497232  1
  N  N9  1  0.41030638  0.75000000  0.30497699  1
  N  N10  1  0.89463945  0.75000000  0.58913423  1
  N  N11  1  0.30538098  0.25000000  0.89502768  1
  N  N12  1  0.58969362  0.25000000  0.69502301  1
  N  N13  1  0.10536055  0.25000000  0.41086577  1
