# generated using pymatgen
data_Sr3ReN3
_symmetry_space_group_name_H-M   'P 1'
_cell_length_a   7.83039744
_cell_length_b   7.82976935
_cell_length_c   5.42781676
_cell_angle_alpha   90.00000000
_cell_angle_beta   90.00000000
_cell_angle_gamma   119.99067376
_symmetry_Int_Tables_number   1
_chemical_formula_structural   Sr3ReN3
_chemical_formula_sum   'Sr6 Re2 N6'
_cell_volume   288.22350171
_cell_formula_units_Z   2
loop_
 _symmetry_equiv_pos_site_id
 _symmetry_equiv_pos_as_xyz
  1  'x, y, z'
loop_
 _atom_site_type_symbol
 _atom_site_label
 _atom_site_symmetry_multiplicity
 _atom_site_fract_x
 _atom_site_fract_y
 _atom_site_fract_z
 _atom_site_occupancy
  Sr  Sr0  1  0.90229815  0.64450493  0.25000000  1
  Sr  Sr1  1  0.74219638  0.09772463  0.25000000  1
  Sr  Sr2  1  0.35552126  0.25780729  0.25000000  1
  Sr  Sr3  1  0.09770185  0.35549507  0.75000000  1
  Sr  Sr4  1  0.25780362  0.90227537  0.75000000  1
  Sr  Sr5  1  0.64447874  0.74219271  0.75000000  1
  Re  Re6  1  0.66673618  0.33340188  0.75000000  1
  Re  Re7  1  0.33326382  0.66659812  0.25000000  1
  N  N8  1  0.89203502  0.57864186  0.75000000  1
  N  N9  1  0.68662239  0.10791853  0.75000000  1
  N  N10  1  0.42126716  0.31337612  0.75000000  1
  N  N11  1  0.10796498  0.42135814  0.25000000  1
  N  N12  1  0.31337761  0.89208147  0.25000000  1
  N  N13  1  0.57873284  0.68662388  0.25000000  1
