# generated using pymatgen
data_Li3HoSb2
_symmetry_space_group_name_H-M   'P 1'
_cell_length_a   4.54260126
_cell_length_b   4.54267543
_cell_length_c   7.14971900
_cell_angle_alpha   89.99999999
_cell_angle_beta   90.00126302
_cell_angle_gamma   120.00054607
_symmetry_Int_Tables_number   1
_chemical_formula_structural   Li3HoSb2
_chemical_formula_sum   'Li3 Ho1 Sb2'
_cell_volume   127.77136683
_cell_formula_units_Z   1
loop_
 _symmetry_equiv_pos_site_id
 _symmetry_equiv_pos_as_xyz
  1  'x, y, z'
loop_
 _atom_site_type_symbol
 _atom_site_label
 _atom_site_symmetry_multiplicity
 _atom_site_fract_x
 _atom_site_fract_y
 _atom_site_fract_z
 _atom_site_occupancy
  Li  Li0  1  0.66662014  0.33331007  0.35107756  1
  Li  Li1  1  0.33337986  0.66668993  0.64892244  1
  Li  Li2  1  0.00000000  0.00000000  0.50000000  1
  Ho  Ho3  1  0.00000000  0.00000000  0.00000000  1
  Sb  Sb4  1  0.66660898  0.33330449  0.75383089  1
  Sb  Sb5  1  0.33339102  0.66669551  0.24616911  1
