# generated using pymatgen
data_Mg2CrN3
_symmetry_space_group_name_H-M   'P 1'
_cell_length_a   5.76861781
_cell_length_b   5.80094890
_cell_length_c   5.02302092
_cell_angle_alpha   90.00000000
_cell_angle_beta   90.00000000
_cell_angle_gamma   120.18556612
_symmetry_Int_Tables_number   1
_chemical_formula_structural   Mg2CrN3
_chemical_formula_sum   'Mg4 Cr2 N6'
_cell_volume   145.29521171
_cell_formula_units_Z   2
loop_
 _symmetry_equiv_pos_site_id
 _symmetry_equiv_pos_as_xyz
  1  'x, y, z'
loop_
 _atom_site_type_symbol
 _atom_site_label
 _atom_site_symmetry_multiplicity
 _atom_site_fract_x
 _atom_site_fract_y
 _atom_site_fract_z
 _atom_site_occupancy
  Mg  Mg0  1  0.32439760  0.33375291  0.47418978  1
  Mg  Mg1  1  0.67560240  0.00935531  0.47418978  1
  Mg  Mg2  1  0.67560240  0.66624709  0.97418978  1
  Mg  Mg3  1  0.32439760  0.99064469  0.97418978  1
  Cr  Cr4  1  0.00000000  0.67024614  0.47933377  1
  Cr  Cr5  1  1.00000000  0.32975386  0.97933377  1
  N  N6  1  0.29825864  0.33290466  0.90008139  1
  N  N7  1  0.70174136  0.03464602  0.90008139  1
  N  N8  1  0.70174136  0.66709534  0.40008139  1
  N  N9  1  0.29825864  0.96535398  0.40008139  1
  N  N10  1  0.00000000  0.62797144  0.84412488  1
  N  N11  1  1.00000000  0.37202856  0.34412488  1
