# generated using pymatgen
data_ZrH
_symmetry_space_group_name_H-M   'P 1'
_cell_length_a   4.59141167
_cell_length_b   4.59140124
_cell_length_c   5.01271464
_cell_angle_alpha   89.99969595
_cell_angle_beta   89.99913503
_cell_angle_gamma   90.00080564
_symmetry_Int_Tables_number   1
_chemical_formula_structural   ZrH
_chemical_formula_sum   'Zr4 H4'
_cell_volume   105.67310366
_cell_formula_units_Z   4
loop_
 _symmetry_equiv_pos_site_id
 _symmetry_equiv_pos_as_xyz
  1  'x, y, z'
loop_
 _atom_site_type_symbol
 _atom_site_label
 _atom_site_symmetry_multiplicity
 _atom_site_fract_x
 _atom_site_fract_y
 _atom_site_fract_z
 _atom_site_occupancy
  Zr  Zr0  1  0.74998542  0.25000467  0.74999926  1
  Zr  Zr1  1  0.25000931  0.74999732  0.75000461  1
  Zr  Zr2  1  0.25000984  0.25000629  0.24999786  1
  Zr  Zr3  1  0.74999859  0.74999104  0.25000137  1
  H  H4  1  0.49999830  0.50000395  0.50000220  1
  H  H5  1  0.00000194  0.00000055  0.99999893  1
  H  H6  1  0.49999955  0.49999802  -0.00000067  1
  H  H7  1  0.99999705  0.99999818  0.49999644  1
