# generated using pymatgen
data_K2ZnH4
_symmetry_space_group_name_H-M   'P 1'
_cell_length_a   5.85562393
_cell_length_b   7.79665594
_cell_length_c   10.30951072
_cell_angle_alpha   90.00000000
_cell_angle_beta   90.00000000
_cell_angle_gamma   90.00000000
_symmetry_Int_Tables_number   1
_chemical_formula_structural   K2ZnH4
_chemical_formula_sum   'K8 Zn4 H16'
_cell_volume   470.67334161
_cell_formula_units_Z   4
loop_
 _symmetry_equiv_pos_site_id
 _symmetry_equiv_pos_as_xyz
  1  'x, y, z'
loop_
 _atom_site_type_symbol
 _atom_site_label
 _atom_site_symmetry_multiplicity
 _atom_site_fract_x
 _atom_site_fract_y
 _atom_site_fract_z
 _atom_site_occupancy
  K  K0  1  0.75000000  0.33924228  0.90948722  1
  K  K1  1  0.75000000  0.83924228  0.59051278  1
  K  K2  1  0.25000000  0.66075772  0.09051278  1
  K  K3  1  0.25000000  0.16075772  0.40948722  1
  K  K4  1  0.75000000  0.01208183  0.18694123  1
  K  K5  1  0.75000000  0.51208183  0.31305877  1
  K  K6  1  0.25000000  0.98791817  0.81305877  1
  K  K7  1  0.25000000  0.48791817  0.68694123  1
  Zn  Zn8  1  0.75000000  0.26483360  0.58155033  1
  Zn  Zn9  1  0.75000000  0.76483360  0.91844967  1
  Zn  Zn10  1  0.25000000  0.73516640  0.41844967  1
  Zn  Zn11  1  0.25000000  0.23516640  0.08155033  1
  H  H12  1  0.98154254  0.18784648  0.65418227  1
  H  H13  1  0.51845746  0.68784648  0.84581773  1
  H  H14  1  0.48154254  0.81215352  0.34581773  1
  H  H15  1  0.01845746  0.31215352  0.15418227  1
  H  H16  1  0.01845746  0.81215352  0.34581773  1
  H  H17  1  0.48154254  0.31215352  0.15418227  1
  H  H18  1  0.51845746  0.18784648  0.65418227  1
  H  H19  1  0.98154254  0.68784648  0.84581773  1
  H  H20  1  0.75000000  0.47672521  0.58666224  1
  H  H21  1  0.75000000  0.97672521  0.91333776  1
  H  H22  1  0.25000000  0.52327479  0.41333776  1
  H  H23  1  0.25000000  0.02327479  0.08666224  1
  H  H24  1  0.75000000  0.69320575  0.07135006  1
  H  H25  1  0.75000000  0.19320575  0.42864994  1
  H  H26  1  0.25000000  0.30679425  0.92864994  1
  H  H27  1  0.25000000  0.80679425  0.57135006  1
