# generated using pymatgen
data_ErZnGa
_symmetry_space_group_name_H-M   'P 1'
_cell_length_a   4.40329769
_cell_length_b   4.40274294
_cell_length_c   7.06240758
_cell_angle_alpha   90.00000000
_cell_angle_beta   90.00000000
_cell_angle_gamma   120.00416826
_symmetry_Int_Tables_number   1
_chemical_formula_structural   ErZnGa
_chemical_formula_sum   'Er2 Zn2 Ga2'
_cell_volume   118.56774027
_cell_formula_units_Z   2
loop_
 _symmetry_equiv_pos_site_id
 _symmetry_equiv_pos_as_xyz
  1  'x, y, z'
loop_
 _atom_site_type_symbol
 _atom_site_label
 _atom_site_symmetry_multiplicity
 _atom_site_fract_x
 _atom_site_fract_y
 _atom_site_fract_z
 _atom_site_occupancy
  Er  Er0  1  0.99998949  0.99997899  0.49965756  1
  Er  Er1  1  0.00001051  0.00002101  0.99965756  1
  Zn  Zn2  1  0.66671049  0.33342098  0.21348044  1
  Zn  Zn3  1  0.33328951  0.66657902  0.71348044  1
  Ga  Ga4  1  0.66670815  0.33341630  0.78066201  1
  Ga  Ga5  1  0.33329185  0.66658370  0.28066201  1
