# generated using pymatgen
data_TcB2
_symmetry_space_group_name_H-M   'P 1'
_cell_length_a   2.90282792
_cell_length_b   2.90277925
_cell_length_c   7.47261084
_cell_angle_alpha   90.00000000
_cell_angle_beta   90.00000000
_cell_angle_gamma   120.00055466
_symmetry_Int_Tables_number   1
_chemical_formula_structural   TcB2
_chemical_formula_sum   'Tc2 B4'
_cell_volume   54.53004689
_cell_formula_units_Z   2
loop_
 _symmetry_equiv_pos_site_id
 _symmetry_equiv_pos_as_xyz
  1  'x, y, z'
loop_
 _atom_site_type_symbol
 _atom_site_label
 _atom_site_symmetry_multiplicity
 _atom_site_fract_x
 _atom_site_fract_y
 _atom_site_fract_z
 _atom_site_occupancy
  Tc  Tc0  1  0.33332206  0.66664411  0.25000000  1
  Tc  Tc1  1  0.66667794  0.33335589  0.75000000  1
  B  B2  1  0.33331972  0.66663945  0.95222274  1
  B  B3  1  0.66668028  0.33336055  0.04777726  1
  B  B4  1  0.66668028  0.33336055  0.45222274  1
  B  B5  1  0.33331972  0.66663945  0.54777726  1
