# generated using pymatgen
data_Mg3Si4(HO6)2
_symmetry_space_group_name_H-M   'P 1'
_cell_length_a   5.32832054
_cell_length_b   5.34132144
_cell_length_c   9.62336444
_cell_angle_alpha   79.82133770
_cell_angle_beta   84.10375451
_cell_angle_gamma   60.14025169
_symmetry_Int_Tables_number   1
_chemical_formula_structural   Mg3Si4(HO6)2
_chemical_formula_sum   'Mg3 Si4 H2 O12'
_cell_volume   233.75148000
_cell_formula_units_Z   1
loop_
 _symmetry_equiv_pos_site_id
 _symmetry_equiv_pos_as_xyz
  1  'x, y, z'
loop_
 _atom_site_type_symbol
 _atom_site_label
 _atom_site_symmetry_multiplicity
 _atom_site_fract_x
 _atom_site_fract_y
 _atom_site_fract_z
 _atom_site_occupancy
  Mg  Mg0  1  -0.00000000  0.00000000  0.00000000  1
  Mg  Mg1  1  0.33287561  0.33381816  0.99990951  1
  Mg  Mg2  1  0.66712439  0.66618184  0.00009049  1
  Si  Si3  1  0.98888038  0.24617458  0.29103315  1
  Si  Si4  1  0.01111962  0.75382542  0.70896685  1
  Si  Si5  1  0.32245739  0.57962425  0.29081156  1
  Si  Si6  1  0.67754261  0.42037575  0.70918844  1
  H  H7  1  0.66124411  0.93850200  0.21339091  1
  H  H8  1  0.33875589  0.06149800  0.78660909  1
  O  O9  1  0.32875625  0.63018564  0.11782586  1
  O  O10  1  0.67124375  0.36981436  0.88217414  1
  O  O11  1  0.66176833  0.96686686  0.11101385  1
  O  O12  1  0.33823167  0.03313314  0.88898615  1
  O  O13  1  0.99442321  0.29827096  0.11808158  1
  O  O14  1  0.00557679  0.70172904  0.88191842  1
  O  O15  1  0.13230315  0.89558325  0.34827781  1
  O  O16  1  0.86769685  0.10441675  0.65172219  1
  O  O17  1  0.17396518  0.37477529  0.35002576  1
  O  O18  1  0.82603482  0.62522471  0.64997424  1
  O  O19  1  0.65349667  0.41719761  0.34977988  1
  O  O20  1  0.34650333  0.58280239  0.65022012  1
