# generated using pymatgen
data_Er2O3
_symmetry_space_group_name_H-M   'P 1'
_cell_length_a   9.13698855
_cell_length_b   9.13698855
_cell_length_c   9.13698855
_cell_angle_alpha   109.47122064
_cell_angle_beta   109.47122063
_cell_angle_gamma   109.47122064
_symmetry_Int_Tables_number   1
_chemical_formula_structural   Er2O3
_chemical_formula_sum   'Er16 O24'
_cell_volume   587.20176368
_cell_formula_units_Z   8
loop_
 _symmetry_equiv_pos_site_id
 _symmetry_equiv_pos_as_xyz
  1  'x, y, z'
loop_
 _atom_site_type_symbol
 _atom_site_label
 _atom_site_symmetry_multiplicity
 _atom_site_fract_x
 _atom_site_fract_y
 _atom_site_fract_z
 _atom_site_occupancy
  O  O0  1  0.01134136  0.46837054  0.73929251  1
  O  O1  1  0.22907803  0.27204885  0.76070749  1
  O  O2  1  0.27092197  0.03162946  0.04297082  1
  O  O3  1  0.22795115  0.45702918  0.48865864  1
  O  O4  1  0.45702918  0.48865864  0.22795115  1
  O  O5  1  0.73929251  0.01134136  0.46837054  1
  O  O6  1  0.27204885  0.76070749  0.22907803  1
  O  O7  1  0.04297082  0.27092197  0.03162946  1
  O  O8  1  0.46837054  0.73929251  0.01134136  1
  O  O9  1  0.76070749  0.22907803  0.27204885  1
  O  O10  1  0.03162946  0.04297082  0.27092197  1
  O  O11  1  0.48865864  0.22795115  0.45702918  1
  O  O12  1  0.98865864  0.53162946  0.26070749  1
  O  O13  1  0.77092197  0.72795115  0.23929251  1
  O  O14  1  0.72907803  0.96837054  0.95702918  1
  O  O15  1  0.77204885  0.54297082  0.51134136  1
  O  O16  1  0.51134136  0.77204885  0.54297082  1
  O  O17  1  0.96837054  0.95702918  0.72907803  1
  O  O18  1  0.23929251  0.77092197  0.72795115  1
  O  O19  1  0.53162946  0.26070749  0.98865864  1
  O  O20  1  0.95702918  0.72907803  0.96837054  1
  O  O21  1  0.72795115  0.23929251  0.77092197  1
  O  O22  1  0.26070749  0.98865864  0.53162946  1
  O  O23  1  0.54297082  0.51134136  0.77204885  1
  Er  Er24  1  0.25000000  0.03294533  0.78294533  1
  Er  Er25  1  0.71705467  0.75000000  0.46705467  1
  Er  Er26  1  0.46705467  0.71705467  0.75000000  1
  Er  Er27  1  0.78294533  0.25000000  0.03294533  1
  Er  Er28  1  0.03294533  0.78294533  0.25000000  1
  Er  Er29  1  0.75000000  0.46705467  0.71705467  1
  Er  Er30  1  0.75000000  0.96705467  0.21705467  1
  Er  Er31  1  0.28294533  0.25000000  0.53294533  1
  Er  Er32  1  0.53294533  0.28294533  0.25000000  1
  Er  Er33  1  0.21705467  0.75000000  0.96705467  1
  Er  Er34  1  0.96705467  0.21705467  0.75000000  1
  Er  Er35  1  0.25000000  0.53294533  0.28294533  1
  Er  Er36  1  0.50000000  0.50000000  0.00000000  1
  Er  Er37  1  0.50000000  0.00000000  0.50000000  1
  Er  Er38  1  0.00000000  0.50000000  0.50000000  1
  Er  Er39  1  0.00000000  0.00000000  0.00000000  1
