# generated using pymatgen
data_Pr(CoB)2
_symmetry_space_group_name_H-M   'P 1'
_cell_length_a   3.59091052
_cell_length_b   3.59091053
_cell_length_c   5.64873622
_cell_angle_alpha   108.53299938
_cell_angle_beta   108.53299941
_cell_angle_gamma   89.99999995
_symmetry_Int_Tables_number   1
_chemical_formula_structural   Pr(CoB)2
_chemical_formula_sum   'Pr1 Co2 B2'
_cell_volume   65.06479385
_cell_formula_units_Z   1
loop_
 _symmetry_equiv_pos_site_id
 _symmetry_equiv_pos_as_xyz
  1  'x, y, z'
loop_
 _atom_site_type_symbol
 _atom_site_label
 _atom_site_symmetry_multiplicity
 _atom_site_fract_x
 _atom_site_fract_y
 _atom_site_fract_z
 _atom_site_occupancy
  B  B0  1  0.66449031  0.66449031  0.32898062  1
  B  B1  1  0.33550969  0.33550969  0.67101938  1
  Co  Co2  1  0.25000000  0.75000000  0.50000000  1
  Co  Co3  1  0.75000000  0.25000000  0.50000000  1
  Pr  Pr4  1  0.00000000  0.00000000  0.00000000  1
