# generated using pymatgen
data_Sr3Al3N5
_symmetry_space_group_name_H-M   'P 1'
_cell_length_a   5.78263079
_cell_length_b   7.29575326
_cell_length_c   8.63672392
_cell_angle_alpha   108.88641207
_cell_angle_beta   102.66045690
_cell_angle_gamma   96.09639035
_symmetry_Int_Tables_number   1
_chemical_formula_structural   Sr3Al3N5
_chemical_formula_sum   'Sr6 Al6 N10'
_cell_volume   330.12125465
_cell_formula_units_Z   2
loop_
 _symmetry_equiv_pos_site_id
 _symmetry_equiv_pos_as_xyz
  1  'x, y, z'
loop_
 _atom_site_type_symbol
 _atom_site_label
 _atom_site_symmetry_multiplicity
 _atom_site_fract_x
 _atom_site_fract_y
 _atom_site_fract_z
 _atom_site_occupancy
  Sr  Sr0  1  0.81167020  0.42282433  0.60829829  1
  Sr  Sr1  1  0.18832980  0.57717567  0.39170171  1
  Sr  Sr2  1  0.66854837  0.85873341  0.87809601  1
  Sr  Sr3  1  0.33145163  0.14126659  0.12190399  1
  Sr  Sr4  1  0.66285756  0.65641576  0.20813486  1
  Sr  Sr5  1  0.33714244  0.34358424  0.79186514  1
  Al  Al6  1  0.91069838  0.31761911  0.97354486  1
  Al  Al7  1  0.08930162  0.68238089  0.02645514  1
  Al  Al8  1  0.70144561  0.96145944  0.57529086  1
  Al  Al9  1  0.29855439  0.03854056  0.42470914  1
  Al  Al10  1  0.11140566  0.88544414  0.70913731  1
  Al  Al11  1  0.88859434  0.11455586  0.29086269  1
  N  N12  1  0.94866051  0.10832105  0.78122585  1
  N  N13  1  0.05133949  0.89167895  0.21877415  1
  N  N14  1  0.82664634  0.72470083  0.53112339  1
  N  N15  1  0.17335366  0.27529917  0.46887661  1
  N  N16  1  0.77035754  0.51968622  0.91100142  1
  N  N17  1  0.22964246  0.48031378  0.08899858  1
  N  N18  1  0.37712791  0.94787548  0.61308014  1
  N  N19  1  0.62287209  0.05212452  0.38691986  1
  N  N20  1  0.22006704  0.78160144  0.87984838  1
  N  N21  1  0.77993296  0.21839856  0.12015162  1
