# generated using pymatgen
data_NdFeO3
_symmetry_space_group_name_H-M   'P 1'
_cell_length_a   5.50009562
_cell_length_b   5.69712067
_cell_length_c   7.86371647
_cell_angle_alpha   90.00000000
_cell_angle_beta   90.00000000
_cell_angle_gamma   90.00000000
_symmetry_Int_Tables_number   1
_chemical_formula_structural   NdFeO3
_chemical_formula_sum   'Nd4 Fe4 O12'
_cell_volume   246.40726287
_cell_formula_units_Z   4
loop_
 _symmetry_equiv_pos_site_id
 _symmetry_equiv_pos_as_xyz
  1  'x, y, z'
loop_
 _atom_site_type_symbol
 _atom_site_label
 _atom_site_symmetry_multiplicity
 _atom_site_fract_x
 _atom_site_fract_y
 _atom_site_fract_z
 _atom_site_occupancy
  O  O0  1  0.70274040  0.29711206  0.44985137  1
  O  O1  1  0.20274040  0.20288794  0.55014863  1
  O  O2  1  0.79725960  0.79711206  0.05014863  1
  O  O3  1  0.29725960  0.70288794  0.94985137  1
  O  O4  1  0.29725960  0.70288794  0.55014863  1
  O  O5  1  0.79725960  0.79711206  0.44985137  1
  O  O6  1  0.20274040  0.20288794  0.94985137  1
  O  O7  1  0.70274040  0.29711206  0.05014863  1
  O  O8  1  0.09469865  0.47134658  0.25000000  1
  O  O9  1  0.59469865  0.02865342  0.75000000  1
  O  O10  1  0.40530135  0.97134658  0.25000000  1
  O  O11  1  0.90530135  0.52865342  0.75000000  1
  Fe  Fe12  1  0.00000000  0.50000000  0.50000000  1
  Fe  Fe13  1  0.50000000  0.00000000  0.50000000  1
  Fe  Fe14  1  0.50000000  0.00000000  0.00000000  1
  Fe  Fe15  1  0.00000000  0.50000000  0.00000000  1
  Nd  Nd16  1  0.01404016  0.94336660  0.75000000  1
  Nd  Nd17  1  0.51404016  0.55663340  0.25000000  1
  Nd  Nd18  1  0.48595984  0.44336660  0.75000000  1
  Nd  Nd19  1  0.98595984  0.05663340  0.25000000  1
