# generated using pymatgen
data_CeGe3Rh
_symmetry_space_group_name_H-M   'P 1'
_cell_length_a   4.42583432
_cell_length_b   4.42583432
_cell_length_c   5.91567434
_cell_angle_alpha   111.96727146
_cell_angle_beta   111.96727144
_cell_angle_gamma   90.00000003
_symmetry_Int_Tables_number   1
_chemical_formula_structural   CeGe3Rh
_chemical_formula_sum   'Ce1 Ge3 Rh1'
_cell_volume   98.33336463
_cell_formula_units_Z   1
loop_
 _symmetry_equiv_pos_site_id
 _symmetry_equiv_pos_as_xyz
  1  'x, y, z'
loop_
 _atom_site_type_symbol
 _atom_site_label
 _atom_site_symmetry_multiplicity
 _atom_site_fract_x
 _atom_site_fract_y
 _atom_site_fract_z
 _atom_site_occupancy
  Ge  Ge0  1  0.84246026  0.34246026  0.68492052  1
  Ge  Ge1  1  0.34246026  0.84246026  0.68492052  1
  Ge  Ge2  1  0.00086613  0.00086613  0.00173227  1
  Rh  Rh3  1  0.23974040  0.23974040  0.47948079  1
  Ce  Ce4  1  0.57567295  0.57567295  0.15134589  1
