# generated using pymatgen
data_MnSnO3
_symmetry_space_group_name_H-M   'P 1'
_cell_length_a   5.81669020
_cell_length_b   5.81669006
_cell_length_c   5.81669007
_cell_angle_alpha   55.89487004
_cell_angle_beta   55.89487101
_cell_angle_gamma   55.89487488
_symmetry_Int_Tables_number   1
_chemical_formula_structural   MnSnO3
_chemical_formula_sum   'Mn2 Sn2 O6'
_cell_volume   125.91863108
_cell_formula_units_Z   2
loop_
 _symmetry_equiv_pos_site_id
 _symmetry_equiv_pos_as_xyz
  1  'x, y, z'
loop_
 _atom_site_type_symbol
 _atom_site_label
 _atom_site_symmetry_multiplicity
 _atom_site_fract_x
 _atom_site_fract_y
 _atom_site_fract_z
 _atom_site_occupancy
  Mn  Mn0  1  0.63730223  0.63730223  0.63730223  1
  Mn  Mn1  1  0.36269777  0.36269777  0.36269777  1
  Sn  Sn2  1  0.84922946  0.84922946  0.84922946  1
  Sn  Sn3  1  0.15077054  0.15077054  0.15077054  1
  O  O4  1  0.04527598  0.77026277  0.44591203  1
  O  O5  1  0.77026277  0.44591203  0.04527598  1
  O  O6  1  0.55408797  0.95472402  0.22973723  1
  O  O7  1  0.22973723  0.55408797  0.95472402  1
  O  O8  1  0.44591203  0.04527598  0.77026277  1
  O  O9  1  0.95472402  0.22973723  0.55408797  1
