# generated using pymatgen
data_CaAg2
_symmetry_space_group_name_H-M   'P 1'
_cell_length_a   4.71861273
_cell_length_b   6.01475583
_cell_length_c   6.01475574
_cell_angle_alpha   75.27540043
_cell_angle_beta   66.90524165
_cell_angle_gamma   66.90523717
_symmetry_Int_Tables_number   1
_chemical_formula_structural   CaAg2
_chemical_formula_sum   'Ca2 Ag4'
_cell_volume   143.42266442
_cell_formula_units_Z   2
loop_
 _symmetry_equiv_pos_site_id
 _symmetry_equiv_pos_as_xyz
  1  'x, y, z'
loop_
 _atom_site_type_symbol
 _atom_site_label
 _atom_site_symmetry_multiplicity
 _atom_site_fract_x
 _atom_site_fract_y
 _atom_site_fract_z
 _atom_site_occupancy
  Ca  Ca0  1  0.95263421  0.29736579  0.29736579  1
  Ca  Ca1  1  0.04736579  0.70263421  0.70263421  1
  Ag  Ag2  1  0.66155901  0.28772553  0.88915645  1
  Ag  Ag3  1  0.33844099  0.71227447  0.11084355  1
  Ag  Ag4  1  0.33844099  0.11084355  0.71227447  1
  Ag  Ag5  1  0.66155901  0.88915645  0.28772553  1
