# generated using pymatgen
data_SmMnO3
_symmetry_space_group_name_H-M   'P 1'
_cell_length_a   5.41926962
_cell_length_b   5.92897164
_cell_length_c   7.59258344
_cell_angle_alpha   90.00000000
_cell_angle_beta   90.00000000
_cell_angle_gamma   90.00000000
_symmetry_Int_Tables_number   1
_chemical_formula_structural   SmMnO3
_chemical_formula_sum   'Sm4 Mn4 O12'
_cell_volume   243.95498950
_cell_formula_units_Z   4
loop_
 _symmetry_equiv_pos_site_id
 _symmetry_equiv_pos_as_xyz
  1  'x, y, z'
loop_
 _atom_site_type_symbol
 _atom_site_label
 _atom_site_symmetry_multiplicity
 _atom_site_fract_x
 _atom_site_fract_y
 _atom_site_fract_z
 _atom_site_occupancy
  O  O0  1  0.70692645  0.32153007  0.44857638  1
  O  O1  1  0.20692648  0.17846999  0.55142382  1
  O  O2  1  0.79307344  0.82153014  0.05142372  1
  O  O3  1  0.29307348  0.67847006  0.94857648  1
  O  O4  1  0.29307348  0.67847006  0.55142382  1
  O  O5  1  0.79307344  0.82153014  0.44857638  1
  O  O6  1  0.20692648  0.17846999  0.94857648  1
  O  O7  1  0.70692645  0.32153007  0.05142372  1
  O  O8  1  0.10575960  0.46683461  0.24999940  1
  O  O9  1  0.60575956  0.03316545  0.74999950  1
  O  O10  1  0.89424033  0.53316552  0.74999950  1
  O  O11  1  0.39424036  0.96683468  0.24999940  1
  Mn  Mn12  1  0.49999996  0.00000000  0.50000010  1
  Mn  Mn13  1  0.00000000  0.50000007  0.50000010  1
  Mn  Mn14  1  0.00000000  0.50000007  0.00000000  1
  Mn  Mn15  1  0.49999996  0.00000000  0.00000000  1
  Sm  Sm16  1  0.01772539  0.92157341  0.74999950  1
  Sm  Sm17  1  0.51772536  0.57842679  0.24999940  1
  Sm  Sm18  1  0.48227457  0.42157334  0.74999950  1
  Sm  Sm19  1  0.98227453  0.07842673  0.24999940  1
