# generated using pymatgen
data_Rb2HgO2
_symmetry_space_group_name_H-M   'P 1'
_cell_length_a   4.23977470
_cell_length_b   4.23977469
_cell_length_c   7.80863370
_cell_angle_alpha   105.75235046
_cell_angle_beta   105.75235047
_cell_angle_gamma   89.99999998
_symmetry_Int_Tables_number   1
_chemical_formula_structural   Rb2HgO2
_chemical_formula_sum   'Rb2 Hg1 O2'
_cell_volume   129.60823062
_cell_formula_units_Z   1
loop_
 _symmetry_equiv_pos_site_id
 _symmetry_equiv_pos_as_xyz
  1  'x, y, z'
loop_
 _atom_site_type_symbol
 _atom_site_label
 _atom_site_symmetry_multiplicity
 _atom_site_fract_x
 _atom_site_fract_y
 _atom_site_fract_z
 _atom_site_occupancy
  O  O0  1  0.86100937  0.86100937  0.72201873  1
  O  O1  1  0.13899063  0.13899063  0.27798127  1
  Rb  Rb2  1  0.66655274  0.66655274  0.33310548  1
  Rb  Rb3  1  0.33344726  0.33344726  0.66689452  1
  Hg  Hg4  1  0.00000000  0.00000000  0.00000000  1
