# generated using pymatgen
data_Li3VO4
_symmetry_space_group_name_H-M   'P 1'
_cell_length_a   5.03932267
_cell_length_b   5.51428408
_cell_length_c   6.39770362
_cell_angle_alpha   90.00000000
_cell_angle_beta   90.00000000
_cell_angle_gamma   90.00000000
_symmetry_Int_Tables_number   1
_chemical_formula_structural   Li3VO4
_chemical_formula_sum   'Li6 V2 O8'
_cell_volume   177.78103095
_cell_formula_units_Z   2
loop_
 _symmetry_equiv_pos_site_id
 _symmetry_equiv_pos_as_xyz
  1  'x, y, z'
loop_
 _atom_site_type_symbol
 _atom_site_label
 _atom_site_symmetry_multiplicity
 _atom_site_fract_x
 _atom_site_fract_y
 _atom_site_fract_z
 _atom_site_occupancy
  Li  Li0  1  0.00879230  0.66833804  0.75243230  1
  Li  Li1  1  0.50879230  0.33166196  0.74756770  1
  Li  Li2  1  0.50879230  0.33166196  0.25243230  1
  Li  Li3  1  0.00879230  0.66833804  0.24756770  1
  Li  Li4  1  0.00932124  0.16554227  0.50000000  1
  Li  Li5  1  0.50932124  0.83445773  0.00000000  1
  O  O6  1  0.11125829  0.32031519  0.77493768  1
  O  O7  1  0.65543860  0.17347180  0.00000000  1
  O  O8  1  0.11125829  0.32031519  0.22506232  1
  O  O9  1  0.61125829  0.67968481  0.72506232  1
  O  O10  1  0.61125829  0.67968481  0.27493768  1
  O  O11  1  0.60957581  0.13075775  0.50000000  1
  O  O12  1  0.10957581  0.86924225  0.00000000  1
  O  O13  1  0.15543860  0.82652820  0.50000000  1
  V  V14  1  0.00136317  0.17039943  0.00000000  1
  V  V15  1  0.50136317  0.82960057  0.50000000  1
