# generated using pymatgen
data_Fe(SbO2)2
_symmetry_space_group_name_H-M   'P 1'
_cell_length_a   6.04776709
_cell_length_b   8.76527809
_cell_length_c   8.76527809
_cell_angle_alpha   90.00000000
_cell_angle_beta   90.00000000
_cell_angle_gamma   90.00000000
_symmetry_Int_Tables_number   1
_chemical_formula_structural   Fe(SbO2)2
_chemical_formula_sum   'Fe4 Sb8 O16'
_cell_volume   464.65055027
_cell_formula_units_Z   4
loop_
 _symmetry_equiv_pos_site_id
 _symmetry_equiv_pos_as_xyz
  1  'x, y, z'
loop_
 _atom_site_type_symbol
 _atom_site_label
 _atom_site_symmetry_multiplicity
 _atom_site_fract_x
 _atom_site_fract_y
 _atom_site_fract_z
 _atom_site_occupancy
  Fe  Fe0  1  0.75000000  -0.00000000  0.50000000  1
  Fe  Fe1  1  0.25000000  0.50000000  0.00000000  1
  Fe  Fe2  1  0.75000000  0.50000000  -0.00000000  1
  Fe  Fe3  1  0.25000000  -0.00000000  0.50000000  1
  Sb  Sb4  1  0.50000000  0.33316173  0.32248953  1
  Sb  Sb5  1  0.00000000  0.32248953  0.66683827  1
  Sb  Sb6  1  0.50000000  0.16683827  0.82248953  1
  Sb  Sb7  1  0.00000000  0.82248953  0.83316173  1
  Sb  Sb8  1  0.50000000  0.66683827  0.67751047  1
  Sb  Sb9  1  -0.00000000  0.67751047  0.33316173  1
  Sb  Sb10  1  0.50000000  0.83316173  0.17751047  1
  Sb  Sb11  1  -0.00000000  0.17751047  0.16683827  1
  O  O12  1  0.75000000  0.32082001  0.82082001  1
  O  O13  1  0.25000000  0.82082001  0.67917999  1
  O  O14  1  0.75000000  0.17917999  0.32082001  1
  O  O15  1  0.25000000  0.32082001  0.82082001  1
  O  O16  1  0.75000000  0.82082001  0.67917999  1
  O  O17  1  0.25000000  0.17917999  0.32082001  1
  O  O18  1  0.25000000  0.67917999  0.17917999  1
  O  O19  1  0.75000000  0.67917999  0.17917999  1
  O  O20  1  0.50000000  0.85947915  0.40060576  1
  O  O21  1  0.00000000  0.40060576  0.14052085  1
  O  O22  1  0.50000000  0.64052085  0.90060576  1
  O  O23  1  0.00000000  0.90060576  0.35947915  1
  O  O24  1  0.50000000  0.14052085  0.59939424  1
  O  O25  1  -0.00000000  0.59939424  0.85947915  1
  O  O26  1  0.50000000  0.35947915  0.09939424  1
  O  O27  1  -0.00000000  0.09939424  0.64052085  1
