# generated using pymatgen
data_ScVO4
_symmetry_space_group_name_H-M   'P 1'
_cell_length_a   5.76299328
_cell_length_b   5.76299328
_cell_length_c   5.76299328
_cell_angle_alpha   106.87501740
_cell_angle_beta   106.87501738
_cell_angle_gamma   114.79861030
_symmetry_Int_Tables_number   1
_chemical_formula_structural   ScVO4
_chemical_formula_sum   'Sc2 V2 O8'
_cell_volume   146.37624859
_cell_formula_units_Z   2
loop_
 _symmetry_equiv_pos_site_id
 _symmetry_equiv_pos_as_xyz
  1  'x, y, z'
loop_
 _atom_site_type_symbol
 _atom_site_label
 _atom_site_symmetry_multiplicity
 _atom_site_fract_x
 _atom_site_fract_y
 _atom_site_fract_z
 _atom_site_occupancy
  O  O0  1  0.80451465  0.74834439  0.44382973  1
  O  O1  1  0.36068492  0.80451465  0.55617027  1
  O  O2  1  0.74834439  0.80451465  0.94382973  1
  O  O3  1  0.80451465  0.36068492  0.05617027  1
  O  O4  1  0.63931508  0.19548535  0.44382973  1
  O  O5  1  0.19548535  0.25165561  0.55617027  1
  O  O6  1  0.19548535  0.63931508  0.94382973  1
  O  O7  1  0.25165561  0.19548535  0.05617027  1
  Sc  Sc8  1  0.87500000  0.12500000  0.75000000  1
  Sc  Sc9  1  0.12500000  0.87500000  0.25000000  1
  V  V10  1  0.62500000  0.37500000  0.25000000  1
  V  V11  1  0.37500000  0.62500000  0.75000000  1
