# generated using pymatgen
data_Re3P4
_symmetry_space_group_name_H-M   'P 1'
_cell_length_a   3.03167300
_cell_length_b   6.08339900
_cell_length_c   6.32196477
_cell_angle_alpha   113.16471575
_cell_angle_beta   103.87314351
_cell_angle_gamma   89.99999993
_symmetry_Int_Tables_number   1
_chemical_formula_structural   Re3P4
_chemical_formula_sum   'Re3 P4'
_cell_volume   103.48535620
_cell_formula_units_Z   1
loop_
 _symmetry_equiv_pos_site_id
 _symmetry_equiv_pos_as_xyz
  1  'x, y, z'
loop_
 _atom_site_type_symbol
 _atom_site_label
 _atom_site_symmetry_multiplicity
 _atom_site_fract_x
 _atom_site_fract_y
 _atom_site_fract_z
 _atom_site_occupancy
  P  P0  1  0.08505679  0.43594354  0.17011357  1
  P  P1  1  0.91494321  0.56405646  0.82988643  1
  P  P2  1  0.35089460  0.02447214  0.70178919  1
  P  P3  1  0.64910540  0.97552786  0.29821081  1
  Re  Re4  1  0.26374720  0.31867138  0.52749439  1
  Re  Re5  1  0.73625280  0.68132862  0.47250561  1
  Re  Re6  1  0.00000000  0.00000000  0.00000000  1
