# generated using pymatgen
data_ScCuSi
_symmetry_space_group_name_H-M   'P 1'
_cell_length_a   6.41211615
_cell_length_b   6.41211615
_cell_length_c   3.94648923
_cell_angle_alpha   90.00000000
_cell_angle_beta   90.00000000
_cell_angle_gamma   119.99999995
_symmetry_Int_Tables_number   1
_chemical_formula_structural   ScCuSi
_chemical_formula_sum   'Sc3 Si3 Cu3'
_cell_volume   140.52199765
_cell_formula_units_Z   3
loop_
 _symmetry_equiv_pos_site_id
 _symmetry_equiv_pos_as_xyz
  1  'x, y, z'
loop_
 _atom_site_type_symbol
 _atom_site_label
 _atom_site_symmetry_multiplicity
 _atom_site_fract_x
 _atom_site_fract_y
 _atom_site_fract_z
 _atom_site_occupancy
  Si  Si0  1  0.66666667  0.33333333  0.00000000  1
  Si  Si1  1  0.33333333  0.66666667  0.00000000  1
  Si  Si2  1  0.00000000  0.00000000  0.50000000  1
  Sc  Sc3  1  0.42971679  0.42971679  0.50000000  1
  Sc  Sc4  1  0.57028321  0.00000000  0.50000000  1
  Sc  Sc5  1  0.00000000  0.57028321  0.50000000  1
  Cu  Cu6  1  0.00000000  0.24289680  0.00000000  1
  Cu  Cu7  1  0.24289680  0.00000000  0.00000000  1
  Cu  Cu8  1  0.75710320  0.75710320  0.00000000  1
