# generated using pymatgen
data_Nd2WO6
_symmetry_space_group_name_H-M   'P 1'
_cell_length_a   5.45120799
_cell_length_b   9.42486799
_cell_length_c   10.29167049
_cell_angle_alpha   90.00000000
_cell_angle_beta   90.00000000
_cell_angle_gamma   90.00000000
_symmetry_Int_Tables_number   1
_chemical_formula_structural   Nd2WO6
_chemical_formula_sum   'Nd8 W4 O24'
_cell_volume   528.75428709
_cell_formula_units_Z   4
loop_
 _symmetry_equiv_pos_site_id
 _symmetry_equiv_pos_as_xyz
  1  'x, y, z'
loop_
 _atom_site_type_symbol
 _atom_site_label
 _atom_site_symmetry_multiplicity
 _atom_site_fract_x
 _atom_site_fract_y
 _atom_site_fract_z
 _atom_site_occupancy
  O  O0  1  0.25100399  0.08838032  0.50865043  1
  O  O1  1  0.75100399  0.41161968  0.49134957  1
  O  O2  1  0.74899601  0.58838032  0.99134957  1
  O  O3  1  0.24899601  0.91161968  0.00865043  1
  O  O4  1  0.72302270  0.11224446  0.56517049  1
  O  O5  1  0.22302270  0.38775554  0.43482951  1
  O  O6  1  0.27697730  0.61224446  0.93482951  1
  O  O7  1  0.77697730  0.88775554  0.06517049  1
  O  O8  1  0.57526144  0.84822631  0.52764569  1
  O  O9  1  0.07526144  0.65177369  0.47235431  1
  O  O10  1  0.42473856  0.34822631  0.97235431  1
  O  O11  1  0.92473856  0.15177369  0.02764569  1
  O  O12  1  0.18354153  0.86180751  0.25949836  1
  O  O13  1  0.68354153  0.63819249  0.74050164  1
  O  O14  1  0.81645847  0.36180751  0.24050164  1
  O  O15  1  0.31645847  0.13819249  0.75949836  1
  O  O16  1  0.83004392  0.04933462  0.28877442  1
  O  O17  1  0.33004392  0.45066538  0.71122558  1
  O  O18  1  0.16995608  0.54933462  0.21122558  1
  O  O19  1  0.66995608  0.95066538  0.78877442  1
  O  O20  1  0.31008403  0.13466338  0.17887041  1
  O  O21  1  0.81008403  0.36533662  0.82112959  1
  O  O22  1  0.68991597  0.63466338  0.32112959  1
  O  O23  1  0.18991597  0.86533662  0.67887041  1
  Nd  Nd24  1  0.47706259  0.60374965  0.53773125  1
  Nd  Nd25  1  0.97706259  0.89625035  0.46226875  1
  Nd  Nd26  1  0.52293741  0.10374965  0.96226875  1
  Nd  Nd27  1  0.02293741  0.39625035  0.03773125  1
  Nd  Nd28  1  0.96539485  0.78127079  0.86815920  1
  Nd  Nd29  1  0.46539485  0.71872921  0.13184080  1
  Nd  Nd30  1  0.03460515  0.28127079  0.63184080  1
  Nd  Nd31  1  0.53460515  0.21872921  0.36815920  1
  W  W32  1  0.45907618  0.99623904  0.64791527  1
  W  W33  1  0.95907618  0.50376096  0.35208473  1
  W  W34  1  0.54092382  0.49623904  0.85208473  1
  W  W35  1  0.04092382  0.00376096  0.14791527  1
