# generated using pymatgen
data_SmMn2O5
_symmetry_space_group_name_H-M   'P 1'
_cell_length_a   5.81419921
_cell_length_b   7.50549584
_cell_length_c   8.67377039
_cell_angle_alpha   90.00000000
_cell_angle_beta   90.00000000
_cell_angle_gamma   90.00000000
_symmetry_Int_Tables_number   1
_chemical_formula_structural   SmMn2O5
_chemical_formula_sum   'Sm4 Mn8 O20'
_cell_volume   378.50987799
_cell_formula_units_Z   4
loop_
 _symmetry_equiv_pos_site_id
 _symmetry_equiv_pos_as_xyz
  1  'x, y, z'
loop_
 _atom_site_type_symbol
 _atom_site_label
 _atom_site_symmetry_multiplicity
 _atom_site_fract_x
 _atom_site_fract_y
 _atom_site_fract_z
 _atom_site_occupancy
  O  O0  1  0.24449178  0.89779165  0.29315566  1
  O  O1  1  0.24449178  0.10220835  0.70684434  1
  O  O2  1  0.75550822  0.39779165  0.20684434  1
  O  O3  1  0.75550822  0.60220835  0.79315566  1
  O  O4  1  0.75550822  0.10220835  0.70684434  1
  O  O5  1  0.75550822  0.89779165  0.29315566  1
  O  O6  1  0.24449178  0.60220835  0.79315566  1
  O  O7  1  0.24449178  0.39779165  0.20684434  1
  O  O8  1  0.50000000  0.34839122  0.93355334  1
  O  O9  1  0.50000000  0.65160878  0.06644666  1
  O  O10  1  0.50000000  0.84839122  0.56644666  1
  O  O11  1  0.50000000  0.15160878  0.43355334  1
  O  O12  1  0.27423160  0.00000000  0.00000000  1
  O  O13  1  0.72576840  0.50000000  0.50000000  1
  O  O14  1  0.72576840  0.00000000  0.00000000  1
  O  O15  1  0.27423160  0.50000000  0.50000000  1
  O  O16  1  0.00000000  0.16031478  0.44558818  1
  O  O17  1  0.00000000  0.83968522  0.55441182  1
  O  O18  1  0.00000000  0.66031478  0.05441182  1
  O  O19  1  0.00000000  0.33968522  0.94558818  1
  Mn  Mn20  1  0.50000000  0.08974479  0.84978895  1
  Mn  Mn21  1  0.50000000  0.91025521  0.15021105  1
  Mn  Mn22  1  0.50000000  0.58974479  0.65021105  1
  Mn  Mn23  1  0.50000000  0.41025521  0.34978895  1
  Mn  Mn24  1  0.25548071  0.50000000  0.00000000  1
  Mn  Mn25  1  0.74451929  0.00000000  0.50000000  1
  Mn  Mn26  1  0.74451929  0.50000000  0.00000000  1
  Mn  Mn27  1  0.25548071  0.00000000  0.50000000  1
  Sm  Sm28  1  0.00000000  0.36039580  0.67149562  1
  Sm  Sm29  1  0.00000000  0.63960420  0.32850438  1
  Sm  Sm30  1  0.00000000  0.86039580  0.82850438  1
  Sm  Sm31  1  0.00000000  0.13960420  0.17149562  1
