# generated using pymatgen
data_VI3
_symmetry_space_group_name_H-M   'P 1'
_cell_length_a   10.66055253
_cell_length_b   10.66062011
_cell_length_c   3.68109621
_cell_angle_alpha   89.99990081
_cell_angle_beta   90.00000672
_cell_angle_gamma   120.00007969
_symmetry_Int_Tables_number   1
_chemical_formula_structural   VI3
_chemical_formula_sum   'V2 I6'
_cell_volume   362.30108395
_cell_formula_units_Z   2
loop_
 _symmetry_equiv_pos_site_id
 _symmetry_equiv_pos_as_xyz
  1  'x, y, z'
loop_
 _atom_site_type_symbol
 _atom_site_label
 _atom_site_symmetry_multiplicity
 _atom_site_fract_x
 _atom_site_fract_y
 _atom_site_fract_z
 _atom_site_occupancy
  V  V0  1  0.33333141  0.66666840  0.74999860  1
  V  V1  1  0.66666764  0.33333092  0.24999736  1
  I  I2  1  0.21944111  0.43888203  0.24999975  1
  I  I3  1  0.56111683  0.78055851  0.25000072  1
  I  I4  1  0.21944297  0.78056411  0.25000405  1
  I  I5  1  0.78053526  0.56107109  0.74999862  1
  I  I6  1  0.43892799  0.21946304  0.75000123  1
  I  I7  1  0.78053678  0.21946190  0.74999967  1
