# generated using pymatgen
data_YbAl2Cu
_symmetry_space_group_name_H-M   'P 1'
_cell_length_a   5.45694479
_cell_length_b   5.45694503
_cell_length_c   9.12677313
_cell_angle_alpha   90.00000000
_cell_angle_beta   107.39470149
_cell_angle_gamma   60.00000454
_symmetry_Int_Tables_number   1
_chemical_formula_structural   YbAl2Cu
_chemical_formula_sum   'Yb3 Al6 Cu3'
_cell_volume   220.89948304
_cell_formula_units_Z   3
loop_
 _symmetry_equiv_pos_site_id
 _symmetry_equiv_pos_as_xyz
  1  'x, y, z'
loop_
 _atom_site_type_symbol
 _atom_site_label
 _atom_site_symmetry_multiplicity
 _atom_site_fract_x
 _atom_site_fract_y
 _atom_site_fract_z
 _atom_site_occupancy
  Yb  Yb0  1  0.00000000  0.00000000  0.00000000  1
  Yb  Yb1  1  0.28968444  0.85515728  0.43452616  1
  Yb  Yb2  1  0.71031656  0.14484272  0.56547284  1
  Al  Al3  1  0.65841379  0.42024500  0.23817079  1
  Al  Al4  1  0.65841379  0.92134021  0.23817079  1
  Al  Al5  1  0.15951201  0.42024500  0.23817079  1
  Al  Al6  1  0.84048899  0.57975500  0.76182921  1
  Al  Al7  1  0.34158521  0.07865879  0.76182921  1
  Al  Al8  1  0.34158521  0.57975600  0.76182921  1
  Cu  Cu9  1  0.66918317  0.66540792  0.00377525  1
  Cu  Cu10  1  0.00000000  0.50000200  0.50000000  1
  Cu  Cu11  1  0.33081783  0.33459208  0.99622575  1
