# generated using pymatgen
data_TmInRh2
_symmetry_space_group_name_H-M   'P 1'
_cell_length_a   4.67130047
_cell_length_b   4.67128536
_cell_length_c   4.67128574
_cell_angle_alpha   60.00001763
_cell_angle_beta   59.99993616
_cell_angle_gamma   60.00010951
_symmetry_Int_Tables_number   1
_chemical_formula_structural   TmInRh2
_chemical_formula_sum   'Tm1 In1 Rh2'
_cell_volume   72.07685781
_cell_formula_units_Z   1
loop_
 _symmetry_equiv_pos_site_id
 _symmetry_equiv_pos_as_xyz
  1  'x, y, z'
loop_
 _atom_site_type_symbol
 _atom_site_label
 _atom_site_symmetry_multiplicity
 _atom_site_fract_x
 _atom_site_fract_y
 _atom_site_fract_z
 _atom_site_occupancy
  Tm  Tm0  1  0.74999983  0.74999959  0.74999994  1
  In  In1  1  0.24999920  0.24999995  0.24999938  1
  Rh  Rh2  1  -0.00000035  -0.00000022  -0.00000021  1
  Rh  Rh3  1  0.50000031  0.49999967  0.49999989  1
