# generated using pymatgen
data_Mn2P2O7
_symmetry_space_group_name_H-M   'P 1'
_cell_length_a   4.60445802
_cell_length_b   5.49743097
_cell_length_c   5.49743097
_cell_angle_alpha   104.70873712
_cell_angle_beta   97.72816080
_cell_angle_gamma   97.72816075
_symmetry_Int_Tables_number   1
_chemical_formula_structural   Mn2P2O7
_chemical_formula_sum   'Mn2 P2 O7'
_cell_volume   131.29185152
_cell_formula_units_Z   1
loop_
 _symmetry_equiv_pos_site_id
 _symmetry_equiv_pos_as_xyz
  1  'x, y, z'
loop_
 _atom_site_type_symbol
 _atom_site_label
 _atom_site_symmetry_multiplicity
 _atom_site_fract_x
 _atom_site_fract_y
 _atom_site_fract_z
 _atom_site_occupancy
  O  O0  1  0.27411196  0.92215339  0.62864188  1
  O  O1  1  0.72588804  0.37135812  0.07784661  1
  O  O2  1  0.72588804  0.07784661  0.37135812  1
  O  O3  1  0.27411196  0.62864188  0.92215339  1
  O  O4  1  0.00000000  0.00000000  0.00000000  1
  O  O5  1  0.79350971  0.62759631  0.62759631  1
  O  O6  1  0.20649029  0.37240369  0.37240369  1
  P  P7  1  0.90829382  0.21566777  0.21566777  1
  P  P8  1  0.09170618  0.78433223  0.78433223  1
  Mn  Mn9  1  0.50000000  0.30961288  0.69038712  1
  Mn  Mn10  1  0.50000000  0.69038712  0.30961288  1
