# generated using pymatgen
data_TiNiO3
_symmetry_space_group_name_H-M   'P 1'
_cell_length_a   5.49627713
_cell_length_b   5.49627523
_cell_length_c   5.49627913
_cell_angle_alpha   54.99445632
_cell_angle_beta   54.99457030
_cell_angle_gamma   54.99472179
_symmetry_Int_Tables_number   1
_chemical_formula_structural   TiNiO3
_chemical_formula_sum   'Ti2 Ni2 O6'
_cell_volume   103.73261705
_cell_formula_units_Z   2
loop_
 _symmetry_equiv_pos_site_id
 _symmetry_equiv_pos_as_xyz
  1  'x, y, z'
loop_
 _atom_site_type_symbol
 _atom_site_label
 _atom_site_symmetry_multiplicity
 _atom_site_fract_x
 _atom_site_fract_y
 _atom_site_fract_z
 _atom_site_occupancy
  Ti  Ti0  1  0.14288665  0.14288555  0.14288355  1
  Ti  Ti1  1  0.85711505  0.85711342  0.85711579  1
  Ni  Ni2  1  0.65022930  0.65022440  0.65022604  1
  Ni  Ni3  1  0.34976806  0.34978295  0.34977788  1
  O  O4  1  0.94742169  0.23045963  0.56231065  1
  O  O5  1  0.56231151  0.94742154  0.23045983  1
  O  O6  1  0.23046194  0.56230879  0.94742079  1
  O  O7  1  0.05257680  0.76954060  0.43768863  1
  O  O8  1  0.43768860  0.05257544  0.76954055  1
  O  O9  1  0.76954039  0.43768767  0.05257729  1
