# generated using pymatgen
data_Mg(AlB14)2
_symmetry_space_group_name_H-M   'P 1'
_cell_length_a   11.72464828
_cell_length_b   7.17534563
_cell_length_c   7.17324569
_cell_angle_alpha   68.57058437
_cell_angle_beta   65.80749767
_cell_angle_gamma   65.93478011
_symmetry_Int_Tables_number   1
_chemical_formula_structural   Mg(AlB14)2
_chemical_formula_sum   'Mg2 Al4 B56'
_cell_volume   488.18111381
_cell_formula_units_Z   2
loop_
 _symmetry_equiv_pos_site_id
 _symmetry_equiv_pos_as_xyz
  1  'x, y, z'
loop_
 _atom_site_type_symbol
 _atom_site_label
 _atom_site_symmetry_multiplicity
 _atom_site_fract_x
 _atom_site_fract_y
 _atom_site_fract_z
 _atom_site_occupancy
  Al  Al0  1  0.23531291  0.52222318  0.98188414  1
  Al  Al1  1  0.49923527  0.49003934  0.01114211  1
  Al  Al2  1  0.76617500  0.46779686  0.02754255  1
  Al  Al3  1  0.81154676  0.85115191  0.64316146  1
  B  B4  1  0.08599217  0.13091531  0.03266461  1
  B  B5  1  0.04020577  0.74083939  0.09228372  1
  B  B6  1  0.07499096  0.47021834  0.22666932  1
  B  B7  1  0.17284127  0.27578145  0.03142821  1
  B  B8  1  0.04919382  0.90201280  0.22595618  1
  B  B9  1  0.11241202  0.10022549  0.77172597  1
  B  B10  1  0.08589962  0.53575575  0.62462864  1
  B  B11  1  0.16637185  0.46511450  0.37408543  1
  B  B12  1  0.33468690  0.12676517  0.03704912  1
  B  B13  1  0.14099858  0.72690915  0.39910354  1
  B  B14  1  0.20325423  0.27483443  0.59944700  1
  B  B15  1  0.08252388  0.86014718  0.80829637  1
  B  B16  1  0.16633293  0.69231299  0.64079004  1
  B  B17  1  0.20481142  0.41065046  0.76104889  1
  B  B18  1  0.29371607  0.58699642  0.24292815  1
  B  B19  1  0.33556419  0.30539735  0.36206517  1
  B  B20  1  0.41919551  0.13713214  0.19468330  1
  B  B21  1  0.29882402  0.72613498  0.40043826  1
  B  B22  1  0.36069644  0.27517024  0.60152393  1
  B  B23  1  0.16314496  0.87956897  0.96608035  1
  B  B24  1  0.33531358  0.53378901  0.62339843  1
  B  B25  1  0.41714699  0.46353907  0.37596885  1
  B  B26  1  0.58681220  0.12307906  0.03507488  1
  B  B27  1  0.39091121  0.89853363  0.22635166  1
  B  B28  1  0.45220508  0.10348546  0.77278301  1
  B  B29  1  0.32605107  0.73036926  0.96910592  1
  B  B30  1  0.42506863  0.53052950  0.77146341  1
  B  B31  1  0.45706602  0.25802617  0.91337214  1
  B  B32  1  0.54428340  0.74123182  0.08437966  1
  B  B33  1  0.57734960  0.46968610  0.22939495  1
  B  B34  1  0.67679756  0.26865259  0.02946570  1
  B  B35  1  0.54803857  0.89771793  0.22652036  1
  B  B36  1  0.61013373  0.10185937  0.77279475  1
  B  B37  1  0.41510239  0.87773257  0.96563891  1
  B  B38  1  0.58641180  0.53236319  0.62436374  1
  B  B39  1  0.66571508  0.46584710  0.37657510  1
  B  B40  1  0.83778905  0.12164144  0.03292113  1
  B  B41  1  0.64003879  0.72671408  0.39692511  1
  B  B42  1  0.70747819  0.27006210  0.59779916  1
  B  B43  1  0.58221997  0.86468566  0.80395480  1
  B  B44  1  0.66647300  0.69487799  0.63502891  1
  B  B45  1  0.70833925  0.41290066  0.75799742  1
  B  B46  1  0.79540339  0.59331360  0.23662426  1
  B  B47  1  0.83527336  0.31097183  0.35621553  1
  B  B48  1  0.91897384  0.14396181  0.18931490  1
  B  B49  1  0.79710896  0.72779738  0.39728867  1
  B  B50  1  0.86202968  0.27271657  0.59896308  1
  B  B51  1  0.66363181  0.87578230  0.96810670  1
  B  B52  1  0.83581786  0.53090169  0.62158148  1
  B  B53  1  0.91650290  0.46861273  0.36996714  1
  B  B54  1  0.89124759  0.90366880  0.23012937  1
  B  B55  1  0.95361636  0.10084517  0.77350500  1
  B  B56  1  0.82876417  0.73029998  0.96230848  1
  B  B57  1  0.92613258  0.53677016  0.76769472  1
  B  B58  1  0.96216372  0.26109582  0.90620645  1
  B  B59  1  0.91598995  0.87273587  0.96622547  1
  Mg  Mg60  1  0.11301664  0.11265892  0.38946869  1
  Mg  Mg61  1  0.39865548  0.90744983  0.59749558  1
