# generated using pymatgen
data_Mg3Tl
_symmetry_space_group_name_H-M   'P 1'
_cell_length_a   6.40641610
_cell_length_b   6.42232935
_cell_length_c   5.25598396
_cell_angle_alpha   90.00000000
_cell_angle_beta   90.00000000
_cell_angle_gamma   119.99422393
_symmetry_Int_Tables_number   1
_chemical_formula_structural   Mg3Tl
_chemical_formula_sum   'Mg6 Tl2'
_cell_volume   187.29132121
_cell_formula_units_Z   2
loop_
 _symmetry_equiv_pos_site_id
 _symmetry_equiv_pos_as_xyz
  1  'x, y, z'
loop_
 _atom_site_type_symbol
 _atom_site_label
 _atom_site_symmetry_multiplicity
 _atom_site_fract_x
 _atom_site_fract_y
 _atom_site_fract_z
 _atom_site_occupancy
  Mg  Mg0  1  0.16495074  0.32989122  0.25000000  1
  Mg  Mg1  1  0.16495953  0.83507310  0.25000000  1
  Mg  Mg2  1  0.67011894  0.83506348  0.25000000  1
  Mg  Mg3  1  0.32988259  0.16493940  0.74999900  1
  Mg  Mg4  1  0.83504293  0.16493048  0.74999900  1
  Mg  Mg5  1  0.83505265  0.67011005  0.74999900  1
  Tl  Tl6  1  0.66666228  0.33332548  0.25000000  1
  Tl  Tl7  1  0.33333135  0.66666780  0.74999900  1
