# generated using pymatgen
data_ErAl3
_symmetry_space_group_name_H-M   'P 1'
_cell_length_a   12.47828497
_cell_length_b   12.47828497
_cell_length_c   12.47828495
_cell_angle_alpha   28.11047908
_cell_angle_beta   28.11047908
_cell_angle_gamma   28.11047978
_symmetry_Int_Tables_number   1
_chemical_formula_structural   ErAl3
_chemical_formula_sum   'Er5 Al15'
_cell_volume   381.04150619
_cell_formula_units_Z   5
loop_
 _symmetry_equiv_pos_site_id
 _symmetry_equiv_pos_as_xyz
  1  'x, y, z'
loop_
 _atom_site_type_symbol
 _atom_site_label
 _atom_site_symmetry_multiplicity
 _atom_site_fract_x
 _atom_site_fract_y
 _atom_site_fract_z
 _atom_site_occupancy
  Er  Er0  1  0.00000000  0.00000000  0.00000000  1
  Er  Er1  1  0.13124329  0.13124329  0.13124329  1
  Er  Er2  1  0.86875671  0.86875671  0.86875671  1
  Er  Er3  1  0.39998429  0.39998429  0.39998429  1
  Er  Er4  1  0.60001571  0.60001571  0.60001571  1
  Al  Al5  1  0.63503766  0.13090175  0.63503766  1
  Al  Al6  1  0.63503666  0.63503666  0.13090475  1
  Al  Al7  1  0.13090175  0.63503766  0.63503766  1
  Al  Al8  1  0.86909825  0.36496234  0.36496234  1
  Al  Al9  1  0.36496334  0.36496334  0.86909825  1
  Al  Al10  1  0.36496234  0.86909825  0.36496234  1
  Al  Al11  1  0.88323857  0.43236858  0.88323957  1
  Al  Al12  1  0.88323857  0.88323857  0.43236958  1
  Al  Al13  1  0.43236858  0.88323857  0.88323957  1
  Al  Al14  1  0.56763142  0.11676143  0.11676043  1
  Al  Al15  1  0.11676143  0.11676143  0.56763042  1
  Al  Al16  1  0.11676143  0.56763142  0.11676043  1
  Al  Al17  1  0.50000000  0.50000000  0.99999800  1
  Al  Al18  1  0.00000100  0.49999900  0.50000000  1
  Al  Al19  1  0.49999900  0.00000100  0.50000000  1
