# generated using pymatgen
data_CsAuO
_symmetry_space_group_name_H-M   'P 1'
_cell_length_a   6.31785566
_cell_length_b   8.00720300
_cell_length_c   8.00720300
_cell_angle_alpha   81.04615657
_cell_angle_beta   66.76453441
_cell_angle_gamma   66.76453440
_symmetry_Int_Tables_number   1
_chemical_formula_structural   CsAuO
_chemical_formula_sum   'Cs4 Au4 O4'
_cell_volume   342.02643454
_cell_formula_units_Z   4
loop_
 _symmetry_equiv_pos_site_id
 _symmetry_equiv_pos_as_xyz
  1  'x, y, z'
loop_
 _atom_site_type_symbol
 _atom_site_label
 _atom_site_symmetry_multiplicity
 _atom_site_fract_x
 _atom_site_fract_y
 _atom_site_fract_z
 _atom_site_occupancy
  O  O0  1  0.71983632  0.28016368  0.28016368  1
  O  O1  1  0.00000000  0.71983632  0.28016368  1
  O  O2  1  0.00000000  0.28016368  0.71983632  1
  O  O3  1  0.28016368  0.71983632  0.71983632  1
  Cs  Cs4  1  0.19873470  0.30126530  0.30126530  1
  Cs  Cs5  1  0.50000000  0.69873470  0.30126530  1
  Cs  Cs6  1  0.50000000  0.30126530  0.69873470  1
  Cs  Cs7  1  0.80126530  0.69873470  0.69873470  1
  Au  Au8  1  0.85533065  0.00000000  0.28933870  1
  Au  Au9  1  0.14466935  0.71066130  0.00000000  1
  Au  Au10  1  0.85533065  0.28933870  0.00000000  1
  Au  Au11  1  0.14466935  0.00000000  0.71066130  1
