# generated using pymatgen
data_NaUO3
_symmetry_space_group_name_H-M   'P 1'
_cell_length_a   5.82449449
_cell_length_b   5.96318006
_cell_length_c   8.34654553
_cell_angle_alpha   90.00000000
_cell_angle_beta   90.00000000
_cell_angle_gamma   90.00000000
_symmetry_Int_Tables_number   1
_chemical_formula_structural   NaUO3
_chemical_formula_sum   'Na4 U4 O12'
_cell_volume   289.89647110
_cell_formula_units_Z   4
loop_
 _symmetry_equiv_pos_site_id
 _symmetry_equiv_pos_as_xyz
  1  'x, y, z'
loop_
 _atom_site_type_symbol
 _atom_site_label
 _atom_site_symmetry_multiplicity
 _atom_site_fract_x
 _atom_site_fract_y
 _atom_site_fract_z
 _atom_site_occupancy
  O  O0  1  0.70086888  0.29672287  0.45084203  1
  O  O1  1  0.20086888  0.20327713  0.54915797  1
  O  O2  1  0.79913112  0.79672287  0.04915797  1
  O  O3  1  0.29913112  0.70327713  0.95084203  1
  O  O4  1  0.29913112  0.70327713  0.54915797  1
  O  O5  1  0.79913112  0.79672287  0.45084203  1
  O  O6  1  0.20086888  0.20327713  0.95084203  1
  O  O7  1  0.70086888  0.29672287  0.04915797  1
  O  O8  1  0.09427835  0.46955155  0.25000000  1
  O  O9  1  0.59427835  0.03044845  0.75000000  1
  O  O10  1  0.40572165  0.96955155  0.25000000  1
  O  O11  1  0.90572165  0.53044845  0.75000000  1
  Na  Na12  1  0.50662549  0.52994210  0.25000000  1
  Na  Na13  1  0.00662549  0.97005790  0.75000000  1
  Na  Na14  1  0.99337451  0.02994210  0.25000000  1
  Na  Na15  1  0.49337451  0.47005790  0.75000000  1
  U  U16  1  0.00000000  0.50000000  0.00000000  1
  U  U17  1  0.50000000  0.00000000  0.00000000  1
  U  U18  1  0.50000000  0.00000000  0.50000000  1
  U  U19  1  0.00000000  0.50000000  0.50000000  1
