# generated using pymatgen
data_CuSe2Cl
_symmetry_space_group_name_H-M   'P 1'
_cell_length_a   4.96140466
_cell_length_b   7.75839857
_cell_length_c   11.31477236
_cell_angle_alpha   104.10338318
_cell_angle_beta   90.00000000
_cell_angle_gamma   90.00000000
_symmetry_Int_Tables_number   1
_chemical_formula_structural   CuSe2Cl
_chemical_formula_sum   'Cu4 Se8 Cl4'
_cell_volume   422.40645316
_cell_formula_units_Z   4
loop_
 _symmetry_equiv_pos_site_id
 _symmetry_equiv_pos_as_xyz
  1  'x, y, z'
loop_
 _atom_site_type_symbol
 _atom_site_label
 _atom_site_symmetry_multiplicity
 _atom_site_fract_x
 _atom_site_fract_y
 _atom_site_fract_z
 _atom_site_occupancy
  Cl  Cl0  1  0.38997560  0.20734463  0.12333917  1
  Cl  Cl1  1  0.88997560  0.29265537  0.37666083  1
  Cl  Cl2  1  0.61002440  0.79265537  0.87666083  1
  Cl  Cl3  1  0.11002440  0.70734463  0.62333917  1
  Cu  Cu4  1  0.64040827  0.07247723  0.24804975  1
  Cu  Cu5  1  0.14040827  0.42752277  0.25195025  1
  Cu  Cu6  1  0.35959173  0.92752277  0.75195025  1
  Cu  Cu7  1  0.85959173  0.57247723  0.74804975  1
  Se  Se8  1  0.53100541  0.35540803  0.65838623  1
  Se  Se9  1  0.03100541  0.14459197  0.84161377  1
  Se  Se10  1  0.46899459  0.64459197  0.34161377  1
  Se  Se11  1  0.96899459  0.85540803  0.15838623  1
  Se  Se12  1  0.68995928  0.07850649  0.66175322  1
  Se  Se13  1  0.18995928  0.42149351  0.83824678  1
  Se  Se14  1  0.31004072  0.92149351  0.33824678  1
  Se  Se15  1  0.81004072  0.57850649  0.16175322  1
