# generated using pymatgen
data_UP
_symmetry_space_group_name_H-M   'P 1'
_cell_length_a   5.56413440
_cell_length_b   5.56413441
_cell_length_c   5.56413440
_cell_angle_alpha   89.73292660
_cell_angle_beta   89.73292660
_cell_angle_gamma   89.73292660
_symmetry_Int_Tables_number   1
_chemical_formula_structural   UP
_chemical_formula_sum   'U4 P4'
_cell_volume   172.25773201
_cell_formula_units_Z   4
loop_
 _symmetry_equiv_pos_site_id
 _symmetry_equiv_pos_as_xyz
  1  'x, y, z'
loop_
 _atom_site_type_symbol
 _atom_site_label
 _atom_site_symmetry_multiplicity
 _atom_site_fract_x
 _atom_site_fract_y
 _atom_site_fract_z
 _atom_site_occupancy
  P  P0  1  0.00000000  0.50000000  0.00000000  1
  P  P1  1  0.50000000  0.00000000  0.00000000  1
  P  P2  1  0.00000000  0.00000000  0.50000000  1
  P  P3  1  0.50000000  0.50000000  0.50000000  1
  U  U4  1  0.50000000  0.00000000  0.50000000  1
  U  U5  1  0.00000000  0.50000000  0.50000000  1
  U  U6  1  0.50000000  0.50000000  0.00000000  1
  U  U7  1  0.00000000  0.00000000  0.00000000  1
