# generated using pymatgen
data_Ca3CrN3
_symmetry_space_group_name_H-M   'P 1'
_cell_length_a   5.06085273
_cell_length_b   6.64972051
_cell_length_c   6.64972051
_cell_angle_alpha   101.23802745
_cell_angle_beta   90.00000000
_cell_angle_gamma   90.00000000
_symmetry_Int_Tables_number   1
_chemical_formula_structural   Ca3CrN3
_chemical_formula_sum   'Ca6 Cr2 N6'
_cell_volume   219.49390460
_cell_formula_units_Z   2
loop_
 _symmetry_equiv_pos_site_id
 _symmetry_equiv_pos_as_xyz
  1  'x, y, z'
loop_
 _atom_site_type_symbol
 _atom_site_label
 _atom_site_symmetry_multiplicity
 _atom_site_fract_x
 _atom_site_fract_y
 _atom_site_fract_z
 _atom_site_occupancy
  N  N0  1  0.75000000  0.43431442  0.18199005  1
  N  N1  1  0.25000000  0.12697757  0.87302243  1
  N  N2  1  0.75000000  0.87302243  0.12697757  1
  N  N3  1  0.25000000  0.18199005  0.43431442  1
  N  N4  1  0.25000000  0.56568558  0.81800995  1
  N  N5  1  0.75000000  0.81800995  0.56568558  1
  Ca  Ca6  1  0.25000000  0.40443265  0.16951010  1
  Ca  Ca7  1  0.75000000  0.10677787  0.89322213  1
  Ca  Ca8  1  0.75000000  0.16951010  0.40443265  1
  Ca  Ca9  1  0.25000000  0.89322213  0.10677787  1
  Ca  Ca10  1  0.75000000  0.59556735  0.83048990  1
  Ca  Ca11  1  0.25000000  0.83048990  0.59556735  1
  Cr  Cr12  1  0.75000000  0.69579501  0.30420499  1
  Cr  Cr13  1  0.25000000  0.30420499  0.69579501  1
