# generated using pymatgen
data_YMgNi4
_symmetry_space_group_name_H-M   'P 1'
_cell_length_a   4.92525345
_cell_length_b   4.94866250
_cell_length_c   6.96441248
_cell_angle_alpha   90.00000000
_cell_angle_beta   90.00000000
_cell_angle_gamma   90.00000000
_symmetry_Int_Tables_number   1
_chemical_formula_structural   YMgNi4
_chemical_formula_sum   'Y2 Mg2 Ni8'
_cell_volume   169.74652989
_cell_formula_units_Z   2
loop_
 _symmetry_equiv_pos_site_id
 _symmetry_equiv_pos_as_xyz
  1  'x, y, z'
loop_
 _atom_site_type_symbol
 _atom_site_label
 _atom_site_symmetry_multiplicity
 _atom_site_fract_x
 _atom_site_fract_y
 _atom_site_fract_z
 _atom_site_occupancy
  Y  Y0  1  0.50000000  0.74564611  0.41427475  1
  Y  Y1  1  0.00000000  0.25435389  0.91427475  1
  Mg  Mg2  1  0.50000000  0.24430885  0.66229881  1
  Mg  Mg3  1  0.00000000  0.75569115  0.16229881  1
  Ni  Ni4  1  0.50000000  0.50559918  0.03750760  1
  Ni  Ni5  1  0.00000000  0.49440082  0.53750760  1
  Ni  Ni6  1  0.50000000  0.99878826  0.03689542  1
  Ni  Ni7  1  0.00000000  0.00121174  0.53689542  1
  Ni  Ni8  1  0.25185189  0.75159210  0.78951171  1
  Ni  Ni9  1  0.74814811  0.75159210  0.78951171  1
  Ni  Ni10  1  0.24814811  0.24840790  0.28951171  1
  Ni  Ni11  1  0.75185189  0.24840790  0.28951171  1
