# generated using pymatgen
data_Fe3Re
_symmetry_space_group_name_H-M   'P 1'
_cell_length_a   5.09429545
_cell_length_b   5.09465481
_cell_length_c   4.05967741
_cell_angle_alpha   90.00159915
_cell_angle_beta   89.99838021
_cell_angle_gamma   119.99943193
_symmetry_Int_Tables_number   1
_chemical_formula_structural   Fe3Re
_chemical_formula_sum   'Fe6 Re2'
_cell_volume   91.24803806
_cell_formula_units_Z   2
loop_
 _symmetry_equiv_pos_site_id
 _symmetry_equiv_pos_as_xyz
  1  'x, y, z'
loop_
 _atom_site_type_symbol
 _atom_site_label
 _atom_site_symmetry_multiplicity
 _atom_site_fract_x
 _atom_site_fract_y
 _atom_site_fract_z
 _atom_site_occupancy
  Fe  Fe0  1  0.16257556  0.32518201  0.25001131  1
  Fe  Fe1  1  0.67484169  0.83742562  0.25000757  1
  Fe  Fe2  1  0.16257936  0.83740522  0.25000169  1
  Fe  Fe3  1  0.83740958  0.67483575  0.74998675  1
  Fe  Fe4  1  0.32516472  0.16257870  0.74999104  1
  Fe  Fe5  1  0.83740901  0.16256842  0.74999760  1
  Re  Re6  1  0.33331388  0.66664198  0.74998083  1
  Re  Re7  1  0.66670320  0.33336130  0.25001920  1
