# generated using pymatgen
data_Sc5Si3
_symmetry_space_group_name_H-M   'P 1'
_cell_length_a   7.89827882
_cell_length_b   7.89827882
_cell_length_c   5.83173029
_cell_angle_alpha   90.00000000
_cell_angle_beta   90.00000000
_cell_angle_gamma   119.99999998
_symmetry_Int_Tables_number   1
_chemical_formula_structural   Sc5Si3
_chemical_formula_sum   'Sc10 Si6'
_cell_volume   315.05979348
_cell_formula_units_Z   2
loop_
 _symmetry_equiv_pos_site_id
 _symmetry_equiv_pos_as_xyz
  1  'x, y, z'
loop_
 _atom_site_type_symbol
 _atom_site_label
 _atom_site_symmetry_multiplicity
 _atom_site_fract_x
 _atom_site_fract_y
 _atom_site_fract_z
 _atom_site_occupancy
  Si  Si0  1  0.39513033  0.00000000  0.75000000  1
  Si  Si1  1  0.39513033  0.39513033  0.25000000  1
  Si  Si2  1  0.00000000  0.60486967  0.25000000  1
  Si  Si3  1  0.00000000  0.39513033  0.75000000  1
  Si  Si4  1  0.60486967  0.60486967  0.75000000  1
  Si  Si5  1  0.60486967  0.00000000  0.25000000  1
  Sc  Sc6  1  0.00000000  0.75859455  0.75000000  1
  Sc  Sc7  1  0.00000000  0.24140545  0.25000000  1
  Sc  Sc8  1  0.75859455  0.75859455  0.25000000  1
  Sc  Sc9  1  0.75859455  0.00000000  0.75000000  1
  Sc  Sc10  1  0.24140545  0.24140545  0.75000000  1
  Sc  Sc11  1  0.24140545  0.00000000  0.25000000  1
  Sc  Sc12  1  0.33333333  0.66666667  0.50000000  1
  Sc  Sc13  1  0.66666667  0.33333333  0.00000000  1
  Sc  Sc14  1  0.66666667  0.33333333  0.50000000  1
  Sc  Sc15  1  0.33333333  0.66666667  0.00000000  1
