# generated using pymatgen
data_Re3Pd
_symmetry_space_group_name_H-M   'P 1'
_cell_length_a   5.57881575
_cell_length_b   5.57881666
_cell_length_c   4.44252768
_cell_angle_alpha   90.00000000
_cell_angle_beta   90.00000000
_cell_angle_gamma   119.99999467
_symmetry_Int_Tables_number   1
_chemical_formula_structural   Re3Pd
_chemical_formula_sum   'Re6 Pd2'
_cell_volume   119.74155809
_cell_formula_units_Z   2
loop_
 _symmetry_equiv_pos_site_id
 _symmetry_equiv_pos_as_xyz
  1  'x, y, z'
loop_
 _atom_site_type_symbol
 _atom_site_label
 _atom_site_symmetry_multiplicity
 _atom_site_fract_x
 _atom_site_fract_y
 _atom_site_fract_z
 _atom_site_occupancy
  Re  Re0  1  0.84029012  0.15970688  0.75000100  1
  Re  Re1  1  0.31941576  0.15970688  0.75000100  1
  Re  Re2  1  0.84029212  0.68058424  0.75000100  1
  Re  Re3  1  0.15970688  0.84029112  0.25000100  1
  Re  Re4  1  0.68058424  0.84029112  0.25000100  1
  Re  Re5  1  0.15970688  0.31941376  0.25000100  1
  Pd  Pd6  1  0.66666700  0.33333300  0.25000100  1
  Pd  Pd7  1  0.33333400  0.66666700  0.75000100  1
