# generated using pymatgen
data_Ru3W
_symmetry_space_group_name_H-M   'P 1'
_cell_length_a   5.51813946
_cell_length_b   5.51814113
_cell_length_c   4.38248998
_cell_angle_alpha   90.00000000
_cell_angle_beta   90.00000000
_cell_angle_gamma   120.00000220
_symmetry_Int_Tables_number   1
_chemical_formula_structural   Ru3W
_chemical_formula_sum   'Ru6 W2'
_cell_volume   115.56784893
_cell_formula_units_Z   2
loop_
 _symmetry_equiv_pos_site_id
 _symmetry_equiv_pos_as_xyz
  1  'x, y, z'
loop_
 _atom_site_type_symbol
 _atom_site_label
 _atom_site_symmetry_multiplicity
 _atom_site_fract_x
 _atom_site_fract_y
 _atom_site_fract_z
 _atom_site_occupancy
  Ru  Ru0  1  0.16674288  0.33348677  0.24999900  1
  Ru  Ru1  1  0.66651223  0.83325612  0.24999900  1
  Ru  Ru2  1  0.16674488  0.83325612  0.24999900  1
  Ru  Ru3  1  0.83325412  0.66651023  0.75000000  1
  Ru  Ru4  1  0.33348777  0.16674388  0.75000000  1
  Ru  Ru5  1  0.83325512  0.16674388  0.75000000  1
  W  W6  1  0.33333400  0.66666800  0.75000000  1
  W  W7  1  0.66666700  0.33333300  0.24999900  1
