# generated using pymatgen
data_NdSi
_symmetry_space_group_name_H-M   'P 1'
_cell_length_a   3.94504483
_cell_length_b   5.92417753
_cell_length_c   8.26203015
_cell_angle_alpha   90.00000000
_cell_angle_beta   90.00000000
_cell_angle_gamma   90.00000000
_symmetry_Int_Tables_number   1
_chemical_formula_structural   NdSi
_chemical_formula_sum   'Nd4 Si4'
_cell_volume   193.09311237
_cell_formula_units_Z   4
loop_
 _symmetry_equiv_pos_site_id
 _symmetry_equiv_pos_as_xyz
  1  'x, y, z'
loop_
 _atom_site_type_symbol
 _atom_site_label
 _atom_site_symmetry_multiplicity
 _atom_site_fract_x
 _atom_site_fract_y
 _atom_site_fract_z
 _atom_site_occupancy
  Si  Si0  1  0.25000000  0.87802215  0.53533496  1
  Si  Si1  1  0.75000000  0.12197785  0.46466504  1
  Si  Si2  1  0.75000000  0.37802215  0.96466504  1
  Si  Si3  1  0.25000000  0.62197785  0.03533496  1
  Nd  Nd4  1  0.25000000  0.38628952  0.67964817  1
  Nd  Nd5  1  0.75000000  0.61371048  0.32035183  1
  Nd  Nd6  1  0.75000000  0.88628952  0.82035183  1
  Nd  Nd7  1  0.25000000  0.11371048  0.17964817  1
