# generated using pymatgen
data_Re3Ni
_symmetry_space_group_name_H-M   'P 1'
_cell_length_a   5.42732824
_cell_length_b   5.42732961
_cell_length_c   4.38044543
_cell_angle_alpha   90.00000000
_cell_angle_beta   90.00000000
_cell_angle_gamma   119.99999166
_symmetry_Int_Tables_number   1
_chemical_formula_structural   Re3Ni
_chemical_formula_sum   'Re6 Ni2'
_cell_volume   111.74323195
_cell_formula_units_Z   2
loop_
 _symmetry_equiv_pos_site_id
 _symmetry_equiv_pos_as_xyz
  1  'x, y, z'
loop_
 _atom_site_type_symbol
 _atom_site_label
 _atom_site_symmetry_multiplicity
 _atom_site_fract_x
 _atom_site_fract_y
 _atom_site_fract_z
 _atom_site_occupancy
  Re  Re0  1  0.83349553  0.16650447  0.74999900  1
  Re  Re1  1  0.33301095  0.16650447  0.74999900  1
  Re  Re2  1  0.83349753  0.66699105  0.74999900  1
  Re  Re3  1  0.16650347  0.83349353  0.25000000  1
  Re  Re4  1  0.66699205  0.83349353  0.25000000  1
  Re  Re5  1  0.16650447  0.33300895  0.25000000  1
  Ni  Ni6  1  0.66666700  0.33333100  0.25000000  1
  Ni  Ni7  1  0.33333300  0.66666700  0.74999900  1
