# generated using pymatgen
data_Tc3Os
_symmetry_space_group_name_H-M   'P 1'
_cell_length_a   5.53110175
_cell_length_b   5.53110016
_cell_length_c   4.38102964
_cell_angle_alpha   90.00000000
_cell_angle_beta   90.00000000
_cell_angle_gamma   119.99999725
_symmetry_Int_Tables_number   1
_chemical_formula_structural   Tc3Os
_chemical_formula_sum   'Tc6 Os2'
_cell_volume   116.07267845
_cell_formula_units_Z   2
loop_
 _symmetry_equiv_pos_site_id
 _symmetry_equiv_pos_as_xyz
  1  'x, y, z'
loop_
 _atom_site_type_symbol
 _atom_site_label
 _atom_site_symmetry_multiplicity
 _atom_site_fract_x
 _atom_site_fract_y
 _atom_site_fract_z
 _atom_site_occupancy
  Tc  Tc0  1  0.83363175  0.16636725  0.74999900  1
  Tc  Tc1  1  0.33273550  0.16636725  0.74999900  1
  Tc  Tc2  1  0.83363175  0.66726250  0.74999900  1
  Tc  Tc3  1  0.16636725  0.83363175  0.24999800  1
  Tc  Tc4  1  0.66726450  0.83363175  0.24999800  1
  Tc  Tc5  1  0.16636725  0.33273450  0.24999800  1
  Os  Os6  1  0.66666500  0.33333100  0.24999800  1
  Os  Os7  1  0.33333300  0.66666600  0.74999900  1
