# generated using pymatgen
data_KPuO3
_symmetry_space_group_name_H-M   'P 1'
_cell_length_a   4.28212333
_cell_length_b   4.28213331
_cell_length_c   4.28193788
_cell_angle_alpha   89.99946117
_cell_angle_beta   90.00105920
_cell_angle_gamma   90.00001271
_symmetry_Int_Tables_number   1
_chemical_formula_structural   KPuO3
_chemical_formula_sum   'K1 Pu1 O3'
_cell_volume   78.51628039
_cell_formula_units_Z   1
loop_
 _symmetry_equiv_pos_site_id
 _symmetry_equiv_pos_as_xyz
  1  'x, y, z'
loop_
 _atom_site_type_symbol
 _atom_site_label
 _atom_site_symmetry_multiplicity
 _atom_site_fract_x
 _atom_site_fract_y
 _atom_site_fract_z
 _atom_site_occupancy
  K  K0  1  0.00000007  0.00000017  0.99999996  1
  Pu  Pu1  1  0.50000047  0.50000119  0.50000057  1
  O  O2  1  0.50000100  0.50000094  0.00000039  1
  O  O3  1  0.50000106  0.00000002  0.50000105  1
  O  O4  1  0.00000040  0.50000068  0.50000104  1
