# generated using pymatgen
data_Mn3Ir
_symmetry_space_group_name_H-M   'P 1'
_cell_length_a   5.17428108
_cell_length_b   5.17361413
_cell_length_c   4.05103317
_cell_angle_alpha   90.00000000
_cell_angle_beta   90.00000000
_cell_angle_gamma   119.99959526
_symmetry_Int_Tables_number   1
_chemical_formula_structural   Mn3Ir
_chemical_formula_sum   'Mn6 Ir2'
_cell_volume   93.91657660
_cell_formula_units_Z   2
loop_
 _symmetry_equiv_pos_site_id
 _symmetry_equiv_pos_as_xyz
  1  'x, y, z'
loop_
 _atom_site_type_symbol
 _atom_site_label
 _atom_site_symmetry_multiplicity
 _atom_site_fract_x
 _atom_site_fract_y
 _atom_site_fract_z
 _atom_site_occupancy
  Mn  Mn0  1  0.15660185  0.31320452  0.25000000  1
  Mn  Mn1  1  0.68676015  0.84340646  0.25000000  1
  Mn  Mn2  1  0.15664695  0.84340142  0.25000000  1
  Mn  Mn3  1  0.84328064  0.68662860  0.75000000  1
  Mn  Mn4  1  0.31341216  0.15671324  0.75000000  1
  Mn  Mn5  1  0.84328386  0.15666836  0.75000000  1
  Ir  Ir6  1  0.66666856  0.33331143  0.25000000  1
  Ir  Ir7  1  0.33334384  0.66666597  0.75000000  1
