# generated using pymatgen
data_YbSiPt2
_symmetry_space_group_name_H-M   'P 1'
_cell_length_a   7.31337689
_cell_length_b   6.92625917
_cell_length_c   5.54028719
_cell_angle_alpha   90.00000000
_cell_angle_beta   90.00000000
_cell_angle_gamma   90.00000000
_symmetry_Int_Tables_number   1
_chemical_formula_structural   YbSiPt2
_chemical_formula_sum   'Yb4 Si4 Pt8'
_cell_volume   280.63961179
_cell_formula_units_Z   4
loop_
 _symmetry_equiv_pos_site_id
 _symmetry_equiv_pos_as_xyz
  1  'x, y, z'
loop_
 _atom_site_type_symbol
 _atom_site_label
 _atom_site_symmetry_multiplicity
 _atom_site_fract_x
 _atom_site_fract_y
 _atom_site_fract_z
 _atom_site_occupancy
  Yb  Yb0  1  0.47957598  0.75000000  0.12938675  1
  Yb  Yb1  1  0.97957598  0.75000000  0.37061325  1
  Yb  Yb2  1  0.02042502  0.25000000  0.62938675  1
  Yb  Yb3  1  0.52042402  0.25000000  0.87061325  1
  Si  Si4  1  0.87636343  0.25000000  0.12769439  1
  Si  Si5  1  0.37636443  0.25000000  0.37230561  1
  Si  Si6  1  0.62363657  0.75000000  0.62769439  1
  Si  Si7  1  0.12363557  0.75000000  0.87230461  1
  Pt  Pt8  1  0.17338592  0.05181317  0.10220137  1
  Pt  Pt9  1  0.17338592  0.44818583  0.10220137  1
  Pt  Pt10  1  0.67338592  0.05181317  0.39779663  1
  Pt  Pt11  1  0.67338592  0.44818583  0.39779663  1
  Pt  Pt12  1  0.32661408  0.55181317  0.60220137  1
  Pt  Pt13  1  0.32661408  0.94818683  0.60220137  1
  Pt  Pt14  1  0.82661308  0.55181317  0.89779663  1
  Pt  Pt15  1  0.82661308  0.94818683  0.89779663  1
