# generated using pymatgen
data_ZrZn3
_symmetry_space_group_name_H-M   'P 1'
_cell_length_a   5.89016738
_cell_length_b   5.89016812
_cell_length_c   4.38542534
_cell_angle_alpha   90.00000000
_cell_angle_beta   90.00000000
_cell_angle_gamma   120.00000177
_symmetry_Int_Tables_number   1
_chemical_formula_structural   ZrZn3
_chemical_formula_sum   'Zr2 Zn6'
_cell_volume   131.76427381
_cell_formula_units_Z   2
loop_
 _symmetry_equiv_pos_site_id
 _symmetry_equiv_pos_as_xyz
  1  'x, y, z'
loop_
 _atom_site_type_symbol
 _atom_site_label
 _atom_site_symmetry_multiplicity
 _atom_site_fract_x
 _atom_site_fract_y
 _atom_site_fract_z
 _atom_site_occupancy
  Zr  Zr0  1  0.33333400  0.66666700  0.74999800  1
  Zr  Zr1  1  0.66666600  0.33333200  0.24999800  1
  Zn  Zn2  1  0.15835338  0.31670575  0.24999800  1
  Zn  Zn3  1  0.68329225  0.84164662  0.24999800  1
  Zn  Zn4  1  0.15835438  0.84164662  0.24999800  1
  Zn  Zn5  1  0.84164662  0.68329225  0.74999800  1
  Zn  Zn6  1  0.31670875  0.15835438  0.74999800  1
  Zn  Zn7  1  0.84164662  0.15835438  0.74999800  1
