# generated using pymatgen
data_LaAu3
_symmetry_space_group_name_H-M   'P 1'
_cell_length_a   6.64206184
_cell_length_b   6.64206093
_cell_length_c   4.80956831
_cell_angle_alpha   90.00000000
_cell_angle_beta   90.00000000
_cell_angle_gamma   119.99999869
_symmetry_Int_Tables_number   1
_chemical_formula_structural   LaAu3
_chemical_formula_sum   'La2 Au6'
_cell_volume   183.75641304
_cell_formula_units_Z   2
loop_
 _symmetry_equiv_pos_site_id
 _symmetry_equiv_pos_as_xyz
  1  'x, y, z'
loop_
 _atom_site_type_symbol
 _atom_site_label
 _atom_site_symmetry_multiplicity
 _atom_site_fract_x
 _atom_site_fract_y
 _atom_site_fract_z
 _atom_site_occupancy
  La  La0  1  0.66666700  0.33333400  0.25000200  1
  La  La1  1  0.33333400  0.66666700  0.75000100  1
  Au  Au2  1  0.15312246  0.84687754  0.25000200  1
  Au  Au3  1  0.69375307  0.84687754  0.25000200  1
  Au  Au4  1  0.15312346  0.30624693  0.25000200  1
  Au  Au5  1  0.84687554  0.69375307  0.75000100  1
  Au  Au6  1  0.30624693  0.15312346  0.75000100  1
  Au  Au7  1  0.84687554  0.15312346  0.75000100  1
