# generated using pymatgen
data_MgSc2
_symmetry_space_group_name_H-M   'P 1'
_cell_length_a   3.32941642
_cell_length_b   8.50019126
_cell_length_c   5.15151558
_cell_angle_alpha   90.00000000
_cell_angle_beta   90.00000000
_cell_angle_gamma   78.70599396
_symmetry_Int_Tables_number   1
_chemical_formula_structural   MgSc2
_chemical_formula_sum   'Mg2 Sc4'
_cell_volume   142.96814737
_cell_formula_units_Z   2
loop_
 _symmetry_equiv_pos_site_id
 _symmetry_equiv_pos_as_xyz
  1  'x, y, z'
loop_
 _atom_site_type_symbol
 _atom_site_label
 _atom_site_symmetry_multiplicity
 _atom_site_fract_x
 _atom_site_fract_y
 _atom_site_fract_z
 _atom_site_occupancy
  Mg  Mg0  1  0.32973634  0.34052433  0.00000000  1
  Mg  Mg1  1  0.44803866  0.10391967  0.50000000  1
  Sc  Sc2  1  0.99424120  0.01151761  0.00000000  1
  Sc  Sc3  1  0.66441952  0.67116197  0.00000000  1
  Sc  Sc4  1  0.78353680  0.43292739  0.50000000  1
  Sc  Sc5  1  0.11335748  0.77328303  0.50000000  1
