# generated using pymatgen
data_YbHg3
_symmetry_space_group_name_H-M   'P 1'
_cell_length_a   6.67621983
_cell_length_b   6.67468809
_cell_length_c   5.20162092
_cell_angle_alpha   90.00000000
_cell_angle_beta   90.00000000
_cell_angle_gamma   120.01098812
_symmetry_Int_Tables_number   1
_chemical_formula_structural   YbHg3
_chemical_formula_sum   'Yb2 Hg6'
_cell_volume   200.71639021
_cell_formula_units_Z   2
loop_
 _symmetry_equiv_pos_site_id
 _symmetry_equiv_pos_as_xyz
  1  'x, y, z'
loop_
 _atom_site_type_symbol
 _atom_site_label
 _atom_site_symmetry_multiplicity
 _atom_site_fract_x
 _atom_site_fract_y
 _atom_site_fract_z
 _atom_site_occupancy
  Yb  Yb0  1  0.33334551  0.66668175  0.75000000  1
  Yb  Yb1  1  0.66665693  0.33331992  0.25000000  1
  Hg  Hg2  1  0.16567858  0.33138842  0.25000000  1
  Hg  Hg3  1  0.66866060  0.83432340  0.25000000  1
  Hg  Hg4  1  0.16565647  0.83429727  0.25000000  1
  Hg  Hg5  1  0.83432049  0.66860852  0.75000000  1
  Hg  Hg6  1  0.33133647  0.16567595  0.75000000  1
  Hg  Hg7  1  0.83434495  0.16570476  0.75000000  1
