# generated using pymatgen
data_LiGe
_symmetry_space_group_name_H-M   'P 1'
_cell_length_a   5.78246010
_cell_length_b   7.54633861
_cell_length_c   7.54633861
_cell_angle_alpha   81.55912545
_cell_angle_beta   67.47229169
_cell_angle_gamma   67.47229167
_symmetry_Int_Tables_number   1
_chemical_formula_structural   LiGe
_chemical_formula_sum   'Li8 Ge8'
_cell_volume   280.95825976
_cell_formula_units_Z   8
loop_
 _symmetry_equiv_pos_site_id
 _symmetry_equiv_pos_as_xyz
  1  'x, y, z'
loop_
 _atom_site_type_symbol
 _atom_site_label
 _atom_site_symmetry_multiplicity
 _atom_site_fract_x
 _atom_site_fract_y
 _atom_site_fract_z
 _atom_site_occupancy
  Li  Li0  1  0.46185308  0.19352376  0.53363971  1
  Li  Li1  1  0.99549279  0.96636029  0.19352376  1
  Li  Li2  1  0.15537684  0.53363971  0.30647624  1
  Li  Li3  1  0.18901655  0.30647624  0.96636029  1
  Li  Li4  1  0.53814692  0.80647624  0.46636029  1
  Li  Li5  1  0.00450721  0.03363971  0.80647624  1
  Li  Li6  1  0.84462316  0.46636029  0.69352376  1
  Li  Li7  1  0.81098345  0.69352376  0.03363971  1
  Ge  Ge8  1  0.05795336  0.15909646  0.44576181  1
  Ge  Ge9  1  0.50371518  0.05423819  0.15909646  1
  Ge  Ge10  1  0.71704982  0.44576181  0.34090354  1
  Ge  Ge11  1  0.66281164  0.34090354  0.05423819  1
  Ge  Ge12  1  0.94204664  0.84090354  0.55423819  1
  Ge  Ge13  1  0.49628482  0.94576181  0.84090354  1
  Ge  Ge14  1  0.28295018  0.55423819  0.65909646  1
  Ge  Ge15  1  0.33718836  0.65909646  0.94576181  1
