# generated using pymatgen
data_Co3Pt
_symmetry_space_group_name_H-M   'P 1'
_cell_length_a   5.21526374
_cell_length_b   5.21350647
_cell_length_c   4.14191212
_cell_angle_alpha   90.02078029
_cell_angle_beta   89.98645725
_cell_angle_gamma   119.98189336
_symmetry_Int_Tables_number   1
_chemical_formula_structural   Co3Pt
_chemical_formula_sum   'Co6 Pt2'
_cell_volume   97.54766654
_cell_formula_units_Z   2
loop_
 _symmetry_equiv_pos_site_id
 _symmetry_equiv_pos_as_xyz
  1  'x, y, z'
loop_
 _atom_site_type_symbol
 _atom_site_label
 _atom_site_symmetry_multiplicity
 _atom_site_fract_x
 _atom_site_fract_y
 _atom_site_fract_z
 _atom_site_occupancy
  Co  Co0  1  0.15834466  0.31654702  0.25002989  1
  Co  Co1  1  0.68346194  0.84166193  0.25002298  1
  Co  Co2  1  0.15825743  0.84174711  0.24999350  1
  Co  Co3  1  0.84171755  0.68350273  0.74997282  1
  Co  Co4  1  0.31649800  0.15823514  0.74997911  1
  Co  Co5  1  0.84171358  0.15818873  0.75001094  1
  Pt  Pt6  1  0.33339347  0.66674141  0.74998347  1
  Pt  Pt7  1  0.66661737  0.33338193  0.25001928  1
