# generated using pymatgen
data_VIr3
_symmetry_space_group_name_H-M   'P 1'
_cell_length_a   5.46586044
_cell_length_b   5.46585942
_cell_length_c   4.35779085
_cell_angle_alpha   90.00000000
_cell_angle_beta   90.00000000
_cell_angle_gamma   120.00000616
_symmetry_Int_Tables_number   1
_chemical_formula_structural   VIr3
_chemical_formula_sum   'V2 Ir6'
_cell_volume   112.74933365
_cell_formula_units_Z   2
loop_
 _symmetry_equiv_pos_site_id
 _symmetry_equiv_pos_as_xyz
  1  'x, y, z'
loop_
 _atom_site_type_symbol
 _atom_site_label
 _atom_site_symmetry_multiplicity
 _atom_site_fract_x
 _atom_site_fract_y
 _atom_site_fract_z
 _atom_site_occupancy
  V  V0  1  0.33333400  0.66666800  0.74999482  1
  V  V1  1  0.66666700  0.33333300  0.25000518  1
  Ir  Ir2  1  0.16750333  0.33500666  0.24999614  1
  Ir  Ir3  1  0.66499434  0.83249767  0.24999614  1
  Ir  Ir4  1  0.16750333  0.83249767  0.24999614  1
  Ir  Ir5  1  0.83249667  0.66499234  0.75000386  1
  Ir  Ir6  1  0.33500766  0.16750533  0.75000386  1
  Ir  Ir7  1  0.83249767  0.16750533  0.75000386  1
