# generated using pymatgen
data_CoTc3
_symmetry_space_group_name_H-M   'P 1'
_cell_length_a   5.37801927
_cell_length_b   5.37801927
_cell_length_c   4.30299148
_cell_angle_alpha   90.00000000
_cell_angle_beta   90.00000000
_cell_angle_gamma   119.99999995
_symmetry_Int_Tables_number   1
_chemical_formula_structural   CoTc3
_chemical_formula_sum   'Co2 Tc6'
_cell_volume   107.78189770
_cell_formula_units_Z   2
loop_
 _symmetry_equiv_pos_site_id
 _symmetry_equiv_pos_as_xyz
  1  'x, y, z'
loop_
 _atom_site_type_symbol
 _atom_site_label
 _atom_site_symmetry_multiplicity
 _atom_site_fract_x
 _atom_site_fract_y
 _atom_site_fract_z
 _atom_site_occupancy
  Co  Co0  1  0.33333400  0.66666800  0.74999900  1
  Co  Co1  1  0.66666600  0.33333200  0.24999900  1
  Tc  Tc2  1  0.16710710  0.33421421  0.24999900  1
  Tc  Tc3  1  0.66578579  0.83289190  0.24999900  1
  Tc  Tc4  1  0.16710810  0.83289190  0.24999900  1
  Tc  Tc5  1  0.83289290  0.66578679  0.74999900  1
  Tc  Tc6  1  0.33421621  0.16710810  0.74999900  1
  Tc  Tc7  1  0.83289390  0.16710810  0.74999900  1
