# generated using pymatgen
data_CoRe3
_symmetry_space_group_name_H-M   'P 1'
_cell_length_a   5.42372624
_cell_length_b   5.42372628
_cell_length_c   4.35894516
_cell_angle_alpha   90.00000000
_cell_angle_beta   90.00000000
_cell_angle_gamma   120.00000583
_symmetry_Int_Tables_number   1
_chemical_formula_structural   CoRe3
_chemical_formula_sum   'Co2 Re6'
_cell_volume   111.04718048
_cell_formula_units_Z   2
loop_
 _symmetry_equiv_pos_site_id
 _symmetry_equiv_pos_as_xyz
  1  'x, y, z'
loop_
 _atom_site_type_symbol
 _atom_site_label
 _atom_site_symmetry_multiplicity
 _atom_site_fract_x
 _atom_site_fract_y
 _atom_site_fract_z
 _atom_site_occupancy
  Co  Co0  1  0.33333300  0.66666600  0.74999800  1
  Co  Co1  1  0.66666600  0.33333300  0.24999900  1
  Re  Re2  1  0.16635731  0.33271363  0.24999900  1
  Re  Re3  1  0.66728837  0.83364469  0.24999900  1
  Re  Re4  1  0.16635631  0.83364469  0.24999900  1
  Re  Re5  1  0.83364269  0.66728737  0.74999800  1
  Re  Re6  1  0.33271163  0.16635431  0.74999800  1
  Re  Re7  1  0.83364269  0.16635431  0.74999800  1
