# generated using pymatgen
data_Pm3Pb
_symmetry_space_group_name_H-M   'P 1'
_cell_length_a   4.98260392
_cell_length_b   4.98257985
_cell_length_c   4.98257138
_cell_angle_alpha   89.99991548
_cell_angle_beta   89.99976024
_cell_angle_gamma   90.00003358
_symmetry_Int_Tables_number   1
_chemical_formula_structural   Pm3Pb
_chemical_formula_sum   'Pm3 Pb1'
_cell_volume   123.69842267
_cell_formula_units_Z   1
loop_
 _symmetry_equiv_pos_site_id
 _symmetry_equiv_pos_as_xyz
  1  'x, y, z'
loop_
 _atom_site_type_symbol
 _atom_site_label
 _atom_site_symmetry_multiplicity
 _atom_site_fract_x
 _atom_site_fract_y
 _atom_site_fract_z
 _atom_site_occupancy
  Pm  Pm0  1  0.00000045  0.50000015  0.49999989  1
  Pm  Pm1  1  0.49999985  0.50000015  0.00000006  1
  Pm  Pm2  1  0.49999996  0.99999988  0.50000018  1
  Pb  Pb3  1  0.99999974  0.99999982  0.99999987  1
