# generated using pymatgen
data_Ce3(TaN3)2
_symmetry_space_group_name_H-M   'P 1'
_cell_length_a   4.04578384
_cell_length_b   4.04578384
_cell_length_c   10.15462625
_cell_angle_alpha   101.49070144
_cell_angle_beta   101.49070144
_cell_angle_gamma   90.00000000
_symmetry_Int_Tables_number   1
_chemical_formula_structural   Ce3(TaN3)2
_chemical_formula_sum   'Ce3 Ta2 N6'
_cell_volume   159.48220807
_cell_formula_units_Z   1
loop_
 _symmetry_equiv_pos_site_id
 _symmetry_equiv_pos_as_xyz
  1  'x, y, z'
loop_
 _atom_site_type_symbol
 _atom_site_label
 _atom_site_symmetry_multiplicity
 _atom_site_fract_x
 _atom_site_fract_y
 _atom_site_fract_z
 _atom_site_occupancy
  Ce  Ce0  1  0.00000000  0.00000000  0.00000000  1
  Ce  Ce1  1  0.18106284  0.18106284  0.36212467  1
  Ce  Ce2  1  0.81893716  0.81893716  0.63787433  1
  Ta  Ta3  1  0.59942256  0.59942256  0.19884512  1
  Ta  Ta4  1  0.40057744  0.40057744  0.80115488  1
  N  N5  1  0.58365117  0.08365117  0.16730135  1
  N  N6  1  0.08365117  0.58365117  0.16730135  1
  N  N7  1  0.70104506  0.70104506  0.40209013  1
  N  N8  1  0.29895494  0.29895494  0.59790987  1
  N  N9  1  0.91634983  0.41634983  0.83269965  1
  N  N10  1  0.41634983  0.91634983  0.83269965  1
