# generated using pymatgen
data_TiSnPd
_symmetry_space_group_name_H-M   'P 1'
_cell_length_a   4.39449526
_cell_length_b   4.39449275
_cell_length_c   4.39449745
_cell_angle_alpha   59.99993576
_cell_angle_beta   59.99998570
_cell_angle_gamma   59.99994860
_symmetry_Int_Tables_number   1
_chemical_formula_structural   TiSnPd
_chemical_formula_sum   'Ti1 Sn1 Pd1'
_cell_volume   60.00833052
_cell_formula_units_Z   1
loop_
 _symmetry_equiv_pos_site_id
 _symmetry_equiv_pos_as_xyz
  1  'x, y, z'
loop_
 _atom_site_type_symbol
 _atom_site_label
 _atom_site_symmetry_multiplicity
 _atom_site_fract_x
 _atom_site_fract_y
 _atom_site_fract_z
 _atom_site_occupancy
  Ti  Ti0  1  0.50000005  0.49999995  0.50000006  1
  Sn  Sn1  1  -0.00000008  0.00000018  0.00000006  1
  Pd  Pd2  1  0.25000003  0.24999987  0.24999988  1
