# generated using pymatgen
data_Na2Pd3O4
_symmetry_space_group_name_H-M   'P 1'
_cell_length_a   3.10362557
_cell_length_b   5.53485500
_cell_length_c   7.41745768
_cell_angle_alpha   111.90671367
_cell_angle_beta   102.07611137
_cell_angle_gamma   89.99999995
_symmetry_Int_Tables_number   1
_chemical_formula_structural   Na2Pd3O4
_chemical_formula_sum   'Na2 Pd3 O4'
_cell_volume   115.17271315
_cell_formula_units_Z   1
loop_
 _symmetry_equiv_pos_site_id
 _symmetry_equiv_pos_as_xyz
  1  'x, y, z'
loop_
 _atom_site_type_symbol
 _atom_site_label
 _atom_site_symmetry_multiplicity
 _atom_site_fract_x
 _atom_site_fract_y
 _atom_site_fract_z
 _atom_site_occupancy
  O  O0  1  0.61542771  0.86919312  0.23085541  1
  O  O1  1  0.38457229  0.13080688  0.76914459  1
  O  O2  1  0.38457229  0.63833771  0.76914459  1
  O  O3  1  0.61542771  0.36166229  0.23085541  1
  Na  Na4  1  0.79811039  0.29811039  0.59622078  1
  Na  Na5  1  0.20188961  0.70188961  0.40377922  1
  Pd  Pd6  1  0.10584226  0.10584226  0.21168453  1
  Pd  Pd7  1  0.89415774  0.89415774  0.78831547  1
  Pd  Pd8  1  0.50000000  0.50000000  0.00000000  1
