# generated using pymatgen
data_TmZnRh2
_symmetry_space_group_name_H-M   'P 1'
_cell_length_a   4.53731369
_cell_length_b   4.53731730
_cell_length_c   4.53731572
_cell_angle_alpha   60.00000232
_cell_angle_beta   59.99995025
_cell_angle_gamma   59.99999113
_symmetry_Int_Tables_number   1
_chemical_formula_structural   TmZnRh2
_chemical_formula_sum   'Tm1 Zn1 Rh2'
_cell_volume   66.05136149
_cell_formula_units_Z   1
loop_
 _symmetry_equiv_pos_site_id
 _symmetry_equiv_pos_as_xyz
  1  'x, y, z'
loop_
 _atom_site_type_symbol
 _atom_site_label
 _atom_site_symmetry_multiplicity
 _atom_site_fract_x
 _atom_site_fract_y
 _atom_site_fract_z
 _atom_site_occupancy
  Tm  Tm0  1  0.24999863  0.24999915  0.24999936  1
  Zn  Zn1  1  0.75000089  0.75000073  0.75000099  1
  Rh  Rh2  1  0.99999948  0.00000129  0.00000027  1
  Rh  Rh3  1  0.50000100  0.49999883  0.49999939  1
