# generated using pymatgen
data_CsPdBr3
_symmetry_space_group_name_H-M   'P 1'
_cell_length_a   5.33704926
_cell_length_b   5.33492134
_cell_length_c   5.33416928
_cell_angle_alpha   90.01568204
_cell_angle_beta   89.99023618
_cell_angle_gamma   90.01850296
_symmetry_Int_Tables_number   1
_chemical_formula_structural   CsPdBr3
_chemical_formula_sum   'Cs1 Pd1 Br3'
_cell_volume   151.87838856
_cell_formula_units_Z   1
loop_
 _symmetry_equiv_pos_site_id
 _symmetry_equiv_pos_as_xyz
  1  'x, y, z'
loop_
 _atom_site_type_symbol
 _atom_site_label
 _atom_site_symmetry_multiplicity
 _atom_site_fract_x
 _atom_site_fract_y
 _atom_site_fract_z
 _atom_site_occupancy
  Cs  Cs0  1  0.00074310  0.99193246  0.00069719  1
  Pd  Pd1  1  0.49561978  0.48501386  0.49921816  1
  Br  Br2  1  0.49683816  0.48826354  0.99928875  1
  Br  Br3  1  0.50101944  0.98531307  0.50166981  1
  Br  Br4  1  0.99577752  0.48947408  0.49912608  1
