# generated using pymatgen
data_Sr(Si3N4)2
_symmetry_space_group_name_H-M   'P 1'
_cell_length_a   4.84356076
_cell_length_b   7.93502302
_cell_length_c   9.35128613
_cell_angle_alpha   90.00000000
_cell_angle_beta   90.00000000
_cell_angle_gamma   90.00000000
_symmetry_Int_Tables_number   1
_chemical_formula_structural   Sr(Si3N4)2
_chemical_formula_sum   'Sr2 Si12 N16'
_cell_volume   359.40514413
_cell_formula_units_Z   2
loop_
 _symmetry_equiv_pos_site_id
 _symmetry_equiv_pos_as_xyz
  1  'x, y, z'
loop_
 _atom_site_type_symbol
 _atom_site_label
 _atom_site_symmetry_multiplicity
 _atom_site_fract_x
 _atom_site_fract_y
 _atom_site_fract_z
 _atom_site_occupancy
  Sr  Sr0  1  0.34279782  0.50000000  -0.00000000  1
  Sr  Sr1  1  0.84279782  -0.00000000  0.50000000  1
  Si  Si2  1  0.85187128  0.79668444  0.16027750  1
  Si  Si3  1  0.85187128  0.79668444  0.83972250  1
  Si  Si4  1  0.85187128  0.20331556  0.16027750  1
  Si  Si5  1  0.85187128  0.20331556  0.83972250  1
  Si  Si6  1  0.85985052  0.50000000  0.62702833  1
  Si  Si7  1  0.85985052  0.50000000  0.37297167  1
  Si  Si8  1  0.35187128  0.29668444  0.66027750  1
  Si  Si9  1  0.35187128  0.29668444  0.33972250  1
  Si  Si10  1  0.35187128  0.70331556  0.66027750  1
  Si  Si11  1  0.35187128  0.70331556  0.33972250  1
  Si  Si12  1  0.35985052  -0.00000000  0.12702833  1
  Si  Si13  1  0.35985052  -0.00000000  0.87297167  1
  N  N14  1  0.78459679  0.70831568  -0.00000000  1
  N  N15  1  0.70633996  0.31795428  0.69748860  1
  N  N16  1  0.20533082  0.50000000  0.68386645  1
  N  N17  1  0.70633996  0.68204572  0.30251140  1
  N  N18  1  0.78459679  0.29168432  -0.00000000  1
  N  N19  1  0.70633996  0.68204572  0.69748860  1
  N  N20  1  0.70633996  0.31795428  0.30251140  1
  N  N21  1  0.20533082  0.50000000  0.31613355  1
  N  N22  1  0.28459679  0.20831568  0.50000000  1
  N  N23  1  0.20633996  0.81795428  0.19748860  1
  N  N24  1  0.70533082  -0.00000000  0.18386645  1
  N  N25  1  0.20633996  0.18204572  0.80251140  1
  N  N26  1  0.28459679  0.79168432  0.50000000  1
  N  N27  1  0.20633996  0.18204572  0.19748860  1
  N  N28  1  0.20633996  0.81795428  0.80251140  1
  N  N29  1  0.70533082  -0.00000000  0.81613355  1
