# generated using pymatgen
data_LiP
_symmetry_space_group_name_H-M   'P 1'
_cell_length_a   4.97038519
_cell_length_b   5.59387161
_cell_length_c   9.06941805
_cell_angle_alpha   94.78717684
_cell_angle_beta   90.00000000
_cell_angle_gamma   90.00000000
_symmetry_Int_Tables_number   1
_chemical_formula_structural   LiP
_chemical_formula_sum   'Li8 P8'
_cell_volume   251.28369181
_cell_formula_units_Z   8
loop_
 _symmetry_equiv_pos_site_id
 _symmetry_equiv_pos_as_xyz
  1  'x, y, z'
loop_
 _atom_site_type_symbol
 _atom_site_label
 _atom_site_symmetry_multiplicity
 _atom_site_fract_x
 _atom_site_fract_y
 _atom_site_fract_z
 _atom_site_occupancy
  Li  Li0  1  0.38824720  0.11229151  0.32929977  1
  Li  Li1  1  0.88824720  0.38770849  0.17070023  1
  Li  Li2  1  0.61175280  0.88770849  0.67070023  1
  Li  Li3  1  0.11175280  0.61229151  0.82929977  1
  Li  Li4  1  0.65831626  0.80401775  0.02978574  1
  Li  Li5  1  0.15831626  0.69598225  0.47021426  1
  Li  Li6  1  0.34168374  0.19598225  0.97021426  1
  Li  Li7  1  0.84168374  0.30401775  0.52978574  1
  P  P8  1  0.89490359  0.97627156  0.29291641  1
  P  P9  1  0.39490359  0.52372844  0.20708359  1
  P  P10  1  0.10509641  0.02372844  0.70708359  1
  P  P11  1  0.60509641  0.47627156  0.79291641  1
  P  P12  1  0.15602684  0.80855992  0.11174185  1
  P  P13  1  0.65602684  0.69144008  0.38825815  1
  P  P14  1  0.84397316  0.19144008  0.88825815  1
  P  P15  1  0.34397316  0.30855992  0.61174185  1
