# generated using pymatgen
data_NaGa4
_symmetry_space_group_name_H-M   'P 1'
_cell_length_a   4.27700141
_cell_length_b   4.27700087
_cell_length_c   6.41375739
_cell_angle_alpha   109.47673444
_cell_angle_beta   109.47673187
_cell_angle_gamma   89.99999285
_symmetry_Int_Tables_number   1
_chemical_formula_structural   NaGa4
_chemical_formula_sum   'Na1 Ga4'
_cell_volume   103.46304591
_cell_formula_units_Z   1
loop_
 _symmetry_equiv_pos_site_id
 _symmetry_equiv_pos_as_xyz
  1  'x, y, z'
loop_
 _atom_site_type_symbol
 _atom_site_label
 _atom_site_symmetry_multiplicity
 _atom_site_fract_x
 _atom_site_fract_y
 _atom_site_fract_z
 _atom_site_occupancy
  Na  Na0  1  0.00000000  0.00000000  -0.00000000  1
  Ga  Ga1  1  0.75000000  0.25000000  0.50000000  1
  Ga  Ga2  1  0.61055008  0.61055008  0.22110016  1
  Ga  Ga3  1  0.25000000  0.75000000  0.50000000  1
  Ga  Ga4  1  0.38944992  0.38944992  0.77889984  1
