# generated using pymatgen
data_Eu(MgBi)2
_symmetry_space_group_name_H-M   'P 1'
_cell_length_a   4.84616391
_cell_length_b   4.84613533
_cell_length_c   7.86137227
_cell_angle_alpha   89.99761665
_cell_angle_beta   90.00386401
_cell_angle_gamma   120.00019246
_symmetry_Int_Tables_number   1
_chemical_formula_structural   Eu(MgBi)2
_chemical_formula_sum   'Eu1 Mg2 Bi2'
_cell_volume   159.89017876
_cell_formula_units_Z   1
loop_
 _symmetry_equiv_pos_site_id
 _symmetry_equiv_pos_as_xyz
  1  'x, y, z'
loop_
 _atom_site_type_symbol
 _atom_site_label
 _atom_site_symmetry_multiplicity
 _atom_site_fract_x
 _atom_site_fract_y
 _atom_site_fract_z
 _atom_site_occupancy
  Eu  Eu0  1  0.00004229  0.00000626  0.00000092  1
  Mg  Mg1  1  0.66669881  0.33333197  0.62799916  1
  Mg  Mg2  1  0.33338114  0.66665158  0.37200158  1
  Bi  Bi3  1  0.66671706  0.33333825  0.24502402  1
  Bi  Bi4  1  0.33336170  0.66667093  0.75497432  1
