# generated using pymatgen
data_GeAs
_symmetry_space_group_name_H-M   'P 1'
_cell_length_a   3.83325888
_cell_length_b   8.54258708
_cell_length_c   9.90234887
_cell_angle_alpha   104.43334356
_cell_angle_beta   90.00000000
_cell_angle_gamma   102.96534723
_symmetry_Int_Tables_number   1
_chemical_formula_structural   GeAs
_chemical_formula_sum   'Ge6 As6'
_cell_volume   305.48396014
_cell_formula_units_Z   6
loop_
 _symmetry_equiv_pos_site_id
 _symmetry_equiv_pos_as_xyz
  1  'x, y, z'
loop_
 _atom_site_type_symbol
 _atom_site_label
 _atom_site_symmetry_multiplicity
 _atom_site_fract_x
 _atom_site_fract_y
 _atom_site_fract_z
 _atom_site_occupancy
  Ge  Ge0  1  0.25981310  0.51962621  0.21004409  1
  Ge  Ge1  1  0.74018690  0.48037379  0.78995591  1
  Ge  Ge2  1  0.36929573  0.73859146  0.07971170  1
  Ge  Ge3  1  0.63070427  0.26140854  0.92028830  1
  Ge  Ge4  1  0.93255047  0.86510093  0.40864339  1
  Ge  Ge5  1  0.06744953  0.13489907  0.59135661  1
  As  As6  1  0.66110283  0.32220566  0.17980466  1
  As  As7  1  0.33889717  0.67779434  0.82019534  1
  As  As8  1  0.96329869  0.92659739  0.17261409  1
  As  As9  1  0.03670131  0.07340261  0.82738591  1
  As  As10  1  0.34645263  0.69290526  0.45388429  1
  As  As11  1  0.65354737  0.30709474  0.54611571  1
