# generated using pymatgen
data_Sr(NO3)2
_symmetry_space_group_name_H-M   'P 1'
_cell_length_a   7.91861275
_cell_length_b   7.91861275
_cell_length_c   7.91861275
_cell_angle_alpha   90.00000000
_cell_angle_beta   90.00000000
_cell_angle_gamma   90.00000000
_symmetry_Int_Tables_number   1
_chemical_formula_structural   Sr(NO3)2
_chemical_formula_sum   'Sr4 N8 O24'
_cell_volume   496.53208213
_cell_formula_units_Z   4
loop_
 _symmetry_equiv_pos_site_id
 _symmetry_equiv_pos_as_xyz
  1  'x, y, z'
loop_
 _atom_site_type_symbol
 _atom_site_label
 _atom_site_symmetry_multiplicity
 _atom_site_fract_x
 _atom_site_fract_y
 _atom_site_fract_z
 _atom_site_occupancy
  N  N0  1  0.34241645  0.34241645  0.34241645  1
  N  N1  1  0.34241645  0.15758355  0.84241645  1
  N  N2  1  0.15758355  0.84241645  0.34241645  1
  N  N3  1  0.84241645  0.34241645  0.15758355  1
  N  N4  1  0.65758355  0.65758355  0.65758355  1
  N  N5  1  0.15758355  0.65758355  0.84241645  1
  N  N6  1  0.84241645  0.15758355  0.65758355  1
  N  N7  1  0.65758355  0.84241645  0.15758355  1
  O  O8  1  0.77058185  0.28359330  0.02722172  1
  O  O9  1  0.21640670  0.97277828  0.27058185  1
  O  O10  1  0.22941815  0.78359330  0.47277828  1
  O  O11  1  0.27058185  0.21640670  0.97277828  1
  O  O12  1  0.27058185  0.28359330  0.47277828  1
  O  O13  1  0.47277828  0.27058185  0.28359330  1
  O  O14  1  0.28359330  0.47277828  0.27058185  1
  O  O15  1  0.21640670  0.52722172  0.77058185  1
  O  O16  1  0.97277828  0.22941815  0.71640670  1
  O  O17  1  0.71640670  0.97277828  0.22941815  1
  O  O18  1  0.02722172  0.72941815  0.78359330  1
  O  O19  1  0.52722172  0.77058185  0.21640670  1
  O  O20  1  0.78359330  0.02722172  0.72941815  1
  O  O21  1  0.77058185  0.21640670  0.52722172  1
  O  O22  1  0.72941815  0.78359330  0.02722172  1
  O  O23  1  0.22941815  0.71640670  0.97277828  1
  O  O24  1  0.72941815  0.71640670  0.52722172  1
  O  O25  1  0.52722172  0.72941815  0.71640670  1
  O  O26  1  0.71640670  0.52722172  0.72941815  1
  O  O27  1  0.78359330  0.47277828  0.22941815  1
  O  O28  1  0.02722172  0.77058185  0.28359330  1
  O  O29  1  0.28359330  0.02722172  0.77058185  1
  O  O30  1  0.97277828  0.27058185  0.21640670  1
  O  O31  1  0.47277828  0.22941815  0.78359330  1
  Sr  Sr32  1  0.00000000  0.50000000  0.50000000  1
  Sr  Sr33  1  0.50000000  0.50000000  0.00000000  1
  Sr  Sr34  1  0.50000000  0.00000000  0.50000000  1
  Sr  Sr35  1  0.00000000  0.00000000  0.00000000  1
