# generated using pymatgen
data_Eu(AlSi)2
_symmetry_space_group_name_H-M   'P 1'
_cell_length_a   4.20615583
_cell_length_b   4.20649297
_cell_length_c   7.06668967
_cell_angle_alpha   90.00000005
_cell_angle_beta   90.00231722
_cell_angle_gamma   120.00266728
_symmetry_Int_Tables_number   1
_chemical_formula_structural   Eu(AlSi)2
_chemical_formula_sum   'Eu1 Al2 Si2'
_cell_volume   108.27806934
_cell_formula_units_Z   1
loop_
 _symmetry_equiv_pos_site_id
 _symmetry_equiv_pos_as_xyz
  1  'x, y, z'
loop_
 _atom_site_type_symbol
 _atom_site_label
 _atom_site_symmetry_multiplicity
 _atom_site_fract_x
 _atom_site_fract_y
 _atom_site_fract_z
 _atom_site_occupancy
  Eu  Eu0  1  0.00000000  0.00000000  0.00000000  1
  Al  Al1  1  0.33335279  0.66667639  0.63181870  1
  Al  Al2  1  0.66664721  0.33332361  0.36818130  1
  Si  Si3  1  0.33334866  0.66667433  0.26598347  1
  Si  Si4  1  0.66665134  0.33332567  0.73401653  1
