# generated using pymatgen
data_BaDyCuTe3
_symmetry_space_group_name_H-M   'P 1'
_cell_length_a   4.43938467
_cell_length_b   7.82052383
_cell_length_c   11.43505790
_cell_angle_alpha   90.00000000
_cell_angle_beta   90.00000000
_cell_angle_gamma   106.48887166
_symmetry_Int_Tables_number   1
_chemical_formula_structural   BaDyCuTe3
_chemical_formula_sum   'Ba2 Dy2 Cu2 Te6'
_cell_volume   380.67900992
_cell_formula_units_Z   2
loop_
 _symmetry_equiv_pos_site_id
 _symmetry_equiv_pos_as_xyz
  1  'x, y, z'
loop_
 _atom_site_type_symbol
 _atom_site_label
 _atom_site_symmetry_multiplicity
 _atom_site_fract_x
 _atom_site_fract_y
 _atom_site_fract_z
 _atom_site_occupancy
  Cu  Cu0  1  0.03210076  0.06420151  0.75000000  1
  Cu  Cu1  1  0.96789924  0.93579849  0.25000000  1
  Te  Te2  1  0.86394833  0.72789666  0.43884820  1
  Te  Te3  1  0.13605167  0.27210334  0.56115180  1
  Te  Te4  1  0.13605167  0.27210334  0.93884820  1
  Te  Te5  1  0.86394833  0.72789666  0.06115180  1
  Te  Te6  1  0.42956613  0.85913225  0.75000000  1
  Te  Te7  1  0.57043387  0.14086775  0.25000000  1
  Ba  Ba8  1  0.25071691  0.50143383  0.25000000  1
  Ba  Ba9  1  0.74928309  0.49856617  0.75000000  1
  Dy  Dy10  1  0.50000000  0.00000000  0.50000000  1
  Dy  Dy11  1  0.50000000  0.00000000  0.00000000  1
