# generated using pymatgen
data_ErZn2
_symmetry_space_group_name_H-M   'P 1'
_cell_length_a   4.44985248
_cell_length_b   5.61431732
_cell_length_c   5.61431732
_cell_angle_alpha   77.56245735
_cell_angle_beta   66.65323162
_cell_angle_gamma   66.65323162
_symmetry_Int_Tables_number   1
_chemical_formula_structural   ErZn2
_chemical_formula_sum   'Er2 Zn4'
_cell_volume   117.95038304
_cell_formula_units_Z   2
loop_
 _symmetry_equiv_pos_site_id
 _symmetry_equiv_pos_as_xyz
  1  'x, y, z'
loop_
 _atom_site_type_symbol
 _atom_site_label
 _atom_site_symmetry_multiplicity
 _atom_site_fract_x
 _atom_site_fract_y
 _atom_site_fract_z
 _atom_site_occupancy
  Er  Er0  1  0.46602802  0.28397198  0.78397198  1
  Er  Er1  1  0.53397198  0.71602802  0.21602802  1
  Zn  Zn2  1  0.83404746  0.12165095  0.21025414  1
  Zn  Zn3  1  0.16595254  0.87834905  0.78974586  1
  Zn  Zn4  1  0.83404746  0.71025414  0.62165095  1
  Zn  Zn5  1  0.16595254  0.28974586  0.37834905  1
