# generated using pymatgen
data_Hf2TcRh
_symmetry_space_group_name_H-M   'P 1'
_cell_length_a   4.61575793
_cell_length_b   4.61574108
_cell_length_c   4.61575676
_cell_angle_alpha   60.00002600
_cell_angle_beta   60.00005610
_cell_angle_gamma   60.00010520
_symmetry_Int_Tables_number   1
_chemical_formula_structural   Hf2TcRh
_chemical_formula_sum   'Hf2 Tc1 Rh1'
_cell_volume   69.53652680
_cell_formula_units_Z   1
loop_
 _symmetry_equiv_pos_site_id
 _symmetry_equiv_pos_as_xyz
  1  'x, y, z'
loop_
 _atom_site_type_symbol
 _atom_site_label
 _atom_site_symmetry_multiplicity
 _atom_site_fract_x
 _atom_site_fract_y
 _atom_site_fract_z
 _atom_site_occupancy
  Hf  Hf0  1  0.99999931  0.00000099  0.00000039  1
  Hf  Hf1  1  0.50000213  0.50000119  0.49999952  1
  Tc  Tc2  1  0.74999970  0.74999930  0.75000053  1
  Rh  Rh3  1  0.24999986  0.24999952  0.25000056  1
