# generated using pymatgen
data_LaSi2
_symmetry_space_group_name_H-M   'P 1'
_cell_length_a   4.34804398
_cell_length_b   4.34808801
_cell_length_c   7.57272572
_cell_angle_alpha   106.91900174
_cell_angle_beta   106.91920229
_cell_angle_gamma   89.85537076
_symmetry_Int_Tables_number   1
_chemical_formula_structural   LaSi2
_chemical_formula_sum   'La2 Si4'
_cell_volume   130.51307533
_cell_formula_units_Z   2
loop_
 _symmetry_equiv_pos_site_id
 _symmetry_equiv_pos_as_xyz
  1  'x, y, z'
loop_
 _atom_site_type_symbol
 _atom_site_label
 _atom_site_symmetry_multiplicity
 _atom_site_fract_x
 _atom_site_fract_y
 _atom_site_fract_z
 _atom_site_occupancy
  La  La0  1  0.25146472  0.74853828  0.50000042  1
  La  La1  1  0.99852928  0.00147005  0.00000032  1
  Si  Si2  1  0.66495139  0.16523951  0.33048226  1
  Si  Si3  1  0.58498324  0.58468445  0.16952150  1
  Si  Si4  1  0.83475399  0.33504924  0.66951411  1
  Si  Si5  1  0.41531738  0.41501846  0.83048139  1
