# generated using pymatgen
data_ThGeS
_symmetry_space_group_name_H-M   'P 1'
_cell_length_a   3.96862906
_cell_length_b   3.96862906
_cell_length_c   9.03060851
_cell_angle_alpha   102.69329815
_cell_angle_beta   102.69329811
_cell_angle_gamma   89.99999995
_symmetry_Int_Tables_number   1
_chemical_formula_structural   ThGeS
_chemical_formula_sum   'Th2 Ge2 S2'
_cell_volume   135.19064302
_cell_formula_units_Z   2
loop_
 _symmetry_equiv_pos_site_id
 _symmetry_equiv_pos_as_xyz
  1  'x, y, z'
loop_
 _atom_site_type_symbol
 _atom_site_label
 _atom_site_symmetry_multiplicity
 _atom_site_fract_x
 _atom_site_fract_y
 _atom_site_fract_z
 _atom_site_occupancy
  S  S0  1  0.68704812  0.68704812  0.37409623  1
  S  S1  1  0.31295188  0.31295188  0.62590377  1
  Ge  Ge2  1  0.50000000  0.00000000  0.00000000  1
  Ge  Ge3  1  0.00000000  0.50000000  0.00000000  1
  Th  Th4  1  0.85956802  0.85956802  0.71913605  1
  Th  Th5  1  0.14043198  0.14043198  0.28086395  1
