# generated using pymatgen
data_SrMnN2
_symmetry_space_group_name_H-M   'P 1'
_cell_length_a   5.95860752
_cell_length_b   7.57313255
_cell_length_c   5.75197897
_cell_angle_alpha   90.00000000
_cell_angle_beta   114.07121016
_cell_angle_gamma   90.00000000
_symmetry_Int_Tables_number   1
_chemical_formula_structural   SrMnN2
_chemical_formula_sum   'Sr4 Mn4 N8'
_cell_volume   236.98838992
_cell_formula_units_Z   4
loop_
 _symmetry_equiv_pos_site_id
 _symmetry_equiv_pos_as_xyz
  1  'x, y, z'
loop_
 _atom_site_type_symbol
 _atom_site_label
 _atom_site_symmetry_multiplicity
 _atom_site_fract_x
 _atom_site_fract_y
 _atom_site_fract_z
 _atom_site_occupancy
  Sr  Sr0  1  0.31917503  0.92600673  0.67693830  1
  Sr  Sr1  1  0.68082497  0.42600673  0.82306170  1
  Sr  Sr2  1  0.68082497  0.07399327  0.32306170  1
  Sr  Sr3  1  0.31917503  0.57399327  0.17693830  1
  Mn  Mn4  1  0.10171981  0.36575657  0.58367640  1
  Mn  Mn5  1  0.89828019  0.86575657  0.91632360  1
  Mn  Mn6  1  0.89828019  0.63424343  0.41632360  1
  Mn  Mn7  1  0.10171981  0.13424343  0.08367640  1
  N  N8  1  0.23684255  0.91566598  0.08706797  1
  N  N9  1  0.76315745  0.41566598  0.41293203  1
  N  N10  1  0.76315745  0.08433402  0.91293203  1
  N  N11  1  0.23684255  0.58433402  0.58706797  1
  N  N12  1  0.16829002  0.29055514  0.89394309  1
  N  N13  1  0.83170998  0.79055514  0.60605691  1
  N  N14  1  0.83170998  0.70944486  0.10605691  1
  N  N15  1  0.16829002  0.20944486  0.39394309  1
