# generated using pymatgen
data_Mn(GaS2)2
_symmetry_space_group_name_H-M   'P 1'
_cell_length_a   5.45184489
_cell_length_b   5.45184489
_cell_length_c   6.48127755
_cell_angle_alpha   114.87147122
_cell_angle_beta   114.87147122
_cell_angle_gamma   90.00000000
_symmetry_Int_Tables_number   1
_chemical_formula_structural   Mn(GaS2)2
_chemical_formula_sum   'Mn1 Ga2 S4'
_cell_volume   154.85923997
_cell_formula_units_Z   1
loop_
 _symmetry_equiv_pos_site_id
 _symmetry_equiv_pos_as_xyz
  1  'x, y, z'
loop_
 _atom_site_type_symbol
 _atom_site_label
 _atom_site_symmetry_multiplicity
 _atom_site_fract_x
 _atom_site_fract_y
 _atom_site_fract_z
 _atom_site_occupancy
  Mn  Mn0  1  0.50000000  0.50000000  0.00000000  1
  Ga  Ga1  1  -0.00000000  -0.00000000  0.00000000  1
  Ga  Ga2  1  0.25000000  0.75000000  0.50000000  1
  S  S3  1  0.62959729  0.11357863  0.73750191  1
  S  S4  1  0.10790462  0.62392328  0.73750191  1
  S  S5  1  0.88642137  0.89209538  0.26249809  1
  S  S6  1  0.37607672  0.37040271  0.26249809  1
