# generated using pymatgen
data_SrCrN2
_symmetry_space_group_name_H-M   'P 1'
_cell_length_a   6.01589144
_cell_length_b   7.40550820
_cell_length_c   5.90204964
_cell_angle_alpha   90.00000000
_cell_angle_beta   113.24229675
_cell_angle_gamma   90.00000000
_symmetry_Int_Tables_number   1
_chemical_formula_structural   SrCrN2
_chemical_formula_sum   'Sr4 Cr4 N8'
_cell_volume   241.60150110
_cell_formula_units_Z   4
loop_
 _symmetry_equiv_pos_site_id
 _symmetry_equiv_pos_as_xyz
  1  'x, y, z'
loop_
 _atom_site_type_symbol
 _atom_site_label
 _atom_site_symmetry_multiplicity
 _atom_site_fract_x
 _atom_site_fract_y
 _atom_site_fract_z
 _atom_site_occupancy
  Sr  Sr0  1  0.32595359  0.93411844  0.68622884  1
  Sr  Sr1  1  0.67404641  0.43411844  0.81377116  1
  Sr  Sr2  1  0.67404641  0.06588156  0.31377116  1
  Sr  Sr3  1  0.32595359  0.56588156  0.18622884  1
  Cr  Cr4  1  0.11037425  0.36375709  0.57651577  1
  Cr  Cr5  1  0.88962575  0.86375709  0.92348423  1
  Cr  Cr6  1  0.88962575  0.63624291  0.42348423  1
  Cr  Cr7  1  0.11037425  0.13624291  0.07651577  1
  N  N8  1  0.22241686  0.90400823  0.06945977  1
  N  N9  1  0.77758314  0.40400823  0.43054023  1
  N  N10  1  0.77758314  0.09599177  0.93054023  1
  N  N11  1  0.22241686  0.59599177  0.56945977  1
  N  N12  1  0.20164523  0.28132528  0.88522339  1
  N  N13  1  0.79835477  0.78132528  0.61477661  1
  N  N14  1  0.79835477  0.71867472  0.11477661  1
  N  N15  1  0.20164523  0.21867472  0.38522339  1
