# generated using pymatgen
data_NaCrN2
_symmetry_space_group_name_H-M   'P 1'
_cell_length_a   5.11099883
_cell_length_b   5.11099883
_cell_length_c   8.32265863
_cell_angle_alpha   90.00000000
_cell_angle_beta   90.00000000
_cell_angle_gamma   90.00000000
_symmetry_Int_Tables_number   1
_chemical_formula_structural   NaCrN2
_chemical_formula_sum   'Na4 Cr4 N8'
_cell_volume   217.40706077
_cell_formula_units_Z   4
loop_
 _symmetry_equiv_pos_site_id
 _symmetry_equiv_pos_as_xyz
  1  'x, y, z'
loop_
 _atom_site_type_symbol
 _atom_site_label
 _atom_site_symmetry_multiplicity
 _atom_site_fract_x
 _atom_site_fract_y
 _atom_site_fract_z
 _atom_site_occupancy
  Na  Na0  1  0.00000000  0.50000000  0.75000000  1
  Na  Na1  1  0.00000000  0.00000000  0.50000000  1
  Na  Na2  1  0.50000000  0.00000000  0.25000000  1
  Na  Na3  1  0.50000000  0.50000000  0.00000000  1
  Cr  Cr4  1  0.50000000  0.00000000  0.75000000  1
  Cr  Cr5  1  0.50000000  0.50000000  0.50000000  1
  Cr  Cr6  1  0.00000000  0.50000000  0.25000000  1
  Cr  Cr7  1  0.00000000  0.00000000  0.00000000  1
  N  N8  1  0.75000000  0.13337597  0.87500000  1
  N  N9  1  0.25000000  0.86662403  0.87500000  1
  N  N10  1  0.36662403  0.25000000  0.62500000  1
  N  N11  1  0.63337597  0.75000000  0.62500000  1
  N  N12  1  0.25000000  0.63337597  0.37500000  1
  N  N13  1  0.75000000  0.36662403  0.37500000  1
  N  N14  1  0.86662403  0.75000000  0.12500000  1
  N  N15  1  0.13337597  0.25000000  0.12500000  1
