# generated using pymatgen
data_BaBrCl
_symmetry_space_group_name_H-M   'P 1'
_cell_length_a   8.32261055
_cell_length_b   4.89283845
_cell_length_c   9.63777796
_cell_angle_alpha   90.00000000
_cell_angle_beta   90.00000000
_cell_angle_gamma   90.00000000
_symmetry_Int_Tables_number   1
_chemical_formula_structural   BaBrCl
_chemical_formula_sum   'Ba4 Br4 Cl4'
_cell_volume   392.46177692
_cell_formula_units_Z   4
loop_
 _symmetry_equiv_pos_site_id
 _symmetry_equiv_pos_as_xyz
  1  'x, y, z'
loop_
 _atom_site_type_symbol
 _atom_site_label
 _atom_site_symmetry_multiplicity
 _atom_site_fract_x
 _atom_site_fract_y
 _atom_site_fract_z
 _atom_site_occupancy
  Ba  Ba0  1  0.26446593  0.25000000  0.12035769  1
  Ba  Ba1  1  0.73553407  0.75000000  0.87964231  1
  Ba  Ba2  1  0.76446593  0.25000000  0.37964231  1
  Ba  Ba3  1  0.23553407  0.75000000  0.62035769  1
  Br  Br4  1  0.02928730  0.25000000  0.83135409  1
  Br  Br5  1  0.97071270  0.75000000  0.16864591  1
  Br  Br6  1  0.52928730  0.25000000  0.66864591  1
  Br  Br7  1  0.47071270  0.75000000  0.33135409  1
  Cl  Cl8  1  0.14256542  0.25000000  0.43142127  1
  Cl  Cl9  1  0.85743458  0.75000000  0.56857873  1
  Cl  Cl10  1  0.64256542  0.25000000  0.06857873  1
  Cl  Cl11  1  0.35743458  0.75000000  0.93142127  1
