# generated using pymatgen
data_Rb2SnO3
_symmetry_space_group_name_H-M   'P 1'
_cell_length_a   6.65688519
_cell_length_b   6.65688519
_cell_length_c   5.87300330
_cell_angle_alpha   90.00000000
_cell_angle_beta   90.00000000
_cell_angle_gamma   111.08157613
_symmetry_Int_Tables_number   1
_chemical_formula_structural   Rb2SnO3
_chemical_formula_sum   'Rb4 Sn2 O6'
_cell_volume   242.83778028
_cell_formula_units_Z   2
loop_
 _symmetry_equiv_pos_site_id
 _symmetry_equiv_pos_as_xyz
  1  'x, y, z'
loop_
 _atom_site_type_symbol
 _atom_site_label
 _atom_site_symmetry_multiplicity
 _atom_site_fract_x
 _atom_site_fract_y
 _atom_site_fract_z
 _atom_site_occupancy
  Rb  Rb0  1  0.48214417  0.80582392  0.25521631  1
  Rb  Rb1  1  0.19417608  0.51785583  0.75521631  1
  Rb  Rb2  1  0.51785583  0.19417608  0.75521631  1
  Rb  Rb3  1  0.80582392  0.48214417  0.25521631  1
  Sn  Sn4  1  0.91278308  0.91278308  0.73788662  1
  Sn  Sn5  1  0.08721692  0.08721692  0.23788662  1
  O  O6  1  0.13453580  0.88761939  0.49352438  1
  O  O7  1  0.11238061  0.86546420  0.99352438  1
  O  O8  1  0.65409841  0.65409841  0.70463000  1
  O  O9  1  0.34590159  0.34590159  0.20463000  1
  O  O10  1  0.86546420  0.11238061  0.99352438  1
  O  O11  1  0.88761939  0.13453580  0.49352438  1
