# generated using pymatgen
data_Cs4ZnO3
_symmetry_space_group_name_H-M   'P 1'
_cell_length_a   7.27659739
_cell_length_b   19.21464316
_cell_length_c   7.15247549
_cell_angle_alpha   90.00000000
_cell_angle_beta   116.17470750
_cell_angle_gamma   90.00000000
_symmetry_Int_Tables_number   1
_chemical_formula_structural   Cs4ZnO3
_chemical_formula_sum   'Cs16 Zn4 O12'
_cell_volume   897.48840860
_cell_formula_units_Z   4
loop_
 _symmetry_equiv_pos_site_id
 _symmetry_equiv_pos_as_xyz
  1  'x, y, z'
loop_
 _atom_site_type_symbol
 _atom_site_label
 _atom_site_symmetry_multiplicity
 _atom_site_fract_x
 _atom_site_fract_y
 _atom_site_fract_z
 _atom_site_occupancy
  Cs  Cs0  1  0.14972238  0.92406685  0.65017207  1
  Cs  Cs1  1  0.85027762  0.42406685  0.84982793  1
  Cs  Cs2  1  0.85027762  0.07593315  0.34982793  1
  Cs  Cs3  1  0.14972238  0.57593315  0.15017207  1
  Cs  Cs4  1  0.21667901  0.30655250  0.67458983  1
  Cs  Cs5  1  0.78332099  0.80655250  0.82541017  1
  Cs  Cs6  1  0.78332099  0.69344750  0.32541017  1
  Cs  Cs7  1  0.21667901  0.19344750  0.17458983  1
  Cs  Cs8  1  0.29009311  0.49941353  0.70878239  1
  Cs  Cs9  1  0.70990689  0.99941353  0.79121761  1
  Cs  Cs10  1  0.70990689  0.50058647  0.29121761  1
  Cs  Cs11  1  0.29009311  0.00058647  0.20878239  1
  Cs  Cs12  1  0.66671445  0.19360394  0.71706558  1
  Cs  Cs13  1  0.33328555  0.69360394  0.78293442  1
  Cs  Cs14  1  0.33328555  0.80639606  0.28293442  1
  Cs  Cs15  1  0.66671445  0.30639606  0.21706558  1
  Zn  Zn16  1  0.28635522  0.11697437  0.78780493  1
  Zn  Zn17  1  0.71364478  0.61697437  0.71219507  1
  Zn  Zn18  1  0.71364478  0.88302563  0.21219507  1
  Zn  Zn19  1  0.28635522  0.38302563  0.28780493  1
  O  O20  1  0.03951212  0.09259160  0.81103678  1
  O  O21  1  0.96048788  0.59259160  0.68896322  1
  O  O22  1  0.96048788  0.90740840  0.18896322  1
  O  O23  1  0.03951212  0.40740840  0.31103678  1
  O  O24  1  0.30970269  0.09802341  0.53327270  1
  O  O25  1  0.69029731  0.59802341  0.96672730  1
  O  O26  1  0.69029731  0.90197659  0.46672730  1
  O  O27  1  0.30970269  0.40197659  0.03327270  1
  O  O28  1  0.50584144  0.33467207  0.51550044  1
  O  O29  1  0.49415856  0.83467207  0.98449956  1
  O  O30  1  0.49415856  0.66532793  0.48449956  1
  O  O31  1  0.50584144  0.16532793  0.01550044  1
