# generated using pymatgen
data_LiErGe
_symmetry_space_group_name_H-M   'P 1'
_cell_length_a   7.01030161
_cell_length_b   7.01030161
_cell_length_c   4.23013145
_cell_angle_alpha   90.00000000
_cell_angle_beta   90.00000000
_cell_angle_gamma   120.00000005
_symmetry_Int_Tables_number   1
_chemical_formula_structural   LiErGe
_chemical_formula_sum   'Li3 Er3 Ge3'
_cell_volume   180.03539729
_cell_formula_units_Z   3
loop_
 _symmetry_equiv_pos_site_id
 _symmetry_equiv_pos_as_xyz
  1  'x, y, z'
loop_
 _atom_site_type_symbol
 _atom_site_label
 _atom_site_symmetry_multiplicity
 _atom_site_fract_x
 _atom_site_fract_y
 _atom_site_fract_z
 _atom_site_occupancy
  Li  Li0  1  0.23340204  0.00000000  0.50000000  1
  Li  Li1  1  0.76659796  0.76659796  0.50000000  1
  Li  Li2  1  0.00000000  0.23340204  0.50000000  1
  Ge  Ge3  1  0.33333333  0.66666667  0.50000000  1
  Ge  Ge4  1  0.66666667  0.33333333  0.50000000  1
  Ge  Ge5  1  0.00000000  0.00000000  0.00000000  1
  Er  Er6  1  0.00000000  0.57542042  0.00000000  1
  Er  Er7  1  0.57542042  0.00000000  0.00000000  1
  Er  Er8  1  0.42457958  0.42457958  0.00000000  1
