# generated using pymatgen
data_CaNiGe2
_symmetry_space_group_name_H-M   'P 1'
_cell_length_a   4.07920548
_cell_length_b   4.23144454
_cell_length_c   8.92398291
_cell_angle_alpha   103.71442479
_cell_angle_beta   90.00000000
_cell_angle_gamma   90.00000000
_symmetry_Int_Tables_number   1
_chemical_formula_structural   CaNiGe2
_chemical_formula_sum   'Ca2 Ni2 Ge4'
_cell_volume   149.64460339
_cell_formula_units_Z   2
loop_
 _symmetry_equiv_pos_site_id
 _symmetry_equiv_pos_as_xyz
  1  'x, y, z'
loop_
 _atom_site_type_symbol
 _atom_site_label
 _atom_site_symmetry_multiplicity
 _atom_site_fract_x
 _atom_site_fract_y
 _atom_site_fract_z
 _atom_site_occupancy
  Ca  Ca0  1  0.25000000  0.89134838  0.78269675  1
  Ca  Ca1  1  0.75000000  0.10865162  0.21730325  1
  Ni  Ni2  1  0.75000000  0.32215812  0.64431624  1
  Ni  Ni3  1  0.25000000  0.67784188  0.35568376  1
  Ge  Ge4  1  0.75000000  0.75039863  0.50079725  1
  Ge  Ge5  1  0.25000000  0.24960137  0.49920275  1
  Ge  Ge6  1  0.25000000  0.54298419  0.08596838  1
  Ge  Ge7  1  0.75000000  0.45701581  0.91403162  1
