# generated using pymatgen
data_SrNiGe2
_symmetry_space_group_name_H-M   'P 1'
_cell_length_a   4.20605575
_cell_length_b   4.43483123
_cell_length_c   8.95593345
_cell_angle_alpha   104.33505247
_cell_angle_beta   90.00000000
_cell_angle_gamma   90.00000000
_symmetry_Int_Tables_number   1
_chemical_formula_structural   SrNiGe2
_chemical_formula_sum   'Sr2 Ni2 Ge4'
_cell_volume   161.85495371
_cell_formula_units_Z   2
loop_
 _symmetry_equiv_pos_site_id
 _symmetry_equiv_pos_as_xyz
  1  'x, y, z'
loop_
 _atom_site_type_symbol
 _atom_site_label
 _atom_site_symmetry_multiplicity
 _atom_site_fract_x
 _atom_site_fract_y
 _atom_site_fract_z
 _atom_site_occupancy
  Ni  Ni0  1  0.75000000  0.31868392  0.63736785  1
  Ni  Ni1  1  0.25000000  0.68131608  0.36263215  1
  Ge  Ge2  1  0.75000000  0.45638293  0.91276585  1
  Ge  Ge3  1  0.25000000  0.54361707  0.08723415  1
  Ge  Ge4  1  0.75000000  0.74959943  0.49919885  1
  Ge  Ge5  1  0.25000000  0.25040057  0.50080115  1
  Sr  Sr6  1  0.75000000  0.10789811  0.21579622  1
  Sr  Sr7  1  0.25000000  0.89210189  0.78420378  1
