# generated using pymatgen
data_Sr3(AlP2)2
_symmetry_space_group_name_H-M   'P 1'
_cell_length_a   6.70630848
_cell_length_b   8.35790928
_cell_length_c   8.35790929
_cell_angle_alpha   75.36043388
_cell_angle_beta   89.09788925
_cell_angle_gamma   89.09788929
_symmetry_Int_Tables_number   1
_chemical_formula_structural   Sr3(AlP2)2
_chemical_formula_sum   'Sr6 Al4 P8'
_cell_volume   453.16828504
_cell_formula_units_Z   2
loop_
 _symmetry_equiv_pos_site_id
 _symmetry_equiv_pos_as_xyz
  1  'x, y, z'
loop_
 _atom_site_type_symbol
 _atom_site_label
 _atom_site_symmetry_multiplicity
 _atom_site_fract_x
 _atom_site_fract_y
 _atom_site_fract_z
 _atom_site_occupancy
  Al  Al0  1  0.41968378  0.41800372  0.17159617  1
  Al  Al1  1  0.08031622  0.82840383  0.58199628  1
  Al  Al2  1  0.58031622  0.58199628  0.82840383  1
  Al  Al3  1  0.91968378  0.17159617  0.41800372  1
  P  P4  1  0.47629334  0.29554371  0.94050163  1
  P  P5  1  0.02370666  0.05949837  0.70445629  1
  P  P6  1  0.92165396  0.58135283  0.74006362  1
  P  P7  1  0.57834604  0.25993638  0.41864717  1
  P  P8  1  0.07834604  0.41864717  0.25993638  1
  P  P9  1  0.42165396  0.74006362  0.58135283  1
  P  P10  1  0.97629334  0.94050163  0.29554371  1
  P  P11  1  0.52370666  0.70445629  0.05949837  1
  Sr  Sr12  1  0.54420047  0.00743973  0.74665113  1
  Sr  Sr13  1  0.95579953  0.25334887  0.99256027  1
  Sr  Sr14  1  0.45579953  0.99256027  0.25334887  1
  Sr  Sr15  1  0.04420047  0.74665113  0.00743973  1
  Sr  Sr16  1  0.25000000  0.40196631  0.59803369  1
  Sr  Sr17  1  0.75000000  0.59803369  0.40196631  1
