# generated using pymatgen
data_Mg(ScGa)2
_symmetry_space_group_name_H-M   'P 1'
_cell_length_a   3.95421031
_cell_length_b   7.15028737
_cell_length_c   7.15028737
_cell_angle_alpha   90.00000000
_cell_angle_beta   90.00000000
_cell_angle_gamma   90.00000000
_symmetry_Int_Tables_number   1
_chemical_formula_structural   Mg(ScGa)2
_chemical_formula_sum   'Mg2 Sc4 Ga4'
_cell_volume   202.16536630
_cell_formula_units_Z   2
loop_
 _symmetry_equiv_pos_site_id
 _symmetry_equiv_pos_as_xyz
  1  'x, y, z'
loop_
 _atom_site_type_symbol
 _atom_site_label
 _atom_site_symmetry_multiplicity
 _atom_site_fract_x
 _atom_site_fract_y
 _atom_site_fract_z
 _atom_site_occupancy
  Mg  Mg0  1  0.00000000  0.50000000  0.50000000  1
  Mg  Mg1  1  0.00000000  0.00000000  0.00000000  1
  Sc  Sc2  1  0.50000000  0.32833591  0.17166409  1
  Sc  Sc3  1  0.50000000  0.82833591  0.32833591  1
  Sc  Sc4  1  0.50000000  0.67166409  0.82833591  1
  Sc  Sc5  1  0.50000000  0.17166409  0.67166409  1
  Ga  Ga6  1  0.00000000  0.87373788  0.62626212  1
  Ga  Ga7  1  0.00000000  0.62626212  0.12626212  1
  Ga  Ga8  1  0.00000000  0.37373788  0.87373788  1
  Ga  Ga9  1  0.00000000  0.12626212  0.37373788  1
