# generated using pymatgen
data_Ca3SiO
_symmetry_space_group_name_H-M   'P 1'
_cell_length_a   6.67787280
_cell_length_b   6.69644052
_cell_length_c   9.45696319
_cell_angle_alpha   90.00000000
_cell_angle_beta   90.00000000
_cell_angle_gamma   90.00000000
_symmetry_Int_Tables_number   1
_chemical_formula_structural   Ca3SiO
_chemical_formula_sum   'Ca12 Si4 O4'
_cell_volume   422.89627193
_cell_formula_units_Z   4
loop_
 _symmetry_equiv_pos_site_id
 _symmetry_equiv_pos_as_xyz
  1  'x, y, z'
loop_
 _atom_site_type_symbol
 _atom_site_label
 _atom_site_symmetry_multiplicity
 _atom_site_fract_x
 _atom_site_fract_y
 _atom_site_fract_z
 _atom_site_occupancy
  O  O0  1  0.00000000  0.50000000  0.50000000  1
  O  O1  1  0.50000000  0.00000000  0.00000000  1
  O  O2  1  0.50000000  0.00000000  0.50000000  1
  O  O3  1  0.00000000  0.50000000  0.00000000  1
  Si  Si4  1  0.99060133  0.99862605  0.25000000  1
  Si  Si5  1  0.49060133  0.50137395  0.25000000  1
  Si  Si6  1  0.50939867  0.49862605  0.75000000  1
  Si  Si7  1  0.00939867  0.00137395  0.75000000  1
  Ca  Ca8  1  0.23045981  0.76958241  0.02061712  1
  Ca  Ca9  1  0.73045981  0.73041759  0.47938288  1
  Ca  Ca10  1  0.26954019  0.26958241  0.97938288  1
  Ca  Ca11  1  0.76954019  0.23041759  0.52061712  1
  Ca  Ca12  1  0.23045981  0.76958241  0.47938288  1
  Ca  Ca13  1  0.73045981  0.73041759  0.02061712  1
  Ca  Ca14  1  0.26954019  0.26958241  0.52061712  1
  Ca  Ca15  1  0.76954019  0.23041759  0.97938288  1
  Ca  Ca16  1  0.50290845  0.04040895  0.25000000  1
  Ca  Ca17  1  0.00290845  0.45959105  0.25000000  1
  Ca  Ca18  1  0.99709155  0.54040895  0.75000000  1
  Ca  Ca19  1  0.49709155  0.95959105  0.75000000  1
