# generated using pymatgen
data_IrSe2
_symmetry_space_group_name_H-M   'P 1'
_cell_length_a   3.80690296
_cell_length_b   6.02149780
_cell_length_c   21.26268445
_cell_angle_alpha   90.00000000
_cell_angle_beta   90.00000000
_cell_angle_gamma   90.00000000
_symmetry_Int_Tables_number   1
_chemical_formula_structural   IrSe2
_chemical_formula_sum   'Ir8 Se16'
_cell_volume   487.40999713
_cell_formula_units_Z   8
loop_
 _symmetry_equiv_pos_site_id
 _symmetry_equiv_pos_as_xyz
  1  'x, y, z'
loop_
 _atom_site_type_symbol
 _atom_site_label
 _atom_site_symmetry_multiplicity
 _atom_site_fract_x
 _atom_site_fract_y
 _atom_site_fract_z
 _atom_site_occupancy
  Se  Se0  1  0.25000000  0.57253523  0.86158238  1
  Se  Se1  1  0.75000000  0.42746477  0.13841762  1
  Se  Se2  1  0.75000000  0.07253523  0.63841762  1
  Se  Se3  1  0.25000000  0.92746477  0.36158238  1
  Se  Se4  1  0.25000000  0.18273843  0.26130962  1
  Se  Se5  1  0.75000000  0.81726157  0.73869038  1
  Se  Se6  1  0.75000000  0.68273843  0.23869038  1
  Se  Se7  1  0.25000000  0.31726157  0.76130962  1
  Se  Se8  1  0.25000000  0.27732399  0.99079179  1
  Se  Se9  1  0.75000000  0.72267601  0.00920821  1
  Se  Se10  1  0.75000000  0.77732399  0.50920821  1
  Se  Se11  1  0.25000000  0.22267601  0.49079179  1
  Se  Se12  1  0.25000000  0.95193490  0.12200107  1
  Se  Se13  1  0.75000000  0.04806510  0.87799893  1
  Se  Se14  1  0.75000000  0.45193490  0.37799893  1
  Se  Se15  1  0.25000000  0.54806510  0.62200107  1
  Ir  Ir16  1  0.25000000  0.94138166  0.80500546  1
  Ir  Ir17  1  0.75000000  0.05861834  0.19499454  1
  Ir  Ir18  1  0.75000000  0.44138166  0.69499454  1
  Ir  Ir19  1  0.25000000  0.55861834  0.30500546  1
  Ir  Ir20  1  0.25000000  0.93044422  0.57656104  1
  Ir  Ir21  1  0.75000000  0.06955578  0.42343896  1
  Ir  Ir22  1  0.75000000  0.43044422  0.92343896  1
  Ir  Ir23  1  0.25000000  0.56955578  0.07656104  1
