# generated using pymatgen
data_Dy2CdS4
_symmetry_space_group_name_H-M   'P 1'
_cell_length_a   7.99214806
_cell_length_b   7.99214806
_cell_length_c   7.99214805
_cell_angle_alpha   59.99999999
_cell_angle_beta   60.00000000
_cell_angle_gamma   59.99999996
_symmetry_Int_Tables_number   1
_chemical_formula_structural   Dy2CdS4
_chemical_formula_sum   'Dy4 Cd2 S8'
_cell_volume   360.97370240
_cell_formula_units_Z   2
loop_
 _symmetry_equiv_pos_site_id
 _symmetry_equiv_pos_as_xyz
  1  'x, y, z'
loop_
 _atom_site_type_symbol
 _atom_site_label
 _atom_site_symmetry_multiplicity
 _atom_site_fract_x
 _atom_site_fract_y
 _atom_site_fract_z
 _atom_site_occupancy
  S  S0  1  0.74257590  0.74257590  0.74257590  1
  S  S1  1  0.25742410  0.25742410  0.72772770  1
  S  S2  1  0.25742410  0.72772770  0.25742410  1
  S  S3  1  0.72772770  0.25742410  0.25742410  1
  S  S4  1  0.74257590  0.27227230  0.74257590  1
  S  S5  1  0.27227230  0.74257590  0.74257590  1
  S  S6  1  0.25742410  0.25742410  0.25742410  1
  S  S7  1  0.74257590  0.74257590  0.27227230  1
  Cd  Cd8  1  0.87500000  0.87500000  0.87500000  1
  Cd  Cd9  1  0.12500000  0.12500000  0.12500000  1
  Dy  Dy10  1  0.50000000  0.50000000  0.00000000  1
  Dy  Dy11  1  0.50000000  0.50000000  0.50000000  1
  Dy  Dy12  1  0.00000000  0.50000000  0.50000000  1
  Dy  Dy13  1  0.50000000  0.00000000  0.50000000  1
