# generated using pymatgen
data_PdF3
_symmetry_space_group_name_H-M   'P 1'
_cell_length_a   5.61752274
_cell_length_b   5.61752274
_cell_length_c   5.61752274
_cell_angle_alpha   54.95624922
_cell_angle_beta   54.95624918
_cell_angle_gamma   54.95624925
_symmetry_Int_Tables_number   1
_chemical_formula_structural   PdF3
_chemical_formula_sum   'Pd2 F6'
_cell_volume   110.63595756
_cell_formula_units_Z   2
loop_
 _symmetry_equiv_pos_site_id
 _symmetry_equiv_pos_as_xyz
  1  'x, y, z'
loop_
 _atom_site_type_symbol
 _atom_site_label
 _atom_site_symmetry_multiplicity
 _atom_site_fract_x
 _atom_site_fract_y
 _atom_site_fract_z
 _atom_site_occupancy
  F  F0  1  0.75000000  0.10798346  0.39201654  1
  F  F1  1  0.10798346  0.39201654  0.75000000  1
  F  F2  1  0.60798346  0.25000000  0.89201654  1
  F  F3  1  0.89201654  0.60798346  0.25000000  1
  F  F4  1  0.25000000  0.89201654  0.60798346  1
  F  F5  1  0.39201654  0.75000000  0.10798346  1
  Pd  Pd6  1  0.50000000  0.50000000  0.50000000  1
  Pd  Pd7  1  0.00000000  0.00000000  0.00000000  1
