# generated using pymatgen
data_Sr(BIr)2
_symmetry_space_group_name_H-M   'P 1'
_cell_length_a   5.63253869
_cell_length_b   5.63253869
_cell_length_c   6.19785646
_cell_angle_alpha   105.47051103
_cell_angle_beta   105.47051106
_cell_angle_gamma   114.39162327
_symmetry_Int_Tables_number   1
_chemical_formula_structural   Sr(BIr)2
_chemical_formula_sum   'Sr2 B4 Ir4'
_cell_volume   155.87004954
_cell_formula_units_Z   2
loop_
 _symmetry_equiv_pos_site_id
 _symmetry_equiv_pos_as_xyz
  1  'x, y, z'
loop_
 _atom_site_type_symbol
 _atom_site_label
 _atom_site_symmetry_multiplicity
 _atom_site_fract_x
 _atom_site_fract_y
 _atom_site_fract_z
 _atom_site_occupancy
  B  B0  1  0.54898266  0.45101734  0.25000000  1
  B  B1  1  0.79898266  0.20101734  0.75000000  1
  B  B2  1  0.20101734  0.79898266  0.25000000  1
  B  B3  1  0.45101734  0.54898266  0.75000000  1
  Sr  Sr4  1  0.87500000  0.12500000  0.25000000  1
  Sr  Sr5  1  0.12500000  0.87500000  0.75000000  1
  Ir  Ir6  1  0.50585289  0.75585289  0.51170578  1
  Ir  Ir7  1  0.75585289  0.50585289  0.01170578  1
  Ir  Ir8  1  0.49414711  0.24414711  0.48829422  1
  Ir  Ir9  1  0.24414711  0.49414711  0.98829422  1
