# generated using pymatgen
data_Lu7(NiTe)2
_symmetry_space_group_name_H-M   'P 1'
_cell_length_a   3.79262516
_cell_length_b   9.14560196
_cell_length_c   9.14560196
_cell_angle_alpha   61.94577705
_cell_angle_beta   78.03307872
_cell_angle_gamma   78.03307870
_symmetry_Int_Tables_number   1
_chemical_formula_structural   Lu7(NiTe)2
_chemical_formula_sum   'Lu7 Ni2 Te2'
_cell_volume   271.64087747
_cell_formula_units_Z   1
loop_
 _symmetry_equiv_pos_site_id
 _symmetry_equiv_pos_as_xyz
  1  'x, y, z'
loop_
 _atom_site_type_symbol
 _atom_site_label
 _atom_site_symmetry_multiplicity
 _atom_site_fract_x
 _atom_site_fract_y
 _atom_site_fract_z
 _atom_site_occupancy
  Ni  Ni0  1  0.76362493  0.30704686  0.16570327  1
  Ni  Ni1  1  0.23637507  0.83429673  0.69295314  1
  Te  Te2  1  0.00000000  0.33933341  0.66066659  1
  Te  Te3  1  0.50000000  0.73381970  0.26618030  1
  Lu  Lu4  1  0.31454743  0.06253928  0.30836585  1
  Lu  Lu5  1  0.68545257  0.69163415  0.93746072  1
  Lu  Lu6  1  0.00000000  0.00063957  0.99936043  1
  Lu  Lu7  1  0.86489194  0.71718972  0.55302640  1
  Lu  Lu8  1  0.13510806  0.44697360  0.28281028  1
  Lu  Lu9  1  0.64646687  0.08089662  0.62616964  1
  Lu  Lu10  1  0.35353313  0.37383036  0.91910338  1
