# generated using pymatgen
data_LaCuSe2
_symmetry_space_group_name_H-M   'P 1'
_cell_length_a   6.84824073
_cell_length_b   7.26759114
_cell_length_c   7.61052302
_cell_angle_alpha   90.00000000
_cell_angle_beta   90.00000000
_cell_angle_gamma   97.07344733
_symmetry_Int_Tables_number   1
_chemical_formula_structural   LaCuSe2
_chemical_formula_sum   'La4 Cu4 Se8'
_cell_volume   375.89452476
_cell_formula_units_Z   4
loop_
 _symmetry_equiv_pos_site_id
 _symmetry_equiv_pos_as_xyz
  1  'x, y, z'
loop_
 _atom_site_type_symbol
 _atom_site_label
 _atom_site_symmetry_multiplicity
 _atom_site_fract_x
 _atom_site_fract_y
 _atom_site_fract_z
 _atom_site_occupancy
  Cu  Cu0  1  0.06714826  0.54493519  0.83887253  1
  Cu  Cu1  1  0.93285174  0.45506481  0.16112747  1
  Cu  Cu2  1  0.06714826  0.04493519  0.66112747  1
  Cu  Cu3  1  0.93285174  0.95506481  0.33887253  1
  Se  Se4  1  0.41160444  0.00108149  0.72555448  1
  Se  Se5  1  0.41160444  0.50108149  0.77444552  1
  Se  Se6  1  0.58839556  0.49891851  0.22555448  1
  Se  Se7  1  0.58839556  0.99891851  0.27444552  1
  Se  Se8  1  0.90569319  0.72127607  0.61293236  1
  Se  Se9  1  0.09430681  0.77872393  0.11293236  1
  Se  Se10  1  0.09430681  0.27872393  0.38706764  1
  Se  Se11  1  0.90569319  0.22127607  0.88706764  1
  La  La12  1  0.69160518  0.29864652  0.54912583  1
  La  La13  1  0.30839482  0.20135348  0.04912583  1
  La  La14  1  0.30839482  0.70135348  0.45087417  1
  La  La15  1  0.69160518  0.79864652  0.95087417  1
