# generated using pymatgen
data_TlCu3S2
_symmetry_space_group_name_H-M   'P 1'
_cell_length_a   3.84397527
_cell_length_b   7.51449060
_cell_length_c   8.42791721
_cell_angle_alpha   110.73764432
_cell_angle_beta   90.00000000
_cell_angle_gamma   104.81926629
_symmetry_Int_Tables_number   1
_chemical_formula_structural   TlCu3S2
_chemical_formula_sum   'Tl2 Cu6 S4'
_cell_volume   218.99230902
_cell_formula_units_Z   2
loop_
 _symmetry_equiv_pos_site_id
 _symmetry_equiv_pos_as_xyz
  1  'x, y, z'
loop_
 _atom_site_type_symbol
 _atom_site_label
 _atom_site_symmetry_multiplicity
 _atom_site_fract_x
 _atom_site_fract_y
 _atom_site_fract_z
 _atom_site_occupancy
  S  S0  1  0.47675622  0.95351243  0.76893480  1
  S  S1  1  0.52324378  0.04648757  0.23106520  1
  S  S2  1  0.81347760  0.62695520  0.32835581  1
  S  S3  1  0.18652240  0.37304480  0.67164419  1
  Cu  Cu4  1  0.41041799  0.82083597  0.36131709  1
  Cu  Cu5  1  0.31294559  0.62589119  0.58162918  1
  Cu  Cu6  1  0.05888587  0.11777173  0.40297441  1
  Cu  Cu7  1  0.94111413  0.88222827  0.59702559  1
  Cu  Cu8  1  0.68705441  0.37410881  0.41837082  1
  Cu  Cu9  1  0.58958201  0.17916403  0.63868291  1
  Tl  Tl10  1  0.85986359  0.71972719  0.94822922  1
  Tl  Tl11  1  0.14013641  0.28027281  0.05177078  1
