# generated using pymatgen
data_BaNa2
_symmetry_space_group_name_H-M   'P 1'
_cell_length_a   7.31183939
_cell_length_b   7.31183939
_cell_length_c   11.85739474
_cell_angle_alpha   90.00000000
_cell_angle_beta   90.00000000
_cell_angle_gamma   120.00000003
_symmetry_Int_Tables_number   1
_chemical_formula_structural   BaNa2
_chemical_formula_sum   'Ba4 Na8'
_cell_volume   549.00107669
_cell_formula_units_Z   4
loop_
 _symmetry_equiv_pos_site_id
 _symmetry_equiv_pos_as_xyz
  1  'x, y, z'
loop_
 _atom_site_type_symbol
 _atom_site_label
 _atom_site_symmetry_multiplicity
 _atom_site_fract_x
 _atom_site_fract_y
 _atom_site_fract_z
 _atom_site_occupancy
  Na  Na0  1  0.16908341  0.33816683  0.75000000  1
  Na  Na1  1  0.83091659  0.16908341  0.25000000  1
  Na  Na2  1  0.33816683  0.16908341  0.25000000  1
  Na  Na3  1  0.66183317  0.83091659  0.75000000  1
  Na  Na4  1  0.00000000  0.00000000  0.00000000  1
  Na  Na5  1  0.00000000  0.00000000  0.50000000  1
  Na  Na6  1  0.83091659  0.66183317  0.25000000  1
  Na  Na7  1  0.16908341  0.83091659  0.75000000  1
  Ba  Ba8  1  0.33333333  0.66666667  0.43862850  1
  Ba  Ba9  1  0.66666667  0.33333333  0.93862850  1
  Ba  Ba10  1  0.66666667  0.33333333  0.56137150  1
  Ba  Ba11  1  0.33333333  0.66666667  0.06137150  1
