# generated using pymatgen
data_Sr(CuO)2
_symmetry_space_group_name_H-M   'P 1'
_cell_length_a   5.52254234
_cell_length_b   5.52254233
_cell_length_c   6.28748990
_cell_angle_alpha   116.05087736
_cell_angle_beta   116.05087732
_cell_angle_gamma   89.99999997
_symmetry_Int_Tables_number   1
_chemical_formula_structural   Sr(CuO)2
_chemical_formula_sum   'Sr2 Cu4 O4'
_cell_volume   150.29062529
_cell_formula_units_Z   2
loop_
 _symmetry_equiv_pos_site_id
 _symmetry_equiv_pos_as_xyz
  1  'x, y, z'
loop_
 _atom_site_type_symbol
 _atom_site_label
 _atom_site_symmetry_multiplicity
 _atom_site_fract_x
 _atom_site_fract_y
 _atom_site_fract_z
 _atom_site_occupancy
  O  O0  1  0.12558635  0.37558635  0.25117270  1
  O  O1  1  0.37558635  0.12558635  0.75117270  1
  O  O2  1  0.87441365  0.62441365  0.74882730  1
  O  O3  1  0.62441365  0.87441365  0.24882730  1
  Cu  Cu4  1  0.50000000  0.00000000  0.50000000  1
  Cu  Cu5  1  0.00000000  0.00000000  0.00000000  1
  Cu  Cu6  1  0.00000000  0.00000000  0.50000000  1
  Cu  Cu7  1  0.00000000  0.50000000  0.00000000  1
  Sr  Sr8  1  0.62500000  0.37500000  0.25000000  1
  Sr  Sr9  1  0.37500000  0.62500000  0.75000000  1
