# generated using pymatgen
data_Zn(ReO4)2
_symmetry_space_group_name_H-M   'P 1'
_cell_length_a   5.81148609
_cell_length_b   5.81148608
_cell_length_c   6.72350635
_cell_angle_alpha   90.00000000
_cell_angle_beta   90.00000000
_cell_angle_gamma   119.99999995
_symmetry_Int_Tables_number   1
_chemical_formula_structural   Zn(ReO4)2
_chemical_formula_sum   'Zn1 Re2 O8'
_cell_volume   196.65312681
_cell_formula_units_Z   1
loop_
 _symmetry_equiv_pos_site_id
 _symmetry_equiv_pos_as_xyz
  1  'x, y, z'
loop_
 _atom_site_type_symbol
 _atom_site_label
 _atom_site_symmetry_multiplicity
 _atom_site_fract_x
 _atom_site_fract_y
 _atom_site_fract_z
 _atom_site_occupancy
  O  O0  1  0.66666667  0.33333333  0.47572821  1
  O  O1  1  0.33333333  0.66666667  0.52427179  1
  O  O2  1  0.81573055  0.15336421  0.82014677  1
  O  O3  1  0.15336421  0.33763366  0.17985323  1
  O  O4  1  0.66236634  0.81573055  0.17985323  1
  O  O5  1  0.18426945  0.84663579  0.17985323  1
  O  O6  1  0.84663579  0.66236634  0.82014677  1
  O  O7  1  0.33763366  0.18426945  0.82014677  1
  Zn  Zn8  1  0.00000000  0.00000000  0.00000000  1
  Re  Re9  1  0.33333333  0.66666667  0.26649634  1
  Re  Re10  1  0.66666667  0.33333333  0.73350366  1
