# generated using pymatgen
data_Nb5(CuSi)4
_symmetry_space_group_name_H-M   'P 1'
_cell_length_a   3.61273548
_cell_length_b   7.46630238
_cell_length_c   7.46630238
_cell_angle_alpha   86.64438502
_cell_angle_beta   75.99916394
_cell_angle_gamma   75.99916390
_symmetry_Int_Tables_number   1
_chemical_formula_structural   Nb5(CuSi)4
_chemical_formula_sum   'Nb5 Si4 Cu4'
_cell_volume   189.60613704
_cell_formula_units_Z   1
loop_
 _symmetry_equiv_pos_site_id
 _symmetry_equiv_pos_as_xyz
  1  'x, y, z'
loop_
 _atom_site_type_symbol
 _atom_site_label
 _atom_site_symmetry_multiplicity
 _atom_site_fract_x
 _atom_site_fract_y
 _atom_site_fract_z
 _atom_site_occupancy
  Si  Si0  1  0.55914913  0.19347723  0.68822452  1
  Si  Si1  1  0.24737365  0.31177548  0.19347723  1
  Si  Si2  1  0.75262635  0.68822452  0.80652277  1
  Si  Si3  1  0.44085087  0.80652277  0.31177548  1
  Cu  Cu4  1  0.91792928  0.68575351  0.47838792  1
  Cu  Cu5  1  0.08207072  0.31424649  0.52161208  1
  Cu  Cu6  1  0.60368280  0.47838792  0.31424649  1
  Cu  Cu7  1  0.39631720  0.52161208  0.68575351  1
  Nb  Nb8  1  0.50000000  0.00000000  0.00000000  1
  Nb  Nb9  1  0.80415100  0.06667911  0.32501889  1
  Nb  Nb10  1  0.12916989  0.67498111  0.06667911  1
  Nb  Nb11  1  0.87083011  0.32501889  0.93332089  1
  Nb  Nb12  1  0.19584900  0.93332089  0.67498111  1
