# generated using pymatgen
data_BaGeF6
_symmetry_space_group_name_H-M   'P 1'
_cell_length_a   4.94815544
_cell_length_b   4.94815544
_cell_length_c   4.94815544
_cell_angle_alpha   98.24469906
_cell_angle_beta   98.24469913
_cell_angle_gamma   98.24469903
_symmetry_Int_Tables_number   1
_chemical_formula_structural   BaGeF6
_chemical_formula_sum   'Ba1 Ge1 F6'
_cell_volume   116.98592524
_cell_formula_units_Z   1
loop_
 _symmetry_equiv_pos_site_id
 _symmetry_equiv_pos_as_xyz
  1  'x, y, z'
loop_
 _atom_site_type_symbol
 _atom_site_label
 _atom_site_symmetry_multiplicity
 _atom_site_fract_x
 _atom_site_fract_y
 _atom_site_fract_z
 _atom_site_occupancy
  F  F0  1  0.26499957  0.26499957  0.92522835  1
  F  F1  1  0.26499957  0.92522835  0.26499957  1
  F  F2  1  0.73500043  0.07477165  0.73500043  1
  F  F3  1  0.73500043  0.73500043  0.07477165  1
  F  F4  1  0.07477165  0.73500043  0.73500043  1
  F  F5  1  0.92522835  0.26499957  0.26499957  1
  Ge  Ge6  1  0.00000000  0.00000000  0.00000000  1
  Ba  Ba7  1  0.50000000  0.50000000  0.50000000  1
