# generated using pymatgen
data_TmAl2Ni
_symmetry_space_group_name_H-M   'P 1'
_cell_length_a   4.04670543
_cell_length_b   5.38585688
_cell_length_c   6.85429098
_cell_angle_alpha   90.00000000
_cell_angle_beta   90.00000000
_cell_angle_gamma   112.06627845
_symmetry_Int_Tables_number   1
_chemical_formula_structural   TmAl2Ni
_chemical_formula_sum   'Tm2 Al4 Ni2'
_cell_volume   138.44634172
_cell_formula_units_Z   2
loop_
 _symmetry_equiv_pos_site_id
 _symmetry_equiv_pos_as_xyz
  1  'x, y, z'
loop_
 _atom_site_type_symbol
 _atom_site_label
 _atom_site_symmetry_multiplicity
 _atom_site_fract_x
 _atom_site_fract_y
 _atom_site_fract_z
 _atom_site_occupancy
  Al  Al0  1  0.34696633  0.69393267  0.55361787  1
  Al  Al1  1  0.65303367  0.30606733  0.44638213  1
  Al  Al2  1  0.34696633  0.69393267  0.94638213  1
  Al  Al3  1  0.65303367  0.30606733  0.05361787  1
  Ni  Ni4  1  0.21495539  0.42991078  0.25000000  1
  Ni  Ni5  1  0.78504461  0.57008922  0.75000000  1
  Tm  Tm6  1  0.06312364  0.12624727  0.75000000  1
  Tm  Tm7  1  0.93687636  0.87375273  0.25000000  1
