# generated using pymatgen
data_Er2Al3Si2
_symmetry_space_group_name_H-M   'P 1'
_cell_length_a   4.02423015
_cell_length_b   5.43431304
_cell_length_c   6.58750133
_cell_angle_alpha   99.91457547
_cell_angle_beta   90.00000000
_cell_angle_gamma   111.73172484
_symmetry_Int_Tables_number   1
_chemical_formula_structural   Er2Al3Si2
_chemical_formula_sum   'Er2 Al3 Si2'
_cell_volume   131.50390819
_cell_formula_units_Z   1
loop_
 _symmetry_equiv_pos_site_id
 _symmetry_equiv_pos_as_xyz
  1  'x, y, z'
loop_
 _atom_site_type_symbol
 _atom_site_label
 _atom_site_symmetry_multiplicity
 _atom_site_fract_x
 _atom_site_fract_y
 _atom_site_fract_z
 _atom_site_occupancy
  Al  Al0  1  0.69471968  0.38943935  0.86669705  1
  Al  Al1  1  0.00000000  0.00000000  0.00000000  1
  Al  Al2  1  0.30528032  0.61056065  0.13330295  1
  Si  Si3  1  0.90631794  0.81263587  0.36067787  1
  Si  Si4  1  0.09368206  0.18736413  0.63932213  1
  Er  Er5  1  0.38067686  0.76135372  0.67756105  1
  Er  Er6  1  0.61932314  0.23864628  0.32243895  1
