# generated using pymatgen
data_Sm2S3
_symmetry_space_group_name_H-M   'P 1'
_cell_length_a   3.99617829
_cell_length_b   7.43803432
_cell_length_c   15.49932418
_cell_angle_alpha   90.00000000
_cell_angle_beta   90.00000000
_cell_angle_gamma   90.00000000
_symmetry_Int_Tables_number   1
_chemical_formula_structural   Sm2S3
_chemical_formula_sum   'Sm8 S12'
_cell_volume   460.69743680
_cell_formula_units_Z   4
loop_
 _symmetry_equiv_pos_site_id
 _symmetry_equiv_pos_as_xyz
  1  'x, y, z'
loop_
 _atom_site_type_symbol
 _atom_site_label
 _atom_site_symmetry_multiplicity
 _atom_site_fract_x
 _atom_site_fract_y
 _atom_site_fract_z
 _atom_site_occupancy
  S  S0  1  0.25000000  0.87505191  0.93235142  1
  S  S1  1  0.75000000  0.12494809  0.06764858  1
  S  S2  1  0.25000000  0.37505191  0.56764858  1
  S  S3  1  0.75000000  0.62494809  0.43235142  1
  S  S4  1  0.25000000  0.64741764  0.71864310  1
  S  S5  1  0.75000000  0.35258236  0.28135690  1
  S  S6  1  0.25000000  0.14741764  0.78135690  1
  S  S7  1  0.75000000  0.85258236  0.21864310  1
  S  S8  1  0.75000000  0.99037988  0.60865804  1
  S  S9  1  0.25000000  0.00962012  0.39134196  1
  S  S10  1  0.75000000  0.49037988  0.89134196  1
  S  S11  1  0.25000000  0.50962012  0.10865804  1
  Sm  Sm12  1  0.25000000  0.64324647  0.29543986  1
  Sm  Sm13  1  0.75000000  0.35675353  0.70456014  1
  Sm  Sm14  1  0.25000000  0.14324647  0.20456014  1
  Sm  Sm15  1  0.75000000  0.85675353  0.79543986  1
  Sm  Sm16  1  0.25000000  0.26522671  0.95655713  1
  Sm  Sm17  1  0.75000000  0.73477329  0.04344287  1
  Sm  Sm18  1  0.25000000  0.76522671  0.54344287  1
  Sm  Sm19  1  0.75000000  0.23477329  0.45655713  1
