# generated using pymatgen
data_TlCuSe2
_symmetry_space_group_name_H-M   'P 1'
_cell_length_a   5.95464003
_cell_length_b   5.95464003
_cell_length_c   7.33261236
_cell_angle_alpha   113.95619641
_cell_angle_beta   113.95619642
_cell_angle_gamma   89.99999996
_symmetry_Int_Tables_number   1
_chemical_formula_structural   TlCuSe2
_chemical_formula_sum   'Tl2 Cu2 Se4'
_cell_volume   212.85967045
_cell_formula_units_Z   2
loop_
 _symmetry_equiv_pos_site_id
 _symmetry_equiv_pos_as_xyz
  1  'x, y, z'
loop_
 _atom_site_type_symbol
 _atom_site_label
 _atom_site_symmetry_multiplicity
 _atom_site_fract_x
 _atom_site_fract_y
 _atom_site_fract_z
 _atom_site_occupancy
  Cu  Cu0  1  0.00000000  0.00000000  0.00000000  1
  Cu  Cu1  1  0.25000000  0.75000000  0.50000000  1
  Se  Se2  1  0.32715496  0.37500000  0.25000000  1
  Se  Se3  1  0.92284504  0.87500000  0.25000000  1
  Se  Se4  1  0.12500000  0.67284504  0.75000000  1
  Se  Se5  1  0.62500000  0.07715496  0.75000000  1
  Tl  Tl6  1  0.50000000  0.50000000  0.00000000  1
  Tl  Tl7  1  0.75000000  0.25000000  0.50000000  1
