# generated using pymatgen
data_Tl2O3
_symmetry_space_group_name_H-M   'P 1'
_cell_length_a   9.33077694
_cell_length_b   9.33077694
_cell_length_c   9.33077694
_cell_angle_alpha   109.47122063
_cell_angle_beta   109.47122063
_cell_angle_gamma   109.47122063
_symmetry_Int_Tables_number   1
_chemical_formula_structural   Tl2O3
_chemical_formula_sum   'Tl16 O24'
_cell_volume   625.36206332
_cell_formula_units_Z   8
loop_
 _symmetry_equiv_pos_site_id
 _symmetry_equiv_pos_as_xyz
  1  'x, y, z'
loop_
 _atom_site_type_symbol
 _atom_site_label
 _atom_site_symmetry_multiplicity
 _atom_site_fract_x
 _atom_site_fract_y
 _atom_site_fract_z
 _atom_site_occupancy
  Tl  Tl0  1  0.28407452  0.75000000  0.53407452  1
  Tl  Tl1  1  0.21592548  0.25000000  0.96592548  1
  Tl  Tl2  1  0.75000000  0.53407452  0.28407452  1
  Tl  Tl3  1  0.25000000  0.96592548  0.21592548  1
  Tl  Tl4  1  0.53407452  0.28407452  0.75000000  1
  Tl  Tl5  1  0.96592548  0.21592548  0.25000000  1
  Tl  Tl6  1  0.71592548  0.25000000  0.46592548  1
  Tl  Tl7  1  0.78407452  0.75000000  0.03407452  1
  Tl  Tl8  1  0.25000000  0.46592548  0.71592548  1
  Tl  Tl9  1  0.75000000  0.03407452  0.78407452  1
  Tl  Tl10  1  0.46592548  0.71592548  0.25000000  1
  Tl  Tl11  1  0.03407452  0.78407452  0.75000000  1
  Tl  Tl12  1  -0.00000000  0.50000000  0.00000000  1
  Tl  Tl13  1  -0.00000000  -0.00000000  0.50000000  1
  Tl  Tl14  1  0.50000000  -0.00000000  0.00000000  1
  Tl  Tl15  1  0.50000000  0.50000000  0.50000000  1
  O  O16  1  0.76704536  0.49668370  0.03886475  1
  O  O17  1  0.04218105  0.00331630  0.27036166  1
  O  O18  1  0.73295464  0.27181939  0.22963834  1
  O  O19  1  0.45781895  0.22818061  0.46113525  1
  O  O20  1  0.49668370  0.03886475  0.76704536  1
  O  O21  1  0.00331630  0.27036166  0.04218105  1
  O  O22  1  0.27181939  0.22963834  0.73295464  1
  O  O23  1  0.22818061  0.46113525  0.45781895  1
  O  O24  1  0.03886475  0.76704536  0.49668370  1
  O  O25  1  0.27036166  0.04218105  0.00331630  1
  O  O26  1  0.22963834  0.73295464  0.27181939  1
  O  O27  1  0.46113525  0.45781895  0.22818061  1
  O  O28  1  0.23295464  0.50331630  0.96113525  1
  O  O29  1  0.95781895  0.99668370  0.72963834  1
  O  O30  1  0.26704536  0.72818061  0.77036166  1
  O  O31  1  0.54218105  0.77181939  0.53886475  1
  O  O32  1  0.50331630  0.96113525  0.23295464  1
  O  O33  1  0.99668370  0.72963834  0.95781895  1
  O  O34  1  0.72818061  0.77036166  0.26704536  1
  O  O35  1  0.77181939  0.53886475  0.54218105  1
  O  O36  1  0.96113525  0.23295464  0.50331630  1
  O  O37  1  0.72963834  0.95781895  0.99668370  1
  O  O38  1  0.77036166  0.26704536  0.72818061  1
  O  O39  1  0.53886475  0.54218105  0.77181939  1
