# generated using pymatgen
data_Nd2O3
_symmetry_space_group_name_H-M   'P 1'
_cell_length_a   9.68309834
_cell_length_b   9.68309833
_cell_length_c   9.68309834
_cell_angle_alpha   109.47122067
_cell_angle_beta   109.47122066
_cell_angle_gamma   109.47122061
_symmetry_Int_Tables_number   1
_chemical_formula_structural   Nd2O3
_chemical_formula_sum   'Nd16 O24'
_cell_volume   698.90980959
_cell_formula_units_Z   8
loop_
 _symmetry_equiv_pos_site_id
 _symmetry_equiv_pos_as_xyz
  1  'x, y, z'
loop_
 _atom_site_type_symbol
 _atom_site_label
 _atom_site_symmetry_multiplicity
 _atom_site_fract_x
 _atom_site_fract_y
 _atom_site_fract_z
 _atom_site_occupancy
  O  O0  1  0.02816627  0.48800244  0.75898545  1
  O  O1  1  0.22901698  0.26918082  0.74101455  1
  O  O2  1  0.27098302  0.01199756  0.04016383  1
  O  O3  1  0.23081918  0.45983617  0.47183373  1
  O  O4  1  0.45983617  0.47183373  0.23081918  1
  O  O5  1  0.75898545  0.02816627  0.48800244  1
  O  O6  1  0.26918082  0.74101455  0.22901698  1
  O  O7  1  0.04016383  0.27098302  0.01199756  1
  O  O8  1  0.48800244  0.75898545  0.02816627  1
  O  O9  1  0.74101455  0.22901698  0.26918082  1
  O  O10  1  0.01199756  0.04016383  0.27098302  1
  O  O11  1  0.47183373  0.23081918  0.45983617  1
  O  O12  1  0.97183373  0.51199756  0.24101455  1
  O  O13  1  0.77098302  0.73081918  0.25898545  1
  O  O14  1  0.72901698  0.98800244  0.95983617  1
  O  O15  1  0.76918082  0.54016383  0.52816627  1
  O  O16  1  0.52816627  0.76918082  0.54016383  1
  O  O17  1  0.98800244  0.95983617  0.72901698  1
  O  O18  1  0.25898545  0.77098302  0.73081918  1
  O  O19  1  0.51199756  0.24101455  0.97183373  1
  O  O20  1  0.95983617  0.72901698  0.98800244  1
  O  O21  1  0.73081918  0.25898545  0.77098302  1
  O  O22  1  0.24101455  0.97183373  0.51199756  1
  O  O23  1  0.54016383  0.52816627  0.76918082  1
  Nd  Nd24  1  0.25000000  0.71922332  0.46922332  1
  Nd  Nd25  1  0.03077668  0.75000000  0.78077668  1
  Nd  Nd26  1  0.78077668  0.03077668  0.75000000  1
  Nd  Nd27  1  0.46922332  0.25000000  0.71922332  1
  Nd  Nd28  1  0.71922332  0.46922332  0.25000000  1
  Nd  Nd29  1  0.75000000  0.78077668  0.03077668  1
  Nd  Nd30  1  0.75000000  0.28077668  0.53077668  1
  Nd  Nd31  1  0.96922332  0.25000000  0.21922332  1
  Nd  Nd32  1  0.21922332  0.96922332  0.25000000  1
  Nd  Nd33  1  0.53077668  0.75000000  0.28077668  1
  Nd  Nd34  1  0.28077668  0.53077668  0.75000000  1
  Nd  Nd35  1  0.25000000  0.21922332  0.96922332  1
  Nd  Nd36  1  0.00000000  0.50000000  0.00000000  1
  Nd  Nd37  1  0.50000000  0.00000000  0.00000000  1
  Nd  Nd38  1  0.00000000  0.00000000  0.50000000  1
  Nd  Nd39  1  0.50000000  0.50000000  0.50000000  1
