# generated using pymatgen
data_Ca3Al3N5
_symmetry_space_group_name_H-M   'P 1'
_cell_length_a   5.67588296
_cell_length_b   6.95252522
_cell_length_c   8.34381405
_cell_angle_alpha   108.22857732
_cell_angle_beta   104.53947206
_cell_angle_gamma   95.85055084
_symmetry_Int_Tables_number   1
_chemical_formula_structural   Ca3Al3N5
_chemical_formula_sum   'Ca6 Al6 N10'
_cell_volume   296.83334058
_cell_formula_units_Z   2
loop_
 _symmetry_equiv_pos_site_id
 _symmetry_equiv_pos_as_xyz
  1  'x, y, z'
loop_
 _atom_site_type_symbol
 _atom_site_label
 _atom_site_symmetry_multiplicity
 _atom_site_fract_x
 _atom_site_fract_y
 _atom_site_fract_z
 _atom_site_occupancy
  Ca  Ca0  1  0.81063517  0.42376772  0.60629588  1
  Ca  Ca1  1  0.18936483  0.57623228  0.39370412  1
  Ca  Ca2  1  0.66570703  0.86230595  0.88340116  1
  Ca  Ca3  1  0.33429297  0.13769405  0.11659884  1
  Ca  Ca4  1  0.66228722  0.64104889  0.20109384  1
  Ca  Ca5  1  0.33771278  0.35895111  0.79890616  1
  Al  Al6  1  0.90621896  0.31409581  0.96937847  1
  Al  Al7  1  0.09378104  0.68590419  0.03062153  1
  Al  Al8  1  0.70666844  0.95322414  0.57072037  1
  Al  Al9  1  0.29333156  0.04677586  0.42927963  1
  Al  Al10  1  0.12630543  0.87650602  0.71053072  1
  Al  Al11  1  0.87369457  0.12349398  0.28946928  1
  N  N12  1  0.96522409  0.10345653  0.78529537  1
  N  N13  1  0.03477591  0.89654347  0.21470463  1
  N  N14  1  0.83808392  0.70913763  0.51623883  1
  N  N15  1  0.16191608  0.29086237  0.48376117  1
  N  N16  1  0.76260698  0.52219232  0.89722260  1
  N  N17  1  0.23739302  0.47780768  0.10277740  1
  N  N18  1  0.38775382  0.93586079  0.61384736  1
  N  N19  1  0.61224618  0.06413921  0.38615264  1
  N  N20  1  0.25499078  0.77630422  0.89098359  1
  N  N21  1  0.74500922  0.22369578  0.10901641  1
