# generated using pymatgen
data_Ho2AlSi2
_symmetry_space_group_name_H-M   'P 1'
_cell_length_a   4.05885648
_cell_length_b   5.57567647
_cell_length_c   5.57567647
_cell_angle_alpha   61.93765163
_cell_angle_beta   68.65524793
_cell_angle_gamma   68.65524795
_symmetry_Int_Tables_number   1
_chemical_formula_structural   Ho2AlSi2
_chemical_formula_sum   'Ho2 Al1 Si2'
_cell_volume   100.81798697
_cell_formula_units_Z   1
loop_
 _symmetry_equiv_pos_site_id
 _symmetry_equiv_pos_as_xyz
  1  'x, y, z'
loop_
 _atom_site_type_symbol
 _atom_site_label
 _atom_site_symmetry_multiplicity
 _atom_site_fract_x
 _atom_site_fract_y
 _atom_site_fract_z
 _atom_site_occupancy
  Al  Al0  1  0.00000000  0.00000000  0.00000000  1
  Si  Si1  1  0.50000000  0.28973323  0.71026677  1
  Si  Si2  1  0.50000000  0.71026677  0.28973323  1
  Ho  Ho3  1  0.78906530  0.71093470  0.71093470  1
  Ho  Ho4  1  0.21093470  0.28906530  0.28906530  1
