# generated using pymatgen
data_TbZn2
_symmetry_space_group_name_H-M   'P 1'
_cell_length_a   4.49230257
_cell_length_b   5.68209777
_cell_length_c   5.68209777
_cell_angle_alpha   78.29829492
_cell_angle_beta   66.71511639
_cell_angle_gamma   66.71511641
_symmetry_Int_Tables_number   1
_chemical_formula_structural   TbZn2
_chemical_formula_sum   'Tb2 Zn4'
_cell_volume   122.18858803
_cell_formula_units_Z   2
loop_
 _symmetry_equiv_pos_site_id
 _symmetry_equiv_pos_as_xyz
  1  'x, y, z'
loop_
 _atom_site_type_symbol
 _atom_site_label
 _atom_site_symmetry_multiplicity
 _atom_site_fract_x
 _atom_site_fract_y
 _atom_site_fract_z
 _atom_site_occupancy
  Zn  Zn0  1  0.83413705  0.70961862  0.62210727  1
  Zn  Zn1  1  0.16586295  0.29038138  0.37789273  1
  Zn  Zn2  1  0.83413705  0.12210727  0.20961862  1
  Zn  Zn3  1  0.16586295  0.87789273  0.79038138  1
  Tb  Tb4  1  0.52988491  0.72011509  0.22011509  1
  Tb  Tb5  1  0.47011509  0.27988491  0.77988491  1
