# generated using pymatgen
data_Yb3Ge5
_symmetry_space_group_name_H-M   'P 1'
_cell_length_a   6.95098575
_cell_length_b   6.95098575
_cell_length_c   4.30009612
_cell_angle_alpha   90.00000000
_cell_angle_beta   90.00000000
_cell_angle_gamma   119.99999997
_symmetry_Int_Tables_number   1
_chemical_formula_structural   Yb3Ge5
_chemical_formula_sum   'Yb3 Ge5'
_cell_volume   179.92917616
_cell_formula_units_Z   1
loop_
 _symmetry_equiv_pos_site_id
 _symmetry_equiv_pos_as_xyz
  1  'x, y, z'
loop_
 _atom_site_type_symbol
 _atom_site_label
 _atom_site_symmetry_multiplicity
 _atom_site_fract_x
 _atom_site_fract_y
 _atom_site_fract_z
 _atom_site_occupancy
  Ge  Ge0  1  0.66666667  0.33333333  0.00000000  1
  Ge  Ge1  1  0.33333333  0.66666667  0.00000000  1
  Ge  Ge2  1  0.00000000  0.26850586  0.00000000  1
  Ge  Ge3  1  0.26850586  0.00000000  0.00000000  1
  Ge  Ge4  1  0.73149414  0.73149414  0.00000000  1
  Yb  Yb5  1  0.00000000  0.64277399  0.50000000  1
  Yb  Yb6  1  0.35722601  0.35722601  0.50000000  1
  Yb  Yb7  1  0.64277399  0.00000000  0.50000000  1
