# generated using pymatgen
data_YbSi
_symmetry_space_group_name_H-M   'P 1'
_cell_length_a   3.88197559
_cell_length_b   4.54070689
_cell_length_c   5.77418242
_cell_angle_alpha   113.15316534
_cell_angle_beta   90.00000000
_cell_angle_gamma   90.00000000
_symmetry_Int_Tables_number   1
_chemical_formula_structural   YbSi
_chemical_formula_sum   'Yb2 Si2'
_cell_volume   93.58326970
_cell_formula_units_Z   2
loop_
 _symmetry_equiv_pos_site_id
 _symmetry_equiv_pos_as_xyz
  1  'x, y, z'
loop_
 _atom_site_type_symbol
 _atom_site_label
 _atom_site_symmetry_multiplicity
 _atom_site_fract_x
 _atom_site_fract_y
 _atom_site_fract_z
 _atom_site_occupancy
  Si  Si0  1  0.25000000  0.56934894  0.13869789  1
  Si  Si1  1  0.75000000  0.43065106  0.86130211  1
  Yb  Yb2  1  0.25000000  0.86174033  0.72348066  1
  Yb  Yb3  1  0.75000000  0.13825967  0.27651934  1
