# generated using pymatgen
data_Na2ZrSe3
_symmetry_space_group_name_H-M   'P 1'
_cell_length_a   7.00673064
_cell_length_b   7.01540845
_cell_length_c   7.33795997
_cell_angle_alpha   80.70523818
_cell_angle_beta   71.12968148
_cell_angle_gamma   60.04091002
_symmetry_Int_Tables_number   1
_chemical_formula_structural   Na2ZrSe3
_chemical_formula_sum   'Na4 Zr2 Se6'
_cell_volume   295.70626322
_cell_formula_units_Z   2
loop_
 _symmetry_equiv_pos_site_id
 _symmetry_equiv_pos_as_xyz
  1  'x, y, z'
loop_
 _atom_site_type_symbol
 _atom_site_label
 _atom_site_symmetry_multiplicity
 _atom_site_fract_x
 _atom_site_fract_y
 _atom_site_fract_z
 _atom_site_occupancy
  Na  Na0  1  0.00000000  0.00000000  0.00000000  1
  Na  Na1  1  0.50000000  0.00000000  0.50000000  1
  Na  Na2  1  0.15763337  0.68473326  0.50000000  1
  Na  Na3  1  0.84236663  0.31526674  0.50000000  1
  Se  Se4  1  0.43716881  0.63859685  0.77580079  1
  Se  Se5  1  0.28595280  0.00000000  0.22279343  1
  Se  Se6  1  0.56283119  0.36140315  0.22419921  1
  Se  Se7  1  0.92423434  0.63859685  0.22419921  1
  Se  Se8  1  0.07576566  0.36140315  0.77580079  1
  Se  Se9  1  0.71404720  0.00000000  0.77720657  1
  Zr  Zr10  1  0.66877305  0.66245390  0.00000000  1
  Zr  Zr11  1  0.33122695  0.33754610  0.00000000  1
