# generated using pymatgen
data_K(USe3)2
_symmetry_space_group_name_H-M   'P 1'
_cell_length_a   4.05302601
_cell_length_b   5.53577611
_cell_length_c   11.58192173
_cell_angle_alpha   104.03528500
_cell_angle_beta   100.07703377
_cell_angle_gamma   90.00000002
_symmetry_Int_Tables_number   1
_chemical_formula_structural   K(USe3)2
_chemical_formula_sum   'K1 U2 Se6'
_cell_volume   247.96762968
_cell_formula_units_Z   1
loop_
 _symmetry_equiv_pos_site_id
 _symmetry_equiv_pos_as_xyz
  1  'x, y, z'
loop_
 _atom_site_type_symbol
 _atom_site_label
 _atom_site_symmetry_multiplicity
 _atom_site_fract_x
 _atom_site_fract_y
 _atom_site_fract_z
 _atom_site_occupancy
  K  K0  1  0.00000000  0.00000000  0.00000000  1
  Se  Se1  1  0.77390971  0.77329762  0.54781942  1
  Se  Se2  1  0.60802192  0.85447412  0.21604385  1
  Se  Se3  1  0.39197808  0.14552588  0.78395615  1
  Se  Se4  1  0.22609029  0.22670238  0.45218058  1
  Se  Se5  1  0.60798882  0.35997962  0.21597764  1
  Se  Se6  1  0.39201118  0.64002038  0.78402236  1
  U  U7  1  0.81892472  0.31752725  0.63784945  1
  U  U8  1  0.18107528  0.68247275  0.36215055  1
