# generated using pymatgen
data_Sn2Au
_symmetry_space_group_name_H-M   'P 1'
_cell_length_a   7.02769126
_cell_length_b   7.18515453
_cell_length_c   12.14447294
_cell_angle_alpha   90.00000000
_cell_angle_beta   90.00000000
_cell_angle_gamma   90.00000000
_symmetry_Int_Tables_number   1
_chemical_formula_structural   Sn2Au
_chemical_formula_sum   'Sn16 Au8'
_cell_volume   613.23574030
_cell_formula_units_Z   8
loop_
 _symmetry_equiv_pos_site_id
 _symmetry_equiv_pos_as_xyz
  1  'x, y, z'
loop_
 _atom_site_type_symbol
 _atom_site_label
 _atom_site_symmetry_multiplicity
 _atom_site_fract_x
 _atom_site_fract_y
 _atom_site_fract_z
 _atom_site_occupancy
  Sn  Sn0  1  0.62817004  0.52640204  0.32517575  1
  Sn  Sn1  1  0.12817004  0.97359796  0.67482425  1
  Sn  Sn2  1  0.37182996  0.02640204  0.17482425  1
  Sn  Sn3  1  0.87182996  0.47359796  0.82517575  1
  Sn  Sn4  1  0.37182996  0.47359796  0.67482425  1
  Sn  Sn5  1  0.87182996  0.02640204  0.32517575  1
  Sn  Sn6  1  0.62817004  0.97359796  0.82517575  1
  Sn  Sn7  1  0.12817004  0.52640204  0.17482425  1
  Sn  Sn8  1  0.85460931  0.24834166  0.08807808  1
  Sn  Sn9  1  0.35460931  0.25165834  0.91192192  1
  Sn  Sn10  1  0.14539069  0.74834166  0.41192192  1
  Sn  Sn11  1  0.64539069  0.75165834  0.58807808  1
  Sn  Sn12  1  0.14539069  0.75165834  0.91192192  1
  Sn  Sn13  1  0.64539069  0.74834166  0.08807808  1
  Sn  Sn14  1  0.85460931  0.25165834  0.58807808  1
  Sn  Sn15  1  0.35460931  0.24834166  0.41192192  1
  Au  Au16  1  0.51223486  0.88844076  0.38284804  1
  Au  Au17  1  0.01223486  0.61155924  0.61715196  1
  Au  Au18  1  0.48776514  0.38844076  0.11715196  1
  Au  Au19  1  0.98776514  0.11155924  0.88284804  1
  Au  Au20  1  0.48776514  0.11155924  0.61715196  1
  Au  Au21  1  0.98776514  0.38844076  0.38284804  1
  Au  Au22  1  0.51223486  0.61155924  0.88284804  1
  Au  Au23  1  0.01223486  0.88844076  0.11715196  1
