# generated using pymatgen
data_RbTbSe2
_symmetry_space_group_name_H-M   'P 1'
_cell_length_a   8.36921760
_cell_length_b   8.36921760
_cell_length_c   8.36921760
_cell_angle_alpha   29.51012906
_cell_angle_beta   29.51012900
_cell_angle_gamma   29.51012903
_symmetry_Int_Tables_number   1
_chemical_formula_structural   RbTbSe2
_chemical_formula_sum   'Rb1 Tb1 Se2'
_cell_volume   125.89759709
_cell_formula_units_Z   1
loop_
 _symmetry_equiv_pos_site_id
 _symmetry_equiv_pos_as_xyz
  1  'x, y, z'
loop_
 _atom_site_type_symbol
 _atom_site_label
 _atom_site_symmetry_multiplicity
 _atom_site_fract_x
 _atom_site_fract_y
 _atom_site_fract_z
 _atom_site_occupancy
  Se  Se0  1  0.23201103  0.23201103  0.23201103  1
  Se  Se1  1  0.76798897  0.76798897  0.76798897  1
  Rb  Rb2  1  0.00000000  0.00000000  0.00000000  1
  Tb  Tb3  1  0.50000000  0.50000000  0.50000000  1
