# generated using pymatgen
data_Ce(FeP)2
_symmetry_space_group_name_H-M   'P 1'
_cell_length_a   3.81545680
_cell_length_b   3.81545681
_cell_length_c   5.75511349
_cell_angle_alpha   109.35887692
_cell_angle_beta   109.35887686
_cell_angle_gamma   90.00000002
_symmetry_Int_Tables_number   1
_chemical_formula_structural   Ce(FeP)2
_chemical_formula_sum   'Ce1 Fe2 P2'
_cell_volume   74.00484306
_cell_formula_units_Z   1
loop_
 _symmetry_equiv_pos_site_id
 _symmetry_equiv_pos_as_xyz
  1  'x, y, z'
loop_
 _atom_site_type_symbol
 _atom_site_label
 _atom_site_symmetry_multiplicity
 _atom_site_fract_x
 _atom_site_fract_y
 _atom_site_fract_z
 _atom_site_occupancy
  P  P0  1  0.64159218  0.64159218  0.28318435  1
  P  P1  1  0.35840782  0.35840782  0.71681565  1
  Fe  Fe2  1  0.25000000  0.75000000  0.50000000  1
  Fe  Fe3  1  0.75000000  0.25000000  0.50000000  1
  Ce  Ce4  1  0.00000000  0.00000000  0.00000000  1
