# generated using pymatgen
data_CsMgCl3
_symmetry_space_group_name_H-M   'P 1'
_cell_length_a   7.41346419
_cell_length_b   7.41346419
_cell_length_c   6.26915402
_cell_angle_alpha   90.00000000
_cell_angle_beta   90.00000000
_cell_angle_gamma   120.00000003
_symmetry_Int_Tables_number   1
_chemical_formula_structural   CsMgCl3
_chemical_formula_sum   'Cs2 Mg2 Cl6'
_cell_volume   298.38841644
_cell_formula_units_Z   2
loop_
 _symmetry_equiv_pos_site_id
 _symmetry_equiv_pos_as_xyz
  1  'x, y, z'
loop_
 _atom_site_type_symbol
 _atom_site_label
 _atom_site_symmetry_multiplicity
 _atom_site_fract_x
 _atom_site_fract_y
 _atom_site_fract_z
 _atom_site_occupancy
  Mg  Mg0  1  0.00000000  0.00000000  0.00000000  1
  Mg  Mg1  1  0.00000000  0.00000000  0.50000000  1
  Cl  Cl2  1  0.84594430  0.69188860  0.75000000  1
  Cl  Cl3  1  0.84594430  0.15405570  0.75000000  1
  Cl  Cl4  1  0.15405570  0.30811140  0.25000000  1
  Cl  Cl5  1  0.30811140  0.15405570  0.75000000  1
  Cl  Cl6  1  0.69188860  0.84594430  0.25000000  1
  Cl  Cl7  1  0.15405570  0.84594430  0.25000000  1
  Cs  Cs8  1  0.33333333  0.66666667  0.75000000  1
  Cs  Cs9  1  0.66666667  0.33333333  0.25000000  1
