# generated using pymatgen
data_Zn2CuAu
_symmetry_space_group_name_H-M   'P 1'
_cell_length_a   4.50281094
_cell_length_b   4.69727090
_cell_length_c   5.56108729
_cell_angle_alpha   90.00000000
_cell_angle_beta   90.00000000
_cell_angle_gamma   90.00000000
_symmetry_Int_Tables_number   1
_chemical_formula_structural   Zn2CuAu
_chemical_formula_sum   'Zn4 Cu2 Au2'
_cell_volume   117.62212794
_cell_formula_units_Z   2
loop_
 _symmetry_equiv_pos_site_id
 _symmetry_equiv_pos_as_xyz
  1  'x, y, z'
loop_
 _atom_site_type_symbol
 _atom_site_label
 _atom_site_symmetry_multiplicity
 _atom_site_fract_x
 _atom_site_fract_y
 _atom_site_fract_z
 _atom_site_occupancy
  Cu  Cu0  1  0.00000000  0.98597547  0.50000000  1
  Cu  Cu1  1  0.50000000  0.35802453  0.00000000  1
  Zn  Zn2  1  0.50000000  0.85318039  0.74961844  1
  Zn  Zn3  1  0.50000000  0.85318039  0.25038156  1
  Zn  Zn4  1  0.00000000  0.49081961  0.24961844  1
  Zn  Zn5  1  0.00000000  0.49081961  0.75038156  1
  Au  Au6  1  0.50000000  0.34992545  0.50000000  1
  Au  Au7  1  0.00000000  0.99407455  0.00000000  1
