# generated using pymatgen
data_Rb2P3
_symmetry_space_group_name_H-M   'P 1'
_cell_length_a   6.68255810
_cell_length_b   6.68255809
_cell_length_c   8.72124353
_cell_angle_alpha   110.77793774
_cell_angle_beta   110.77793769
_cell_angle_gamma   94.24702798
_symmetry_Int_Tables_number   1
_chemical_formula_structural   Rb2P3
_chemical_formula_sum   'Rb4 P6'
_cell_volume   331.42767521
_cell_formula_units_Z   2
loop_
 _symmetry_equiv_pos_site_id
 _symmetry_equiv_pos_as_xyz
  1  'x, y, z'
loop_
 _atom_site_type_symbol
 _atom_site_label
 _atom_site_symmetry_multiplicity
 _atom_site_fract_x
 _atom_site_fract_y
 _atom_site_fract_z
 _atom_site_occupancy
  P  P0  1  0.85342086  0.85342086  0.70684171  1
  P  P1  1  0.14657914  0.14657914  0.29315829  1
  P  P2  1  0.13339384  0.13339384  0.85421278  1
  P  P3  1  0.27918106  0.27918106  0.14578722  1
  P  P4  1  0.86660616  0.86660616  0.14578722  1
  P  P5  1  0.72081894  0.72081894  0.85421278  1
  Rb  Rb6  1  0.25000000  0.75000000  0.50000000  1
  Rb  Rb7  1  0.75000000  0.25000000  0.50000000  1
  Rb  Rb8  1  0.27686784  0.72313216  0.00000000  1
  Rb  Rb9  1  0.72313216  0.27686784  0.00000000  1
