# generated using pymatgen
data_YbAl2Ni
_symmetry_space_group_name_H-M   'P 1'
_cell_length_a   4.10185902
_cell_length_b   5.31733675
_cell_length_c   7.13615740
_cell_angle_alpha   90.00000000
_cell_angle_beta   90.00000000
_cell_angle_gamma   112.68758619
_symmetry_Int_Tables_number   1
_chemical_formula_structural   YbAl2Ni
_chemical_formula_sum   'Yb2 Al4 Ni2'
_cell_volume   143.60282072
_cell_formula_units_Z   2
loop_
 _symmetry_equiv_pos_site_id
 _symmetry_equiv_pos_as_xyz
  1  'x, y, z'
loop_
 _atom_site_type_symbol
 _atom_site_label
 _atom_site_symmetry_multiplicity
 _atom_site_fract_x
 _atom_site_fract_y
 _atom_site_fract_z
 _atom_site_occupancy
  Al  Al0  1  0.16314425  0.32628851  0.94300377  1
  Al  Al1  1  0.83685575  0.67371149  0.05699623  1
  Al  Al2  1  0.83685575  0.67371149  0.44300377  1
  Al  Al3  1  0.16314425  0.32628851  0.55699623  1
  Ni  Ni4  1  0.28004728  0.56009456  0.25000000  1
  Ni  Ni5  1  0.71995272  0.43990544  0.75000000  1
  Yb  Yb6  1  0.55351422  0.10702845  0.25000000  1
  Yb  Yb7  1  0.44648578  0.89297155  0.75000000  1
