# generated using pymatgen
data_ZrSb2
_symmetry_space_group_name_H-M   'P 1'
_cell_length_a   3.92986397
_cell_length_b   10.08692949
_cell_length_c   15.11171593
_cell_angle_alpha   90.00000000
_cell_angle_beta   90.00000000
_cell_angle_gamma   90.00000000
_symmetry_Int_Tables_number   1
_chemical_formula_structural   ZrSb2
_chemical_formula_sum   'Zr8 Sb16'
_cell_volume   599.03236016
_cell_formula_units_Z   8
loop_
 _symmetry_equiv_pos_site_id
 _symmetry_equiv_pos_as_xyz
  1  'x, y, z'
loop_
 _atom_site_type_symbol
 _atom_site_label
 _atom_site_symmetry_multiplicity
 _atom_site_fract_x
 _atom_site_fract_y
 _atom_site_fract_z
 _atom_site_occupancy
  Zr  Zr0  1  0.50000000  0.66866195  0.99310309  1
  Zr  Zr1  1  0.50000000  0.33133805  0.00689691  1
  Zr  Zr2  1  0.00000000  0.16866195  0.50689691  1
  Zr  Zr3  1  0.00000000  0.83133805  0.49310309  1
  Zr  Zr4  1  0.00000000  0.97870616  0.74896151  1
  Zr  Zr5  1  0.00000000  0.02129384  0.25103849  1
  Zr  Zr6  1  0.50000000  0.47870616  0.75103849  1
  Zr  Zr7  1  0.50000000  0.52129384  0.24896151  1
  Sb  Sb8  1  0.00000000  0.88311293  0.94177324  1
  Sb  Sb9  1  0.00000000  0.11688707  0.05822676  1
  Sb  Sb10  1  0.50000000  0.38311293  0.55822676  1
  Sb  Sb11  1  0.50000000  0.61688707  0.44177324  1
  Sb  Sb12  1  0.00000000  0.66023202  0.65669830  1
  Sb  Sb13  1  0.00000000  0.33976798  0.34330170  1
  Sb  Sb14  1  0.50000000  0.16023202  0.84330170  1
  Sb  Sb15  1  0.50000000  0.83976798  0.15669830  1
  Sb  Sb16  1  0.50000000  0.76924653  0.80148848  1
  Sb  Sb17  1  0.50000000  0.23075347  0.19851152  1
  Sb  Sb18  1  0.00000000  0.26924653  0.69851152  1
  Sb  Sb19  1  0.00000000  0.73075347  0.30148848  1
  Sb  Sb20  1  0.50000000  0.98841428  0.60279419  1
  Sb  Sb21  1  0.50000000  0.01158572  0.39720581  1
  Sb  Sb22  1  0.00000000  0.48841428  0.89720581  1
  Sb  Sb23  1  0.00000000  0.51158572  0.10279419  1
