# generated using pymatgen
data_Y(PdO2)2
_symmetry_space_group_name_H-M   'P 1'
_cell_length_a   5.82538856
_cell_length_b   5.82538856
_cell_length_c   6.52105248
_cell_angle_alpha   116.52960368
_cell_angle_beta   116.52960367
_cell_angle_gamma   90.00000008
_symmetry_Int_Tables_number   1
_chemical_formula_structural   Y(PdO2)2
_chemical_formula_sum   'Y2 Pd4 O8'
_cell_volume   171.55402293
_cell_formula_units_Z   2
loop_
 _symmetry_equiv_pos_site_id
 _symmetry_equiv_pos_as_xyz
  1  'x, y, z'
loop_
 _atom_site_type_symbol
 _atom_site_label
 _atom_site_symmetry_multiplicity
 _atom_site_fract_x
 _atom_site_fract_y
 _atom_site_fract_z
 _atom_site_occupancy
  O  O0  1  0.83481044  0.61694387  0.35491736  1
  O  O1  1  0.73797349  0.33481044  0.85491736  1
  O  O2  1  0.11694387  0.02010692  0.85491736  1
  O  O3  1  0.52010692  0.23797349  0.35491736  1
  O  O4  1  0.16518956  0.38305613  0.64508264  1
  O  O5  1  0.26202651  0.66518956  0.14508264  1
  O  O6  1  0.47989308  0.76202651  0.64508264  1
  O  O7  1  0.88305613  0.97989308  0.14508264  1
  Y  Y8  1  0.12500000  0.37500000  0.25000000  1
  Y  Y9  1  0.87500000  0.62500000  0.75000000  1
  Pd  Pd10  1  0.50000000  0.00000000  0.50000000  1
  Pd  Pd11  1  0.50000000  0.50000000  0.00000000  1
  Pd  Pd12  1  0.00000000  0.00000000  0.50000000  1
  Pd  Pd13  1  0.50000000  0.00000000  0.00000000  1
