# generated using pymatgen
data_MnP
_symmetry_space_group_name_H-M   'P 1'
_cell_length_a   3.15394105
_cell_length_b   5.19100991
_cell_length_c   5.84953159
_cell_angle_alpha   90.00000000
_cell_angle_beta   90.00000000
_cell_angle_gamma   90.00000000
_symmetry_Int_Tables_number   1
_chemical_formula_structural   MnP
_chemical_formula_sum   'Mn4 P4'
_cell_volume   95.76934572
_cell_formula_units_Z   4
loop_
 _symmetry_equiv_pos_site_id
 _symmetry_equiv_pos_as_xyz
  1  'x, y, z'
loop_
 _atom_site_type_symbol
 _atom_site_label
 _atom_site_symmetry_multiplicity
 _atom_site_fract_x
 _atom_site_fract_y
 _atom_site_fract_z
 _atom_site_occupancy
  P  P0  1  0.25000000  0.68672847  0.93067067  1
  P  P1  1  0.75000000  0.31327153  0.06932933  1
  P  P2  1  0.25000000  0.18672847  0.56932933  1
  P  P3  1  0.75000000  0.81327153  0.43067067  1
  Mn  Mn4  1  0.25000000  0.50439979  0.30406652  1
  Mn  Mn5  1  0.75000000  0.49560021  0.69593348  1
  Mn  Mn6  1  0.25000000  0.00439979  0.19593348  1
  Mn  Mn7  1  0.75000000  0.99560021  0.80406652  1
