# generated using pymatgen
data_HoInRh
_symmetry_space_group_name_H-M   'P 1'
_cell_length_a   7.51568038
_cell_length_b   7.51568038
_cell_length_c   3.92795952
_cell_angle_alpha   90.00000000
_cell_angle_beta   90.00000000
_cell_angle_gamma   119.99999998
_symmetry_Int_Tables_number   1
_chemical_formula_structural   HoInRh
_chemical_formula_sum   'Ho3 In3 Rh3'
_cell_volume   192.14727977
_cell_formula_units_Z   3
loop_
 _symmetry_equiv_pos_site_id
 _symmetry_equiv_pos_as_xyz
  1  'x, y, z'
loop_
 _atom_site_type_symbol
 _atom_site_label
 _atom_site_symmetry_multiplicity
 _atom_site_fract_x
 _atom_site_fract_y
 _atom_site_fract_z
 _atom_site_occupancy
  Rh  Rh0  1  0.33333333  0.66666667  0.00000000  1
  Rh  Rh1  1  0.00000000  0.00000000  0.50000000  1
  Rh  Rh2  1  0.66666667  0.33333333  0.00000000  1
  In  In3  1  0.25757306  0.25757306  0.00000000  1
  In  In4  1  0.00000000  0.74242694  0.00000000  1
  In  In5  1  0.74242694  0.00000000  0.00000000  1
  Ho  Ho6  1  0.00000000  0.40597214  0.50000000  1
  Ho  Ho7  1  0.59402786  0.59402786  0.50000000  1
  Ho  Ho8  1  0.40597214  0.00000000  0.50000000  1
