# generated using pymatgen
data_MgNi2
_symmetry_space_group_name_H-M   'P 1'
_cell_length_a   4.79256736
_cell_length_b   4.79256736
_cell_length_c   15.68498001
_cell_angle_alpha   90.00000000
_cell_angle_beta   90.00000000
_cell_angle_gamma   119.99461342
_symmetry_Int_Tables_number   1
_chemical_formula_structural   MgNi2
_chemical_formula_sum   'Mg8 Ni16'
_cell_volume   312.01438968
_cell_formula_units_Z   8
loop_
 _symmetry_equiv_pos_site_id
 _symmetry_equiv_pos_as_xyz
  1  'x, y, z'
loop_
 _atom_site_type_symbol
 _atom_site_label
 _atom_site_symmetry_multiplicity
 _atom_site_fract_x
 _atom_site_fract_y
 _atom_site_fract_z
 _atom_site_occupancy
  Mg  Mg0  1  -0.00000018  0.00000018  0.59372715  1
  Mg  Mg1  1  0.00000018  -0.00000018  0.40627285  1
  Mg  Mg2  1  0.00000018  -0.00000018  0.09372715  1
  Mg  Mg3  1  -0.00000018  0.00000018  0.90627285  1
  Mg  Mg4  1  0.66669285  0.33330715  0.34401299  1
  Mg  Mg5  1  0.33330715  0.66669285  0.65598701  1
  Mg  Mg6  1  0.33330715  0.66669285  0.84401299  1
  Mg  Mg7  1  0.66669285  0.33330715  0.15598701  1
  Ni  Ni8  1  0.66669432  0.33330568  0.62501070  1
  Ni  Ni9  1  0.33330568  0.66669432  0.37498930  1
  Ni  Ni10  1  0.33330568  0.66669432  0.12501070  1
  Ni  Ni11  1  0.66669432  0.33330568  0.87498930  1
  Ni  Ni12  1  0.50000000  0.00000000  0.50000000  1
  Ni  Ni13  1  0.50000000  0.50000000  0.50000000  1
  Ni  Ni14  1  0.00000000  0.50000000  0.50000000  1
  Ni  Ni15  1  0.50000000  0.00000000  0.00000000  1
  Ni  Ni16  1  0.50000000  0.50000000  0.00000000  1
  Ni  Ni17  1  0.00000000  0.50000000  0.00000000  1
  Ni  Ni18  1  0.83538718  0.67078109  0.75000000  1
  Ni  Ni19  1  0.83538420  0.16461580  0.75000000  1
  Ni  Ni20  1  0.32921891  0.16461282  0.75000000  1
  Ni  Ni21  1  0.16461282  0.32921891  0.25000000  1
  Ni  Ni22  1  0.16461580  0.83538420  0.25000000  1
  Ni  Ni23  1  0.67078109  0.83538718  0.25000000  1
