# generated using pymatgen
data_SrPIr
_symmetry_space_group_name_H-M   'P 1'
_cell_length_a   6.38356671
_cell_length_b   6.38356671
_cell_length_c   6.38356671
_cell_angle_alpha   90.00000000
_cell_angle_beta   90.00000000
_cell_angle_gamma   90.00000000
_symmetry_Int_Tables_number   1
_chemical_formula_structural   SrPIr
_chemical_formula_sum   'Sr4 P4 Ir4'
_cell_volume   260.12985790
_cell_formula_units_Z   4
loop_
 _symmetry_equiv_pos_site_id
 _symmetry_equiv_pos_as_xyz
  1  'x, y, z'
loop_
 _atom_site_type_symbol
 _atom_site_label
 _atom_site_symmetry_multiplicity
 _atom_site_fract_x
 _atom_site_fract_y
 _atom_site_fract_z
 _atom_site_occupancy
  P  P0  1  0.16139930  0.33860070  0.66139930  1
  P  P1  1  0.66139930  0.16139930  0.33860070  1
  P  P2  1  0.33860070  0.66139930  0.16139930  1
  P  P3  1  0.83860070  0.83860070  0.83860070  1
  Sr  Sr4  1  0.61895931  0.38104069  0.88104069  1
  Sr  Sr5  1  0.38104069  0.88104069  0.61895931  1
  Sr  Sr6  1  0.11895931  0.11895931  0.11895931  1
  Sr  Sr7  1  0.88104069  0.61895931  0.38104069  1
  Ir  Ir8  1  0.59169378  0.90830622  0.09169378  1
  Ir  Ir9  1  0.09169378  0.59169378  0.90830622  1
  Ir  Ir10  1  0.40830622  0.40830622  0.40830622  1
  Ir  Ir11  1  0.90830622  0.09169378  0.59169378  1
