# generated using pymatgen
data_CrSbSe3
_symmetry_space_group_name_H-M   'P 1'
_cell_length_a   3.84649177
_cell_length_b   9.39370658
_cell_length_c   13.46076265
_cell_angle_alpha   90.00000000
_cell_angle_beta   90.00000000
_cell_angle_gamma   90.00000000
_symmetry_Int_Tables_number   1
_chemical_formula_structural   CrSbSe3
_chemical_formula_sum   'Cr4 Sb4 Se12'
_cell_volume   486.37524726
_cell_formula_units_Z   4
loop_
 _symmetry_equiv_pos_site_id
 _symmetry_equiv_pos_as_xyz
  1  'x, y, z'
loop_
 _atom_site_type_symbol
 _atom_site_label
 _atom_site_symmetry_multiplicity
 _atom_site_fract_x
 _atom_site_fract_y
 _atom_site_fract_z
 _atom_site_occupancy
  Cr  Cr0  1  0.75000000  0.65689470  0.95761134  1
  Cr  Cr1  1  0.25000000  0.34310530  0.04238866  1
  Cr  Cr2  1  0.75000000  0.15689470  0.54238866  1
  Cr  Cr3  1  0.25000000  0.84310530  0.45761134  1
  Se  Se4  1  0.75000000  0.67486045  0.51830999  1
  Se  Se5  1  0.25000000  0.32513955  0.48169001  1
  Se  Se6  1  0.75000000  0.17486045  0.98169001  1
  Se  Se7  1  0.25000000  0.82513955  0.01830999  1
  Se  Se8  1  0.25000000  0.71320518  0.29061425  1
  Se  Se9  1  0.75000000  0.28679482  0.70938575  1
  Se  Se10  1  0.25000000  0.21320518  0.20938575  1
  Se  Se11  1  0.75000000  0.78679482  0.79061425  1
  Se  Se12  1  0.75000000  0.99532166  0.39377152  1
  Se  Se13  1  0.25000000  0.00467834  0.60622848  1
  Se  Se14  1  0.75000000  0.49532166  0.10622848  1
  Se  Se15  1  0.25000000  0.50467834  0.89377152  1
  Sb  Sb16  1  0.25000000  0.97144451  0.84438941  1
  Sb  Sb17  1  0.75000000  0.02855549  0.15561059  1
  Sb  Sb18  1  0.25000000  0.47144451  0.65561059  1
  Sb  Sb19  1  0.75000000  0.52855549  0.34438941  1
