# generated using pymatgen
data_OsPbO3
_symmetry_space_group_name_H-M   'P 1'
_cell_length_a   7.36556197
_cell_length_b   7.36601315
_cell_length_c   7.36688279
_cell_angle_alpha   60.02422118
_cell_angle_beta   60.01495462
_cell_angle_gamma   60.02208795
_symmetry_Int_Tables_number   1
_chemical_formula_structural   OsPbO3
_chemical_formula_sum   'Os4 Pb4 O12'
_cell_volume   282.75359836
_cell_formula_units_Z   4
loop_
 _symmetry_equiv_pos_site_id
 _symmetry_equiv_pos_as_xyz
  1  'x, y, z'
loop_
 _atom_site_type_symbol
 _atom_site_label
 _atom_site_symmetry_multiplicity
 _atom_site_fract_x
 _atom_site_fract_y
 _atom_site_fract_z
 _atom_site_occupancy
  Os  Os0  1  0.00006708  0.50000880  -0.00000023  1
  Os  Os1  1  0.50000125  0.00008546  0.00001219  1
  Os  Os2  1  0.99998389  0.00002780  0.49997758  1
  Os  Os3  1  -0.00011843  0.00004346  0.00004811  1
  Pb  Pb4  1  0.50011152  0.99995559  0.49994796  1
  Pb  Pb5  1  0.00005577  0.50000907  0.50000329  1
  Pb  Pb6  1  0.50000970  0.50002809  0.49999887  1
  Pb  Pb7  1  0.50001148  0.49992337  0.00000990  1
  O  O8  1  0.68107755  0.68094051  0.06917577  1
  O  O9  1  0.06924047  0.06937421  0.68086589  1
  O  O10  1  0.68108627  0.06919650  0.68088341  1
  O  O11  1  0.06916340  0.68099806  0.68106143  1
  O  O12  1  0.93062726  0.93063374  0.31917534  1
  O  O13  1  0.31916456  0.93065802  0.93061291  1
  O  O14  1  0.06937188  0.68080927  0.06932638  1
  O  O15  1  0.31893626  0.31908665  0.93081008  1
  O  O16  1  0.93068527  0.31913166  0.93066057  1
  O  O17  1  0.93085831  0.31896916  0.31890357  1
  O  O18  1  0.68080627  0.06933518  0.06943050  1
  O  O19  1  0.31886023  0.93078538  0.31909649  1
