# generated using pymatgen
data_SmTaO4
_symmetry_space_group_name_H-M   'P 1'
_cell_length_a   5.23516297
_cell_length_b   5.42793825
_cell_length_c   5.60712311
_cell_angle_alpha   90.00000000
_cell_angle_beta   90.00000000
_cell_angle_gamma   96.80373283
_symmetry_Int_Tables_number   1
_chemical_formula_structural   SmTaO4
_chemical_formula_sum   'Sm2 Ta2 O8'
_cell_volume   158.21074795
_cell_formula_units_Z   2
loop_
 _symmetry_equiv_pos_site_id
 _symmetry_equiv_pos_as_xyz
  1  'x, y, z'
loop_
 _atom_site_type_symbol
 _atom_site_label
 _atom_site_symmetry_multiplicity
 _atom_site_fract_x
 _atom_site_fract_y
 _atom_site_fract_z
 _atom_site_occupancy
  O  O0  1  0.72731339  0.00687939  0.56319495  1
  O  O1  1  0.27268661  0.49312061  0.56319495  1
  O  O2  1  0.27268661  0.99312061  0.43680505  1
  O  O3  1  0.72731339  0.50687939  0.43680505  1
  O  O4  1  0.25347688  0.60720669  0.09111376  1
  O  O5  1  0.74652312  0.89279331  0.09111376  1
  O  O6  1  0.74652312  0.39279331  0.90888624  1
  O  O7  1  0.25347688  0.10720669  0.90888624  1
  Sm  Sm8  1  0.00000000  0.75000000  0.76548361  1
  Sm  Sm9  1  0.00000000  0.25000000  0.23451639  1
  Ta  Ta10  1  0.50000000  0.25000000  0.68871414  1
  Ta  Ta11  1  0.50000000  0.75000000  0.31128586  1
