# generated using pymatgen
data_Li3AlF6
_symmetry_space_group_name_H-M   'P 1'
_cell_length_a   8.39300491
_cell_length_b   8.39300491
_cell_length_c   10.04853080
_cell_angle_alpha   86.46428898
_cell_angle_beta   86.46428899
_cell_angle_gamma   61.08805224
_symmetry_Int_Tables_number   1
_chemical_formula_structural   Li3AlF6
_chemical_formula_sum   'Li18 Al6 F36'
_cell_volume   618.03030841
_cell_formula_units_Z   6
loop_
 _symmetry_equiv_pos_site_id
 _symmetry_equiv_pos_as_xyz
  1  'x, y, z'
loop_
 _atom_site_type_symbol
 _atom_site_label
 _atom_site_symmetry_multiplicity
 _atom_site_fract_x
 _atom_site_fract_y
 _atom_site_fract_z
 _atom_site_occupancy
  Li  Li0  1  0.19170294  0.80829706  0.75000000  1
  Li  Li1  1  0.80829706  0.19170294  0.25000000  1
  Li  Li2  1  0.65694319  0.93865517  0.43158189  1
  Li  Li3  1  0.06134483  0.34305681  0.06841811  1
  Li  Li4  1  0.34305681  0.06134483  0.56841811  1
  Li  Li5  1  0.93865517  0.65694319  0.93158189  1
  Li  Li6  1  0.54928838  0.11699103  0.05443116  1
  Li  Li7  1  0.88300897  0.45071162  0.44556884  1
  Li  Li8  1  0.45071162  0.88300897  0.94556884  1
  Li  Li9  1  0.11699103  0.54928838  0.55443116  1
  Li  Li10  1  0.37610748  0.67431645  0.45587825  1
  Li  Li11  1  0.32568355  0.62389252  0.04412175  1
  Li  Li12  1  0.62389252  0.32568355  0.54412175  1
  Li  Li13  1  0.67431645  0.37610748  0.95587825  1
  Li  Li14  1  0.99503766  0.28222767  0.73217870  1
  Li  Li15  1  0.71777233  0.00496234  0.76782130  1
  Li  Li16  1  0.00496234  0.71777233  0.26782130  1
  Li  Li17  1  0.28222767  0.99503766  0.23217870  1
  F  F18  1  0.55641499  0.24555658  0.20585043  1
  F  F19  1  0.06334480  0.07288603  0.34188578  1
  F  F20  1  0.92711397  0.93665520  0.15811422  1
  F  F21  1  0.93665520  0.92711397  0.65811422  1
  F  F22  1  0.07288603  0.06334480  0.84188578  1
  F  F23  1  0.11840305  0.41485755  0.89594259  1
  F  F24  1  0.44358501  0.75444342  0.79414957  1
  F  F25  1  0.24555658  0.55641499  0.70585043  1
  F  F26  1  0.22971921  0.91302329  0.56154848  1
  F  F27  1  0.75444342  0.44358501  0.29414957  1
  F  F28  1  0.57375604  0.88297732  0.10933348  1
  F  F29  1  0.11702268  0.42624396  0.39066652  1
  F  F30  1  0.42624396  0.11702268  0.89066652  1
  F  F31  1  0.88297732  0.57375604  0.60933348  1
  F  F32  1  0.45293345  0.75674679  0.29990465  1
  F  F33  1  0.24325321  0.54706655  0.20009535  1
  F  F34  1  0.54706655  0.24325321  0.70009535  1
  F  F35  1  0.75674679  0.45293345  0.79990465  1
  F  F36  1  0.26459031  0.23114132  0.17451479  1
  F  F37  1  0.76885868  0.73540969  0.32548521  1
  F  F38  1  0.73540969  0.76885868  0.82548521  1
  F  F39  1  0.88159695  0.58514245  0.10405741  1
  F  F40  1  0.22977476  0.92043704  0.06174966  1
  F  F41  1  0.07956296  0.77022524  0.43825034  1
  F  F42  1  0.77022524  0.07956296  0.93825034  1
  F  F43  1  0.92043704  0.22977476  0.56174966  1
  F  F44  1  0.08697671  0.77028079  0.93845152  1
  F  F45  1  0.23114132  0.26459031  0.67451479  1
  F  F46  1  0.91302329  0.22971921  0.06154848  1
  F  F47  1  0.77028079  0.08697671  0.43845152  1
  F  F48  1  0.41361308  0.42786695  0.42757192  1
  F  F49  1  0.57213305  0.58638692  0.07242808  1
  F  F50  1  0.58638692  0.57213305  0.57242808  1
  F  F51  1  0.42786695  0.41361308  0.92757192  1
  F  F52  1  0.41485755  0.11840305  0.39594259  1
  F  F53  1  0.58514245  0.88159695  0.60405741  1
  Al  Al54  1  0.00000000  0.00000000  0.00000000  1
  Al  Al55  1  0.33432344  0.33842312  0.79948565  1
  Al  Al56  1  0.66157688  0.66567656  0.70051435  1
  Al  Al57  1  0.66567656  0.66157688  0.20051435  1
  Al  Al58  1  0.33842312  0.33432344  0.29948565  1
  Al  Al59  1  0.00000000  0.00000000  0.50000000  1
