# generated using pymatgen
data_Ca2CoN2
_symmetry_space_group_name_H-M   'P 1'
_cell_length_a   4.94788884
_cell_length_b   5.93747058
_cell_length_c   6.46922101
_cell_angle_alpha   65.33003748
_cell_angle_beta   67.51648360
_cell_angle_gamma   65.37570262
_symmetry_Int_Tables_number   1
_chemical_formula_structural   Ca2CoN2
_chemical_formula_sum   'Ca4 Co2 N4'
_cell_volume   151.91661724
_cell_formula_units_Z   2
loop_
 _symmetry_equiv_pos_site_id
 _symmetry_equiv_pos_as_xyz
  1  'x, y, z'
loop_
 _atom_site_type_symbol
 _atom_site_label
 _atom_site_symmetry_multiplicity
 _atom_site_fract_x
 _atom_site_fract_y
 _atom_site_fract_z
 _atom_site_occupancy
  Ca  Ca0  1  0.68160851  0.23721580  0.39956818  1
  Ca  Ca1  1  0.31839149  0.76278420  0.60043182  1
  Ca  Ca2  1  0.04166439  0.68926519  0.22740502  1
  Ca  Ca3  1  0.95833561  0.31073481  0.77259498  1
  Co  Co4  1  0.37646059  0.12436258  0.12271725  1
  Co  Co5  1  0.62353941  0.87563742  0.87728275  1
  N  N6  1  0.18887904  0.23812181  0.38412111  1
  N  N7  1  0.81112096  0.76187819  0.61587889  1
  N  N8  1  0.47894897  0.23914718  0.80295488  1
  N  N9  1  0.52105103  0.76085282  0.19704512  1
