# generated using pymatgen
data_YbCu
_symmetry_space_group_name_H-M   'P 1'
_cell_length_a   4.27558146
_cell_length_b   5.59677167
_cell_length_c   7.25495688
_cell_angle_alpha   90.00000000
_cell_angle_beta   90.00000000
_cell_angle_gamma   90.00000000
_symmetry_Int_Tables_number   1
_chemical_formula_structural   YbCu
_chemical_formula_sum   'Yb4 Cu4'
_cell_volume   173.60715104
_cell_formula_units_Z   4
loop_
 _symmetry_equiv_pos_site_id
 _symmetry_equiv_pos_as_xyz
  1  'x, y, z'
loop_
 _atom_site_type_symbol
 _atom_site_label
 _atom_site_symmetry_multiplicity
 _atom_site_fract_x
 _atom_site_fract_y
 _atom_site_fract_z
 _atom_site_occupancy
  Cu  Cu0  1  0.25000000  0.61485951  0.03297234  1
  Cu  Cu1  1  0.75000000  0.38514049  0.96702766  1
  Cu  Cu2  1  0.75000000  0.11485951  0.46702766  1
  Cu  Cu3  1  0.25000000  0.88514049  0.53297234  1
  Yb  Yb4  1  0.25000000  0.13147882  0.18058841  1
  Yb  Yb5  1  0.75000000  0.86852118  0.81941159  1
  Yb  Yb6  1  0.75000000  0.63147882  0.31941159  1
  Yb  Yb7  1  0.25000000  0.36852118  0.68058841  1
