# generated using pymatgen
data_LuNiPb
_symmetry_space_group_name_H-M   'P 1'
_cell_length_a   7.44152244
_cell_length_b   7.44152244
_cell_length_c   3.80943914
_cell_angle_alpha   90.00000000
_cell_angle_beta   90.00000000
_cell_angle_gamma   119.99999998
_symmetry_Int_Tables_number   1
_chemical_formula_structural   LuNiPb
_chemical_formula_sum   'Lu3 Ni3 Pb3'
_cell_volume   182.69020496
_cell_formula_units_Z   3
loop_
 _symmetry_equiv_pos_site_id
 _symmetry_equiv_pos_as_xyz
  1  'x, y, z'
loop_
 _atom_site_type_symbol
 _atom_site_label
 _atom_site_symmetry_multiplicity
 _atom_site_fract_x
 _atom_site_fract_y
 _atom_site_fract_z
 _atom_site_occupancy
  Ni  Ni0  1  0.33333333  0.66666667  0.00000000  1
  Ni  Ni1  1  0.66666667  0.33333333  0.00000000  1
  Ni  Ni2  1  0.00000000  0.00000000  0.50000000  1
  Lu  Lu3  1  0.59793672  0.00000000  0.50000000  1
  Lu  Lu4  1  0.40206328  0.40206328  0.50000000  1
  Lu  Lu5  1  0.00000000  0.59793672  0.50000000  1
  Pb  Pb6  1  0.26562376  0.00000000  0.00000000  1
  Pb  Pb7  1  0.73437624  0.73437624  0.00000000  1
  Pb  Pb8  1  0.00000000  0.26562376  0.00000000  1
