# generated using pymatgen
data_YAl2Ni
_symmetry_space_group_name_H-M   'P 1'
_cell_length_a   4.05172459
_cell_length_b   5.52979988
_cell_length_c   6.87132696
_cell_angle_alpha   90.00000000
_cell_angle_beta   90.00000000
_cell_angle_gamma   111.49091152
_symmetry_Int_Tables_number   1
_chemical_formula_structural   YAl2Ni
_chemical_formula_sum   'Y2 Al4 Ni2'
_cell_volume   143.25011460
_cell_formula_units_Z   2
loop_
 _symmetry_equiv_pos_site_id
 _symmetry_equiv_pos_as_xyz
  1  'x, y, z'
loop_
 _atom_site_type_symbol
 _atom_site_label
 _atom_site_symmetry_multiplicity
 _atom_site_fract_x
 _atom_site_fract_y
 _atom_site_fract_z
 _atom_site_occupancy
  Al  Al0  1  0.34160745  0.68321491  0.94521475  1
  Al  Al1  1  0.65839255  0.31678509  0.05478525  1
  Al  Al2  1  0.65839255  0.31678509  0.44521475  1
  Al  Al3  1  0.34160745  0.68321491  0.55478525  1
  Ni  Ni4  1  0.21612487  0.43224974  0.25000000  1
  Ni  Ni5  1  0.78387513  0.56775026  0.75000000  1
  Y  Y6  1  0.93942747  0.87885493  0.25000000  1
  Y  Y7  1  0.06057253  0.12114507  0.75000000  1
