# generated using pymatgen
data_Te2Ir
_symmetry_space_group_name_H-M   'P 1'
_cell_length_a   4.06576027
_cell_length_b   5.41228961
_cell_length_c   10.29003473
_cell_angle_alpha   90.37890615
_cell_angle_beta   101.39420202
_cell_angle_gamma   89.99999996
_symmetry_Int_Tables_number   1
_chemical_formula_structural   Te2Ir
_chemical_formula_sum   'Te6 Ir3'
_cell_volume   221.96517650
_cell_formula_units_Z   3
loop_
 _symmetry_equiv_pos_site_id
 _symmetry_equiv_pos_as_xyz
  1  'x, y, z'
loop_
 _atom_site_type_symbol
 _atom_site_label
 _atom_site_symmetry_multiplicity
 _atom_site_fract_x
 _atom_site_fract_y
 _atom_site_fract_z
 _atom_site_occupancy
  Te  Te0  1  0.87876117  0.28710431  0.75752234  1
  Te  Te1  1  0.12123883  0.71289569  0.24247766  1
  Te  Te2  1  0.78074403  0.76171734  0.56148805  1
  Te  Te3  1  0.54427827  0.22274205  0.08855655  1
  Te  Te4  1  0.45572173  0.77725795  0.91144345  1
  Te  Te5  1  0.21925597  0.23828266  0.43851195  1
  Ir  Ir6  1  0.00000000  0.50000000  0.00000000  1
  Ir  Ir7  1  0.34059883  0.00264013  0.68119766  1
  Ir  Ir8  1  0.65940117  0.99735987  0.31880234  1
