# generated using pymatgen
data_Rb2As3
_symmetry_space_group_name_H-M   'P 1'
_cell_length_a   6.94907624
_cell_length_b   6.94907624
_cell_length_c   9.06592322
_cell_angle_alpha   110.18083284
_cell_angle_beta   110.18083281
_cell_angle_gamma   95.73061567
_symmetry_Int_Tables_number   1
_chemical_formula_structural   Rb2As3
_chemical_formula_sum   'Rb4 As6'
_cell_volume   373.59552457
_cell_formula_units_Z   2
loop_
 _symmetry_equiv_pos_site_id
 _symmetry_equiv_pos_as_xyz
  1  'x, y, z'
loop_
 _atom_site_type_symbol
 _atom_site_label
 _atom_site_symmetry_multiplicity
 _atom_site_fract_x
 _atom_site_fract_y
 _atom_site_fract_z
 _atom_site_occupancy
  As  As0  1  0.69693051  0.69693051  0.84413137  1
  As  As1  1  0.85279914  0.85279914  0.15586863  1
  As  As2  1  0.30306949  0.30306949  0.15586863  1
  As  As3  1  0.14720086  0.14720086  0.84413137  1
  As  As4  1  0.84342842  0.84342842  0.68685683  1
  As  As5  1  0.15657158  0.15657158  0.31314317  1
  Rb  Rb6  1  0.75000000  0.25000000  0.50000000  1
  Rb  Rb7  1  0.25000000  0.75000000  0.50000000  1
  Rb  Rb8  1  0.26164131  0.73835869  0.00000000  1
  Rb  Rb9  1  0.73835869  0.26164131  0.00000000  1
