# generated using pymatgen
data_TmGa2
_symmetry_space_group_name_H-M   'P 1'
_cell_length_a   4.22094270
_cell_length_b   5.74945518
_cell_length_c   5.74945519
_cell_angle_alpha   73.85247776
_cell_angle_beta   68.46476843
_cell_angle_gamma   68.46476848
_symmetry_Int_Tables_number   1
_chemical_formula_structural   TmGa2
_chemical_formula_sum   'Tm2 Ga4'
_cell_volume   119.05920297
_cell_formula_units_Z   2
loop_
 _symmetry_equiv_pos_site_id
 _symmetry_equiv_pos_as_xyz
  1  'x, y, z'
loop_
 _atom_site_type_symbol
 _atom_site_label
 _atom_site_symmetry_multiplicity
 _atom_site_fract_x
 _atom_site_fract_y
 _atom_site_fract_z
 _atom_site_occupancy
  Ga  Ga0  1  0.34017561  0.10872239  0.71092640  1
  Ga  Ga1  1  0.65982439  0.89127761  0.28907360  1
  Ga  Ga2  1  0.65982439  0.28907360  0.89127761  1
  Ga  Ga3  1  0.34017561  0.71092640  0.10872239  1
  Tm  Tm4  1  0.93921895  0.31078105  0.31078105  1
  Tm  Tm5  1  0.06078105  0.68921895  0.68921895  1
