# generated using pymatgen
data_CeAlNi
_symmetry_space_group_name_H-M   'P 1'
_cell_length_a   6.88936328
_cell_length_b   6.88936328
_cell_length_c   4.04272369
_cell_angle_alpha   90.00000000
_cell_angle_beta   90.00000000
_cell_angle_gamma   119.99999998
_symmetry_Int_Tables_number   1
_chemical_formula_structural   CeAlNi
_chemical_formula_sum   'Ce3 Al3 Ni3'
_cell_volume   166.17391938
_cell_formula_units_Z   3
loop_
 _symmetry_equiv_pos_site_id
 _symmetry_equiv_pos_as_xyz
  1  'x, y, z'
loop_
 _atom_site_type_symbol
 _atom_site_label
 _atom_site_symmetry_multiplicity
 _atom_site_fract_x
 _atom_site_fract_y
 _atom_site_fract_z
 _atom_site_occupancy
  Al  Al0  1  0.23230617  0.00000000  0.00000000  1
  Al  Al1  1  0.76769383  0.76769383  0.00000000  1
  Al  Al2  1  0.00000000  0.23230617  0.00000000  1
  Ni  Ni3  1  0.33333333  0.66666667  0.00000000  1
  Ni  Ni4  1  0.66666667  0.33333333  0.00000000  1
  Ni  Ni5  1  0.00000000  0.00000000  0.50000000  1
  Ce  Ce6  1  0.00000000  0.57632416  0.50000000  1
  Ce  Ce7  1  0.57632416  0.00000000  0.50000000  1
  Ce  Ce8  1  0.42367584  0.42367584  0.50000000  1
