# generated using pymatgen
data_Th2TeN2
_symmetry_space_group_name_H-M   'P 1'
_cell_length_a   4.10866034
_cell_length_b   4.10866034
_cell_length_c   7.19691271
_cell_angle_alpha   106.58551188
_cell_angle_beta   106.58551186
_cell_angle_gamma   89.99999998
_symmetry_Int_Tables_number   1
_chemical_formula_structural   Th2TeN2
_chemical_formula_sum   'Th2 Te1 N2'
_cell_volume   111.15272466
_cell_formula_units_Z   1
loop_
 _symmetry_equiv_pos_site_id
 _symmetry_equiv_pos_as_xyz
  1  'x, y, z'
loop_
 _atom_site_type_symbol
 _atom_site_label
 _atom_site_symmetry_multiplicity
 _atom_site_fract_x
 _atom_site_fract_y
 _atom_site_fract_z
 _atom_site_occupancy
  N  N0  1  0.75000000  0.25000000  0.50000000  1
  N  N1  1  0.25000000  0.75000000  0.50000000  1
  Te  Te2  1  0.00000000  0.00000000  0.00000000  1
  Th  Th3  1  0.33666264  0.33666264  0.67332529  1
  Th  Th4  1  0.66333736  0.66333736  0.32667471  1
