# generated using pymatgen
data_TmGa2Pd
_symmetry_space_group_name_H-M   'P 1'
_cell_length_a   4.39651187
_cell_length_b   5.49704983
_cell_length_c   6.62556390
_cell_angle_alpha   90.00000000
_cell_angle_beta   90.00000000
_cell_angle_gamma   113.57176457
_symmetry_Int_Tables_number   1
_chemical_formula_structural   TmGa2Pd
_chemical_formula_sum   'Tm2 Ga4 Pd2'
_cell_volume   146.76470581
_cell_formula_units_Z   2
loop_
 _symmetry_equiv_pos_site_id
 _symmetry_equiv_pos_as_xyz
  1  'x, y, z'
loop_
 _atom_site_type_symbol
 _atom_site_label
 _atom_site_symmetry_multiplicity
 _atom_site_fract_x
 _atom_site_fract_y
 _atom_site_fract_z
 _atom_site_occupancy
  Ga  Ga0  1  0.37199093  0.74398186  0.94780913  1
  Ga  Ga1  1  0.62800907  0.25601814  0.05219087  1
  Ga  Ga2  1  0.62800907  0.25601814  0.44780913  1
  Ga  Ga3  1  0.37199093  0.74398186  0.55219087  1
  Pd  Pd4  1  0.79935247  0.59870495  0.75000000  1
  Pd  Pd5  1  0.20064753  0.40129505  0.25000000  1
  Tm  Tm6  1  0.08697140  0.17394279  0.75000000  1
  Tm  Tm7  1  0.91302860  0.82605721  0.25000000  1
