# generated using pymatgen
data_Cr5B3
_symmetry_space_group_name_H-M   'P 1'
_cell_length_a   5.44068283
_cell_length_b   5.44068283
_cell_length_c   6.29318629
_cell_angle_alpha   115.61156297
_cell_angle_beta   115.61156302
_cell_angle_gamma   89.99999999
_symmetry_Int_Tables_number   1
_chemical_formula_structural   Cr5B3
_chemical_formula_sum   'Cr10 B6'
_cell_volume   147.42287188
_cell_formula_units_Z   2
loop_
 _symmetry_equiv_pos_site_id
 _symmetry_equiv_pos_as_xyz
  1  'x, y, z'
loop_
 _atom_site_type_symbol
 _atom_site_label
 _atom_site_symmetry_multiplicity
 _atom_site_fract_x
 _atom_site_fract_y
 _atom_site_fract_z
 _atom_site_occupancy
  B  B0  1  0.38218215  0.88218215  0.00000000  1
  B  B1  1  0.11781785  0.38218215  0.00000000  1
  B  B2  1  0.88218215  0.61781785  0.00000000  1
  B  B3  1  0.61781785  0.11781785  0.00000000  1
  B  B4  1  0.75000000  0.75000000  0.50000000  1
  B  B5  1  0.25000000  0.25000000  0.50000000  1
  Cr  Cr6  1  0.68286662  0.18286662  0.70801527  1
  Cr  Cr7  1  0.97485135  0.47485135  0.29198473  1
  Cr  Cr8  1  0.00000000  0.00000000  0.00000000  1
  Cr  Cr9  1  0.50000000  0.50000000  0.00000000  1
  Cr  Cr10  1  0.02514865  0.52514865  0.70801527  1
  Cr  Cr11  1  0.18286662  0.02514865  0.70801527  1
  Cr  Cr12  1  0.52514865  0.68286662  0.70801527  1
  Cr  Cr13  1  0.81713338  0.97485135  0.29198473  1
  Cr  Cr14  1  0.47485135  0.31713338  0.29198473  1
  Cr  Cr15  1  0.31713338  0.81713338  0.29198473  1
