# generated using pymatgen
data_Ce2Mo2C3
_symmetry_space_group_name_H-M   'P 1'
_cell_length_a   3.35628238
_cell_length_b   5.78714556
_cell_length_c   6.30763373
_cell_angle_alpha   113.97520608
_cell_angle_beta   105.42930838
_cell_angle_gamma   90.00000004
_symmetry_Int_Tables_number   1
_chemical_formula_structural   Ce2Mo2C3
_chemical_formula_sum   'Ce2 Mo2 C3'
_cell_volume   107.09415336
_cell_formula_units_Z   1
loop_
 _symmetry_equiv_pos_site_id
 _symmetry_equiv_pos_as_xyz
  1  'x, y, z'
loop_
 _atom_site_type_symbol
 _atom_site_label
 _atom_site_symmetry_multiplicity
 _atom_site_fract_x
 _atom_site_fract_y
 _atom_site_fract_z
 _atom_site_occupancy
  C  C0  1  0.00000000  0.00000000  0.00000000  1
  C  C1  1  0.25150686  0.73858092  0.50301372  1
  C  C2  1  0.74849314  0.26141908  0.49698628  1
  Mo  Mo3  1  0.15893487  0.32461188  0.31786974  1
  Mo  Mo4  1  0.84106513  0.67538812  0.68213026  1
  Ce  Ce5  1  0.39584419  0.19337663  0.79168839  1
  Ce  Ce6  1  0.60415581  0.80662337  0.20831161  1
