# generated using pymatgen
data_NiSe
_symmetry_space_group_name_H-M   'P 1'
_cell_length_a   5.88031377
_cell_length_b   5.88031377
_cell_length_c   5.88031377
_cell_angle_alpha   116.51245392
_cell_angle_beta   116.51245387
_cell_angle_gamma   116.51245382
_symmetry_Int_Tables_number   1
_chemical_formula_structural   NiSe
_chemical_formula_sum   'Ni3 Se3'
_cell_volume   96.29773860
_cell_formula_units_Z   3
loop_
 _symmetry_equiv_pos_site_id
 _symmetry_equiv_pos_as_xyz
  1  'x, y, z'
loop_
 _atom_site_type_symbol
 _atom_site_label
 _atom_site_symmetry_multiplicity
 _atom_site_fract_x
 _atom_site_fract_y
 _atom_site_fract_z
 _atom_site_occupancy
  Ni  Ni0  1  0.00758612  0.26352331  0.00758612  1
  Ni  Ni1  1  0.00758612  0.00758612  0.26352331  1
  Ni  Ni2  1  0.26352331  0.00758612  0.00758612  1
  Se  Se3  1  0.72436498  0.38457450  0.72436498  1
  Se  Se4  1  0.72436498  0.72436498  0.38457450  1
  Se  Se5  1  0.38457450  0.72436498  0.72436498  1
