# generated using pymatgen
data_YGa2Ni
_symmetry_space_group_name_H-M   'P 1'
_cell_length_a   4.13439762
_cell_length_b   5.47729370
_cell_length_c   6.66156112
_cell_angle_alpha   90.00000000
_cell_angle_beta   90.00000000
_cell_angle_gamma   112.17349541
_symmetry_Int_Tables_number   1
_chemical_formula_structural   YGa2Ni
_chemical_formula_sum   'Y2 Ga4 Ni2'
_cell_volume   139.69681555
_cell_formula_units_Z   2
loop_
 _symmetry_equiv_pos_site_id
 _symmetry_equiv_pos_as_xyz
  1  'x, y, z'
loop_
 _atom_site_type_symbol
 _atom_site_label
 _atom_site_symmetry_multiplicity
 _atom_site_fract_x
 _atom_site_fract_y
 _atom_site_fract_z
 _atom_site_occupancy
  Ni  Ni0  1  0.78997363  0.57994727  0.75000000  1
  Ni  Ni1  1  0.21002637  0.42005273  0.25000000  1
  Ga  Ga2  1  0.35538688  0.71077377  0.94607825  1
  Ga  Ga3  1  0.35538688  0.71077377  0.55392175  1
  Ga  Ga4  1  0.64461312  0.28922623  0.05392175  1
  Ga  Ga5  1  0.64461312  0.28922623  0.44607825  1
  Y  Y6  1  0.07175047  0.14350094  0.75000000  1
  Y  Y7  1  0.92824953  0.85649906  0.25000000  1
