# generated using pymatgen
data_ThS2
_symmetry_space_group_name_H-M   'P 1'
_cell_length_a   4.29954429
_cell_length_b   7.27797425
_cell_length_c   8.65000960
_cell_angle_alpha   90.00000000
_cell_angle_beta   90.00000000
_cell_angle_gamma   90.00000000
_symmetry_Int_Tables_number   1
_chemical_formula_structural   ThS2
_chemical_formula_sum   'Th4 S8'
_cell_volume   270.67586365
_cell_formula_units_Z   4
loop_
 _symmetry_equiv_pos_site_id
 _symmetry_equiv_pos_as_xyz
  1  'x, y, z'
loop_
 _atom_site_type_symbol
 _atom_site_label
 _atom_site_symmetry_multiplicity
 _atom_site_fract_x
 _atom_site_fract_y
 _atom_site_fract_z
 _atom_site_occupancy
  S  S0  1  0.75000000  0.13943275  0.92922142  1
  S  S1  1  0.25000000  0.86056725  0.07077858  1
  S  S2  1  0.75000000  0.63943275  0.57077858  1
  S  S3  1  0.25000000  0.36056725  0.42922142  1
  S  S4  1  0.75000000  0.02757261  0.33501670  1
  S  S5  1  0.25000000  0.97242739  0.66498330  1
  S  S6  1  0.75000000  0.52757261  0.16498330  1
  S  S7  1  0.25000000  0.47242739  0.83501670  1
  Th  Th8  1  0.75000000  0.74971207  0.88275234  1
  Th  Th9  1  0.25000000  0.25028793  0.11724766  1
  Th  Th10  1  0.75000000  0.24971207  0.61724766  1
  Th  Th11  1  0.25000000  0.75028793  0.38275234  1
