# generated using pymatgen
data_Ti3O5
_symmetry_space_group_name_H-M   'P 1'
_cell_length_a   3.84241987
_cell_length_b   5.29878534
_cell_length_c   9.34792506
_cell_angle_alpha   90.97669463
_cell_angle_beta   90.00000000
_cell_angle_gamma   111.25844863
_symmetry_Int_Tables_number   1
_chemical_formula_structural   Ti3O5
_chemical_formula_sum   'Ti6 O10'
_cell_volume   177.34476890
_cell_formula_units_Z   2
loop_
 _symmetry_equiv_pos_site_id
 _symmetry_equiv_pos_as_xyz
  1  'x, y, z'
loop_
 _atom_site_type_symbol
 _atom_site_label
 _atom_site_symmetry_multiplicity
 _atom_site_fract_x
 _atom_site_fract_y
 _atom_site_fract_z
 _atom_site_occupancy
  Ti  Ti0  1  0.12963842  0.25927685  0.04632004  1
  Ti  Ti1  1  0.87036158  0.74072315  0.95367996  1
  Ti  Ti2  1  0.05447878  0.10895756  0.36088641  1
  Ti  Ti3  1  0.94552122  0.89104244  0.63911359  1
  Ti  Ti4  1  0.78126962  0.56253924  0.26382530  1
  Ti  Ti5  1  0.21873038  0.43746076  0.73617470  1
  O  O6  1  0.67603627  0.35207254  0.05475146  1
  O  O7  1  0.32396373  0.64792746  0.94524854  1
  O  O8  1  0.24154410  0.48308820  0.24411097  1
  O  O9  1  0.75845590  0.51691180  0.75588903  1
  O  O10  1  0.58983818  0.17967635  0.34163696  1
  O  O11  1  0.41016182  0.82032365  0.65836304  1
  O  O12  1  0.95659298  0.91318596  0.15259378  1
  O  O13  1  0.04340702  0.08681404  0.84740622  1
  O  O14  1  0.87107691  0.74215383  0.44303052  1
  O  O15  1  0.12892309  0.25784617  0.55696948  1
