# generated using pymatgen
data_LaAlGe
_symmetry_space_group_name_H-M   'P 1'
_cell_length_a   4.37075965
_cell_length_b   4.37075965
_cell_length_c   8.04203138
_cell_angle_alpha   105.76811618
_cell_angle_beta   105.76811611
_cell_angle_gamma   89.99999998
_symmetry_Int_Tables_number   1
_chemical_formula_structural   LaAlGe
_chemical_formula_sum   'La2 Al2 Ge2'
_cell_volume   141.83332956
_cell_formula_units_Z   2
loop_
 _symmetry_equiv_pos_site_id
 _symmetry_equiv_pos_as_xyz
  1  'x, y, z'
loop_
 _atom_site_type_symbol
 _atom_site_label
 _atom_site_symmetry_multiplicity
 _atom_site_fract_x
 _atom_site_fract_y
 _atom_site_fract_z
 _atom_site_occupancy
  Al  Al0  1  0.58280600  0.58280600  0.16561200  1
  Al  Al1  1  0.33280600  0.83280600  0.66561200  1
  Ge  Ge2  1  0.41604773  0.41604773  0.83209547  1
  Ge  Ge3  1  0.16604773  0.66604773  0.33209547  1
  La  La4  1  0.99944627  0.99944627  0.99889253  1
  La  La5  1  0.74944627  0.24944627  0.49889253  1
