# generated using pymatgen
data_KBaPO4
_symmetry_space_group_name_H-M   'P 1'
_cell_length_a   5.73751572
_cell_length_b   7.84121792
_cell_length_c   10.15060929
_cell_angle_alpha   90.00000000
_cell_angle_beta   90.00000000
_cell_angle_gamma   90.00000000
_symmetry_Int_Tables_number   1
_chemical_formula_structural   KBaPO4
_chemical_formula_sum   'K4 Ba4 P4 O16'
_cell_volume   456.66688888
_cell_formula_units_Z   4
loop_
 _symmetry_equiv_pos_site_id
 _symmetry_equiv_pos_as_xyz
  1  'x, y, z'
loop_
 _atom_site_type_symbol
 _atom_site_label
 _atom_site_symmetry_multiplicity
 _atom_site_fract_x
 _atom_site_fract_y
 _atom_site_fract_z
 _atom_site_occupancy
  O  O0  1  0.25000000  0.80250853  0.43778226  1
  O  O1  1  0.75000000  0.19749147  0.56221774  1
  O  O2  1  0.25000000  0.30250853  0.06221774  1
  O  O3  1  0.75000000  0.69749147  0.93778226  1
  O  O4  1  0.25000000  0.53531051  0.58268630  1
  O  O5  1  0.75000000  0.46468949  0.41731370  1
  O  O6  1  0.25000000  0.03531051  0.91731370  1
  O  O7  1  0.75000000  0.96468949  0.08268630  1
  O  O8  1  0.02672245  0.29938391  0.84523779  1
  O  O9  1  0.52672245  0.70061609  0.15476221  1
  O  O10  1  0.47327755  0.79938391  0.65476221  1
  O  O11  1  0.97327755  0.20061609  0.34523779  1
  O  O12  1  0.02672245  0.79938391  0.65476221  1
  O  O13  1  0.52672245  0.20061609  0.34523779  1
  O  O14  1  0.47327755  0.29938391  0.84523779  1
  O  O15  1  0.97327755  0.70061609  0.15476221  1
  P  P16  1  0.25000000  0.23458714  0.91697085  1
  P  P17  1  0.75000000  0.76541286  0.08302915  1
  P  P18  1  0.75000000  0.26541286  0.41697085  1
  P  P19  1  0.25000000  0.73458714  0.58302915  1
  K  K20  1  0.25000000  0.66156783  0.91758100  1
  K  K21  1  0.25000000  0.16156783  0.58241900  1
  K  K22  1  0.75000000  0.33843217  0.08241900  1
  K  K23  1  0.75000000  0.83843217  0.41758100  1
  Ba  Ba24  1  0.25000000  0.49371351  0.30634818  1
  Ba  Ba25  1  0.75000000  0.50628649  0.69365182  1
  Ba  Ba26  1  0.25000000  0.99371351  0.19365182  1
  Ba  Ba27  1  0.75000000  0.00628649  0.80634818  1
