# generated using pymatgen
data_Mn3Al9Si
_symmetry_space_group_name_H-M   'P 1'
_cell_length_a   7.49751564
_cell_length_b   7.49751564
_cell_length_c   7.64735782
_cell_angle_alpha   90.00000000
_cell_angle_beta   90.00000000
_cell_angle_gamma   120.00000000
_symmetry_Int_Tables_number   1
_chemical_formula_structural   Mn3Al9Si
_chemical_formula_sum   'Mn6 Al18 Si2'
_cell_volume   372.28608498
_cell_formula_units_Z   2
loop_
 _symmetry_equiv_pos_site_id
 _symmetry_equiv_pos_as_xyz
  1  'x, y, z'
loop_
 _atom_site_type_symbol
 _atom_site_label
 _atom_site_symmetry_multiplicity
 _atom_site_fract_x
 _atom_site_fract_y
 _atom_site_fract_z
 _atom_site_occupancy
  Al  Al0  1  0.79967611  0.20032389  0.43568376  1
  Al  Al1  1  0.79967611  0.20032389  0.06431624  1
  Al  Al2  1  0.20032389  0.79967611  0.56431624  1
  Al  Al3  1  0.20032389  0.40064779  0.56431624  1
  Al  Al4  1  0.59935221  0.79967611  0.56431624  1
  Al  Al5  1  0.40064779  0.20032389  0.06431624  1
  Al  Al6  1  0.45737723  0.91475445  0.25000000  1
  Al  Al7  1  0.54262277  0.45737723  0.75000000  1
  Al  Al8  1  0.91475445  0.45737723  0.75000000  1
  Al  Al9  1  0.79967611  0.59935221  0.06431624  1
  Al  Al10  1  0.45737723  0.54262277  0.25000000  1
  Al  Al11  1  0.54262277  0.08524555  0.75000000  1
  Al  Al12  1  0.20032389  0.40064779  0.93568376  1
  Al  Al13  1  0.08524555  0.54262277  0.25000000  1
  Al  Al14  1  0.40064779  0.20032389  0.43568376  1
  Al  Al15  1  0.59935221  0.79967611  0.93568376  1
  Al  Al16  1  0.20032389  0.79967611  0.93568376  1
  Al  Al17  1  0.79967611  0.59935221  0.43568376  1
  Si  Si18  1  0.00000000  0.00000000  0.00000000  1
  Si  Si19  1  0.00000000  0.00000000  0.50000000  1
  Mn  Mn20  1  0.76178080  0.88089040  0.25000000  1
  Mn  Mn21  1  0.11910960  0.88089040  0.25000000  1
  Mn  Mn22  1  0.88089040  0.76178080  0.75000000  1
  Mn  Mn23  1  0.23821920  0.11910960  0.75000000  1
  Mn  Mn24  1  0.88089040  0.11910960  0.75000000  1
  Mn  Mn25  1  0.11910960  0.23821920  0.25000000  1
