# generated using pymatgen
data_Zn(BIr)2
_symmetry_space_group_name_H-M   'P 1'
_cell_length_a   2.99374192
_cell_length_b   2.99374136
_cell_length_c   6.70290857
_cell_angle_alpha   102.90390314
_cell_angle_beta   102.90390093
_cell_angle_gamma   89.99999400
_symmetry_Int_Tables_number   1
_chemical_formula_structural   Zn(BIr)2
_chemical_formula_sum   'Zn1 B2 Ir2'
_cell_volume   57.00012207
_cell_formula_units_Z   1
loop_
 _symmetry_equiv_pos_site_id
 _symmetry_equiv_pos_as_xyz
  1  'x, y, z'
loop_
 _atom_site_type_symbol
 _atom_site_label
 _atom_site_symmetry_multiplicity
 _atom_site_fract_x
 _atom_site_fract_y
 _atom_site_fract_z
 _atom_site_occupancy
  Ir  Ir0  1  0.37230341  0.37230341  0.74460683  1
  Ir  Ir1  1  0.62769659  0.62769659  0.25539317  1
  Zn  Zn2  1  0.00000000  0.00000000  0.00000000  1
  B  B3  1  0.75000000  0.25000000  0.50000000  1
  B  B4  1  0.25000000  0.75000000  0.50000000  1
