# generated using pymatgen
data_Li2US3
_symmetry_space_group_name_H-M   'P 1'
_cell_length_a   6.53474668
_cell_length_b   6.66056242
_cell_length_c   6.66056243
_cell_angle_alpha   119.92443933
_cell_angle_beta   99.81220896
_cell_angle_gamma   99.81220897
_symmetry_Int_Tables_number   1
_chemical_formula_structural   Li2US3
_chemical_formula_sum   'Li4 U2 S6'
_cell_volume   236.24384523
_cell_formula_units_Z   2
loop_
 _symmetry_equiv_pos_site_id
 _symmetry_equiv_pos_as_xyz
  1  'x, y, z'
loop_
 _atom_site_type_symbol
 _atom_site_label
 _atom_site_symmetry_multiplicity
 _atom_site_fract_x
 _atom_site_fract_y
 _atom_site_fract_z
 _atom_site_occupancy
  Li  Li0  1  0.00000000  0.00000000  0.00000000  1
  Li  Li1  1  0.50000000  0.50000000  0.50000000  1
  Li  Li2  1  0.50000000  0.83510228  0.16489772  1
  Li  Li3  1  0.50000000  0.16489772  0.83510228  1
  S  S4  1  0.25128424  0.74402529  0.74402529  1
  S  S5  1  0.75183143  0.91722205  0.57851467  1
  S  S6  1  0.75183143  0.57851467  0.91722205  1
  S  S7  1  0.74871576  0.25597471  0.25597471  1
  S  S8  1  0.24816857  0.08277795  0.42148533  1
  S  S9  1  0.24816857  0.42148533  0.08277795  1
  U  U10  1  0.00000000  0.66663858  0.33336142  1
  U  U11  1  0.00000000  0.33336142  0.66663858  1
