# generated using pymatgen
data_Al4C3
_symmetry_space_group_name_H-M   'P 1'
_cell_length_a   8.59324246
_cell_length_b   8.59324247
_cell_length_c   8.59324246
_cell_angle_alpha   22.50741015
_cell_angle_beta   22.50741011
_cell_angle_gamma   22.50741015
_symmetry_Int_Tables_number   1
_chemical_formula_structural   Al4C3
_chemical_formula_sum   'Al4 C3'
_cell_volume   81.56409915
_cell_formula_units_Z   1
loop_
 _symmetry_equiv_pos_site_id
 _symmetry_equiv_pos_as_xyz
  1  'x, y, z'
loop_
 _atom_site_type_symbol
 _atom_site_label
 _atom_site_symmetry_multiplicity
 _atom_site_fract_x
 _atom_site_fract_y
 _atom_site_fract_z
 _atom_site_occupancy
  C  C0  1  0.78326225  0.78326225  0.78326225  1
  C  C1  1  0.21673775  0.21673775  0.21673775  1
  C  C2  1  0.00000000  0.00000000  0.00000000  1
  Al  Al3  1  0.87009723  0.87009723  0.87009723  1
  Al  Al4  1  0.12990277  0.12990277  0.12990277  1
  Al  Al5  1  0.70651141  0.70651141  0.70651141  1
  Al  Al6  1  0.29348859  0.29348859  0.29348859  1
