# generated using pymatgen
data_Ag2Te
_symmetry_space_group_name_H-M   'P 1'
_cell_length_a   4.53278284
_cell_length_b   8.39742930
_cell_length_c   8.04571044
_cell_angle_alpha   112.33016818
_cell_angle_beta   90.00000000
_cell_angle_gamma   90.00000000
_symmetry_Int_Tables_number   1
_chemical_formula_structural   Ag2Te
_chemical_formula_sum   'Ag8 Te4'
_cell_volume   283.28396898
_cell_formula_units_Z   4
loop_
 _symmetry_equiv_pos_site_id
 _symmetry_equiv_pos_as_xyz
  1  'x, y, z'
loop_
 _atom_site_type_symbol
 _atom_site_label
 _atom_site_symmetry_multiplicity
 _atom_site_fract_x
 _atom_site_fract_y
 _atom_site_fract_z
 _atom_site_occupancy
  Ag  Ag0  1  0.12647664  0.34292951  0.37474488  1
  Ag  Ag1  1  0.62647664  0.15707049  0.12525512  1
  Ag  Ag2  1  0.87352336  0.65707049  0.62525512  1
  Ag  Ag3  1  0.37352336  0.84292951  0.87474488  1
  Ag  Ag4  1  0.85717780  0.65545611  0.99037288  1
  Ag  Ag5  1  0.35717780  0.84454389  0.50962712  1
  Ag  Ag6  1  0.14282220  0.34454389  0.00962712  1
  Ag  Ag7  1  0.64282220  0.15545611  0.49037288  1
  Te  Te8  1  0.14565090  0.97005443  0.24275014  1
  Te  Te9  1  0.64565090  0.52994557  0.25724986  1
  Te  Te10  1  0.85434910  0.02994557  0.75724986  1
  Te  Te11  1  0.35434910  0.47005443  0.74275014  1
