# generated using pymatgen
data_DyNi
_symmetry_space_group_name_H-M   'P 1'
_cell_length_a   4.16946286
_cell_length_b   5.42254294
_cell_length_c   7.03310851
_cell_angle_alpha   90.00000000
_cell_angle_beta   90.00000000
_cell_angle_gamma   90.00000000
_symmetry_Int_Tables_number   1
_chemical_formula_structural   DyNi
_chemical_formula_sum   'Dy4 Ni4'
_cell_volume   159.01219309
_cell_formula_units_Z   4
loop_
 _symmetry_equiv_pos_site_id
 _symmetry_equiv_pos_as_xyz
  1  'x, y, z'
loop_
 _atom_site_type_symbol
 _atom_site_label
 _atom_site_symmetry_multiplicity
 _atom_site_fract_x
 _atom_site_fract_y
 _atom_site_fract_z
 _atom_site_occupancy
  Ni  Ni0  1  0.25000000  0.87284723  0.53724582  1
  Ni  Ni1  1  0.75000000  0.12715277  0.46275418  1
  Ni  Ni2  1  0.75000000  0.37284723  0.96275418  1
  Ni  Ni3  1  0.25000000  0.62715277  0.03724582  1
  Dy  Dy4  1  0.25000000  0.36615516  0.68030558  1
  Dy  Dy5  1  0.75000000  0.63384484  0.31969442  1
  Dy  Dy6  1  0.75000000  0.86615516  0.81969442  1
  Dy  Dy7  1  0.25000000  0.13384484  0.18030558  1
