# generated using pymatgen
data_Na3Mn2SbO6
_symmetry_space_group_name_H-M   'P 1'
_cell_length_a   5.57120543
_cell_length_b   5.56242276
_cell_length_c   5.77816647
_cell_angle_alpha   80.65675128
_cell_angle_beta   71.08376348
_cell_angle_gamma   59.94775571
_symmetry_Int_Tables_number   1
_chemical_formula_structural   Na3Mn2SbO6
_chemical_formula_sum   'Na3 Mn2 Sb1 O6'
_cell_volume   146.61997431
_cell_formula_units_Z   1
loop_
 _symmetry_equiv_pos_site_id
 _symmetry_equiv_pos_as_xyz
  1  'x, y, z'
loop_
 _atom_site_type_symbol
 _atom_site_label
 _atom_site_symmetry_multiplicity
 _atom_site_fract_x
 _atom_site_fract_y
 _atom_site_fract_z
 _atom_site_occupancy
  Na  Na0  1  0.50000000  0.00000000  0.50000000  1
  Na  Na1  1  0.17232944  0.65534112  0.50000000  1
  Na  Na2  1  0.82767056  0.34465888  0.50000000  1
  Mn  Mn3  1  0.33387197  0.33225606  0.00000000  1
  Mn  Mn4  1  0.66612803  0.66774394  0.00000000  1
  Sb  Sb5  1  0.00000000  0.00000000  0.00000000  1
  O  O6  1  0.06898926  0.30622211  0.79140133  1
  O  O7  1  0.23592102  0.00000000  0.20566334  1
  O  O8  1  0.76407898  0.00000000  0.79433666  1
  O  O9  1  0.37521136  0.69377789  0.79140133  1
  O  O10  1  0.62478864  0.30622211  0.20859867  1
  O  O11  1  0.93101074  0.69377789  0.20859867  1
