# generated using pymatgen
data_B
_symmetry_space_group_name_H-M   'P 1'
_cell_length_a   5.05037474
_cell_length_b   5.05037475
_cell_length_c   5.05037475
_cell_angle_alpha   58.03939381
_cell_angle_beta   58.03939380
_cell_angle_gamma   58.03939377
_symmetry_Int_Tables_number   1
_chemical_formula_structural   B
_chemical_formula_sum   B12
_cell_volume   86.99120175
_cell_formula_units_Z   12
loop_
 _symmetry_equiv_pos_site_id
 _symmetry_equiv_pos_as_xyz
  1  'x, y, z'
loop_
 _atom_site_type_symbol
 _atom_site_label
 _atom_site_symmetry_multiplicity
 _atom_site_fract_x
 _atom_site_fract_y
 _atom_site_fract_z
 _atom_site_occupancy
  B  B0  1  0.01030808  0.65403386  0.01030808  1
  B  B1  1  0.01030808  0.01030808  0.65403386  1
  B  B2  1  0.65403386  0.01030808  0.01030808  1
  B  B3  1  0.34596614  0.98969192  0.98969192  1
  B  B4  1  0.98969192  0.34596614  0.98969192  1
  B  B5  1  0.98969192  0.98969192  0.34596614  1
  B  B6  1  0.22112990  0.63045791  0.22112990  1
  B  B7  1  0.22112990  0.22112990  0.63045791  1
  B  B8  1  0.63045791  0.22112990  0.22112990  1
  B  B9  1  0.36954209  0.77887010  0.77887010  1
  B  B10  1  0.77887010  0.36954209  0.77887010  1
  B  B11  1  0.77887010  0.77887010  0.36954209  1
