# generated using pymatgen
data_Sm2TeO2
_symmetry_space_group_name_H-M   'P 1'
_cell_length_a   4.02311316
_cell_length_b   4.02311316
_cell_length_c   7.01616623
_cell_angle_alpha   106.66067785
_cell_angle_beta   106.66067785
_cell_angle_gamma   89.99999999
_symmetry_Int_Tables_number   1
_chemical_formula_structural   Sm2TeO2
_chemical_formula_sum   'Sm2 Te1 O2'
_cell_volume   103.80643481
_cell_formula_units_Z   1
loop_
 _symmetry_equiv_pos_site_id
 _symmetry_equiv_pos_as_xyz
  1  'x, y, z'
loop_
 _atom_site_type_symbol
 _atom_site_label
 _atom_site_symmetry_multiplicity
 _atom_site_fract_x
 _atom_site_fract_y
 _atom_site_fract_z
 _atom_site_occupancy
  O  O0  1  0.25000000  0.75000000  0.50000000  1
  O  O1  1  0.75000000  0.25000000  0.50000000  1
  Te  Te2  1  0.00000000  0.00000000  0.00000000  1
  Sm  Sm3  1  0.66100186  0.66100186  0.32200372  1
  Sm  Sm4  1  0.33899814  0.33899814  0.67799628  1
