# generated using pymatgen
data_UF6
_symmetry_space_group_name_H-M   'P 1'
_cell_length_a   5.34339521
_cell_length_b   9.25241902
_cell_length_c   10.19689461
_cell_angle_alpha   90.00000000
_cell_angle_beta   90.00000000
_cell_angle_gamma   90.00000000
_symmetry_Int_Tables_number   1
_chemical_formula_structural   UF6
_chemical_formula_sum   'U4 F24'
_cell_volume   504.12765261
_cell_formula_units_Z   4
loop_
 _symmetry_equiv_pos_site_id
 _symmetry_equiv_pos_as_xyz
  1  'x, y, z'
loop_
 _atom_site_type_symbol
 _atom_site_label
 _atom_site_symmetry_multiplicity
 _atom_site_fract_x
 _atom_site_fract_y
 _atom_site_fract_z
 _atom_site_occupancy
  U  U0  1  0.58077233  0.75000000  0.37002839  1
  U  U1  1  0.91922767  0.75000000  0.87002839  1
  U  U2  1  0.41922767  0.25000000  0.62997161  1
  U  U3  1  0.08077233  0.25000000  0.12997161  1
  F  F4  1  0.27623771  0.75000000  0.48719250  1
  F  F5  1  0.22376229  0.75000000  0.98719250  1
  F  F6  1  0.72376229  0.25000000  0.51280750  1
  F  F7  1  0.77623771  0.25000000  0.01280750  1
  F  F8  1  0.88975217  0.75000000  0.25357493  1
  F  F9  1  0.61024783  0.75000000  0.75357493  1
  F  F10  1  0.11024783  0.25000000  0.74642507  1
  F  F11  1  0.38975217  0.25000000  0.24642507  1
  F  F12  1  0.73422846  0.90683570  0.48266516  1
  F  F13  1  0.76577154  0.59316430  0.98266516  1
  F  F14  1  0.26577154  0.40683570  0.51733484  1
  F  F15  1  0.23422846  0.09316430  0.01733484  1
  F  F16  1  0.26577154  0.09316430  0.51733484  1
  F  F17  1  0.23422846  0.40683570  0.01733484  1
  F  F18  1  0.73422846  0.59316430  0.48266516  1
  F  F19  1  0.76577154  0.90683570  0.98266516  1
  F  F20  1  0.41651784  0.90148434  0.25628048  1
  F  F21  1  0.08348216  0.59851566  0.75628048  1
  F  F22  1  0.58348216  0.40148434  0.74371952  1
  F  F23  1  0.91651784  0.09851566  0.24371952  1
  F  F24  1  0.58348216  0.09851566  0.74371952  1
  F  F25  1  0.91651784  0.40148434  0.24371952  1
  F  F26  1  0.41651784  0.59851566  0.25628048  1
  F  F27  1  0.08348216  0.90148434  0.75628048  1
