# generated using pymatgen
data_MnS
_symmetry_space_group_name_H-M   'P 1'
_cell_length_a   3.95802528
_cell_length_b   3.95802521
_cell_length_c   6.64248332
_cell_angle_alpha   90.00000302
_cell_angle_beta   72.66652675
_cell_angle_gamma   60.00000361
_symmetry_Int_Tables_number   1
_chemical_formula_structural   MnS
_chemical_formula_sum   'Mn2 S2'
_cell_volume   84.61861308
_cell_formula_units_Z   2
loop_
 _symmetry_equiv_pos_site_id
 _symmetry_equiv_pos_as_xyz
  1  'x, y, z'
loop_
 _atom_site_type_symbol
 _atom_site_label
 _atom_site_symmetry_multiplicity
 _atom_site_fract_x
 _atom_site_fract_y
 _atom_site_fract_z
 _atom_site_occupancy
  Mn  Mn0  1  0.00089885  0.99955058  0.99865173  1
  Mn  Mn1  1  0.00088149  0.49955926  0.49867777  1
  S  S2  1  0.24911342  0.37544329  0.12632988  1
  S  S3  1  0.24910625  0.87544687  0.62634062  1
