# generated using pymatgen
data_NdFeSi2
_symmetry_space_group_name_H-M   'P 1'
_cell_length_a   4.01763071
_cell_length_b   4.10274489
_cell_length_c   8.70006186
_cell_angle_alpha   103.63809247
_cell_angle_beta   90.00000000
_cell_angle_gamma   90.00000000
_symmetry_Int_Tables_number   1
_chemical_formula_structural   NdFeSi2
_chemical_formula_sum   'Nd2 Fe2 Si4'
_cell_volume   139.36244393
_cell_formula_units_Z   2
loop_
 _symmetry_equiv_pos_site_id
 _symmetry_equiv_pos_as_xyz
  1  'x, y, z'
loop_
 _atom_site_type_symbol
 _atom_site_label
 _atom_site_symmetry_multiplicity
 _atom_site_fract_x
 _atom_site_fract_y
 _atom_site_fract_z
 _atom_site_occupancy
  Si  Si0  1  0.25000000  0.68881903  0.37763807  1
  Si  Si1  1  0.75000000  0.31118097  0.62236193  1
  Si  Si2  1  0.75000000  0.46169251  0.92338502  1
  Si  Si3  1  0.25000000  0.53830749  0.07661498  1
  Fe  Fe4  1  0.75000000  0.74942957  0.49885915  1
  Fe  Fe5  1  0.25000000  0.25057043  0.50114085  1
  Nd  Nd6  1  0.25000000  0.89305933  0.78611867  1
  Nd  Nd7  1  0.75000000  0.10694067  0.21388133  1
