# generated using pymatgen
data_PuBr3
_symmetry_space_group_name_H-M   'P 1'
_cell_length_a   4.04470733
_cell_length_b   7.56926767
_cell_length_c   9.19537074
_cell_angle_alpha   90.00000000
_cell_angle_beta   90.00000000
_cell_angle_gamma   105.49650335
_symmetry_Int_Tables_number   1
_chemical_formula_structural   PuBr3
_chemical_formula_sum   'Pu2 Br6'
_cell_volume   271.28643287
_cell_formula_units_Z   2
loop_
 _symmetry_equiv_pos_site_id
 _symmetry_equiv_pos_as_xyz
  1  'x, y, z'
loop_
 _atom_site_type_symbol
 _atom_site_label
 _atom_site_symmetry_multiplicity
 _atom_site_fract_x
 _atom_site_fract_y
 _atom_site_fract_z
 _atom_site_occupancy
  Br  Br0  1  0.34145460  0.68290920  0.43132373  1
  Br  Br1  1  0.65854540  0.31709080  0.56867627  1
  Br  Br2  1  0.90155764  0.80311527  0.75000000  1
  Br  Br3  1  0.09844236  0.19688473  0.25000000  1
  Br  Br4  1  0.34145460  0.68290920  0.06867627  1
  Br  Br5  1  0.65854540  0.31709080  0.93132373  1
  Pu  Pu6  1  0.73874988  0.47749975  0.25000000  1
  Pu  Pu7  1  0.26125012  0.52250025  0.75000000  1
