# generated using pymatgen
data_OsF6
_symmetry_space_group_name_H-M   'P 1'
_cell_length_a   5.16076969
_cell_length_b   8.90317642
_cell_length_c   9.77992998
_cell_angle_alpha   90.00000000
_cell_angle_beta   90.00000000
_cell_angle_gamma   90.00000000
_symmetry_Int_Tables_number   1
_chemical_formula_structural   OsF6
_chemical_formula_sum   'Os4 F24'
_cell_volume   449.36081944
_cell_formula_units_Z   4
loop_
 _symmetry_equiv_pos_site_id
 _symmetry_equiv_pos_as_xyz
  1  'x, y, z'
loop_
 _atom_site_type_symbol
 _atom_site_label
 _atom_site_symmetry_multiplicity
 _atom_site_fract_x
 _atom_site_fract_y
 _atom_site_fract_z
 _atom_site_occupancy
  F  F0  1  0.25671380  0.10161238  0.01815210  1
  F  F1  1  0.75671380  0.89838762  0.48184790  1
  F  F2  1  0.74328620  0.60161238  0.98184790  1
  F  F3  1  0.24328620  0.39838762  0.51815210  1
  F  F4  1  0.61736513  0.75000000  0.25942258  1
  F  F5  1  0.11736513  0.25000000  0.24057742  1
  F  F6  1  0.38263487  0.25000000  0.74057742  1
  F  F7  1  0.88263487  0.75000000  0.75942258  1
  F  F8  1  0.06104548  0.60152530  0.26426245  1
  F  F9  1  0.56104548  0.39847470  0.23573755  1
  F  F10  1  0.93895452  0.10152530  0.73573755  1
  F  F11  1  0.43895452  0.89847470  0.76426245  1
  F  F12  1  0.93895452  0.39847470  0.73573755  1
  F  F13  1  0.43895452  0.60152530  0.76426245  1
  F  F14  1  0.06104548  0.89847470  0.26426245  1
  F  F15  1  0.56104548  0.10152530  0.23573755  1
  F  F16  1  0.20046743  0.75000000  0.48675518  1
  F  F17  1  0.70046743  0.25000000  0.01324482  1
  F  F18  1  0.79953257  0.25000000  0.51324482  1
  F  F19  1  0.29953257  0.75000000  0.98675518  1
  F  F20  1  0.75671380  0.60161238  0.48184790  1
  F  F21  1  0.25671380  0.39838762  0.01815210  1
  F  F22  1  0.24328620  0.10161238  0.51815210  1
  F  F23  1  0.74328620  0.89838762  0.98184790  1
  Os  Os24  1  0.59078719  0.75000000  0.87302400  1
  Os  Os25  1  0.09078719  0.25000000  0.62697600  1
  Os  Os26  1  0.40921281  0.25000000  0.12697600  1
  Os  Os27  1  0.90921281  0.75000000  0.37302400  1
