# generated using pymatgen
data_Ga4GeO8
_symmetry_space_group_name_H-M   'P 1'
_cell_length_a   3.04750615
_cell_length_b   6.37860844
_cell_length_c   7.96609751
_cell_angle_alpha   82.41959762
_cell_angle_beta   78.97252217
_cell_angle_gamma   76.17926590
_symmetry_Int_Tables_number   1
_chemical_formula_structural   Ga4GeO8
_chemical_formula_sum   'Ga4 Ge1 O8'
_cell_volume   146.98683217
_cell_formula_units_Z   1
loop_
 _symmetry_equiv_pos_site_id
 _symmetry_equiv_pos_as_xyz
  1  'x, y, z'
loop_
 _atom_site_type_symbol
 _atom_site_label
 _atom_site_symmetry_multiplicity
 _atom_site_fract_x
 _atom_site_fract_y
 _atom_site_fract_z
 _atom_site_occupancy
  O  O0  1  0.88978667  0.52473592  0.69569075  1
  O  O1  1  0.11021333  0.47526408  0.30430925  1
  O  O2  1  0.44070587  0.19069140  0.92789685  1
  O  O3  1  0.55929413  0.80930860  0.07210315  1
  O  O4  1  0.64586962  0.17080043  0.53746033  1
  O  O5  1  0.83931037  0.10577882  0.21560045  1
  O  O6  1  0.16068963  0.89422118  0.78439955  1
  O  O7  1  0.35413038  0.82919957  0.46253967  1
  Ga  Ga8  1  0.46256297  0.35784746  0.71702659  1
  Ga  Ga9  1  0.53743703  0.64215254  0.28297341  1
  Ga  Ga10  1  0.75841689  0.84361505  0.63955117  1
  Ga  Ga11  1  0.24158311  0.15638495  0.36044883  1
  Ge  Ge12  1  0.00000000  0.00000000  0.00000000  1
