# generated using pymatgen
data_Mn2N
_symmetry_space_group_name_H-M   'P 1'
_cell_length_a   4.39732302
_cell_length_b   4.82691896
_cell_length_c   5.54782889
_cell_angle_alpha   90.00000000
_cell_angle_beta   90.00000000
_cell_angle_gamma   90.00000000
_symmetry_Int_Tables_number   1
_chemical_formula_structural   Mn2N
_chemical_formula_sum   'Mn8 N4'
_cell_volume   117.75556337
_cell_formula_units_Z   4
loop_
 _symmetry_equiv_pos_site_id
 _symmetry_equiv_pos_as_xyz
  1  'x, y, z'
loop_
 _atom_site_type_symbol
 _atom_site_label
 _atom_site_symmetry_multiplicity
 _atom_site_fract_x
 _atom_site_fract_y
 _atom_site_fract_z
 _atom_site_occupancy
  N  N0  1  0.50000000  0.75000000  0.13381041  1
  N  N1  1  0.00000000  0.25000000  0.36618959  1
  N  N2  1  0.50000000  0.25000000  0.86618959  1
  N  N3  1  0.00000000  0.75000000  0.63381041  1
  Mn  Mn4  1  0.25008622  0.08290202  0.12099115  1
  Mn  Mn5  1  0.75008622  0.91709798  0.37900885  1
  Mn  Mn6  1  0.24991378  0.58290202  0.37900885  1
  Mn  Mn7  1  0.74991378  0.41709798  0.12099115  1
  Mn  Mn8  1  0.25008622  0.58290202  0.87900885  1
  Mn  Mn9  1  0.75008622  0.41709798  0.62099115  1
  Mn  Mn10  1  0.24991378  0.08290202  0.62099115  1
  Mn  Mn11  1  0.74991378  0.91709798  0.87900885  1
