# generated using pymatgen
data_CaPHO4
_symmetry_space_group_name_H-M   'P 1'
_cell_length_a   6.72047043
_cell_length_b   6.98101733
_cell_length_c   7.09704071
_cell_angle_alpha   75.71615568
_cell_angle_beta   83.35935137
_cell_angle_gamma   88.17619005
_symmetry_Int_Tables_number   1
_chemical_formula_structural   CaPHO4
_chemical_formula_sum   'Ca4 P4 H4 O16'
_cell_volume   320.50267285
_cell_formula_units_Z   4
loop_
 _symmetry_equiv_pos_site_id
 _symmetry_equiv_pos_as_xyz
  1  'x, y, z'
loop_
 _atom_site_type_symbol
 _atom_site_label
 _atom_site_symmetry_multiplicity
 _atom_site_fract_x
 _atom_site_fract_y
 _atom_site_fract_z
 _atom_site_occupancy
  H  H0  1  0.11928922  0.52968524  0.53916925  1
  H  H1  1  0.26573583  0.46334102  0.04832005  1
  H  H2  1  0.74181697  0.54332132  0.94609063  1
  H  H3  1  0.00300104  0.99101349  0.02270361  1
  O  O4  1  0.78896558  0.27716787  0.64994384  1
  O  O5  1  0.19365937  0.68468550  0.36297859  1
  O  O6  1  0.07764534  0.10357155  0.83275747  1
  O  O7  1  0.94414380  0.90631551  0.16171876  1
  O  O8  1  0.66286221  0.67537491  0.93489076  1
  O  O9  1  0.33986017  0.32755652  0.05980344  1
  O  O10  1  0.50656503  0.64912949  0.62876058  1
  O  O11  1  0.48720952  0.34438090  0.37198828  1
  O  O12  1  0.81926529  0.86210558  0.59612725  1
  O  O13  1  0.17720925  0.13477364  0.39512570  1
  O  O14  1  0.47420192  0.95940508  0.74331998  1
  O  O15  1  0.52261973  0.03673523  0.24924467  1
  O  O16  1  0.16778763  0.66671635  0.01516786  1
  O  O17  1  0.84473448  0.33813862  0.97779272  1
  O  O18  1  0.87733540  0.54522992  0.28470695  1
  O  O19  1  0.10374319  0.46257260  0.68875104  1
  P  P20  1  0.61957687  0.79199617  0.71675559  1
  P  P21  1  0.37860051  0.20447450  0.27714158  1
  P  P22  1  0.04793416  0.69275190  0.20607429  1
  P  P23  1  0.94143205  0.28959895  0.78858290  1
  Ca  Ca24  1  0.55793763  0.69864945  0.27490619  1
  Ca  Ca25  1  0.44101499  0.29017901  0.72992178  1
  Ca  Ca26  1  0.15932964  0.83892224  0.67166597  1
  Ca  Ca27  1  0.83502317  0.18940745  0.33369024  1
