# generated using pymatgen
data_PH4I
_symmetry_space_group_name_H-M   'P 1'
_cell_length_a   4.66734552
_cell_length_b   6.41996331
_cell_length_c   6.41996331
_cell_angle_alpha   90.00000000
_cell_angle_beta   90.00000000
_cell_angle_gamma   90.00000000
_symmetry_Int_Tables_number   1
_chemical_formula_structural   PH4I
_chemical_formula_sum   'P2 H8 I2'
_cell_volume   192.36898111
_cell_formula_units_Z   2
loop_
 _symmetry_equiv_pos_site_id
 _symmetry_equiv_pos_as_xyz
  1  'x, y, z'
loop_
 _atom_site_type_symbol
 _atom_site_label
 _atom_site_symmetry_multiplicity
 _atom_site_fract_x
 _atom_site_fract_y
 _atom_site_fract_z
 _atom_site_occupancy
  H  H0  1  0.17705543  0.42931982  0.75000000  1
  H  H1  1  0.17705543  0.75000000  0.42931982  1
  H  H2  1  0.17705543  0.75000000  0.07068018  1
  H  H3  1  0.17705543  0.07068018  0.75000000  1
  H  H4  1  0.82294457  0.92931982  0.25000000  1
  H  H5  1  0.82294457  0.57068018  0.25000000  1
  H  H6  1  0.82294457  0.25000000  0.92931982  1
  H  H7  1  0.82294457  0.25000000  0.57068018  1
  P  P8  1  0.00000000  0.25000000  0.75000000  1
  P  P9  1  0.00000000  0.75000000  0.25000000  1
  I  I10  1  0.39644914  0.25000000  0.25000000  1
  I  I11  1  0.60355086  0.75000000  0.75000000  1
