# generated using pymatgen
data_Na8Ti5O14
_symmetry_space_group_name_H-M   'P 1'
_cell_length_a   8.45204383
_cell_length_b   8.64267360
_cell_length_c   10.64826125
_cell_angle_alpha   104.19939768
_cell_angle_beta   102.26368871
_cell_angle_gamma   112.50079994
_symmetry_Int_Tables_number   1
_chemical_formula_structural   Na8Ti5O14
_chemical_formula_sum   'Na16 Ti10 O28'
_cell_volume   654.66629131
_cell_formula_units_Z   2
loop_
 _symmetry_equiv_pos_site_id
 _symmetry_equiv_pos_as_xyz
  1  'x, y, z'
loop_
 _atom_site_type_symbol
 _atom_site_label
 _atom_site_symmetry_multiplicity
 _atom_site_fract_x
 _atom_site_fract_y
 _atom_site_fract_z
 _atom_site_occupancy
  Na  Na0  1  0.55189511  0.32357135  0.98559473  1
  Na  Na1  1  0.44810489  0.67642865  0.01440527  1
  Na  Na2  1  0.62501104  0.98814567  0.89039290  1
  Na  Na3  1  0.37498896  0.01185433  0.10960710  1
  Na  Na4  1  0.69269548  0.62316732  0.83060261  1
  Na  Na5  1  0.30730452  0.37683268  0.16939739  1
  Na  Na6  1  0.88898403  0.52338732  0.61754948  1
  Na  Na7  1  0.11101597  0.47661268  0.38245052  1
  Na  Na8  1  0.56483192  0.12730554  0.43472537  1
  Na  Na9  1  0.43516808  0.87269446  0.56527463  1
  Na  Na10  1  0.71032362  0.41864496  0.29550182  1
  Na  Na11  1  0.28967638  0.58135504  0.70449818  1
  Na  Na12  1  0.81792072  0.33417647  0.82412340  1
  Na  Na13  1  0.18207928  0.66582353  0.17587660  1
  Na  Na14  1  0.00000000  -0.00000000  -0.00000000  1
  Na  Na15  1  0.50000000  0.50000000  0.50000000  1
  Ti  Ti16  1  0.81193084  0.88739366  0.67328444  1
  Ti  Ti17  1  0.18806916  0.11260634  0.32671556  1
  Ti  Ti18  1  0.96533555  0.17641162  0.53058655  1
  Ti  Ti19  1  0.03466445  0.82358838  0.46941345  1
  Ti  Ti20  1  0.62249226  0.77455417  0.34569058  1
  Ti  Ti21  1  0.37750774  0.22544583  0.65430942  1
  Ti  Ti22  1  0.78439490  0.07267357  0.21039539  1
  Ti  Ti23  1  0.21560510  0.92732643  0.78960461  1
  Ti  Ti24  1  0.85397396  0.72382736  0.15128518  1
  Ti  Ti25  1  0.14602604  0.27617264  0.84871482  1
  O  O26  1  0.89374248  0.10218759  0.82422111  1
  O  O27  1  0.10625752  0.89781241  0.17577889  1
  O  O28  1  0.95685011  0.80113762  0.77173736  1
  O  O29  1  0.04314989  0.19886238  0.22826264  1
  O  O30  1  0.59518337  0.75953439  0.68843025  1
  O  O31  1  0.40481663  0.24046561  0.31156975  1
  O  O32  1  0.72848020  0.99014320  0.52973042  1
  O  O33  1  0.27151980  0.00985680  0.47026958  1
  O  O34  1  0.78687604  0.70690344  0.48411704  1
  O  O35  1  0.21312396  0.29309656  0.51588296  1
  O  O36  1  0.85315294  0.25797169  0.40880684  1
  O  O37  1  0.14684706  0.74202831  0.59119316  1
  O  O38  1  0.91841236  0.95235555  0.35605651  1
  O  O39  1  0.08158764  0.04764445  0.64394349  1
  O  O40  1  0.98152535  0.65357083  0.30307389  1
  O  O41  1  0.01847465  0.34642917  0.69692611  1
  O  O42  1  0.56298149  0.90925441  0.24298183  1
  O  O43  1  0.43701851  0.09074559  0.75701817  1
  O  O44  1  0.62565115  0.60323992  0.19153562  1
  O  O45  1  0.37434885  0.39676008  0.80846438  1
  O  O46  1  0.67921035  0.17097786  0.11695975  1
  O  O47  1  0.32078965  0.82902214  0.88304025  1
  O  O48  1  0.75356362  0.86052487  0.06462624  1
  O  O49  1  0.24643638  0.13947513  0.93537376  1
  O  O50  1  0.81904541  0.55028607  0.00522984  1
  O  O51  1  0.18095459  0.44971393  0.99477016  1
  O  O52  1  0.59548450  0.35363848  0.64307139  1
  O  O53  1  0.40451550  0.64636152  0.35692861  1
