# generated using pymatgen
data_Sm(SiPd)2
_symmetry_space_group_name_H-M   'P 1'
_cell_length_a   4.20822294
_cell_length_b   4.20822293
_cell_length_c   5.81287771
_cell_angle_alpha   111.22148502
_cell_angle_beta   111.22148499
_cell_angle_gamma   89.99999994
_symmetry_Int_Tables_number   1
_chemical_formula_structural   Sm(SiPd)2
_chemical_formula_sum   'Sm1 Si2 Pd2'
_cell_volume   88.43047643
_cell_formula_units_Z   1
loop_
 _symmetry_equiv_pos_site_id
 _symmetry_equiv_pos_as_xyz
  1  'x, y, z'
loop_
 _atom_site_type_symbol
 _atom_site_label
 _atom_site_symmetry_multiplicity
 _atom_site_fract_x
 _atom_site_fract_y
 _atom_site_fract_z
 _atom_site_occupancy
  Si  Si0  1  0.61803821  0.61803821  0.23607642  1
  Si  Si1  1  0.38196179  0.38196179  0.76392358  1
  Pd  Pd2  1  0.75000000  0.25000000  0.50000000  1
  Pd  Pd3  1  0.25000000  0.75000000  0.50000000  1
  Sm  Sm4  1  0.00000000  0.00000000  0.00000000  1
