# generated using pymatgen
data_NaSi2Pd3
_symmetry_space_group_name_H-M   'P 1'
_cell_length_a   5.75930806
_cell_length_b   6.73819987
_cell_length_c   6.73819986
_cell_angle_alpha   63.55502960
_cell_angle_beta   64.69970541
_cell_angle_gamma   64.69970534
_symmetry_Int_Tables_number   1
_chemical_formula_structural   NaSi2Pd3
_chemical_formula_sum   'Na2 Si4 Pd6'
_cell_volume   202.39339462
_cell_formula_units_Z   2
loop_
 _symmetry_equiv_pos_site_id
 _symmetry_equiv_pos_as_xyz
  1  'x, y, z'
loop_
 _atom_site_type_symbol
 _atom_site_label
 _atom_site_symmetry_multiplicity
 _atom_site_fract_x
 _atom_site_fract_y
 _atom_site_fract_z
 _atom_site_occupancy
  Na  Na0  1  0.95566141  0.00000000  0.00000000  1
  Na  Na1  1  0.01925560  0.50000000  0.50000000  1
  Si  Si2  1  0.38330514  0.68866655  0.68866655  1
  Si  Si3  1  0.28207152  0.15693728  0.15693728  1
  Si  Si4  1  0.76063824  0.31133345  0.31133345  1
  Si  Si5  1  0.59594607  0.84306272  0.84306272  1
  Pd  Pd6  1  0.49557995  0.04939510  0.45194318  1
  Pd  Pd7  1  0.49557995  0.45194318  0.04939510  1
  Pd  Pd8  1  0.99691823  0.95060490  0.54805682  1
  Pd  Pd9  1  0.50156283  0.28129742  0.71870258  1
  Pd  Pd10  1  0.50156283  0.71870258  0.28129742  1
  Pd  Pd11  1  0.99691823  0.54805682  0.95060490  1
