# generated using pymatgen
data_BaSm2CoO5
_symmetry_space_group_name_H-M   'P 1'
_cell_length_a   3.81947429
_cell_length_b   5.94235556
_cell_length_c   6.88027248
_cell_angle_alpha   115.58508701
_cell_angle_beta   106.11400869
_cell_angle_gamma   89.99924900
_symmetry_Int_Tables_number   1
_chemical_formula_structural   BaSm2CoO5
_chemical_formula_sum   'Ba1 Sm2 Co1 O5'
_cell_volume   134.01289886
_cell_formula_units_Z   1
loop_
 _symmetry_equiv_pos_site_id
 _symmetry_equiv_pos_as_xyz
  1  'x, y, z'
loop_
 _atom_site_type_symbol
 _atom_site_label
 _atom_site_symmetry_multiplicity
 _atom_site_fract_x
 _atom_site_fract_y
 _atom_site_fract_z
 _atom_site_occupancy
  Ba  Ba0  1  0.99999970  0.00000022  0.99999974  1
  Sm  Sm1  1  0.20298106  0.70297856  0.40595924  1
  Sm  Sm2  1  0.79701942  0.29702160  0.59404116  1
  Co  Co3  1  0.49999995  0.50000008  0.00000006  1
  O  O4  1  0.35167813  0.10904070  0.70340044  1
  O  O5  1  0.64832104  0.89095927  0.29659967  1
  O  O6  1  0.64831340  0.40557880  0.29656236  1
  O  O7  1  0.35168655  0.59442174  0.70343828  1
  O  O8  1  0.99999975  0.50000003  0.00000005  1
