# generated using pymatgen
data_TmMgIn
_symmetry_space_group_name_H-M   'P 1'
_cell_length_a   7.45611410
_cell_length_b   7.45611411
_cell_length_c   4.66476826
_cell_angle_alpha   90.00000000
_cell_angle_beta   90.00000000
_cell_angle_gamma   119.99999998
_symmetry_Int_Tables_number   1
_chemical_formula_structural   TmMgIn
_chemical_formula_sum   'Tm3 Mg3 In3'
_cell_volume   224.58761138
_cell_formula_units_Z   3
loop_
 _symmetry_equiv_pos_site_id
 _symmetry_equiv_pos_as_xyz
  1  'x, y, z'
loop_
 _atom_site_type_symbol
 _atom_site_label
 _atom_site_symmetry_multiplicity
 _atom_site_fract_x
 _atom_site_fract_y
 _atom_site_fract_z
 _atom_site_occupancy
  Mg  Mg0  1  0.75854355  0.75854355  0.50000000  1
  Mg  Mg1  1  0.24145645  0.00000000  0.50000000  1
  Mg  Mg2  1  0.00000000  0.24145645  0.50000000  1
  In  In3  1  0.66666667  0.33333333  0.50000000  1
  In  In4  1  0.00000000  0.00000000  0.00000000  1
  In  In5  1  0.33333333  0.66666667  0.50000000  1
  Tm  Tm6  1  0.00000000  0.56389770  0.00000000  1
  Tm  Tm7  1  0.43610230  0.43610230  0.00000000  1
  Tm  Tm8  1  0.56389770  0.00000000  0.00000000  1
