# generated using pymatgen
data_KH2N
_symmetry_space_group_name_H-M   'P 1'
_cell_length_a   3.82406099
_cell_length_b   4.62500684
_cell_length_c   6.28316730
_cell_angle_alpha   95.46110805
_cell_angle_beta   90.00000000
_cell_angle_gamma   90.00000000
_symmetry_Int_Tables_number   1
_chemical_formula_structural   KH2N
_chemical_formula_sum   'K2 H4 N2'
_cell_volume   110.62163559
_cell_formula_units_Z   2
loop_
 _symmetry_equiv_pos_site_id
 _symmetry_equiv_pos_as_xyz
  1  'x, y, z'
loop_
 _atom_site_type_symbol
 _atom_site_label
 _atom_site_symmetry_multiplicity
 _atom_site_fract_x
 _atom_site_fract_y
 _atom_site_fract_z
 _atom_site_occupancy
  H  H0  1  0.54275205  0.70305813  0.13137384  1
  H  H1  1  0.04275205  0.29694187  0.86862616  1
  H  H2  1  0.95724795  0.70305813  0.13137384  1
  H  H3  1  0.45724795  0.29694187  0.86862616  1
  N  N4  1  0.75000000  0.72748656  0.23693267  1
  N  N5  1  0.25000000  0.27251344  0.76306733  1
  K  K6  1  0.25000000  0.22384838  0.31337650  1
  K  K7  1  0.75000000  0.77615162  0.68662350  1
