# generated using pymatgen
data_Al2Te3
_symmetry_space_group_name_H-M   'P 1'
_cell_length_a   7.28180873
_cell_length_b   13.13512857
_cell_length_c   15.32495788
_cell_angle_alpha   90.00000000
_cell_angle_beta   90.05329216
_cell_angle_gamma   90.00000000
_symmetry_Int_Tables_number   1
_chemical_formula_structural   Al2Te3
_chemical_formula_sum   'Al16 Te24'
_cell_volume   1465.79318153
_cell_formula_units_Z   8
loop_
 _symmetry_equiv_pos_site_id
 _symmetry_equiv_pos_as_xyz
  1  'x, y, z'
loop_
 _atom_site_type_symbol
 _atom_site_label
 _atom_site_symmetry_multiplicity
 _atom_site_fract_x
 _atom_site_fract_y
 _atom_site_fract_z
 _atom_site_occupancy
  Al  Al0  1  0.57990104  0.74943207  0.30767810  1
  Al  Al1  1  0.42009896  0.24943207  0.19232190  1
  Al  Al2  1  0.42009896  0.25056793  0.69232190  1
  Al  Al3  1  0.57990104  0.75056793  0.80767810  1
  Al  Al4  1  0.06900866  0.90625525  0.31783509  1
  Al  Al5  1  0.93099134  0.40625525  0.18216491  1
  Al  Al6  1  0.93099134  0.09374475  0.68216491  1
  Al  Al7  1  0.06900866  0.59374475  0.81783509  1
  Al  Al8  1  0.07891215  0.59001205  0.30278681  1
  Al  Al9  1  0.92108785  0.09001205  0.19721319  1
  Al  Al10  1  0.92108785  0.40998795  0.69721319  1
  Al  Al11  1  0.07891215  0.90998795  0.80278681  1
  Al  Al12  1  0.43083806  0.93258089  0.18883767  1
  Al  Al13  1  0.56916194  0.43258089  0.31116233  1
  Al  Al14  1  0.56916194  0.06741911  0.81116233  1
  Al  Al15  1  0.43083806  0.56741911  0.68883767  1
  Te  Te16  1  0.91045803  0.74226515  0.38895775  1
  Te  Te17  1  0.08954197  0.24226515  0.11104225  1
  Te  Te18  1  0.08954197  0.25773485  0.61104225  1
  Te  Te19  1  0.91045803  0.75773485  0.88895775  1
  Te  Te20  1  0.58139851  0.76329163  0.14018887  1
  Te  Te21  1  0.41860149  0.26329163  0.35981113  1
  Te  Te22  1  0.41860149  0.23670837  0.85981113  1
  Te  Te23  1  0.58139851  0.73670837  0.64018887  1
  Te  Te24  1  0.07600593  0.91583587  0.14221185  1
  Te  Te25  1  0.92399407  0.41583587  0.35778815  1
  Te  Te26  1  0.92399407  0.08416413  0.85778815  1
  Te  Te27  1  0.07600593  0.58416413  0.64221185  1
  Te  Te28  1  0.08311983  0.57596066  0.13507103  1
  Te  Te29  1  0.91688017  0.07596066  0.36492897  1
  Te  Te30  1  0.91688017  0.42403934  0.86492897  1
  Te  Te31  1  0.08311983  0.92403934  0.63507103  1
  Te  Te32  1  0.40787737  0.59341642  0.38628890  1
  Te  Te33  1  0.59212263  0.09341642  0.11371110  1
  Te  Te34  1  0.59212263  0.40658358  0.61371110  1
  Te  Te35  1  0.40787737  0.90658358  0.88628890  1
  Te  Te36  1  0.42433408  0.92274884  0.36446988  1
  Te  Te37  1  0.57566592  0.42274884  0.13553012  1
  Te  Te38  1  0.57566592  0.07725116  0.63553012  1
  Te  Te39  1  0.42433408  0.57725116  0.86446988  1
