# generated using pymatgen
data_Fe2Re3
_symmetry_space_group_name_H-M   'P 1'
_cell_length_a   6.41263166
_cell_length_b   6.41263166
_cell_length_c   6.41263166
_cell_angle_alpha   90.00000000
_cell_angle_beta   90.00000000
_cell_angle_gamma   90.00000000
_symmetry_Int_Tables_number   1
_chemical_formula_structural   Fe2Re3
_chemical_formula_sum   'Fe8 Re12'
_cell_volume   263.69924393
_cell_formula_units_Z   4
loop_
 _symmetry_equiv_pos_site_id
 _symmetry_equiv_pos_as_xyz
  1  'x, y, z'
loop_
 _atom_site_type_symbol
 _atom_site_label
 _atom_site_symmetry_multiplicity
 _atom_site_fract_x
 _atom_site_fract_y
 _atom_site_fract_z
 _atom_site_occupancy
  Fe  Fe0  1  0.18940697  0.81059303  0.31059303  1
  Fe  Fe1  1  0.31059303  0.18940697  0.81059303  1
  Fe  Fe2  1  0.81059303  0.31059303  0.18940697  1
  Fe  Fe3  1  0.68940697  0.68940697  0.68940697  1
  Fe  Fe4  1  0.56059303  0.43940697  0.93940697  1
  Fe  Fe5  1  0.43940697  0.93940697  0.56059303  1
  Fe  Fe6  1  0.93940697  0.56059303  0.43940697  1
  Fe  Fe7  1  0.06059303  0.06059303  0.06059303  1
  Re  Re8  1  0.80139227  0.94860773  0.37500000  1
  Re  Re9  1  0.69860773  0.05139227  0.87500000  1
  Re  Re10  1  0.19860773  0.44860773  0.12500000  1
  Re  Re11  1  0.30139227  0.55139227  0.62500000  1
  Re  Re12  1  0.94860773  0.37500000  0.80139227  1
  Re  Re13  1  0.05139227  0.87500000  0.69860773  1
  Re  Re14  1  0.44860773  0.12500000  0.19860773  1
  Re  Re15  1  0.55139227  0.62500000  0.30139227  1
  Re  Re16  1  0.37500000  0.80139227  0.94860773  1
  Re  Re17  1  0.87500000  0.69860773  0.05139227  1
  Re  Re18  1  0.12500000  0.19860773  0.44860773  1
  Re  Re19  1  0.62500000  0.30139227  0.55139227  1
