# generated using pymatgen
data_SrIn2Pd
_symmetry_space_group_name_H-M   'P 1'
_cell_length_a   4.60680995
_cell_length_b   5.94885720
_cell_length_c   8.01838318
_cell_angle_alpha   90.00000000
_cell_angle_beta   90.00000000
_cell_angle_gamma   112.78046508
_symmetry_Int_Tables_number   1
_chemical_formula_structural   SrIn2Pd
_chemical_formula_sum   'Sr2 In4 Pd2'
_cell_volume   202.60460703
_cell_formula_units_Z   2
loop_
 _symmetry_equiv_pos_site_id
 _symmetry_equiv_pos_as_xyz
  1  'x, y, z'
loop_
 _atom_site_type_symbol
 _atom_site_label
 _atom_site_symmetry_multiplicity
 _atom_site_fract_x
 _atom_site_fract_y
 _atom_site_fract_z
 _atom_site_occupancy
  Sr  Sr0  1  0.06075223  0.12150445  0.75000000  1
  Sr  Sr1  1  0.93924777  0.87849555  0.25000000  1
  Pd  Pd2  1  0.78003523  0.56007046  0.75000000  1
  Pd  Pd3  1  0.21996477  0.43992954  0.25000000  1
  In  In4  1  0.34838253  0.69676507  0.94562717  1
  In  In5  1  0.65161747  0.30323493  0.05437283  1
  In  In6  1  0.65161747  0.30323493  0.44562717  1
  In  In7  1  0.34838253  0.69676507  0.55437283  1
