# generated using pymatgen
data_CrP
_symmetry_space_group_name_H-M   'P 1'
_cell_length_a   3.06317917
_cell_length_b   5.33456390
_cell_length_c   5.94818906
_cell_angle_alpha   90.00000000
_cell_angle_beta   90.00000000
_cell_angle_gamma   90.00000000
_symmetry_Int_Tables_number   1
_chemical_formula_structural   CrP
_chemical_formula_sum   'Cr4 P4'
_cell_volume   97.19772179
_cell_formula_units_Z   4
loop_
 _symmetry_equiv_pos_site_id
 _symmetry_equiv_pos_as_xyz
  1  'x, y, z'
loop_
 _atom_site_type_symbol
 _atom_site_label
 _atom_site_symmetry_multiplicity
 _atom_site_fract_x
 _atom_site_fract_y
 _atom_site_fract_z
 _atom_site_occupancy
  P  P0  1  0.25000000  0.68268338  0.93555393  1
  P  P1  1  0.75000000  0.31731662  0.06444607  1
  P  P2  1  0.25000000  0.18268338  0.56444607  1
  P  P3  1  0.75000000  0.81731662  0.43555393  1
  Cr  Cr4  1  0.25000000  0.50885348  0.30992334  1
  Cr  Cr5  1  0.75000000  0.49114652  0.69007666  1
  Cr  Cr6  1  0.25000000  0.00885348  0.19007666  1
  Cr  Cr7  1  0.75000000  0.99114652  0.80992334  1
