# generated using pymatgen
data_Nd2S3
_symmetry_space_group_name_H-M   'P 1'
_cell_length_a   4.05800169
_cell_length_b   7.51306025
_cell_length_c   15.68326375
_cell_angle_alpha   90.00000000
_cell_angle_beta   90.00000000
_cell_angle_gamma   90.00000000
_symmetry_Int_Tables_number   1
_chemical_formula_structural   Nd2S3
_chemical_formula_sum   'Nd8 S12'
_cell_volume   478.15152073
_cell_formula_units_Z   4
loop_
 _symmetry_equiv_pos_site_id
 _symmetry_equiv_pos_as_xyz
  1  'x, y, z'
loop_
 _atom_site_type_symbol
 _atom_site_label
 _atom_site_symmetry_multiplicity
 _atom_site_fract_x
 _atom_site_fract_y
 _atom_site_fract_z
 _atom_site_occupancy
  S  S0  1  0.25000000  0.50963508  0.10911811  1
  S  S1  1  0.75000000  0.49036492  0.89088189  1
  S  S2  1  0.25000000  0.00963508  0.39088189  1
  S  S3  1  0.75000000  0.99036492  0.60911811  1
  S  S4  1  0.75000000  0.85444532  0.21888031  1
  S  S5  1  0.25000000  0.14555468  0.78111969  1
  S  S6  1  0.75000000  0.35444532  0.28111969  1
  S  S7  1  0.25000000  0.64555468  0.71888031  1
  S  S8  1  0.25000000  0.87403238  0.93255254  1
  S  S9  1  0.75000000  0.12596762  0.06744746  1
  S  S10  1  0.25000000  0.37403238  0.56744746  1
  S  S11  1  0.75000000  0.62596762  0.43255254  1
  Nd  Nd12  1  0.75000000  0.73530283  0.04401719  1
  Nd  Nd13  1  0.25000000  0.26469717  0.95598281  1
  Nd  Nd14  1  0.75000000  0.23530283  0.45598281  1
  Nd  Nd15  1  0.25000000  0.76469717  0.54401719  1
  Nd  Nd16  1  0.25000000  0.64488404  0.29563184  1
  Nd  Nd17  1  0.75000000  0.35511596  0.70436816  1
  Nd  Nd18  1  0.25000000  0.14488404  0.20436816  1
  Nd  Nd19  1  0.75000000  0.85511596  0.79563184  1
