# generated using pymatgen
data_Ca4HfN4
_symmetry_space_group_name_H-M   'P 1'
_cell_length_a   6.13462964
_cell_length_b   6.13007510
_cell_length_c   9.31057359
_cell_angle_alpha   70.73287177
_cell_angle_beta   81.45519667
_cell_angle_gamma   68.47980069
_symmetry_Int_Tables_number   1
_chemical_formula_structural   Ca4HfN4
_chemical_formula_sum   'Ca8 Hf2 N8'
_cell_volume   307.32796553
_cell_formula_units_Z   2
loop_
 _symmetry_equiv_pos_site_id
 _symmetry_equiv_pos_as_xyz
  1  'x, y, z'
loop_
 _atom_site_type_symbol
 _atom_site_label
 _atom_site_symmetry_multiplicity
 _atom_site_fract_x
 _atom_site_fract_y
 _atom_site_fract_z
 _atom_site_occupancy
  Ca  Ca0  1  0.72964763  0.61905913  0.19304977  1
  Ca  Ca1  1  0.27035237  0.38094087  0.80695023  1
  Ca  Ca2  1  0.75644616  0.24348682  0.99303157  1
  Ca  Ca3  1  0.24355384  0.75651318  0.00696843  1
  Ca  Ca4  1  0.73709380  0.47548080  0.57406026  1
  Ca  Ca5  1  0.26290620  0.52451920  0.42593974  1
  Ca  Ca6  1  0.24677475  0.94361349  0.59620268  1
  Ca  Ca7  1  0.75322525  0.05638651  0.40379732  1
  Hf  Hf8  1  0.71953997  0.84253162  0.76374334  1
  Hf  Hf9  1  0.28046003  0.15746838  0.23625666  1
  N  N10  1  0.98442206  0.69892245  0.61641273  1
  N  N11  1  0.01557794  0.30107755  0.38358727  1
  N  N12  1  0.84452425  0.85429791  0.95335953  1
  N  N13  1  0.15547575  0.14570209  0.04664047  1
  N  N14  1  0.51231226  0.62411260  0.80170242  1
  N  N15  1  0.48768774  0.37588740  0.19829758  1
  N  N16  1  0.48507390  0.81945237  0.37824454  1
  N  N17  1  0.51492610  0.18054763  0.62175546  1
