# generated using pymatgen
data_CsHF2
_symmetry_space_group_name_H-M   'P 1'
_cell_length_a   5.93108614
_cell_length_b   5.93108615
_cell_length_c   5.93108614
_cell_angle_alpha   96.11899905
_cell_angle_beta   116.53235464
_cell_angle_gamma   116.53235471
_symmetry_Int_Tables_number   1
_chemical_formula_structural   CsHF2
_chemical_formula_sum   'Cs2 H2 F4'
_cell_volume   154.31225207
_cell_formula_units_Z   2
loop_
 _symmetry_equiv_pos_site_id
 _symmetry_equiv_pos_as_xyz
  1  'x, y, z'
loop_
 _atom_site_type_symbol
 _atom_site_label
 _atom_site_symmetry_multiplicity
 _atom_site_fract_x
 _atom_site_fract_y
 _atom_site_fract_z
 _atom_site_occupancy
  H  H0  1  0.50000000  0.50000000  0.00000000  1
  H  H1  1  0.50000000  0.00000000  0.50000000  1
  F  F2  1  0.23847936  0.36923968  0.86923968  1
  F  F3  1  0.50000000  0.86923968  0.63076032  1
  F  F4  1  0.76152064  0.63076032  0.13076032  1
  F  F5  1  0.50000000  0.13076032  0.36923968  1
  Cs  Cs6  1  0.00000000  0.75000000  0.75000000  1
  Cs  Cs7  1  0.00000000  0.25000000  0.25000000  1
