# generated using pymatgen
data_Ca2SiO4
_symmetry_space_group_name_H-M   'P 1'
_cell_length_a   5.12388663
_cell_length_b   6.80933762
_cell_length_c   11.34379516
_cell_angle_alpha   90.00000000
_cell_angle_beta   90.00000000
_cell_angle_gamma   90.00000000
_symmetry_Int_Tables_number   1
_chemical_formula_structural   Ca2SiO4
_chemical_formula_sum   'Ca8 Si4 O16'
_cell_volume   395.78812122
_cell_formula_units_Z   4
loop_
 _symmetry_equiv_pos_site_id
 _symmetry_equiv_pos_as_xyz
  1  'x, y, z'
loop_
 _atom_site_type_symbol
 _atom_site_label
 _atom_site_symmetry_multiplicity
 _atom_site_fract_x
 _atom_site_fract_y
 _atom_site_fract_z
 _atom_site_occupancy
  O  O0  1  0.20370982  0.44474147  0.66193183  1
  O  O1  1  0.70370982  0.55525853  0.83806817  1
  O  O2  1  0.79629018  0.94474147  0.33806817  1
  O  O3  1  0.29629018  0.05525853  0.16193183  1
  O  O4  1  0.79629018  0.55525853  0.33806817  1
  O  O5  1  0.29629018  0.44474147  0.16193183  1
  O  O6  1  0.20370982  0.05525853  0.66193183  1
  O  O7  1  0.70370982  0.94474147  0.83806817  1
  O  O8  1  0.79662018  0.75000000  0.53924331  1
  O  O9  1  0.29662018  0.25000000  0.96075669  1
  O  O10  1  0.20337982  0.25000000  0.46075669  1
  O  O11  1  0.70337982  0.75000000  0.03924331  1
  O  O12  1  0.25269951  0.75000000  0.90711691  1
  O  O13  1  0.75269951  0.25000000  0.59288309  1
  O  O14  1  0.74730049  0.25000000  0.09288309  1
  O  O15  1  0.24730049  0.75000000  0.40711691  1
  Si  Si16  1  0.92684578  0.75000000  0.40391861  1
  Si  Si17  1  0.42684578  0.25000000  0.09608139  1
  Si  Si18  1  0.07315422  0.25000000  0.59608139  1
  Si  Si19  1  0.57315422  0.75000000  0.90391861  1
  Ca  Ca20  1  0.49173742  0.75000000  0.21930301  1
  Ca  Ca21  1  0.99173742  0.25000000  0.28069699  1
  Ca  Ca22  1  0.50826258  0.25000000  0.78069699  1
  Ca  Ca23  1  0.00826258  0.75000000  0.71930301  1
  Ca  Ca24  1  0.50000000  0.50000000  0.50000000  1
  Ca  Ca25  1  0.00000000  0.50000000  0.00000000  1
  Ca  Ca26  1  0.50000000  0.00000000  0.50000000  1
  Ca  Ca27  1  0.00000000  0.00000000  0.00000000  1
