# generated using pymatgen
data_K2SO4
_symmetry_space_group_name_H-M   'P 1'
_cell_length_a   5.86759720
_cell_length_b   7.59625604
_cell_length_c   10.25860648
_cell_angle_alpha   90.00000000
_cell_angle_beta   90.00000000
_cell_angle_gamma   90.00000000
_symmetry_Int_Tables_number   1
_chemical_formula_structural   K2SO4
_chemical_formula_sum   'K8 S4 O16'
_cell_volume   457.24425543
_cell_formula_units_Z   4
loop_
 _symmetry_equiv_pos_site_id
 _symmetry_equiv_pos_as_xyz
  1  'x, y, z'
loop_
 _atom_site_type_symbol
 _atom_site_label
 _atom_site_symmetry_multiplicity
 _atom_site_fract_x
 _atom_site_fract_y
 _atom_site_fract_z
 _atom_site_occupancy
  O  O0  1  0.95843124  0.20234470  0.85085158  1
  O  O1  1  0.45843124  0.79765530  0.14914842  1
  O  O2  1  0.54156876  0.70234470  0.64914842  1
  O  O3  1  0.04156876  0.29765530  0.35085158  1
  O  O4  1  0.04156876  0.79765530  0.14914842  1
  O  O5  1  0.54156876  0.20234470  0.85085158  1
  O  O6  1  0.45843124  0.29765530  0.35085158  1
  O  O7  1  0.95843124  0.70234470  0.64914842  1
  O  O8  1  0.25000000  0.80007066  0.94354643  1
  O  O9  1  0.75000000  0.19992934  0.05645357  1
  O  O10  1  0.25000000  0.30007066  0.55645357  1
  O  O11  1  0.75000000  0.69992934  0.44354643  1
  O  O12  1  0.75000000  0.96480253  0.58064207  1
  O  O13  1  0.25000000  0.03519747  0.41935793  1
  O  O14  1  0.75000000  0.46480253  0.91935793  1
  O  O15  1  0.25000000  0.53519747  0.08064207  1
  S  S16  1  0.25000000  0.73091796  0.08074603  1
  S  S17  1  0.75000000  0.26908204  0.91925397  1
  S  S18  1  0.25000000  0.23091796  0.41925397  1
  S  S19  1  0.75000000  0.76908204  0.58074603  1
  K  K20  1  0.75000000  0.50751891  0.20255153  1
  K  K21  1  0.25000000  0.49248109  0.79744847  1
  K  K22  1  0.75000000  0.00751891  0.29744847  1
  K  K23  1  0.25000000  0.99248109  0.70255153  1
  K  K24  1  0.25000000  0.17360673  0.08629457  1
  K  K25  1  0.75000000  0.82639327  0.91370543  1
  K  K26  1  0.25000000  0.67360673  0.41370543  1
  K  K27  1  0.75000000  0.32639327  0.58629457  1
