# generated using pymatgen
data_Ce(GePt)2
_symmetry_space_group_name_H-M   'P 1'
_cell_length_a   4.40881720
_cell_length_b   4.40881720
_cell_length_c   9.93859477
_cell_angle_alpha   90.00000000
_cell_angle_beta   90.00000000
_cell_angle_gamma   90.00000000
_symmetry_Int_Tables_number   1
_chemical_formula_structural   Ce(GePt)2
_chemical_formula_sum   'Ce2 Ge4 Pt4'
_cell_volume   193.18311649
_cell_formula_units_Z   2
loop_
 _symmetry_equiv_pos_site_id
 _symmetry_equiv_pos_as_xyz
  1  'x, y, z'
loop_
 _atom_site_type_symbol
 _atom_site_label
 _atom_site_symmetry_multiplicity
 _atom_site_fract_x
 _atom_site_fract_y
 _atom_site_fract_z
 _atom_site_occupancy
  Ge  Ge0  1  0.25000000  0.75000000  0.50000000  1
  Ge  Ge1  1  0.25000000  0.25000000  0.12976867  1
  Ge  Ge2  1  0.75000000  0.25000000  0.50000000  1
  Ge  Ge3  1  0.75000000  0.75000000  0.87023133  1
  Ce  Ce4  1  0.75000000  0.75000000  0.25225070  1
  Ce  Ce5  1  0.25000000  0.25000000  0.74774930  1
  Pt  Pt6  1  0.75000000  0.25000000  0.00000000  1
  Pt  Pt7  1  0.75000000  0.75000000  0.62316425  1
  Pt  Pt8  1  0.25000000  0.25000000  0.37683575  1
  Pt  Pt9  1  0.25000000  0.75000000  0.00000000  1
