# generated using pymatgen
data_Ba2MnTe3
_symmetry_space_group_name_H-M   'P 1'
_cell_length_a   4.79474760
_cell_length_b   9.82046897
_cell_length_c   19.12179291
_cell_angle_alpha   90.00000000
_cell_angle_beta   90.00000000
_cell_angle_gamma   90.00000000
_symmetry_Int_Tables_number   1
_chemical_formula_structural   Ba2MnTe3
_chemical_formula_sum   'Ba8 Mn4 Te12'
_cell_volume   900.38155304
_cell_formula_units_Z   4
loop_
 _symmetry_equiv_pos_site_id
 _symmetry_equiv_pos_as_xyz
  1  'x, y, z'
loop_
 _atom_site_type_symbol
 _atom_site_label
 _atom_site_symmetry_multiplicity
 _atom_site_fract_x
 _atom_site_fract_y
 _atom_site_fract_z
 _atom_site_occupancy
  Mn  Mn0  1  0.25000000  0.63245764  0.36423942  1
  Mn  Mn1  1  0.75000000  0.36754236  0.63576058  1
  Mn  Mn2  1  0.75000000  0.86754236  0.86423942  1
  Mn  Mn3  1  0.25000000  0.13245764  0.13576058  1
  Te  Te4  1  0.25000000  0.49830896  0.60135058  1
  Te  Te5  1  0.25000000  0.18301813  0.27527800  1
  Te  Te6  1  0.75000000  0.31698187  0.77527800  1
  Te  Te7  1  0.75000000  0.81698187  0.72472200  1
  Te  Te8  1  0.75000000  0.62129781  0.92805186  1
  Te  Te9  1  0.25000000  0.37870219  0.07194814  1
  Te  Te10  1  0.75000000  0.12129781  0.57194814  1
  Te  Te11  1  0.25000000  0.87870219  0.42805186  1
  Te  Te12  1  0.75000000  0.00169104  0.10135058  1
  Te  Te13  1  0.25000000  0.99830896  0.89864942  1
  Te  Te14  1  0.25000000  0.68301813  0.22472200  1
  Te  Te15  1  0.75000000  0.50169104  0.39864942  1
  Ba  Ba16  1  0.75000000  0.91729426  0.28703690  1
  Ba  Ba17  1  0.25000000  0.08270574  0.71296310  1
  Ba  Ba18  1  0.75000000  0.41729426  0.21296310  1
  Ba  Ba19  1  0.25000000  0.58270574  0.78703690  1
  Ba  Ba20  1  0.25000000  0.75101327  0.04102053  1
  Ba  Ba21  1  0.75000000  0.24898673  0.95897947  1
  Ba  Ba22  1  0.25000000  0.25101327  0.45897947  1
  Ba  Ba23  1  0.75000000  0.74898673  0.54102053  1
