# generated using pymatgen
data_YbTaO4
_symmetry_space_group_name_H-M   'P 1'
_cell_length_a   5.05917602
_cell_length_b   5.52807351
_cell_length_c   5.58313802
_cell_angle_alpha   90.00000000
_cell_angle_beta   90.00000000
_cell_angle_gamma   95.65674518
_symmetry_Int_Tables_number   1
_chemical_formula_structural   YbTaO4
_chemical_formula_sum   'Yb2 Ta2 O8'
_cell_volume   155.38600415
_cell_formula_units_Z   2
loop_
 _symmetry_equiv_pos_site_id
 _symmetry_equiv_pos_as_xyz
  1  'x, y, z'
loop_
 _atom_site_type_symbol
 _atom_site_label
 _atom_site_symmetry_multiplicity
 _atom_site_fract_x
 _atom_site_fract_y
 _atom_site_fract_z
 _atom_site_occupancy
  O  O0  1  0.71941324  0.01586953  0.56136910  1
  O  O1  1  0.28058676  0.48413047  0.56136910  1
  O  O2  1  0.28058676  0.98413047  0.43863090  1
  O  O3  1  0.71941324  0.51586953  0.43863090  1
  O  O4  1  0.25057114  0.59765514  0.08158028  1
  O  O5  1  0.74942886  0.90234486  0.08158028  1
  O  O6  1  0.74942886  0.40234486  0.91841972  1
  O  O7  1  0.25057114  0.09765514  0.91841972  1
  Yb  Yb8  1  0.00000000  0.75000000  0.77378407  1
  Yb  Yb9  1  0.00000000  0.25000000  0.22621593  1
  Ta  Ta10  1  0.50000000  0.25000000  0.71171491  1
  Ta  Ta11  1  0.50000000  0.75000000  0.28828509  1
