# generated using pymatgen
data_Ag2SeO3
_symmetry_space_group_name_H-M   'P 1'
_cell_length_a   5.00653459
_cell_length_b   7.43944826
_cell_length_c   10.19754895
_cell_angle_alpha   90.00000000
_cell_angle_beta   90.00000000
_cell_angle_gamma   86.43121098
_symmetry_Int_Tables_number   1
_chemical_formula_structural   Ag2SeO3
_chemical_formula_sum   'Ag8 Se4 O12'
_cell_volume   379.07988407
_cell_formula_units_Z   4
loop_
 _symmetry_equiv_pos_site_id
 _symmetry_equiv_pos_as_xyz
  1  'x, y, z'
loop_
 _atom_site_type_symbol
 _atom_site_label
 _atom_site_symmetry_multiplicity
 _atom_site_fract_x
 _atom_site_fract_y
 _atom_site_fract_z
 _atom_site_occupancy
  O  O0  1  0.19571430  0.78816300  0.75659809  1
  O  O1  1  0.80428570  0.71183700  0.25659809  1
  O  O2  1  0.80428570  0.21183700  0.24340191  1
  O  O3  1  0.19571430  0.28816300  0.74340191  1
  O  O4  1  0.22744253  0.81336759  0.01873182  1
  O  O5  1  0.77255747  0.68663241  0.51873182  1
  O  O6  1  0.77255747  0.18663241  0.98126818  1
  O  O7  1  0.61463835  0.13364066  0.61812126  1
  O  O8  1  0.61463835  0.63364066  0.88187874  1
  O  O9  1  0.38536165  0.86635934  0.38187874  1
  O  O10  1  0.38536165  0.36635934  0.11812126  1
  O  O11  1  0.22744253  0.31336759  0.48126818  1
  Se  Se12  1  0.26472383  0.15416453  0.60624184  1
  Se  Se13  1  0.73527617  0.84583547  0.39375816  1
  Se  Se14  1  0.73527617  0.34583547  0.10624184  1
  Se  Se15  1  0.26472383  0.65416453  0.89375816  1
  Ag  Ag16  1  0.27251004  0.11048253  0.93671406  1
  Ag  Ag17  1  0.27251004  0.61048253  0.56328594  1
  Ag  Ag18  1  0.72748996  0.88951747  0.06328594  1
  Ag  Ag19  1  0.72748996  0.38951747  0.43671406  1
  Ag  Ag20  1  0.72778331  0.38101777  0.75397082  1
  Ag  Ag21  1  0.27221669  0.11898223  0.25397082  1
  Ag  Ag22  1  0.27221669  0.61898223  0.24602918  1
  Ag  Ag23  1  0.72778331  0.88101777  0.74602918  1
