# generated using pymatgen
data_MgTi2O5
_symmetry_space_group_name_H-M   'P 1'
_cell_length_a   3.75971186
_cell_length_b   5.25951111
_cell_length_c   10.12874163
_cell_angle_alpha   90.00000000
_cell_angle_beta   90.00000000
_cell_angle_gamma   110.94185082
_symmetry_Int_Tables_number   1
_chemical_formula_structural   MgTi2O5
_chemical_formula_sum   'Mg2 Ti4 O10'
_cell_volume   187.05792240
_cell_formula_units_Z   2
loop_
 _symmetry_equiv_pos_site_id
 _symmetry_equiv_pos_as_xyz
  1  'x, y, z'
loop_
 _atom_site_type_symbol
 _atom_site_label
 _atom_site_symmetry_multiplicity
 _atom_site_fract_x
 _atom_site_fract_y
 _atom_site_fract_z
 _atom_site_occupancy
  O  O0  1  0.31348961  0.62697922  0.56252683  1
  O  O1  1  0.68651039  0.37302078  0.43747317  1
  O  O2  1  0.68651039  0.37302078  0.06252683  1
  O  O3  1  0.31348961  0.62697922  0.93747317  1
  O  O4  1  0.04608144  0.09216289  0.61290519  1
  O  O5  1  0.95391856  0.90783711  0.38709481  1
  O  O6  1  0.78355009  0.56710018  0.75000000  1
  O  O7  1  0.21644991  0.43289982  0.25000000  1
  O  O8  1  0.04608144  0.09216289  0.88709481  1
  O  O9  1  0.95391856  0.90783711  0.11290519  1
  Mg  Mg10  1  0.19563479  0.39126958  0.75000000  1
  Mg  Mg11  1  0.80436521  0.60873042  0.25000000  1
  Ti  Ti12  1  0.86725265  0.73450531  0.56739352  1
  Ti  Ti13  1  0.13274735  0.26549469  0.43260648  1
  Ti  Ti14  1  0.86725265  0.73450531  0.93260648  1
  Ti  Ti15  1  0.13274735  0.26549469  0.06739352  1
