# generated using pymatgen
data_TaSe3
_symmetry_space_group_name_H-M   'P 1'
_cell_length_a   3.51916076
_cell_length_b   10.37456498
_cell_length_c   10.89654279
_cell_angle_alpha   109.31042960
_cell_angle_beta   90.00000000
_cell_angle_gamma   90.00000000
_symmetry_Int_Tables_number   1
_chemical_formula_structural   TaSe3
_chemical_formula_sum   'Ta4 Se12'
_cell_volume   375.44856476
_cell_formula_units_Z   4
loop_
 _symmetry_equiv_pos_site_id
 _symmetry_equiv_pos_as_xyz
  1  'x, y, z'
loop_
 _atom_site_type_symbol
 _atom_site_label
 _atom_site_symmetry_multiplicity
 _atom_site_fract_x
 _atom_site_fract_y
 _atom_site_fract_z
 _atom_site_occupancy
  Ta  Ta0  1  0.25000000  0.62848525  0.19024481  1
  Ta  Ta1  1  0.75000000  0.37151475  0.80975519  1
  Ta  Ta2  1  0.25000000  0.95803538  0.66699268  1
  Ta  Ta3  1  0.75000000  0.04196462  0.33300732  1
  Se  Se4  1  0.25000000  0.56959360  0.91929887  1
  Se  Se5  1  0.75000000  0.43040640  0.08070113  1
  Se  Se6  1  0.25000000  0.20458886  0.86754006  1
  Se  Se7  1  0.75000000  0.79541114  0.13245994  1
  Se  Se8  1  0.25000000  0.06825427  0.16331835  1
  Se  Se9  1  0.75000000  0.93174573  0.83668165  1
  Se  Se10  1  0.25000000  0.41144417  0.64417398  1
  Se  Se11  1  0.75000000  0.58855583  0.35582602  1
  Se  Se12  1  0.25000000  0.24686240  0.39443513  1
  Se  Se13  1  0.75000000  0.75313760  0.60556487  1
  Se  Se14  1  0.25000000  0.88168973  0.39759691  1
  Se  Se15  1  0.75000000  0.11831027  0.60240309  1
