# generated using pymatgen
data_MgPbF6
_symmetry_space_group_name_H-M   'P 1'
_cell_length_a   5.69970562
_cell_length_b   5.69970562
_cell_length_c   5.69970563
_cell_angle_alpha   55.39563229
_cell_angle_beta   55.39563221
_cell_angle_gamma   55.39563226
_symmetry_Int_Tables_number   1
_chemical_formula_structural   MgPbF6
_chemical_formula_sum   'Mg1 Pb1 F6'
_cell_volume   116.92749077
_cell_formula_units_Z   1
loop_
 _symmetry_equiv_pos_site_id
 _symmetry_equiv_pos_as_xyz
  1  'x, y, z'
loop_
 _atom_site_type_symbol
 _atom_site_label
 _atom_site_symmetry_multiplicity
 _atom_site_fract_x
 _atom_site_fract_y
 _atom_site_fract_z
 _atom_site_occupancy
  F  F0  1  0.37126805  0.11625418  0.75708104  1
  F  F1  1  0.11625418  0.75708104  0.37126805  1
  F  F2  1  0.24291896  0.62873195  0.88374582  1
  F  F3  1  0.88374582  0.24291896  0.62873195  1
  F  F4  1  0.62873195  0.88374582  0.24291896  1
  F  F5  1  0.75708104  0.37126805  0.11625418  1
  Mg  Mg6  1  0.00000000  0.00000000  0.00000000  1
  Pb  Pb7  1  0.50000000  0.50000000  0.50000000  1
