# generated using pymatgen
data_CsI3
_symmetry_space_group_name_H-M   'P 1'
_cell_length_a   7.22657830
_cell_length_b   10.46590529
_cell_length_c   11.31801138
_cell_angle_alpha   90.00000000
_cell_angle_beta   90.00000000
_cell_angle_gamma   90.00000000
_symmetry_Int_Tables_number   1
_chemical_formula_structural   CsI3
_chemical_formula_sum   'Cs4 I12'
_cell_volume   856.01157887
_cell_formula_units_Z   4
loop_
 _symmetry_equiv_pos_site_id
 _symmetry_equiv_pos_as_xyz
  1  'x, y, z'
loop_
 _atom_site_type_symbol
 _atom_site_label
 _atom_site_symmetry_multiplicity
 _atom_site_fract_x
 _atom_site_fract_y
 _atom_site_fract_z
 _atom_site_occupancy
  I  I0  1  0.25000000  0.36752767  0.16822326  1
  I  I1  1  0.75000000  0.63247233  0.83177674  1
  I  I2  1  0.75000000  0.86752767  0.33177674  1
  I  I3  1  0.25000000  0.13247233  0.66822326  1
  I  I4  1  0.25000000  0.55533222  0.37026744  1
  I  I5  1  0.75000000  0.44466778  0.62973256  1
  I  I6  1  0.75000000  0.05533222  0.12973256  1
  I  I7  1  0.25000000  0.94466778  0.87026744  1
  I  I8  1  0.25000000  0.73615155  0.56471906  1
  I  I9  1  0.75000000  0.26384845  0.43528094  1
  I  I10  1  0.75000000  0.23615155  0.93528094  1
  I  I11  1  0.25000000  0.76384845  0.06471906  1
  Cs  Cs12  1  0.25000000  0.47057977  0.82284898  1
  Cs  Cs13  1  0.75000000  0.52942023  0.17715102  1
  Cs  Cs14  1  0.75000000  0.97057977  0.67715102  1
  Cs  Cs15  1  0.25000000  0.02942023  0.32284898  1
