# generated using pymatgen
data_KCuS
_symmetry_space_group_name_H-M   'P 1'
_cell_length_a   5.31486252
_cell_length_b   6.29872432
_cell_length_c   10.71625287
_cell_angle_alpha   90.00000000
_cell_angle_beta   90.00000000
_cell_angle_gamma   90.00000000
_symmetry_Int_Tables_number   1
_chemical_formula_structural   KCuS
_chemical_formula_sum   'K4 Cu4 S4'
_cell_volume   358.74643074
_cell_formula_units_Z   4
loop_
 _symmetry_equiv_pos_site_id
 _symmetry_equiv_pos_as_xyz
  1  'x, y, z'
loop_
 _atom_site_type_symbol
 _atom_site_label
 _atom_site_symmetry_multiplicity
 _atom_site_fract_x
 _atom_site_fract_y
 _atom_site_fract_z
 _atom_site_occupancy
  S  S0  1  0.24825839  0.22375418  0.08893485  1
  S  S1  1  0.24825839  0.27624582  0.58893485  1
  S  S2  1  0.74825839  0.77624582  0.91106515  1
  S  S3  1  0.74825839  0.72375418  0.41106515  1
  K  K4  1  0.24927233  0.52328257  0.84600453  1
  K  K5  1  0.74927233  0.02328257  0.65399547  1
  K  K6  1  0.24927233  0.97671743  0.34600453  1
  K  K7  1  0.74927233  0.47671743  0.15399547  1
  Cu  Cu8  1  0.99846928  0.99976973  0.99997335  1
  Cu  Cu9  1  0.99846928  0.50023027  0.49997335  1
  Cu  Cu10  1  0.49846928  0.49976973  0.50002665  1
  Cu  Cu11  1  0.49846928  0.00023027  0.00002665  1
