# generated using pymatgen
data_K3CuO2
_symmetry_space_group_name_H-M   'P 1'
_cell_length_a   8.67369143
_cell_length_b   8.67369143
_cell_length_c   13.49690010
_cell_angle_alpha   90.00000000
_cell_angle_beta   90.00000000
_cell_angle_gamma   90.00000000
_symmetry_Int_Tables_number   1
_chemical_formula_structural   K3CuO2
_chemical_formula_sum   'K24 Cu8 O16'
_cell_volume   1015.41124627
_cell_formula_units_Z   8
loop_
 _symmetry_equiv_pos_site_id
 _symmetry_equiv_pos_as_xyz
  1  'x, y, z'
loop_
 _atom_site_type_symbol
 _atom_site_label
 _atom_site_symmetry_multiplicity
 _atom_site_fract_x
 _atom_site_fract_y
 _atom_site_fract_z
 _atom_site_occupancy
  O  O0  1  0.76300135  0.02581737  0.41682333  1
  O  O1  1  0.23699865  0.97418263  0.91682333  1
  O  O2  1  0.02581737  0.76300135  0.58317667  1
  O  O3  1  0.52581737  0.73699865  0.16682333  1
  O  O4  1  0.47418263  0.26300135  0.66682333  1
  O  O5  1  0.73699865  0.52581737  0.83317667  1
  O  O6  1  0.26300135  0.47418263  0.33317667  1
  O  O7  1  0.97418263  0.23699865  0.08317667  1
  O  O8  1  0.76732949  0.44505799  0.42021137  1
  O  O9  1  0.26732949  0.05494201  0.32978863  1
  O  O10  1  0.73267051  0.94505799  0.82978863  1
  O  O11  1  0.05494201  0.26732949  0.67021137  1
  O  O12  1  0.94505799  0.73267051  0.17021137  1
  O  O13  1  0.23267051  0.55494201  0.92021137  1
  O  O14  1  0.44505799  0.76732949  0.57978863  1
  O  O15  1  0.55494201  0.23267051  0.07978863  1
  K  K16  1  0.06393286  0.46518074  0.49866218  1
  K  K17  1  0.76495894  0.34597620  0.64267824  1
  K  K18  1  0.23504106  0.65402380  0.14267824  1
  K  K19  1  0.84597620  0.73504106  0.39267824  1
  K  K20  1  0.65402380  0.23504106  0.85732176  1
  K  K21  1  0.15402380  0.26495894  0.89267824  1
  K  K22  1  0.73504106  0.84597620  0.60732176  1
  K  K23  1  0.26495894  0.15402380  0.10732176  1
  K  K24  1  0.94367505  0.94367505  0.00000000  1
  K  K25  1  0.55632495  0.44367505  0.25000000  1
  K  K26  1  0.44367505  0.55632495  0.75000000  1
  K  K27  1  0.05632495  0.05632495  0.50000000  1
  K  K28  1  0.52436201  0.52436201  0.00000000  1
  K  K29  1  0.97563799  0.02436201  0.25000000  1
  K  K30  1  0.02436201  0.97563799  0.75000000  1
  K  K31  1  0.47563799  0.47563799  0.50000000  1
  K  K32  1  0.46518074  0.06393286  0.50133782  1
  K  K33  1  0.96518074  0.43606714  0.24866218  1
  K  K34  1  0.03481926  0.56393286  0.74866218  1
  K  K35  1  0.43606714  0.96518074  0.75133782  1
  K  K36  1  0.56393286  0.03481926  0.25133782  1
  K  K37  1  0.53481926  0.93606714  0.00133782  1
  K  K38  1  0.34597620  0.76495894  0.35732176  1
  K  K39  1  0.93606714  0.53481926  0.99866218  1
  Cu  Cu40  1  0.73571949  0.73604100  0.16574243  1
  Cu  Cu41  1  0.26428051  0.26395900  0.66574243  1
  Cu  Cu42  1  0.73604100  0.73571949  0.83425757  1
  Cu  Cu43  1  0.23604100  0.76428051  0.91574243  1
  Cu  Cu44  1  0.76395900  0.23571949  0.41574243  1
  Cu  Cu45  1  0.76428051  0.23604100  0.08425757  1
  Cu  Cu46  1  0.23571949  0.76395900  0.58425757  1
  Cu  Cu47  1  0.26395900  0.26428051  0.33425757  1
