# generated using pymatgen
data_ScOF
_symmetry_space_group_name_H-M   'P 1'
_cell_length_a   5.19022254
_cell_length_b   5.23162765
_cell_length_c   5.28808356
_cell_angle_alpha   99.84201417
_cell_angle_beta   90.00000000
_cell_angle_gamma   90.00000000
_symmetry_Int_Tables_number   1
_chemical_formula_structural   ScOF
_chemical_formula_sum   'Sc4 O4 F4'
_cell_volume   141.47575684
_cell_formula_units_Z   4
loop_
 _symmetry_equiv_pos_site_id
 _symmetry_equiv_pos_as_xyz
  1  'x, y, z'
loop_
 _atom_site_type_symbol
 _atom_site_label
 _atom_site_symmetry_multiplicity
 _atom_site_fract_x
 _atom_site_fract_y
 _atom_site_fract_z
 _atom_site_occupancy
  O  O0  1  0.25366685  0.54200394  0.01231735  1
  O  O1  1  0.75366685  0.45799606  0.48768265  1
  O  O2  1  0.74633315  0.45799606  0.98768265  1
  O  O3  1  0.24633315  0.54200394  0.51231735  1
  F  F4  1  0.67480369  0.94396212  0.65792828  1
  F  F5  1  0.17480369  0.05603788  0.84207172  1
  F  F6  1  0.32519631  0.05603788  0.34207172  1
  F  F7  1  0.82519631  0.94396212  0.15792828  1
  Sc  Sc8  1  0.52627929  0.69145638  0.28770856  1
  Sc  Sc9  1  0.02627929  0.30854362  0.21229144  1
  Sc  Sc10  1  0.47372071  0.30854362  0.71229144  1
  Sc  Sc11  1  0.97372071  0.69145638  0.78770856  1
