# generated using pymatgen
data_Ag2CO3
_symmetry_space_group_name_H-M   'P 1'
_cell_length_a   3.35736498
_cell_length_b   5.03154282
_cell_length_c   9.78172473
_cell_angle_alpha   90.00000000
_cell_angle_beta   90.00000000
_cell_angle_gamma   97.18544459
_symmetry_Int_Tables_number   1
_chemical_formula_structural   Ag2CO3
_chemical_formula_sum   'Ag4 C2 O6'
_cell_volume   163.94228170
_cell_formula_units_Z   2
loop_
 _symmetry_equiv_pos_site_id
 _symmetry_equiv_pos_as_xyz
  1  'x, y, z'
loop_
 _atom_site_type_symbol
 _atom_site_label
 _atom_site_symmetry_multiplicity
 _atom_site_fract_x
 _atom_site_fract_y
 _atom_site_fract_z
 _atom_site_occupancy
  C  C0  1  0.80976829  0.71736507  0.25000000  1
  C  C1  1  0.19023171  0.28263493  0.75000000  1
  O  O2  1  0.28531654  0.40329093  0.86463024  1
  O  O3  1  0.71468346  0.59670907  0.36463024  1
  O  O4  1  0.00416926  0.96018528  0.25000000  1
  O  O5  1  0.99583074  0.03981472  0.75000000  1
  O  O6  1  0.28531654  0.40329093  0.63536976  1
  O  O7  1  0.71468346  0.59670907  0.13536976  1
  Ag  Ag8  1  0.23925634  0.20159295  0.43038367  1
  Ag  Ag9  1  0.76074366  0.79840705  0.93038367  1
  Ag  Ag10  1  0.76074366  0.79840705  0.56961633  1
  Ag  Ag11  1  0.23925634  0.20159295  0.06961633  1
