# generated using pymatgen
data_Mn(BW)2
_symmetry_space_group_name_H-M   'P 1'
_cell_length_a   3.17902139
_cell_length_b   5.80790805
_cell_length_c   5.80790805
_cell_angle_alpha   90.00000000
_cell_angle_beta   90.00000000
_cell_angle_gamma   90.00000000
_symmetry_Int_Tables_number   1
_chemical_formula_structural   Mn(BW)2
_chemical_formula_sum   'Mn2 B4 W4'
_cell_volume   107.23410074
_cell_formula_units_Z   2
loop_
 _symmetry_equiv_pos_site_id
 _symmetry_equiv_pos_as_xyz
  1  'x, y, z'
loop_
 _atom_site_type_symbol
 _atom_site_label
 _atom_site_symmetry_multiplicity
 _atom_site_fract_x
 _atom_site_fract_y
 _atom_site_fract_z
 _atom_site_occupancy
  B  B0  1  0.00000000  0.61382573  0.11382573  1
  B  B1  1  0.00000000  0.38617427  0.88617427  1
  B  B2  1  0.00000000  0.88617427  0.61382573  1
  B  B3  1  0.00000000  0.11382573  0.38617427  1
  Mn  Mn4  1  0.00000000  0.50000000  0.50000000  1
  Mn  Mn5  1  0.00000000  0.00000000  0.00000000  1
  W  W6  1  0.50000000  0.67783949  0.82216051  1
  W  W7  1  0.50000000  0.32216051  0.17783949  1
  W  W8  1  0.50000000  0.17783949  0.67783949  1
  W  W9  1  0.50000000  0.82216051  0.32216051  1
