# generated using pymatgen
data_InS
_symmetry_space_group_name_H-M   'P 1'
_cell_length_a   4.01044650
_cell_length_b   4.75367380
_cell_length_c   10.72534582
_cell_angle_alpha   90.00000000
_cell_angle_beta   90.00000000
_cell_angle_gamma   90.00000000
_symmetry_Int_Tables_number   1
_chemical_formula_structural   InS
_chemical_formula_sum   'In4 S4'
_cell_volume   204.47179435
_cell_formula_units_Z   4
loop_
 _symmetry_equiv_pos_site_id
 _symmetry_equiv_pos_as_xyz
  1  'x, y, z'
loop_
 _atom_site_type_symbol
 _atom_site_label
 _atom_site_symmetry_multiplicity
 _atom_site_fract_x
 _atom_site_fract_y
 _atom_site_fract_z
 _atom_site_occupancy
  S  S0  1  0.50000000  0.53985532  0.84585096  1
  S  S1  1  0.50000000  0.46014468  0.15414904  1
  S  S2  1  0.00000000  0.03985532  0.65414904  1
  S  S3  1  0.00000000  0.96014468  0.34585096  1
  In  In4  1  0.50000000  0.37441255  0.62003085  1
  In  In5  1  0.50000000  0.62558745  0.37996915  1
  In  In6  1  0.00000000  0.87441255  0.87996915  1
  In  In7  1  0.00000000  0.12558745  0.12003085  1
