# generated using pymatgen
data_HoZrSb
_symmetry_space_group_name_H-M   'P 1'
_cell_length_a   4.26957840
_cell_length_b   4.26957840
_cell_length_c   8.82791295
_cell_angle_alpha   103.99413895
_cell_angle_beta   103.99413895
_cell_angle_gamma   90.00000000
_symmetry_Int_Tables_number   1
_chemical_formula_structural   HoZrSb
_chemical_formula_sum   'Ho2 Zr2 Sb2'
_cell_volume   151.22343784
_cell_formula_units_Z   2
loop_
 _symmetry_equiv_pos_site_id
 _symmetry_equiv_pos_as_xyz
  1  'x, y, z'
loop_
 _atom_site_type_symbol
 _atom_site_label
 _atom_site_symmetry_multiplicity
 _atom_site_fract_x
 _atom_site_fract_y
 _atom_site_fract_z
 _atom_site_occupancy
  Zr  Zr0  1  0.00000000  0.50000000  0.00000000  1
  Zr  Zr1  1  0.50000000  0.00000000  0.00000000  1
  Sb  Sb2  1  0.13401795  0.13401795  0.26803589  1
  Sb  Sb3  1  0.86598205  0.86598205  0.73196411  1
  Ho  Ho4  1  0.67647780  0.67647780  0.35295560  1
  Ho  Ho5  1  0.32352220  0.32352220  0.64704440  1
