# generated using pymatgen
data_BaPbF6
_symmetry_space_group_name_H-M   'P 1'
_cell_length_a   5.15707835
_cell_length_b   5.15707835
_cell_length_c   5.15707835
_cell_angle_alpha   97.23526399
_cell_angle_beta   97.23526398
_cell_angle_gamma   97.23526397
_symmetry_Int_Tables_number   1
_chemical_formula_structural   BaPbF6
_chemical_formula_sum   'Ba1 Pb1 F6'
_cell_volume   133.57073740
_cell_formula_units_Z   1
loop_
 _symmetry_equiv_pos_site_id
 _symmetry_equiv_pos_as_xyz
  1  'x, y, z'
loop_
 _atom_site_type_symbol
 _atom_site_label
 _atom_site_symmetry_multiplicity
 _atom_site_fract_x
 _atom_site_fract_y
 _atom_site_fract_z
 _atom_site_occupancy
  F  F0  1  0.70522686  0.70522686  0.06823468  1
  F  F1  1  0.70522686  0.06823468  0.70522686  1
  F  F2  1  0.29477314  0.93176532  0.29477314  1
  F  F3  1  0.29477314  0.29477314  0.93176532  1
  F  F4  1  0.93176532  0.29477314  0.29477314  1
  F  F5  1  0.06823468  0.70522686  0.70522686  1
  Ba  Ba6  1  0.50000000  0.50000000  0.50000000  1
  Pb  Pb7  1  0.00000000  0.00000000  0.00000000  1
