# generated using pymatgen
data_SrRhF6
_symmetry_space_group_name_H-M   'P 1'
_cell_length_a   4.86302274
_cell_length_b   4.86302274
_cell_length_c   4.86302274
_cell_angle_alpha   98.37779916
_cell_angle_beta   98.37779914
_cell_angle_gamma   98.37779928
_symmetry_Int_Tables_number   1
_chemical_formula_structural   SrRhF6
_chemical_formula_sum   'Sr1 Rh1 F6'
_cell_volume   110.91504471
_cell_formula_units_Z   1
loop_
 _symmetry_equiv_pos_site_id
 _symmetry_equiv_pos_as_xyz
  1  'x, y, z'
loop_
 _atom_site_type_symbol
 _atom_site_label
 _atom_site_symmetry_multiplicity
 _atom_site_fract_x
 _atom_site_fract_y
 _atom_site_fract_z
 _atom_site_occupancy
  F  F0  1  0.71010305  0.71010305  0.07021138  1
  F  F1  1  0.71010305  0.07021138  0.71010305  1
  F  F2  1  0.28989695  0.92978862  0.28989695  1
  F  F3  1  0.28989695  0.28989695  0.92978862  1
  F  F4  1  0.92978862  0.28989695  0.28989695  1
  F  F5  1  0.07021138  0.71010305  0.71010305  1
  Sr  Sr6  1  0.50000000  0.50000000  0.50000000  1
  Rh  Rh7  1  0.00000000  0.00000000  0.00000000  1
