# generated using pymatgen
data_Na3P11
_symmetry_space_group_name_H-M   'P 1'
_cell_length_a   9.91374086
_cell_length_b   10.63204943
_cell_length_c   12.61677265
_cell_angle_alpha   90.00000000
_cell_angle_beta   90.00000000
_cell_angle_gamma   90.00000000
_symmetry_Int_Tables_number   1
_chemical_formula_structural   Na3P11
_chemical_formula_sum   'Na12 P44'
_cell_volume   1329.85051808
_cell_formula_units_Z   4
loop_
 _symmetry_equiv_pos_site_id
 _symmetry_equiv_pos_as_xyz
  1  'x, y, z'
loop_
 _atom_site_type_symbol
 _atom_site_label
 _atom_site_symmetry_multiplicity
 _atom_site_fract_x
 _atom_site_fract_y
 _atom_site_fract_z
 _atom_site_occupancy
  Na  Na0  1  0.00000000  0.75000000  0.25119970  1
  Na  Na1  1  0.50000000  0.25000000  0.24880030  1
  Na  Na2  1  0.00000000  0.25000000  0.74880030  1
  Na  Na3  1  0.50000000  0.75000000  0.75119970  1
  Na  Na4  1  0.75312872  0.07744352  0.00757187  1
  Na  Na5  1  0.25312872  0.92255648  0.49242813  1
  Na  Na6  1  0.74687128  0.57744352  0.49242813  1
  Na  Na7  1  0.24687128  0.42255648  0.00757187  1
  Na  Na8  1  0.24687128  0.92255648  0.99242813  1
  Na  Na9  1  0.74687128  0.07744352  0.50757187  1
  Na  Na10  1  0.25312872  0.42255648  0.50757187  1
  Na  Na11  1  0.75312872  0.57744352  0.99242813  1
  P  P12  1  0.00000000  0.75000000  0.49712280  1
  P  P13  1  0.50000000  0.25000000  0.00287720  1
  P  P14  1  0.00000000  0.25000000  0.50287720  1
  P  P15  1  0.50000000  0.75000000  0.99712280  1
  P  P16  1  0.69133376  0.26263804  0.76742951  1
  P  P17  1  0.19133376  0.73736196  0.73257049  1
  P  P18  1  0.80866624  0.76263804  0.73257049  1
  P  P19  1  0.30866624  0.23736196  0.76742951  1
  P  P20  1  0.30866624  0.73736196  0.23257049  1
  P  P21  1  0.80866624  0.26263804  0.26742951  1
  P  P22  1  0.19133376  0.23736196  0.26742951  1
  P  P23  1  0.69133376  0.76263804  0.23257049  1
  P  P24  1  0.60345605  0.07013378  0.79960204  1
  P  P25  1  0.10345605  0.92986622  0.70039796  1
  P  P26  1  0.89654395  0.57013378  0.70039796  1
  P  P27  1  0.39654395  0.42986622  0.79960204  1
  P  P28  1  0.39654395  0.92986622  0.20039796  1
  P  P29  1  0.89654395  0.07013378  0.29960204  1
  P  P30  1  0.10345605  0.42986622  0.29960204  1
  P  P31  1  0.60345605  0.57013378  0.20039796  1
  P  P32  1  0.58311802  0.38171141  0.88760222  1
  P  P33  1  0.08311802  0.61828859  0.61239778  1
  P  P34  1  0.91688198  0.88171141  0.61239778  1
  P  P35  1  0.41688198  0.11828859  0.88760222  1
  P  P36  1  0.41688198  0.61828859  0.11239778  1
  P  P37  1  0.91688198  0.38171141  0.38760222  1
  P  P38  1  0.08311802  0.11828859  0.38760222  1
  P  P39  1  0.58311802  0.88171141  0.11239778  1
  P  P40  1  0.58651450  0.31645086  0.61475950  1
  P  P41  1  0.08651450  0.68354914  0.88524050  1
  P  P42  1  0.91348550  0.81645086  0.88524050  1
  P  P43  1  0.41348550  0.18354914  0.61475950  1
  P  P44  1  0.41348550  0.68354914  0.38524050  1
  P  P45  1  0.91348550  0.31645086  0.11475950  1
  P  P46  1  0.08651450  0.18354914  0.11475950  1
  P  P47  1  0.58651450  0.81645086  0.38524050  1
  P  P48  1  0.02314559  0.99094981  0.85257205  1
  P  P49  1  0.52314559  0.00905019  0.64742795  1
  P  P50  1  0.47685441  0.49094981  0.64742795  1
  P  P51  1  0.97685441  0.50905019  0.85257205  1
  P  P52  1  0.97685441  0.00905019  0.14742795  1
  P  P53  1  0.47685441  0.99094981  0.35257205  1
  P  P54  1  0.52314559  0.50905019  0.35257205  1
  P  P55  1  0.02314559  0.49094981  0.14742795  1
