# generated using pymatgen
data_La3Co
_symmetry_space_group_name_H-M   'P 1'
_cell_length_a   6.53586840
_cell_length_b   7.05811063
_cell_length_c   10.04458748
_cell_angle_alpha   90.00000000
_cell_angle_beta   90.00000000
_cell_angle_gamma   90.00000000
_symmetry_Int_Tables_number   1
_chemical_formula_structural   La3Co
_chemical_formula_sum   'La12 Co4'
_cell_volume   463.36568209
_cell_formula_units_Z   4
loop_
 _symmetry_equiv_pos_site_id
 _symmetry_equiv_pos_as_xyz
  1  'x, y, z'
loop_
 _atom_site_type_symbol
 _atom_site_label
 _atom_site_symmetry_multiplicity
 _atom_site_fract_x
 _atom_site_fract_y
 _atom_site_fract_z
 _atom_site_occupancy
  La  La0  1  0.82740272  0.66580010  0.07172008  1
  La  La1  1  0.67259728  0.16580010  0.07172008  1
  La  La2  1  0.17259728  0.33419990  0.92827992  1
  La  La3  1  0.32740272  0.83419990  0.57172008  1
  La  La4  1  0.85458963  0.94902630  0.75000000  1
  La  La5  1  0.14541037  0.05097370  0.25000000  1
  La  La6  1  0.17259728  0.33419990  0.57172008  1
  La  La7  1  0.67259728  0.16580010  0.42827992  1
  La  La8  1  0.32740272  0.83419990  0.92827992  1
  La  La9  1  0.82740272  0.66580010  0.42827992  1
  La  La10  1  0.35458963  0.55097370  0.25000000  1
  La  La11  1  0.64541037  0.44902630  0.75000000  1
  Co  Co12  1  0.56215862  0.88147249  0.25000000  1
  Co  Co13  1  0.43784138  0.11852751  0.75000000  1
  Co  Co14  1  0.06215862  0.61852751  0.75000000  1
  Co  Co15  1  0.93784138  0.38147249  0.25000000  1
