# generated using pymatgen
data_ScSnPd
_symmetry_space_group_name_H-M   'P 1'
_cell_length_a   7.54358956
_cell_length_b   7.54358956
_cell_length_c   7.24652904
_cell_angle_alpha   90.00000000
_cell_angle_beta   90.00000000
_cell_angle_gamma   120.00000002
_symmetry_Int_Tables_number   1
_chemical_formula_structural   ScSnPd
_chemical_formula_sum   'Sc6 Sn6 Pd6'
_cell_volume   357.12213552
_cell_formula_units_Z   6
loop_
 _symmetry_equiv_pos_site_id
 _symmetry_equiv_pos_as_xyz
  1  'x, y, z'
loop_
 _atom_site_type_symbol
 _atom_site_label
 _atom_site_symmetry_multiplicity
 _atom_site_fract_x
 _atom_site_fract_y
 _atom_site_fract_z
 _atom_site_occupancy
  Sc  Sc0  1  0.40088210  0.01497986  0.25000000  1
  Sc  Sc1  1  0.61409776  0.59911790  0.25000000  1
  Sc  Sc2  1  0.98502014  0.38590224  0.25000000  1
  Sc  Sc3  1  0.38590224  0.98502014  0.75000000  1
  Sc  Sc4  1  0.59911790  0.61409776  0.75000000  1
  Sc  Sc5  1  0.01497986  0.40088210  0.75000000  1
  Pd  Pd6  1  0.33333333  0.66666667  0.03220604  1
  Pd  Pd7  1  0.33333333  0.66666667  0.46779396  1
  Pd  Pd8  1  0.66666667  0.33333333  0.96779396  1
  Pd  Pd9  1  0.66666667  0.33333333  0.53220604  1
  Pd  Pd10  1  0.00000000  0.00000000  0.25000000  1
  Pd  Pd11  1  0.00000000  0.00000000  0.75000000  1
  Sn  Sn12  1  0.72512216  0.00000000  0.00000000  1
  Sn  Sn13  1  0.27487784  0.27487784  0.50000000  1
  Sn  Sn14  1  0.00000000  0.72512216  0.50000000  1
  Sn  Sn15  1  0.00000000  0.72512216  0.00000000  1
  Sn  Sn16  1  0.27487784  0.27487784  0.00000000  1
  Sn  Sn17  1  0.72512216  0.00000000  0.50000000  1
