# generated using pymatgen
data_PrRhO3
_symmetry_space_group_name_H-M   'P 1'
_cell_length_a   5.44467843
_cell_length_b   5.91698204
_cell_length_c   7.89216193
_cell_angle_alpha   90.00000000
_cell_angle_beta   90.00000000
_cell_angle_gamma   90.00000000
_symmetry_Int_Tables_number   1
_chemical_formula_structural   PrRhO3
_chemical_formula_sum   'Pr4 Rh4 O12'
_cell_volume   254.25439765
_cell_formula_units_Z   4
loop_
 _symmetry_equiv_pos_site_id
 _symmetry_equiv_pos_as_xyz
  1  'x, y, z'
loop_
 _atom_site_type_symbol
 _atom_site_label
 _atom_site_symmetry_multiplicity
 _atom_site_fract_x
 _atom_site_fract_y
 _atom_site_fract_z
 _atom_site_occupancy
  O  O0  1  0.81473385  0.19629581  0.44627886  1
  O  O1  1  0.31473385  0.30370419  0.55372114  1
  O  O2  1  0.68526615  0.69629581  0.05372114  1
  O  O3  1  0.18526615  0.80370419  0.94627886  1
  O  O4  1  0.18526615  0.80370419  0.55372114  1
  O  O5  1  0.68526615  0.69629581  0.44627886  1
  O  O6  1  0.31473385  0.30370419  0.94627886  1
  O  O7  1  0.81473385  0.19629581  0.05372114  1
  O  O8  1  0.38894019  0.03509375  0.25000000  1
  O  O9  1  0.88894019  0.46490625  0.75000000  1
  O  O10  1  0.11105981  0.53509375  0.25000000  1
  O  O11  1  0.61105981  0.96490625  0.75000000  1
  Rh  Rh12  1  0.50000000  0.00000000  0.50000000  1
  Rh  Rh13  1  0.00000000  0.50000000  0.50000000  1
  Rh  Rh14  1  0.00000000  0.50000000  0.00000000  1
  Rh  Rh15  1  0.50000000  0.00000000  0.00000000  1
  Pr  Pr16  1  0.47511451  0.57683415  0.75000000  1
  Pr  Pr17  1  0.97511451  0.92316585  0.25000000  1
  Pr  Pr18  1  0.02488549  0.07683415  0.75000000  1
  Pr  Pr19  1  0.52488549  0.42316585  0.25000000  1
