# generated using pymatgen
data_Mn(FeO2)2
_symmetry_space_group_name_H-M   'P 1'
_cell_length_a   6.08477880
_cell_length_b   6.08477922
_cell_length_c   6.08798542
_cell_angle_alpha   59.98256850
_cell_angle_beta   59.98256592
_cell_angle_gamma   59.77576313
_symmetry_Int_Tables_number   1
_chemical_formula_structural   Mn(FeO2)2
_chemical_formula_sum   'Mn2 Fe4 O8'
_cell_volume   159.07163035
_cell_formula_units_Z   2
loop_
 _symmetry_equiv_pos_site_id
 _symmetry_equiv_pos_as_xyz
  1  'x, y, z'
loop_
 _atom_site_type_symbol
 _atom_site_label
 _atom_site_symmetry_multiplicity
 _atom_site_fract_x
 _atom_site_fract_y
 _atom_site_fract_z
 _atom_site_occupancy
  Fe  Fe0  1  0.99249902  0.99249902  0.00750098  1
  Fe  Fe1  1  0.25750098  0.25750098  0.24249902  1
  Fe  Fe2  1  0.62500000  0.62500000  0.12500000  1
  Fe  Fe3  1  0.62500000  0.62500000  0.62500000  1
  Mn  Mn4  1  0.12500000  0.62500000  0.62500000  1
  Mn  Mn5  1  0.62500000  0.12500000  0.62500000  1
  O  O6  1  0.38862959  0.38862959  0.36297031  1
  O  O7  1  0.39409493  0.86098336  0.37246086  1
  O  O8  1  0.38862959  0.38862959  0.85977050  1
  O  O9  1  0.86098336  0.39409493  0.37246086  1
  O  O10  1  0.38901664  0.85590507  0.87753914  1
  O  O11  1  0.85590507  0.38901664  0.87753914  1
  O  O12  1  0.86137041  0.86137041  0.39022950  1
  O  O13  1  0.86137041  0.86137041  0.88702969  1
