# generated using pymatgen
data_ZrSiO4
_symmetry_space_group_name_H-M   'P 1'
_cell_length_a   5.62319398
_cell_length_b   5.62319399
_cell_length_c   5.62319399
_cell_angle_alpha   106.76857643
_cell_angle_beta   106.76857646
_cell_angle_gamma   115.02328604
_symmetry_Int_Tables_number   1
_chemical_formula_structural   ZrSiO4
_chemical_formula_sum   'Zr2 Si2 O8'
_cell_volume   135.90266141
_cell_formula_units_Z   2
loop_
 _symmetry_equiv_pos_site_id
 _symmetry_equiv_pos_as_xyz
  1  'x, y, z'
loop_
 _atom_site_type_symbol
 _atom_site_label
 _atom_site_symmetry_multiplicity
 _atom_site_fract_x
 _atom_site_fract_y
 _atom_site_fract_z
 _atom_site_occupancy
  O  O0  1  0.80492493  0.37174006  0.06681513  1
  O  O1  1  0.73810981  0.80492493  0.93318487  1
  O  O2  1  0.37174006  0.80492493  0.56681513  1
  O  O3  1  0.80492493  0.73810981  0.43318487  1
  O  O4  1  0.26189019  0.19507507  0.06681513  1
  O  O5  1  0.19507507  0.62825994  0.93318487  1
  O  O6  1  0.19507507  0.26189019  0.56681513  1
  O  O7  1  0.62825994  0.19507507  0.43318487  1
  Si  Si8  1  0.62500000  0.37500000  0.25000000  1
  Si  Si9  1  0.37500000  0.62500000  0.75000000  1
  Zr  Zr10  1  0.12500000  0.87500000  0.25000000  1
  Zr  Zr11  1  0.87500000  0.12500000  0.75000000  1
