# generated using pymatgen
data_SbSI
_symmetry_space_group_name_H-M   'P 1'
_cell_length_a   4.11074164
_cell_length_b   9.01978266
_cell_length_c   10.78672958
_cell_angle_alpha   90.00000000
_cell_angle_beta   90.00000000
_cell_angle_gamma   90.00000000
_symmetry_Int_Tables_number   1
_chemical_formula_structural   SbSI
_chemical_formula_sum   'Sb4 S4 I4'
_cell_volume   399.95031799
_cell_formula_units_Z   4
loop_
 _symmetry_equiv_pos_site_id
 _symmetry_equiv_pos_as_xyz
  1  'x, y, z'
loop_
 _atom_site_type_symbol
 _atom_site_label
 _atom_site_symmetry_multiplicity
 _atom_site_fract_x
 _atom_site_fract_y
 _atom_site_fract_z
 _atom_site_occupancy
  S  S0  1  0.75000000  0.34659551  0.53564118  1
  S  S1  1  0.25000000  0.65340449  0.46435882  1
  S  S2  1  0.25000000  0.15340449  0.03564118  1
  S  S3  1  0.75000000  0.84659551  0.96435882  1
  Sb  Sb4  1  0.75000000  0.10191909  0.87537871  1
  Sb  Sb5  1  0.75000000  0.60191909  0.62462129  1
  Sb  Sb6  1  0.25000000  0.89808091  0.12462129  1
  Sb  Sb7  1  0.25000000  0.39808091  0.37537871  1
  I  I8  1  0.75000000  0.52447877  0.18394598  1
  I  I9  1  0.25000000  0.47552123  0.81605402  1
  I  I10  1  0.75000000  0.02447877  0.31605402  1
  I  I11  1  0.25000000  0.97552123  0.68394598  1
