# generated using pymatgen
data_PbCO3
_symmetry_space_group_name_H-M   'P 1'
_cell_length_a   5.24267762
_cell_length_b   6.27882189
_cell_length_c   8.58841258
_cell_angle_alpha   90.00000000
_cell_angle_beta   90.00000000
_cell_angle_gamma   90.00000000
_symmetry_Int_Tables_number   1
_chemical_formula_structural   PbCO3
_chemical_formula_sum   'Pb4 C4 O12'
_cell_volume   282.71198260
_cell_formula_units_Z   4
loop_
 _symmetry_equiv_pos_site_id
 _symmetry_equiv_pos_as_xyz
  1  'x, y, z'
loop_
 _atom_site_type_symbol
 _atom_site_label
 _atom_site_symmetry_multiplicity
 _atom_site_fract_x
 _atom_site_fract_y
 _atom_site_fract_z
 _atom_site_occupancy
  Pb  Pb0  1  0.75000000  0.74728021  0.91745543  1
  Pb  Pb1  1  0.75000000  0.24728021  0.58254457  1
  Pb  Pb2  1  0.25000000  0.25271979  0.08254457  1
  Pb  Pb3  1  0.25000000  0.75271979  0.41745543  1
  C  C4  1  0.75000000  0.58599195  0.26276712  1
  C  C5  1  0.75000000  0.08599195  0.23723288  1
  C  C6  1  0.25000000  0.41400805  0.73723288  1
  C  C7  1  0.25000000  0.91400805  0.76276712  1
  O  O8  1  0.75000000  0.59345732  0.41428561  1
  O  O9  1  0.75000000  0.09345732  0.08571439  1
  O  O10  1  0.25000000  0.40654268  0.58571439  1
  O  O11  1  0.25000000  0.90654268  0.91428561  1
  O  O12  1  0.53516964  0.58829864  0.18684311  1
  O  O13  1  0.96483036  0.08829864  0.31315689  1
  O  O14  1  0.03516964  0.41170136  0.81315689  1
  O  O15  1  0.46483036  0.91170136  0.68684311  1
  O  O16  1  0.46483036  0.41170136  0.81315689  1
  O  O17  1  0.03516964  0.91170136  0.68684311  1
  O  O18  1  0.96483036  0.58829864  0.18684311  1
  O  O19  1  0.53516964  0.08829864  0.31315689  1
