# generated using pymatgen
data_GaCl3
_symmetry_space_group_name_H-M   'P 1'
_cell_length_a   7.48598934
_cell_length_b   7.30181983
_cell_length_c   7.28575466
_cell_angle_alpha   61.38530414
_cell_angle_beta   59.08662653
_cell_angle_gamma   59.16208213
_symmetry_Int_Tables_number   1
_chemical_formula_structural   GaCl3
_chemical_formula_sum   'Ga2 Cl6'
_cell_volume   280.52777450
_cell_formula_units_Z   2
loop_
 _symmetry_equiv_pos_site_id
 _symmetry_equiv_pos_as_xyz
  1  'x, y, z'
loop_
 _atom_site_type_symbol
 _atom_site_label
 _atom_site_symmetry_multiplicity
 _atom_site_fract_x
 _atom_site_fract_y
 _atom_site_fract_z
 _atom_site_occupancy
  Cl  Cl0  1  0.72125266  0.00000000  0.00000000  1
  Cl  Cl1  1  0.27874734  0.00000000  0.00000000  1
  Cl  Cl2  1  0.68943613  0.16491167  0.45621607  1
  Cl  Cl3  1  0.31056387  0.83508833  0.54378393  1
  Cl  Cl4  1  0.81309210  0.56936492  0.80445088  1
  Cl  Cl5  1  0.18690790  0.43063508  0.19554912  1
  Ga  Ga6  1  0.34474937  0.08430478  0.22619648  1
  Ga  Ga7  1  0.65525063  0.91569522  0.77380352  1
