# generated using pymatgen
data_GdTaO4
_symmetry_space_group_name_H-M   'P 1'
_cell_length_a   5.20650229
_cell_length_b   5.39476313
_cell_length_c   5.58290041
_cell_angle_alpha   90.00000000
_cell_angle_beta   90.00000000
_cell_angle_gamma   96.74664578
_symmetry_Int_Tables_number   1
_chemical_formula_structural   GdTaO4
_chemical_formula_sum   'Gd2 Ta2 O8'
_cell_volume   155.72578251
_cell_formula_units_Z   2
loop_
 _symmetry_equiv_pos_site_id
 _symmetry_equiv_pos_as_xyz
  1  'x, y, z'
loop_
 _atom_site_type_symbol
 _atom_site_label
 _atom_site_symmetry_multiplicity
 _atom_site_fract_x
 _atom_site_fract_y
 _atom_site_fract_z
 _atom_site_occupancy
  O  O0  1  0.72796499  0.00435004  0.56470303  1
  O  O1  1  0.27203501  0.49564996  0.56470303  1
  O  O2  1  0.27203501  0.99564996  0.43529697  1
  O  O3  1  0.72796499  0.50435004  0.43529697  1
  O  O4  1  0.25195937  0.60497669  0.08994163  1
  O  O5  1  0.74804063  0.89502331  0.08994163  1
  O  O6  1  0.74804063  0.39502331  0.91005837  1
  O  O7  1  0.25195937  0.10497669  0.91005837  1
  Gd  Gd8  1  0.00000000  0.75000000  0.76737800  1
  Gd  Gd9  1  0.00000000  0.25000000  0.23262200  1
  Ta  Ta10  1  0.50000000  0.25000000  0.68931175  1
  Ta  Ta11  1  0.50000000  0.75000000  0.31068825  1
