# generated using pymatgen
data_FeBPbO4
_symmetry_space_group_name_H-M   'P 1'
_cell_length_a   6.07412171
_cell_length_b   7.11204073
_cell_length_c   8.48430483
_cell_angle_alpha   90.00000000
_cell_angle_beta   90.00000000
_cell_angle_gamma   90.00000000
_symmetry_Int_Tables_number   1
_chemical_formula_structural   FeBPbO4
_chemical_formula_sum   'Fe4 B4 Pb4 O16'
_cell_volume   366.51688656
_cell_formula_units_Z   4
loop_
 _symmetry_equiv_pos_site_id
 _symmetry_equiv_pos_as_xyz
  1  'x, y, z'
loop_
 _atom_site_type_symbol
 _atom_site_label
 _atom_site_symmetry_multiplicity
 _atom_site_fract_x
 _atom_site_fract_y
 _atom_site_fract_z
 _atom_site_occupancy
  B  B0  1  0.24999932  0.78018692  0.73352137  1
  B  B1  1  0.24999932  0.28018725  0.76647880  1
  B  B2  1  0.74999961  0.71981209  0.23352092  1
  B  B3  1  0.74999961  0.21981242  0.26647835  1
  O  O4  1  0.74999961  0.31740424  0.40886644  1
  O  O5  1  0.55192716  0.66900469  0.30446388  1
  O  O6  1  0.44807342  0.83099573  0.80446433  1
  O  O7  1  0.94807371  0.16900502  0.19553540  1
  O  O8  1  0.24999932  0.18259543  0.90886571  1
  O  O9  1  0.05192687  0.33099465  0.69553584  1
  O  O10  1  0.74999961  0.81740391  0.09113401  1
  O  O11  1  0.24999932  0.68259510  0.59113446  1
  O  O12  1  0.24999932  0.89500033  0.11572422  1
  O  O13  1  0.74999961  0.10500042  0.88427550  1
  O  O14  1  0.94807371  0.66900469  0.30446388  1
  O  O15  1  0.74999961  0.60500009  0.61572467  1
  O  O16  1  0.05192687  0.83099573  0.80446433  1
  O  O17  1  0.55192716  0.16900502  0.19553540  1
  O  O18  1  0.44807342  0.33099465  0.69553584  1
  O  O19  1  0.24999932  0.39499925  0.38427505  1
  Fe  Fe20  1  0.00000000  0.49999967  0.50000045  1
  Fe  Fe21  1  0.50000029  0.49999967  0.50000045  1
  Fe  Fe22  1  0.50000029  0.00000000  0.00000000  1
  Fe  Fe23  1  0.00000000  0.00000000  0.00000000  1
  Pb  Pb24  1  0.24999932  0.56195174  0.14522153  1
  Pb  Pb25  1  0.74999961  0.43804901  0.85477819  1
  Pb  Pb26  1  0.24999932  0.06195066  0.35477891  1
  Pb  Pb27  1  0.74999961  0.93804868  0.64522198  1
