# generated using pymatgen
data_NdCoSi2
_symmetry_space_group_name_H-M   'P 1'
_cell_length_a   4.07615115
_cell_length_b   4.16074063
_cell_length_c   8.42606323
_cell_angle_alpha   104.29397237
_cell_angle_beta   90.00000000
_cell_angle_gamma   90.00000000
_symmetry_Int_Tables_number   1
_chemical_formula_structural   NdCoSi2
_chemical_formula_sum   'Nd2 Co2 Si4'
_cell_volume   138.48033600
_cell_formula_units_Z   2
loop_
 _symmetry_equiv_pos_site_id
 _symmetry_equiv_pos_as_xyz
  1  'x, y, z'
loop_
 _atom_site_type_symbol
 _atom_site_label
 _atom_site_symmetry_multiplicity
 _atom_site_fract_x
 _atom_site_fract_y
 _atom_site_fract_z
 _atom_site_occupancy
  Si  Si0  1  0.25000000  0.24978801  0.49957602  1
  Si  Si1  1  0.75000000  0.75021199  0.50042398  1
  Si  Si2  1  0.75000000  0.45652166  0.91304332  1
  Si  Si3  1  0.25000000  0.54347834  0.08695668  1
  Co  Co4  1  0.75000000  0.31799069  0.63598139  1
  Co  Co5  1  0.25000000  0.68200931  0.36401861  1
  Nd  Nd6  1  0.25000000  0.89338097  0.78676195  1
  Nd  Nd7  1  0.75000000  0.10661903  0.21323805  1
