# generated using pymatgen
data_BiPbClO2
_symmetry_space_group_name_H-M   'P 1'
_cell_length_a   5.65433072
_cell_length_b   5.71564665
_cell_length_c   6.95597345
_cell_angle_alpha   114.25789493
_cell_angle_beta   90.00000000
_cell_angle_gamma   90.00000000
_symmetry_Int_Tables_number   1
_chemical_formula_structural   BiPbClO2
_chemical_formula_sum   'Bi2 Pb2 Cl2 O4'
_cell_volume   204.95524700
_cell_formula_units_Z   2
loop_
 _symmetry_equiv_pos_site_id
 _symmetry_equiv_pos_as_xyz
  1  'x, y, z'
loop_
 _atom_site_type_symbol
 _atom_site_label
 _atom_site_symmetry_multiplicity
 _atom_site_fract_x
 _atom_site_fract_y
 _atom_site_fract_z
 _atom_site_occupancy
  O  O0  1  0.50000000  0.23772694  0.00000000  1
  O  O1  1  0.00000000  0.76227306  0.00000000  1
  O  O2  1  0.50000000  0.76227306  0.00000000  1
  O  O3  1  0.00000000  0.23772694  0.00000000  1
  Cl  Cl4  1  0.75000000  0.74606619  0.49213237  1
  Cl  Cl5  1  0.25000000  0.25393381  0.50786763  1
  Pb  Pb6  1  0.75000000  0.39322901  0.78645802  1
  Pb  Pb7  1  0.25000000  0.60677099  0.21354198  1
  Bi  Bi8  1  0.75000000  0.08757108  0.17514216  1
  Bi  Bi9  1  0.25000000  0.91242892  0.82485784  1
