# generated using pymatgen
data_Y(CoGe)2
_symmetry_space_group_name_H-M   'P 1'
_cell_length_a   3.96437544
_cell_length_b   3.96437545
_cell_length_c   5.79599013
_cell_angle_alpha   109.99834151
_cell_angle_beta   109.99834155
_cell_angle_gamma   90.00000003
_symmetry_Int_Tables_number   1
_chemical_formula_structural   Y(CoGe)2
_chemical_formula_sum   'Y1 Co2 Ge2'
_cell_volume   79.72870741
_cell_formula_units_Z   1
loop_
 _symmetry_equiv_pos_site_id
 _symmetry_equiv_pos_as_xyz
  1  'x, y, z'
loop_
 _atom_site_type_symbol
 _atom_site_label
 _atom_site_symmetry_multiplicity
 _atom_site_fract_x
 _atom_site_fract_y
 _atom_site_fract_z
 _atom_site_occupancy
  Co  Co0  1  0.25000000  0.75000000  0.50000000  1
  Co  Co1  1  0.75000000  0.25000000  0.50000000  1
  Ge  Ge2  1  0.62803414  0.62803414  0.25606828  1
  Ge  Ge3  1  0.37196586  0.37196586  0.74393172  1
  Y  Y4  1  0.00000000  0.00000000  0.00000000  1
