# generated using pymatgen
data_Ag2HgO2
_symmetry_space_group_name_H-M   'P 1'
_cell_length_a   6.38898173
_cell_length_b   6.38898173
_cell_length_c   8.47689929
_cell_angle_alpha   90.00000000
_cell_angle_beta   90.00000000
_cell_angle_gamma   90.00000000
_symmetry_Int_Tables_number   1
_chemical_formula_structural   Ag2HgO2
_chemical_formula_sum   'Ag8 Hg4 O8'
_cell_volume   346.01929424
_cell_formula_units_Z   4
loop_
 _symmetry_equiv_pos_site_id
 _symmetry_equiv_pos_as_xyz
  1  'x, y, z'
loop_
 _atom_site_type_symbol
 _atom_site_label
 _atom_site_symmetry_multiplicity
 _atom_site_fract_x
 _atom_site_fract_y
 _atom_site_fract_z
 _atom_site_occupancy
  O  O0  1  0.24777581  0.62689572  0.48542589  1
  O  O1  1  0.75222419  0.37310428  0.98542589  1
  O  O2  1  0.62689572  0.24777581  0.51457411  1
  O  O3  1  0.12689572  0.25222419  0.73542589  1
  O  O4  1  0.74777581  0.87310428  0.76457411  1
  O  O5  1  0.37310428  0.75222419  0.01457411  1
  O  O6  1  0.87310428  0.74777581  0.23542589  1
  O  O7  1  0.25222419  0.12689572  0.26457411  1
  Ag  Ag8  1  0.49864518  0.74481866  0.62769946  1
  Ag  Ag9  1  0.99864518  0.75518134  0.62230054  1
  Ag  Ag10  1  0.24481866  0.00135482  0.87769946  1
  Ag  Ag11  1  0.75518134  0.99864518  0.37769946  1
  Ag  Ag12  1  0.25518134  0.50135482  0.87230054  1
  Ag  Ag13  1  0.00135482  0.24481866  0.12230054  1
  Ag  Ag14  1  0.50135482  0.25518134  0.12769946  1
  Ag  Ag15  1  0.74481866  0.49864518  0.37230054  1
  Hg  Hg16  1  0.21784290  0.21784290  0.50000000  1
  Hg  Hg17  1  0.28215710  0.71784290  0.25000000  1
  Hg  Hg18  1  0.71784290  0.28215710  0.75000000  1
  Hg  Hg19  1  0.78215710  0.78215710  0.00000000  1
