# generated using pymatgen
data_CeMgPt
_symmetry_space_group_name_H-M   'P 1'
_cell_length_a   7.52924738
_cell_length_b   7.52924738
_cell_length_c   4.11570973
_cell_angle_alpha   90.00000000
_cell_angle_beta   90.00000000
_cell_angle_gamma   120.00000001
_symmetry_Int_Tables_number   1
_chemical_formula_structural   CeMgPt
_chemical_formula_sum   'Ce3 Mg3 Pt3'
_cell_volume   202.05914086
_cell_formula_units_Z   3
loop_
 _symmetry_equiv_pos_site_id
 _symmetry_equiv_pos_as_xyz
  1  'x, y, z'
loop_
 _atom_site_type_symbol
 _atom_site_label
 _atom_site_symmetry_multiplicity
 _atom_site_fract_x
 _atom_site_fract_y
 _atom_site_fract_z
 _atom_site_occupancy
  Mg  Mg0  1  0.00000000  0.75995832  0.50000000  1
  Mg  Mg1  1  0.24004168  0.24004168  0.50000000  1
  Mg  Mg2  1  0.75995832  0.00000000  0.50000000  1
  Ce  Ce3  1  0.58504921  0.58504921  0.00000000  1
  Ce  Ce4  1  0.41495079  0.00000000  0.00000000  1
  Ce  Ce5  1  0.00000000  0.41495079  0.00000000  1
  Pt  Pt6  1  0.33333333  0.66666667  0.50000000  1
  Pt  Pt7  1  0.00000000  0.00000000  0.00000000  1
  Pt  Pt8  1  0.66666667  0.33333333  0.50000000  1
