# generated using pymatgen
data_SbPbClO2
_symmetry_space_group_name_H-M   'P 1'
_cell_length_a   5.50581271
_cell_length_b   5.67501766
_cell_length_c   6.89805068
_cell_angle_alpha   114.28962856
_cell_angle_beta   90.00000000
_cell_angle_gamma   90.00000000
_symmetry_Int_Tables_number   1
_chemical_formula_structural   SbPbClO2
_chemical_formula_sum   'Sb2 Pb2 Cl2 O4'
_cell_volume   196.45410358
_cell_formula_units_Z   2
loop_
 _symmetry_equiv_pos_site_id
 _symmetry_equiv_pos_as_xyz
  1  'x, y, z'
loop_
 _atom_site_type_symbol
 _atom_site_label
 _atom_site_symmetry_multiplicity
 _atom_site_fract_x
 _atom_site_fract_y
 _atom_site_fract_z
 _atom_site_occupancy
  O  O0  1  0.50000000  0.22765587  0.00000000  1
  O  O1  1  0.00000000  0.77234413  0.00000000  1
  O  O2  1  0.50000000  0.77234413  0.00000000  1
  O  O3  1  0.00000000  0.22765587  0.00000000  1
  Cl  Cl4  1  0.75000000  0.74700476  0.49400952  1
  Cl  Cl5  1  0.25000000  0.25299524  0.50599048  1
  Sb  Sb6  1  0.25000000  0.92201581  0.84403162  1
  Sb  Sb7  1  0.75000000  0.07798419  0.15596838  1
  Pb  Pb8  1  0.25000000  0.61867359  0.23734719  1
  Pb  Pb9  1  0.75000000  0.38132641  0.76265281  1
