# generated using pymatgen
data_Sr5P3BrO12
_symmetry_space_group_name_H-M   'P 1'
_cell_length_a   10.12349094
_cell_length_b   10.12349093
_cell_length_c   7.26310291
_cell_angle_alpha   90.00000000
_cell_angle_beta   90.00000000
_cell_angle_gamma   119.99999999
_symmetry_Int_Tables_number   1
_chemical_formula_structural   Sr5P3BrO12
_chemical_formula_sum   'Sr10 P6 Br2 O24'
_cell_volume   644.63432417
_cell_formula_units_Z   2
loop_
 _symmetry_equiv_pos_site_id
 _symmetry_equiv_pos_as_xyz
  1  'x, y, z'
loop_
 _atom_site_type_symbol
 _atom_site_label
 _atom_site_symmetry_multiplicity
 _atom_site_fract_x
 _atom_site_fract_y
 _atom_site_fract_z
 _atom_site_occupancy
  O  O0  1  0.35767199  0.26914874  0.42379497  1
  O  O1  1  0.08852325  0.35767199  0.92379497  1
  O  O2  1  0.26914874  0.91147675  0.92379497  1
  O  O3  1  0.73085126  0.08852325  0.42379497  1
  O  O4  1  0.91147675  0.64232801  0.42379497  1
  O  O5  1  0.64232801  0.73085126  0.92379497  1
  O  O6  1  0.64232801  0.73085126  0.57620503  1
  O  O7  1  0.91147675  0.64232801  0.07620503  1
  O  O8  1  0.73085126  0.08852325  0.07620503  1
  O  O9  1  0.26914874  0.91147675  0.57620503  1
  O  O10  1  0.08852325  0.35767199  0.57620503  1
  O  O11  1  0.35767199  0.26914874  0.07620503  1
  O  O12  1  0.41305203  0.53610741  0.75000000  1
  O  O13  1  0.87694462  0.41305203  0.25000000  1
  O  O14  1  0.53610741  0.12305538  0.25000000  1
  O  O15  1  0.46389259  0.87694462  0.75000000  1
  O  O16  1  0.12305538  0.58694797  0.75000000  1
  O  O17  1  0.58694797  0.46389259  0.25000000  1
  O  O18  1  0.34258023  0.48326059  0.25000000  1
  O  O19  1  0.85931964  0.34258023  0.75000000  1
  O  O20  1  0.48326059  0.14068036  0.75000000  1
  O  O21  1  0.51673941  0.85931964  0.25000000  1
  O  O22  1  0.14068036  0.65741977  0.25000000  1
  O  O23  1  0.65741977  0.51673941  0.75000000  1
  P  P24  1  0.40814681  0.37284321  0.25000000  1
  P  P25  1  0.03530360  0.40814681  0.75000000  1
  P  P26  1  0.59185319  0.62715679  0.75000000  1
  P  P27  1  0.96469640  0.59185319  0.25000000  1
  P  P28  1  0.62715679  0.03530360  0.25000000  1
  P  P29  1  0.37284321  0.96469640  0.75000000  1
  Br  Br30  1  0.00000000  0.00000000  0.50000000  1
  Br  Br31  1  0.00000000  0.00000000  0.00000000  1
  Sr  Sr32  1  0.99728945  0.73857706  0.75000000  1
  Sr  Sr33  1  0.25871239  0.99728945  0.25000000  1
  Sr  Sr34  1  0.73857706  0.74128761  0.25000000  1
  Sr  Sr35  1  0.26142294  0.25871239  0.75000000  1
  Sr  Sr36  1  0.74128761  0.00271055  0.75000000  1
  Sr  Sr37  1  0.00271055  0.26142294  0.25000000  1
  Sr  Sr38  1  0.33333333  0.66666667  0.49862961  1
  Sr  Sr39  1  0.66666667  0.33333333  0.99862961  1
  Sr  Sr40  1  0.66666667  0.33333333  0.50137039  1
  Sr  Sr41  1  0.33333333  0.66666667  0.00137039  1
