# generated using pymatgen
data_La(SiPd)2
_symmetry_space_group_name_H-M   'P 1'
_cell_length_a   4.30595851
_cell_length_b   4.30595852
_cell_length_c   5.84634082
_cell_angle_alpha   111.60840794
_cell_angle_beta   111.60840804
_cell_angle_gamma   90.00000000
_symmetry_Int_Tables_number   1
_chemical_formula_structural   La(SiPd)2
_chemical_formula_sum   'La1 Si2 Pd2'
_cell_volume   92.53762866
_cell_formula_units_Z   1
loop_
 _symmetry_equiv_pos_site_id
 _symmetry_equiv_pos_as_xyz
  1  'x, y, z'
loop_
 _atom_site_type_symbol
 _atom_site_label
 _atom_site_symmetry_multiplicity
 _atom_site_fract_x
 _atom_site_fract_y
 _atom_site_fract_z
 _atom_site_occupancy
  Si  Si0  1  0.62041068  0.62041068  0.24082137  1
  Si  Si1  1  0.37958932  0.37958932  0.75917863  1
  Pd  Pd2  1  0.75000000  0.25000000  0.50000000  1
  Pd  Pd3  1  0.25000000  0.75000000  0.50000000  1
  La  La4  1  0.00000000  0.00000000  0.00000000  1
