# generated using pymatgen
data_Na3AlP2
_symmetry_space_group_name_H-M   'P 1'
_cell_length_a   6.06132350
_cell_length_b   6.83246751
_cell_length_c   8.04840998
_cell_angle_alpha   115.12236620
_cell_angle_beta   112.12039811
_cell_angle_gamma   90.00000002
_symmetry_Int_Tables_number   1
_chemical_formula_structural   Na3AlP2
_chemical_formula_sum   'Na6 Al2 P4'
_cell_volume   274.44653988
_cell_formula_units_Z   2
loop_
 _symmetry_equiv_pos_site_id
 _symmetry_equiv_pos_as_xyz
  1  'x, y, z'
loop_
 _atom_site_type_symbol
 _atom_site_label
 _atom_site_symmetry_multiplicity
 _atom_site_fract_x
 _atom_site_fract_y
 _atom_site_fract_z
 _atom_site_occupancy
  Na  Na0  1  0.74999923  0.50000000  0.00000000  1
  Na  Na1  1  0.25000077  0.50000000  0.00000000  1
  Na  Na2  1  0.80752744  0.99069005  0.61505487  1
  Na  Na3  1  0.30749685  0.62425066  0.61499371  1
  Na  Na4  1  0.69250315  0.37574934  0.38500629  1
  Na  Na5  1  0.19247256  0.00930995  0.38494513  1
  Al  Al6  1  0.25000127  0.00000000  0.00000000  1
  Al  Al7  1  0.74999873  0.00000000  0.00000000  1
  P  P8  1  0.39911530  0.09601999  0.79823059  1
  P  P9  1  0.60088470  0.90398001  0.20176941  1
  P  P10  1  0.89911058  0.70217672  0.79822115  1
  P  P11  1  0.10088942  0.29782328  0.20177885  1
