# generated using pymatgen
data_Sr2Fe2O5
_symmetry_space_group_name_H-M   'P 1'
_cell_length_a   5.60166204
_cell_length_b   5.77829517
_cell_length_c   8.83473405
_cell_angle_alpha   109.08759428
_cell_angle_beta   108.48409722
_cell_angle_gamma   89.99932751
_symmetry_Int_Tables_number   1
_chemical_formula_structural   Sr2Fe2O5
_chemical_formula_sum   'Sr4 Fe4 O10'
_cell_volume   254.57942279
_cell_formula_units_Z   2
loop_
 _symmetry_equiv_pos_site_id
 _symmetry_equiv_pos_as_xyz
  1  'x, y, z'
loop_
 _atom_site_type_symbol
 _atom_site_label
 _atom_site_symmetry_multiplicity
 _atom_site_fract_x
 _atom_site_fract_y
 _atom_site_fract_z
 _atom_site_occupancy
  Sr  Sr0  1  0.39561618  0.91119929  0.78307843  1
  Sr  Sr1  1  0.61255380  0.08878981  0.21691250  1
  Sr  Sr2  1  0.89565088  0.37191086  0.78309613  1
  Sr  Sr3  1  0.11257967  0.62808045  0.21690147  1
  Fe  Fe4  1  0.99899323  0.99999649  0.99999554  1
  Fe  Fe5  1  0.49900245  0.49999590  0.99999297  1
  Fe  Fe6  1  0.79332406  0.67809594  0.50001215  1
  Fe  Fe7  1  0.29333042  0.32191446  0.50000408  1
  O  O8  1  0.75838369  0.26063992  0.01604763  1
  O  O9  1  0.74235362  0.73937722  0.98396587  1
  O  O10  1  0.25837576  0.25540650  0.01603686  1
  O  O11  1  0.24235419  0.74458340  0.98396062  1
  O  O12  1  0.84380642  0.90873084  0.71951176  1
  O  O13  1  0.12429380  0.09125833  0.28048764  1
  O  O14  1  0.34380863  0.31079318  0.71950954  1
  O  O15  1  0.62425783  0.68922955  0.28048782  1
  O  O16  1  0.13724824  0.62109833  0.49998994  1
  O  O17  1  0.63726914  0.37889952  0.50000904  1
