# generated using pymatgen
data_Li2Ga
_symmetry_space_group_name_H-M   'P 1'
_cell_length_a   4.38061305
_cell_length_b   4.53135049
_cell_length_c   5.21047571
_cell_angle_alpha   115.77452701
_cell_angle_beta   90.00000000
_cell_angle_gamma   90.00000000
_symmetry_Int_Tables_number   1
_chemical_formula_structural   Li2Ga
_chemical_formula_sum   'Li4 Ga2'
_cell_volume   93.13855914
_cell_formula_units_Z   2
loop_
 _symmetry_equiv_pos_site_id
 _symmetry_equiv_pos_as_xyz
  1  'x, y, z'
loop_
 _atom_site_type_symbol
 _atom_site_label
 _atom_site_symmetry_multiplicity
 _atom_site_fract_x
 _atom_site_fract_y
 _atom_site_fract_z
 _atom_site_occupancy
  Li  Li0  1  0.25000000  0.58693468  0.17386936  1
  Li  Li1  1  0.75000000  0.41306532  0.82613064  1
  Li  Li2  1  0.75000000  0.75817388  0.51634777  1
  Li  Li3  1  0.25000000  0.24182612  0.48365223  1
  Ga  Ga4  1  0.25000000  0.92138055  0.84276109  1
  Ga  Ga5  1  0.75000000  0.07861945  0.15723891  1
