# generated using pymatgen
data_YbCu2
_symmetry_space_group_name_H-M   'P 1'
_cell_length_a   4.23525192
_cell_length_b   5.40212640
_cell_length_c   5.40212718
_cell_angle_alpha   77.81667369
_cell_angle_beta   66.92108894
_cell_angle_gamma   66.92109394
_symmetry_Int_Tables_number   1
_chemical_formula_structural   YbCu2
_chemical_formula_sum   'Yb2 Cu4'
_cell_volume   104.36427683
_cell_formula_units_Z   2
loop_
 _symmetry_equiv_pos_site_id
 _symmetry_equiv_pos_as_xyz
  1  'x, y, z'
loop_
 _atom_site_type_symbol
 _atom_site_label
 _atom_site_symmetry_multiplicity
 _atom_site_fract_x
 _atom_site_fract_y
 _atom_site_fract_z
 _atom_site_occupancy
  Yb  Yb0  1  0.54312287  0.70687713  0.20687713  1
  Yb  Yb1  1  0.45687713  0.29312287  0.79312287  1
  Cu  Cu2  1  0.16279804  0.89254682  0.78185709  1
  Cu  Cu3  1  0.83720196  0.10745318  0.21814291  1
  Cu  Cu4  1  0.83720196  0.71814291  0.60745318  1
  Cu  Cu5  1  0.16279804  0.28185709  0.39254682  1
