# generated using pymatgen
data_VO2
_symmetry_space_group_name_H-M   'P 1'
_cell_length_a   4.51373241
_cell_length_b   5.44161395
_cell_length_c   5.44161395
_cell_angle_alpha   67.86346371
_cell_angle_beta   89.99813334
_cell_angle_gamma   89.99813337
_symmetry_Int_Tables_number   1
_chemical_formula_structural   VO2
_chemical_formula_sum   'V4 O8'
_cell_volume   123.80481964
_cell_formula_units_Z   4
loop_
 _symmetry_equiv_pos_site_id
 _symmetry_equiv_pos_as_xyz
  1  'x, y, z'
loop_
 _atom_site_type_symbol
 _atom_site_label
 _atom_site_symmetry_multiplicity
 _atom_site_fract_x
 _atom_site_fract_y
 _atom_site_fract_z
 _atom_site_occupancy
  O  O0  1  0.79917469  0.89988834  0.89988834  1
  O  O1  1  0.20082531  0.10011166  0.10011166  1
  O  O2  1  0.20067949  0.60021064  0.60021064  1
  O  O3  1  0.79932051  0.39978936  0.39978936  1
  O  O4  1  0.70074956  0.39988970  0.89979342  1
  O  O5  1  0.29925044  0.10020658  0.60011030  1
  O  O6  1  0.29925044  0.60011030  0.10020658  1
  O  O7  1  0.70074956  0.89979342  0.39988970  1
  V  V8  1  0.49995513  0.75000142  0.75000142  1
  V  V9  1  0.50004487  0.24999858  0.24999858  1
  V  V10  1  0.00000000  0.24999700  0.75000300  1
  V  V11  1  0.00000000  0.75000300  0.24999700  1
