# generated using pymatgen
data_Th2Ge
_symmetry_space_group_name_H-M   'P 1'
_cell_length_a   6.06203405
_cell_length_b   6.06203404
_cell_length_c   6.06203404
_cell_angle_alpha   104.63757348
_cell_angle_beta   104.63757344
_cell_angle_gamma   119.64286201
_symmetry_Int_Tables_number   1
_chemical_formula_structural   Th2Ge
_chemical_formula_sum   'Th4 Ge2'
_cell_volume   167.37238271
_cell_formula_units_Z   2
loop_
 _symmetry_equiv_pos_site_id
 _symmetry_equiv_pos_as_xyz
  1  'x, y, z'
loop_
 _atom_site_type_symbol
 _atom_site_label
 _atom_site_symmetry_multiplicity
 _atom_site_fract_x
 _atom_site_fract_y
 _atom_site_fract_z
 _atom_site_occupancy
  Ge  Ge0  1  0.75000000  0.75000000  0.00000000  1
  Ge  Ge1  1  0.25000000  0.25000000  0.00000000  1
  Th  Th2  1  0.83634767  0.66365233  0.50000000  1
  Th  Th3  1  0.33634767  0.83634767  0.17269533  1
  Th  Th4  1  0.16365233  0.33634767  0.50000000  1
  Th  Th5  1  0.66365233  0.16365233  0.82730467  1
