# generated using pymatgen
data_Th2Al
_symmetry_space_group_name_H-M   'P 1'
_cell_length_a   5.71978356
_cell_length_b   6.14221470
_cell_length_c   6.14221470
_cell_angle_alpha   77.47914414
_cell_angle_beta   62.25013254
_cell_angle_gamma   62.25013257
_symmetry_Int_Tables_number   1
_chemical_formula_structural   Th2Al
_chemical_formula_sum   'Th4 Al2'
_cell_volume   169.00713743
_cell_formula_units_Z   2
loop_
 _symmetry_equiv_pos_site_id
 _symmetry_equiv_pos_as_xyz
  1  'x, y, z'
loop_
 _atom_site_type_symbol
 _atom_site_label
 _atom_site_symmetry_multiplicity
 _atom_site_fract_x
 _atom_site_fract_y
 _atom_site_fract_z
 _atom_site_occupancy
  Al  Al0  1  0.25000000  0.00000000  0.00000000  1
  Al  Al1  1  0.75000000  0.00000000  0.00000000  1
  Th  Th2  1  0.15805315  0.50000000  0.18389370  1
  Th  Th3  1  0.34194685  0.81610630  0.50000000  1
  Th  Th4  1  0.65805315  0.18389370  0.50000000  1
  Th  Th5  1  0.84194685  0.50000000  0.81610630  1
