# generated using pymatgen
data_GdOF
_symmetry_space_group_name_H-M   'P 1'
_cell_length_a   3.88555550
_cell_length_b   3.88555550
_cell_length_c   6.85310950
_cell_angle_alpha   73.53148189
_cell_angle_beta   73.53148189
_cell_angle_gamma   60.00001256
_symmetry_Int_Tables_number   1
_chemical_formula_structural   GdOF
_chemical_formula_sum   'Gd2 O2 F2'
_cell_volume   84.66673237
_cell_formula_units_Z   2
loop_
 _symmetry_equiv_pos_site_id
 _symmetry_equiv_pos_as_xyz
  1  'x, y, z'
loop_
 _atom_site_type_symbol
 _atom_site_label
 _atom_site_symmetry_multiplicity
 _atom_site_fract_x
 _atom_site_fract_y
 _atom_site_fract_z
 _atom_site_occupancy
  Gd  Gd0  1  0.74089921  0.74089921  0.77730236  1
  Gd  Gd1  1  0.25910079  0.25910079  0.22269764  1
  O  O2  1  0.62214018  0.62214018  0.13357946  1
  O  O3  1  0.37785982  0.37785982  0.86642054  1
  F  F4  1  0.87035115  0.87035115  0.38894655  1
  F  F5  1  0.12964885  0.12964885  0.61105345  1
