# generated using pymatgen
data_Si4Rh3
_symmetry_space_group_name_H-M   'P 1'
_cell_length_a   3.65229841
_cell_length_b   5.86863376
_cell_length_c   18.94092788
_cell_angle_alpha   90.00000000
_cell_angle_beta   90.00000000
_cell_angle_gamma   90.00000000
_symmetry_Int_Tables_number   1
_chemical_formula_structural   Si4Rh3
_chemical_formula_sum   'Si16 Rh12'
_cell_volume   405.97988134
_cell_formula_units_Z   4
loop_
 _symmetry_equiv_pos_site_id
 _symmetry_equiv_pos_as_xyz
  1  'x, y, z'
loop_
 _atom_site_type_symbol
 _atom_site_label
 _atom_site_symmetry_multiplicity
 _atom_site_fract_x
 _atom_site_fract_y
 _atom_site_fract_z
 _atom_site_occupancy
  Si  Si0  1  0.75000000  0.57007942  0.59052208  1
  Si  Si1  1  0.75000000  0.92992058  0.09052208  1
  Si  Si2  1  0.25000000  0.38706994  0.14342767  1
  Si  Si3  1  0.25000000  0.07007942  0.90947792  1
  Si  Si4  1  0.25000000  0.72028031  0.26821270  1
  Si  Si5  1  0.25000000  0.42992058  0.40947792  1
  Si  Si6  1  0.75000000  0.27971969  0.73178730  1
  Si  Si7  1  0.25000000  0.77971969  0.76821270  1
  Si  Si8  1  0.75000000  0.22028031  0.23178730  1
  Si  Si9  1  0.75000000  0.47980761  0.04902395  1
  Si  Si10  1  0.75000000  0.61293006  0.85657233  1
  Si  Si11  1  0.25000000  0.97980761  0.45097605  1
  Si  Si12  1  0.25000000  0.11293006  0.64342767  1
  Si  Si13  1  0.75000000  0.88706994  0.35657233  1
  Si  Si14  1  0.25000000  0.52019239  0.95097605  1
  Si  Si15  1  0.75000000  0.02019239  0.54902395  1
  Rh  Rh16  1  0.75000000  0.50388096  0.32354769  1
  Rh  Rh17  1  0.75000000  0.99611904  0.82354769  1
  Rh  Rh18  1  0.75000000  0.88615150  0.67435935  1
  Rh  Rh19  1  0.25000000  0.11384850  0.32564065  1
  Rh  Rh20  1  0.75000000  0.81221673  0.96789141  1
  Rh  Rh21  1  0.75000000  0.61384850  0.17435935  1
  Rh  Rh22  1  0.25000000  0.49611904  0.67645231  1
  Rh  Rh23  1  0.25000000  0.31221673  0.53210859  1
  Rh  Rh24  1  0.25000000  0.38615150  0.82564065  1
  Rh  Rh25  1  0.25000000  0.18778327  0.03210859  1
  Rh  Rh26  1  0.75000000  0.68778327  0.46789141  1
  Rh  Rh27  1  0.25000000  0.00388096  0.17645231  1
