# generated using pymatgen
data_VZnRh2
_symmetry_space_group_name_H-M   'P 1'
_cell_length_a   4.29020807
_cell_length_b   4.29020807
_cell_length_c   4.29020807
_cell_angle_alpha   59.81093268
_cell_angle_beta   59.81093268
_cell_angle_gamma   59.81093268
_symmetry_Int_Tables_number   1
_chemical_formula_structural   VZnRh2
_chemical_formula_sum   'V1 Zn1 Rh2'
_cell_volume   55.59710745
_cell_formula_units_Z   1
loop_
 _symmetry_equiv_pos_site_id
 _symmetry_equiv_pos_as_xyz
  1  'x, y, z'
loop_
 _atom_site_type_symbol
 _atom_site_label
 _atom_site_symmetry_multiplicity
 _atom_site_fract_x
 _atom_site_fract_y
 _atom_site_fract_z
 _atom_site_occupancy
  V  V0  1  0.25002030  0.25002030  0.25002030  1
  Zn  Zn1  1  0.74998015  0.74998015  0.74998015  1
  Rh  Rh2  1  0.00002933  0.00002933  0.00002933  1
  Rh  Rh3  1  0.49997021  0.49997021  0.49997021  1
