# generated using pymatgen
data_Tb2Fe2Si2C
_symmetry_space_group_name_H-M   'P 1'
_cell_length_a   3.93937634
_cell_length_b   5.65226343
_cell_length_c   5.66135155
_cell_angle_alpha   73.52508442
_cell_angle_beta   69.63995428
_cell_angle_gamma   69.60576289
_symmetry_Int_Tables_number   1
_chemical_formula_structural   Tb2Fe2Si2C
_chemical_formula_sum   'Tb2 Fe2 Si2 C1'
_cell_volume   108.86737377
_cell_formula_units_Z   1
loop_
 _symmetry_equiv_pos_site_id
 _symmetry_equiv_pos_as_xyz
  1  'x, y, z'
loop_
 _atom_site_type_symbol
 _atom_site_label
 _atom_site_symmetry_multiplicity
 _atom_site_fract_x
 _atom_site_fract_y
 _atom_site_fract_z
 _atom_site_occupancy
  Tb  Tb0  1  0.06001193  0.67429302  0.20568312  1
  Tb  Tb1  1  0.93998807  0.32570698  0.79431688  1
  Fe  Fe2  1  0.29884483  0.80721613  0.59509420  1
  Fe  Fe3  1  0.70115517  0.19278387  0.40490580  1
  Si  Si4  1  0.66188432  0.89436169  0.78186968  1
  Si  Si5  1  0.33811568  0.10563831  0.21813032  1
  C  C6  1  0.50000000  0.50000000  0.50000000  1
