# generated using pymatgen
data_Rb3As
_symmetry_space_group_name_H-M   'P 1'
_cell_length_a   6.18257899
_cell_length_b   6.18257900
_cell_length_c   10.89138781
_cell_angle_alpha   90.00000000
_cell_angle_beta   90.00000000
_cell_angle_gamma   120.00000002
_symmetry_Int_Tables_number   1
_chemical_formula_structural   Rb3As
_chemical_formula_sum   'Rb6 As2'
_cell_volume   360.53979020
_cell_formula_units_Z   2
loop_
 _symmetry_equiv_pos_site_id
 _symmetry_equiv_pos_as_xyz
  1  'x, y, z'
loop_
 _atom_site_type_symbol
 _atom_site_label
 _atom_site_symmetry_multiplicity
 _atom_site_fract_x
 _atom_site_fract_y
 _atom_site_fract_z
 _atom_site_occupancy
  As  As0  1  0.66666667  0.33333333  0.75000000  1
  As  As1  1  0.33333333  0.66666667  0.25000000  1
  Rb  Rb2  1  0.33333333  0.66666667  0.57827514  1
  Rb  Rb3  1  0.66666667  0.33333333  0.07827514  1
  Rb  Rb4  1  0.66666667  0.33333333  0.42172486  1
  Rb  Rb5  1  0.33333333  0.66666667  0.92172486  1
  Rb  Rb6  1  0.00000000  0.00000000  0.75000000  1
  Rb  Rb7  1  0.00000000  0.00000000  0.25000000  1
