# generated using pymatgen
data_ThTi2O6
_symmetry_space_group_name_H-M   'P 1'
_cell_length_a   3.84684516
_cell_length_b   5.34027049
_cell_length_c   6.65211869
_cell_angle_alpha   71.58637841
_cell_angle_beta   73.19326314
_cell_angle_gamma   68.88916366
_symmetry_Int_Tables_number   1
_chemical_formula_structural   ThTi2O6
_chemical_formula_sum   'Th1 Ti2 O6'
_cell_volume   118.55906713
_cell_formula_units_Z   1
loop_
 _symmetry_equiv_pos_site_id
 _symmetry_equiv_pos_as_xyz
  1  'x, y, z'
loop_
 _atom_site_type_symbol
 _atom_site_label
 _atom_site_symmetry_multiplicity
 _atom_site_fract_x
 _atom_site_fract_y
 _atom_site_fract_z
 _atom_site_occupancy
  O  O0  1  0.27819739  0.84793661  0.59566861  1
  O  O1  1  0.72180261  0.15206339  0.40433139  1
  O  O2  1  0.65426445  0.80037911  0.89109199  1
  O  O3  1  0.02497028  0.63981236  0.31024707  1
  O  O4  1  0.97502972  0.36018764  0.68975293  1
  O  O5  1  0.34573555  0.19962089  0.10890801  1
  Ti  Ti6  1  0.82329812  0.74604601  0.60735776  1
  Ti  Ti7  1  0.17670188  0.25395399  0.39264224  1
  Th  Th8  1  0.00000000  0.00000000  0.00000000  1
