# generated using pymatgen
data_Y2Fe2Si2C
_symmetry_space_group_name_H-M   'P 1'
_cell_length_a   3.93492818
_cell_length_b   5.64482017
_cell_length_c   5.67259429
_cell_angle_alpha   73.45931947
_cell_angle_beta   69.70604662
_cell_angle_gamma   69.60176304
_symmetry_Int_Tables_number   1
_chemical_formula_structural   Y2Fe2Si2C
_chemical_formula_sum   'Y2 Fe2 Si2 C1'
_cell_volume   108.82753667
_cell_formula_units_Z   1
loop_
 _symmetry_equiv_pos_site_id
 _symmetry_equiv_pos_as_xyz
  1  'x, y, z'
loop_
 _atom_site_type_symbol
 _atom_site_label
 _atom_site_symmetry_multiplicity
 _atom_site_fract_x
 _atom_site_fract_y
 _atom_site_fract_z
 _atom_site_occupancy
  Y  Y0  1  0.06027922  0.67373853  0.20570303  1
  Y  Y1  1  0.93972078  0.32626147  0.79429697  1
  Fe  Fe2  1  0.29904104  0.80694414  0.59497378  1
  Fe  Fe3  1  0.70095896  0.19305586  0.40502622  1
  Si  Si4  1  0.66111456  0.89425464  0.78351623  1
  Si  Si5  1  0.33888544  0.10574536  0.21648377  1
  C  C6  1  0.50000000  0.50000000  0.50000000  1
