# generated using pymatgen
data_Dy2Cr2C3
_symmetry_space_group_name_H-M   'P 1'
_cell_length_a   3.36778806
_cell_length_b   5.48455114
_cell_length_c   5.58276333
_cell_angle_alpha   105.05757366
_cell_angle_beta   90.00000000
_cell_angle_gamma   107.88003122
_symmetry_Int_Tables_number   1
_chemical_formula_structural   Dy2Cr2C3
_chemical_formula_sum   'Dy2 Cr2 C3'
_cell_volume   94.41055861
_cell_formula_units_Z   1
loop_
 _symmetry_equiv_pos_site_id
 _symmetry_equiv_pos_as_xyz
  1  'x, y, z'
loop_
 _atom_site_type_symbol
 _atom_site_label
 _atom_site_symmetry_multiplicity
 _atom_site_fract_x
 _atom_site_fract_y
 _atom_site_fract_z
 _atom_site_occupancy
  Dy  Dy0  1  0.39407273  0.78814547  0.68318701  1
  Dy  Dy1  1  0.60592727  0.21185453  0.31681299  1
  Cr  Cr2  1  0.15687511  0.31375022  0.89098595  1
  Cr  Cr3  1  0.84312489  0.68624978  0.10901405  1
  C  C4  1  0.71507939  0.43015877  0.76976006  1
  C  C5  1  0.28492061  0.56984123  0.23023994  1
  C  C6  1  -0.00000000  0.00000000  0.00000000  1
