# generated using pymatgen
data_Y2Si2O7
_symmetry_space_group_name_H-M   'P 1'
_cell_length_a   4.78859943
_cell_length_b   5.71650829
_cell_length_c   5.71650830
_cell_angle_alpha   105.34142386
_cell_angle_beta   97.17930328
_cell_angle_gamma   97.17930319
_symmetry_Int_Tables_number   1
_chemical_formula_structural   Y2Si2O7
_chemical_formula_sum   'Y2 Si2 O7'
_cell_volume   147.66830732
_cell_formula_units_Z   1
loop_
 _symmetry_equiv_pos_site_id
 _symmetry_equiv_pos_as_xyz
  1  'x, y, z'
loop_
 _atom_site_type_symbol
 _atom_site_label
 _atom_site_symmetry_multiplicity
 _atom_site_fract_x
 _atom_site_fract_y
 _atom_site_fract_z
 _atom_site_occupancy
  O  O0  1  0.77897917  0.91423302  0.61662928  1
  O  O1  1  0.22102083  0.38337072  0.08576698  1
  O  O2  1  0.22102083  0.08576698  0.38337072  1
  O  O3  1  0.77897917  0.61662928  0.91423302  1
  O  O4  1  0.50000000  0.00000000  0.00000000  1
  O  O5  1  0.28716655  0.61988359  0.61988359  1
  O  O6  1  0.71283345  0.38011641  0.38011641  1
  Si  Si7  1  0.41132340  0.21733854  0.21733854  1
  Si  Si8  1  0.58867660  0.78266146  0.78266146  1
  Y  Y9  1  0.00000000  0.30743485  0.69256515  1
  Y  Y10  1  0.00000000  0.69256515  0.30743485  1
