# generated using pymatgen
data_Ti2NiS4
_symmetry_space_group_name_H-M   'P 1'
_cell_length_a   3.40752491
_cell_length_b   5.86851270
_cell_length_c   6.58984054
_cell_angle_alpha   116.36675349
_cell_angle_beta   104.98367433
_cell_angle_gamma   90.00000000
_symmetry_Int_Tables_number   1
_chemical_formula_structural   Ti2NiS4
_chemical_formula_sum   'Ti2 Ni1 S4'
_cell_volume   113.04628838
_cell_formula_units_Z   1
loop_
 _symmetry_equiv_pos_site_id
 _symmetry_equiv_pos_as_xyz
  1  'x, y, z'
loop_
 _atom_site_type_symbol
 _atom_site_label
 _atom_site_symmetry_multiplicity
 _atom_site_fract_x
 _atom_site_fract_y
 _atom_site_fract_z
 _atom_site_occupancy
  Ti  Ti0  1  0.74398285  0.73783054  0.48796571  1
  Ti  Ti1  1  0.25601715  0.26216946  0.51203429  1
  Ni  Ni2  1  0.00000000  0.00000000  0.00000000  1
  S  S3  1  0.62312830  0.96039918  0.24625659  1
  S  S4  1  0.37687170  0.03960082  0.75374341  1
  S  S5  1  0.88149237  0.55282728  0.76298475  1
  S  S6  1  0.11850763  0.44717272  0.23701525  1
