# generated using pymatgen
data_Tb2Al3Si2
_symmetry_space_group_name_H-M   'P 1'
_cell_length_a   4.06155113
_cell_length_b   5.49886487
_cell_length_c   6.63986327
_cell_angle_alpha   100.31560429
_cell_angle_beta   90.00000000
_cell_angle_gamma   111.67295487
_symmetry_Int_Tables_number   1
_chemical_formula_structural   Tb2Al3Si2
_chemical_formula_sum   'Tb2 Al3 Si2'
_cell_volume   135.22814295
_cell_formula_units_Z   1
loop_
 _symmetry_equiv_pos_site_id
 _symmetry_equiv_pos_as_xyz
  1  'x, y, z'
loop_
 _atom_site_type_symbol
 _atom_site_label
 _atom_site_symmetry_multiplicity
 _atom_site_fract_x
 _atom_site_fract_y
 _atom_site_fract_z
 _atom_site_occupancy
  Al  Al0  1  0.69429670  0.38859340  0.86636526  1
  Al  Al1  1  0.00000000  0.00000000  0.00000000  1
  Al  Al2  1  0.30570330  0.61140660  0.13363474  1
  Si  Si3  1  0.90728733  0.81457466  0.35963955  1
  Si  Si4  1  0.09271267  0.18542534  0.64036045  1
  Tb  Tb5  1  0.38039179  0.76078358  0.67792986  1
  Tb  Tb6  1  0.61960821  0.23921642  0.32207014  1
