# generated using pymatgen
data_Ho2Fe2Si2C
_symmetry_space_group_name_H-M   'P 1'
_cell_length_a   3.91623681
_cell_length_b   5.60788908
_cell_length_c   5.62437984
_cell_angle_alpha   73.33343627
_cell_angle_beta   69.62589994
_cell_angle_gamma   69.56331456
_symmetry_Int_Tables_number   1
_chemical_formula_structural   Ho2Fe2Si2C
_chemical_formula_sum   'Ho2 Fe2 Si2 C1'
_cell_volume   106.56887162
_cell_formula_units_Z   1
loop_
 _symmetry_equiv_pos_site_id
 _symmetry_equiv_pos_as_xyz
  1  'x, y, z'
loop_
 _atom_site_type_symbol
 _atom_site_label
 _atom_site_symmetry_multiplicity
 _atom_site_fract_x
 _atom_site_fract_y
 _atom_site_fract_z
 _atom_site_occupancy
  Ho  Ho0  1  0.05995935  0.67340142  0.20667989  1
  Ho  Ho1  1  0.94004065  0.32659858  0.79332011  1
  Fe  Fe2  1  0.29801484  0.80802735  0.59594298  1
  Fe  Fe3  1  0.70198516  0.19197265  0.40405702  1
  Si  Si4  1  0.65999167  0.89416379  0.78585287  1
  Si  Si5  1  0.34000833  0.10583621  0.21414713  1
  C  C6  1  0.50000000  0.50000000  0.50000000  1
