# generated using pymatgen
data_CrGeTe3
_symmetry_space_group_name_H-M   'P 1'
_cell_length_a   8.29597006
_cell_length_b   8.29597002
_cell_length_c   8.29596982
_cell_angle_alpha   49.24565930
_cell_angle_beta   49.24565950
_cell_angle_gamma   49.24566225
_symmetry_Int_Tables_number   1
_chemical_formula_structural   CrGeTe3
_chemical_formula_sum   'Cr2 Ge2 Te6'
_cell_volume   300.99204068
_cell_formula_units_Z   2
loop_
 _symmetry_equiv_pos_site_id
 _symmetry_equiv_pos_as_xyz
  1  'x, y, z'
loop_
 _atom_site_type_symbol
 _atom_site_label
 _atom_site_symmetry_multiplicity
 _atom_site_fract_x
 _atom_site_fract_y
 _atom_site_fract_z
 _atom_site_occupancy
  Te  Te0  1  0.92170469  0.54772348  0.29375926  1
  Te  Te1  1  0.29375926  0.92170469  0.54772348  1
  Te  Te2  1  0.54772348  0.29375926  0.92170469  1
  Te  Te3  1  0.07829531  0.45227652  0.70624074  1
  Te  Te4  1  0.70624074  0.07829531  0.45227652  1
  Te  Te5  1  0.45227652  0.70624074  0.07829531  1
  Cr  Cr6  1  0.33360366  0.33360366  0.33360366  1
  Cr  Cr7  1  0.66639634  0.66639634  0.66639634  1
  Ge  Ge8  1  0.05540735  0.05540735  0.05540735  1
  Ge  Ge9  1  0.94459265  0.94459265  0.94459265  1
