# generated using pymatgen
data_Te3As2
_symmetry_space_group_name_H-M   'P 1'
_cell_length_a   4.06922434
_cell_length_b   7.77178539
_cell_length_c   10.14114160
_cell_angle_alpha   95.38836828
_cell_angle_beta   90.00000000
_cell_angle_gamma   105.17657956
_symmetry_Int_Tables_number   1
_chemical_formula_structural   Te3As2
_chemical_formula_sum   'Te6 As4'
_cell_volume   308.06093902
_cell_formula_units_Z   2
loop_
 _symmetry_equiv_pos_site_id
 _symmetry_equiv_pos_as_xyz
  1  'x, y, z'
loop_
 _atom_site_type_symbol
 _atom_site_label
 _atom_site_symmetry_multiplicity
 _atom_site_fract_x
 _atom_site_fract_y
 _atom_site_fract_z
 _atom_site_occupancy
  As  As0  1  0.62536946  0.25073893  0.43950521  1
  As  As1  1  0.37463054  0.74926107  0.56049479  1
  As  As2  1  0.20525924  0.41051848  0.14089864  1
  As  As3  1  0.79474076  0.58948152  0.85910136  1
  Te  Te4  1  0.04233793  0.08467585  0.28785420  1
  Te  Te5  1  0.95766207  0.91532415  0.71214580  1
  Te  Te6  1  0.78208349  0.56416698  0.33559395  1
  Te  Te7  1  0.21791651  0.43583302  0.66440605  1
  Te  Te8  1  0.36979726  0.73959452  0.03067207  1
  Te  Te9  1  0.63020274  0.26040548  0.96932793  1
