# generated using pymatgen
data_Ag2SO4
_symmetry_space_group_name_H-M   'P 1'
_cell_length_a   5.70016564
_cell_length_b   6.38816646
_cell_length_c   6.86440339
_cell_angle_alpha   79.32484570
_cell_angle_beta   65.46824813
_cell_angle_gamma   63.50303740
_symmetry_Int_Tables_number   1
_chemical_formula_structural   Ag2SO4
_chemical_formula_sum   'Ag4 S2 O8'
_cell_volume   203.50838387
_cell_formula_units_Z   2
loop_
 _symmetry_equiv_pos_site_id
 _symmetry_equiv_pos_as_xyz
  1  'x, y, z'
loop_
 _atom_site_type_symbol
 _atom_site_label
 _atom_site_symmetry_multiplicity
 _atom_site_fract_x
 _atom_site_fract_y
 _atom_site_fract_z
 _atom_site_occupancy
  O  O0  1  0.17090226  0.09587549  0.11158631  1
  O  O1  1  0.87836407  0.40412451  0.38841369  1
  O  O2  1  0.73322224  0.09587549  0.38841369  1
  O  O3  1  0.71751142  0.40412451  0.11158631  1
  O  O4  1  0.82909774  0.90412451  0.88841369  1
  O  O5  1  0.12163593  0.59587549  0.61158631  1
  O  O6  1  0.28248858  0.59587549  0.88841369  1
  O  O7  1  0.26677776  0.90412451  0.61158631  1
  S  S8  1  0.87500000  0.25000000  0.25000000  1
  S  S9  1  0.12500000  0.75000000  0.75000000  1
  Ag  Ag10  1  0.17522926  0.64954149  0.25000000  1
  Ag  Ag11  1  0.57477074  0.85045851  0.25000000  1
  Ag  Ag12  1  0.82477074  0.35045851  0.75000000  1
  Ag  Ag13  1  0.42522926  0.14954149  0.75000000  1
