# generated using pymatgen
data_TiMnO3
_symmetry_space_group_name_H-M   'P 1'
_cell_length_a   5.67222533
_cell_length_b   5.67222534
_cell_length_c   5.67222534
_cell_angle_alpha   54.52713090
_cell_angle_beta   54.52713091
_cell_angle_gamma   54.52713086
_symmetry_Int_Tables_number   1
_chemical_formula_structural   TiMnO3
_chemical_formula_sum   'Ti2 Mn2 O6'
_cell_volume   112.58280985
_cell_formula_units_Z   2
loop_
 _symmetry_equiv_pos_site_id
 _symmetry_equiv_pos_as_xyz
  1  'x, y, z'
loop_
 _atom_site_type_symbol
 _atom_site_label
 _atom_site_symmetry_multiplicity
 _atom_site_fract_x
 _atom_site_fract_y
 _atom_site_fract_z
 _atom_site_occupancy
  O  O0  1  0.04438689  0.78674982  0.43659354  1
  O  O1  1  0.78674982  0.43659354  0.04438689  1
  O  O2  1  0.43659354  0.04438689  0.78674982  1
  O  O3  1  0.95561311  0.21325018  0.56340646  1
  O  O4  1  0.56340646  0.95561311  0.21325018  1
  O  O5  1  0.21325018  0.56340646  0.95561311  1
  Ti  Ti6  1  0.85366359  0.85366359  0.85366359  1
  Ti  Ti7  1  0.14633641  0.14633641  0.14633641  1
  Mn  Mn8  1  0.64091874  0.64091874  0.64091874  1
  Mn  Mn9  1  0.35908126  0.35908126  0.35908126  1
