# generated using pymatgen
data_SiPt
_symmetry_space_group_name_H-M   'P 1'
_cell_length_a   3.65200450
_cell_length_b   5.62751695
_cell_length_c   5.98105079
_cell_angle_alpha   90.00000000
_cell_angle_beta   90.00000000
_cell_angle_gamma   90.00000000
_symmetry_Int_Tables_number   1
_chemical_formula_structural   SiPt
_chemical_formula_sum   'Si4 Pt4'
_cell_volume   122.92086455
_cell_formula_units_Z   4
loop_
 _symmetry_equiv_pos_site_id
 _symmetry_equiv_pos_as_xyz
  1  'x, y, z'
loop_
 _atom_site_type_symbol
 _atom_site_label
 _atom_site_symmetry_multiplicity
 _atom_site_fract_x
 _atom_site_fract_y
 _atom_site_fract_z
 _atom_site_occupancy
  Si  Si0  1  0.75000000  0.32214479  0.08372462  1
  Si  Si1  1  0.75000000  0.82214479  0.41627538  1
  Si  Si2  1  0.25000000  0.67785521  0.91627538  1
  Si  Si3  1  0.25000000  0.17785521  0.58372462  1
  Pt  Pt4  1  0.75000000  0.50313172  0.69331189  1
  Pt  Pt5  1  0.75000000  0.00313172  0.80668811  1
  Pt  Pt6  1  0.25000000  0.49686828  0.30668811  1
  Pt  Pt7  1  0.25000000  0.99686828  0.19331189  1
