# generated using pymatgen
data_Be4TeO7
_symmetry_space_group_name_H-M   'P 1'
_cell_length_a   5.41163850
_cell_length_b   5.41163851
_cell_length_c   5.41163851
_cell_angle_alpha   60.00000003
_cell_angle_beta   60.00000002
_cell_angle_gamma   60.00000006
_symmetry_Int_Tables_number   1
_chemical_formula_structural   Be4TeO7
_chemical_formula_sum   'Be4 Te1 O7'
_cell_volume   112.06534628
_cell_formula_units_Z   1
loop_
 _symmetry_equiv_pos_site_id
 _symmetry_equiv_pos_as_xyz
  1  'x, y, z'
loop_
 _atom_site_type_symbol
 _atom_site_label
 _atom_site_symmetry_multiplicity
 _atom_site_fract_x
 _atom_site_fract_y
 _atom_site_fract_z
 _atom_site_occupancy
  Be  Be0  1  0.62719184  0.62719184  0.62719184  1
  Be  Be1  1  0.62719184  0.11842447  0.62719184  1
  Be  Be2  1  0.62719184  0.62719184  0.11842447  1
  Be  Be3  1  0.11842447  0.62719184  0.62719184  1
  O  O4  1  0.75000000  0.75000000  0.75000000  1
  O  O5  1  0.74572145  0.25427855  0.25427855  1
  O  O6  1  0.25427855  0.25427855  0.74572145  1
  O  O7  1  0.74572145  0.74572145  0.25427855  1
  O  O8  1  0.25427855  0.74572145  0.74572145  1
  O  O9  1  0.25427855  0.74572145  0.25427855  1
  O  O10  1  0.74572145  0.25427855  0.74572145  1
  Te  Te11  1  0.00000000  0.00000000  0.00000000  1
