# generated using pymatgen
data_NdNiGe2
_symmetry_space_group_name_H-M   'P 1'
_cell_length_a   4.25259548
_cell_length_b   4.23523638
_cell_length_c   8.65783192
_cell_angle_alpha   104.15759905
_cell_angle_beta   90.00000000
_cell_angle_gamma   90.00000000
_symmetry_Int_Tables_number   1
_chemical_formula_structural   NdNiGe2
_chemical_formula_sum   'Nd2 Ni2 Ge4'
_cell_volume   151.19777793
_cell_formula_units_Z   2
loop_
 _symmetry_equiv_pos_site_id
 _symmetry_equiv_pos_as_xyz
  1  'x, y, z'
loop_
 _atom_site_type_symbol
 _atom_site_label
 _atom_site_symmetry_multiplicity
 _atom_site_fract_x
 _atom_site_fract_y
 _atom_site_fract_z
 _atom_site_occupancy
  Ni  Ni0  1  0.25000000  0.68114361  0.36228722  1
  Ni  Ni1  1  0.75000000  0.31885639  0.63771278  1
  Ge  Ge2  1  0.25000000  0.25077856  0.50155713  1
  Ge  Ge3  1  0.25000000  0.54210468  0.08420936  1
  Ge  Ge4  1  0.75000000  0.74922144  0.49844287  1
  Ge  Ge5  1  0.75000000  0.45789532  0.91579064  1
  Nd  Nd6  1  0.25000000  0.89138819  0.78277638  1
  Nd  Nd7  1  0.75000000  0.10861181  0.21722362  1
