# generated using pymatgen
data_Ti2O3
_symmetry_space_group_name_H-M   'P 1'
_cell_length_a   5.52638497
_cell_length_b   5.52638498
_cell_length_c   5.52638497
_cell_angle_alpha   55.11275239
_cell_angle_beta   55.11275243
_cell_angle_gamma   55.11275241
_symmetry_Int_Tables_number   1
_chemical_formula_structural   Ti2O3
_chemical_formula_sum   'Ti4 O6'
_cell_volume   105.78141088
_cell_formula_units_Z   2
loop_
 _symmetry_equiv_pos_site_id
 _symmetry_equiv_pos_as_xyz
  1  'x, y, z'
loop_
 _atom_site_type_symbol
 _atom_site_label
 _atom_site_symmetry_multiplicity
 _atom_site_fract_x
 _atom_site_fract_y
 _atom_site_fract_z
 _atom_site_occupancy
  O  O0  1  0.56201473  0.93798527  0.25000000  1
  O  O1  1  0.25000000  0.56201473  0.93798527  1
  O  O2  1  0.93798527  0.25000000  0.56201473  1
  O  O3  1  0.43798527  0.06201473  0.75000000  1
  O  O4  1  0.75000000  0.43798527  0.06201473  1
  O  O5  1  0.06201473  0.75000000  0.43798527  1
  Ti  Ti6  1  0.34540432  0.34540432  0.34540432  1
  Ti  Ti7  1  0.15459568  0.15459568  0.15459568  1
  Ti  Ti8  1  0.65459568  0.65459568  0.65459568  1
  Ti  Ti9  1  0.84540432  0.84540432  0.84540432  1
