# generated using pymatgen
data_Ho(CoB)2
_symmetry_space_group_name_H-M   'P 1'
_cell_length_a   3.54475935
_cell_length_b   3.54476525
_cell_length_c   5.28915612
_cell_angle_alpha   109.57470521
_cell_angle_beta   109.57462322
_cell_angle_gamma   90.00732834
_symmetry_Int_Tables_number   1
_chemical_formula_structural   Ho(CoB)2
_chemical_formula_sum   'Ho1 Co2 B2'
_cell_volume   58.52539565
_cell_formula_units_Z   1
loop_
 _symmetry_equiv_pos_site_id
 _symmetry_equiv_pos_as_xyz
  1  'x, y, z'
loop_
 _atom_site_type_symbol
 _atom_site_label
 _atom_site_symmetry_multiplicity
 _atom_site_fract_x
 _atom_site_fract_y
 _atom_site_fract_z
 _atom_site_occupancy
  Ho  Ho0  1  0.00000000  0.00000000  0.00000000  1
  Co  Co1  1  0.24999239  0.75000863  0.50000009  1
  Co  Co2  1  0.75000761  0.24999137  0.49999991  1
  B  B3  1  0.35094273  0.35094270  0.70190224  1
  B  B4  1  0.64905727  0.64905730  0.29809776  1
