# generated using pymatgen
data_Y2MgGe2
_symmetry_space_group_name_H-M   'P 1'
_cell_length_a   4.27890210
_cell_length_b   7.27026413
_cell_length_c   7.27026413
_cell_angle_alpha   90.00000000
_cell_angle_beta   90.00000000
_cell_angle_gamma   90.00000000
_symmetry_Int_Tables_number   1
_chemical_formula_structural   Y2MgGe2
_chemical_formula_sum   'Y4 Mg2 Ge4'
_cell_volume   226.16881801
_cell_formula_units_Z   2
loop_
 _symmetry_equiv_pos_site_id
 _symmetry_equiv_pos_as_xyz
  1  'x, y, z'
loop_
 _atom_site_type_symbol
 _atom_site_label
 _atom_site_symmetry_multiplicity
 _atom_site_fract_x
 _atom_site_fract_y
 _atom_site_fract_z
 _atom_site_occupancy
  Y  Y0  1  0.50000000  0.17762439  0.67762439  1
  Y  Y1  1  0.50000000  0.82237561  0.32237561  1
  Y  Y2  1  0.50000000  0.32237561  0.17762439  1
  Y  Y3  1  0.50000000  0.67762439  0.82237561  1
  Mg  Mg4  1  0.00000000  0.50000000  0.50000000  1
  Mg  Mg5  1  -0.00000000  -0.00000000  -0.00000000  1
  Ge  Ge6  1  -0.00000000  0.37640952  0.87640952  1
  Ge  Ge7  1  0.00000000  0.62359048  0.12359048  1
  Ge  Ge8  1  0.00000000  0.12359048  0.37640952  1
  Ge  Ge9  1  -0.00000000  0.87640952  0.62359048  1
