# generated using pymatgen
data_Cu3SbSe4
_symmetry_space_group_name_H-M   'P 1'
_cell_length_a   5.72125338
_cell_length_b   5.72125339
_cell_length_c   6.97961713
_cell_angle_alpha   114.19568783
_cell_angle_beta   114.19568792
_cell_angle_gamma   89.99999999
_symmetry_Int_Tables_number   1
_chemical_formula_structural   Cu3SbSe4
_chemical_formula_sum   'Cu3 Sb1 Se4'
_cell_volume   186.17042132
_cell_formula_units_Z   1
loop_
 _symmetry_equiv_pos_site_id
 _symmetry_equiv_pos_as_xyz
  1  'x, y, z'
loop_
 _atom_site_type_symbol
 _atom_site_label
 _atom_site_symmetry_multiplicity
 _atom_site_fract_x
 _atom_site_fract_y
 _atom_site_fract_z
 _atom_site_occupancy
  Cu  Cu0  1  0.75000000  0.25000000  0.50000000  1
  Cu  Cu1  1  0.50000000  0.50000000  0.00000000  1
  Cu  Cu2  1  0.25000000  0.75000000  0.50000000  1
  Se  Se3  1  0.13240070  0.13240070  0.73171605  1
  Se  Se4  1  0.59931536  0.59931536  0.73171605  1
  Se  Se5  1  0.86759930  0.40068464  0.26828395  1
  Se  Se6  1  0.40068464  0.86759930  0.26828395  1
  Sb  Sb7  1  0.00000000  0.00000000  0.00000000  1
