# generated using pymatgen
data_SnS
_symmetry_space_group_name_H-M   'P 1'
_cell_length_a   4.02397220
_cell_length_b   4.44251066
_cell_length_c   11.43265210
_cell_angle_alpha   90.00000000
_cell_angle_beta   90.00000000
_cell_angle_gamma   90.00000000
_symmetry_Int_Tables_number   1
_chemical_formula_structural   SnS
_chemical_formula_sum   'Sn4 S4'
_cell_volume   204.37625564
_cell_formula_units_Z   4
loop_
 _symmetry_equiv_pos_site_id
 _symmetry_equiv_pos_as_xyz
  1  'x, y, z'
loop_
 _atom_site_type_symbol
 _atom_site_label
 _atom_site_symmetry_multiplicity
 _atom_site_fract_x
 _atom_site_fract_y
 _atom_site_fract_z
 _atom_site_occupancy
  S  S0  1  0.25000000  0.01986675  0.34982996  1
  S  S1  1  0.75000000  0.98013325  0.65017004  1
  S  S2  1  0.75000000  0.51986675  0.15017004  1
  S  S3  1  0.25000000  0.48013325  0.84982996  1
  Sn  Sn4  1  0.25000000  0.37397562  0.62123765  1
  Sn  Sn5  1  0.75000000  0.62602438  0.37876235  1
  Sn  Sn6  1  0.75000000  0.87397562  0.87876235  1
  Sn  Sn7  1  0.25000000  0.12602438  0.12123765  1
