# generated using pymatgen
data_Na2ZrO3
_symmetry_space_group_name_H-M   'P 1'
_cell_length_a   5.69047595
_cell_length_b   5.69582261
_cell_length_c   11.24118396
_cell_angle_alpha   85.06210141
_cell_angle_beta   80.07763400
_cell_angle_gamma   60.03104704
_symmetry_Int_Tables_number   1
_chemical_formula_structural   Na2ZrO3
_chemical_formula_sum   'Na8 Zr4 O12'
_cell_volume   310.91260356
_cell_formula_units_Z   4
loop_
 _symmetry_equiv_pos_site_id
 _symmetry_equiv_pos_as_xyz
  1  'x, y, z'
loop_
 _atom_site_type_symbol
 _atom_site_label
 _atom_site_symmetry_multiplicity
 _atom_site_fract_x
 _atom_site_fract_y
 _atom_site_fract_z
 _atom_site_occupancy
  Na  Na0  1  0.91556211  0.66887577  0.25000000  1
  Na  Na1  1  0.08443789  0.33112423  0.75000000  1
  Na  Na2  1  0.00000000  0.00000000  0.00000000  1
  Na  Na3  1  0.50000000  0.00000000  0.50000000  1
  Na  Na4  1  0.84009634  0.34087006  0.49986927  1
  Na  Na5  1  0.31903361  0.34087006  0.00013073  1
  Na  Na6  1  0.15990366  0.65912994  0.50013073  1
  Na  Na7  1  0.68096639  0.65912994  0.99986927  1
  Zr  Zr8  1  0.58230514  0.33538972  0.25000000  1
  Zr  Zr9  1  0.41769486  0.66461028  0.75000000  1
  Zr  Zr10  1  0.75015032  0.99969937  0.75000000  1
  Zr  Zr11  1  0.24984968  0.00030063  0.25000000  1
  O  O12  1  0.67837198  0.33115049  0.85562116  1
  O  O13  1  0.49047753  0.33115049  0.64437884  1
  O  O14  1  0.32162802  0.66884951  0.14437884  1
  O  O15  1  0.50952247  0.66884951  0.35562116  1
  O  O16  1  0.87983565  0.04037529  0.35537345  1
  O  O17  1  0.57978907  0.04037529  0.14462655  1
  O  O18  1  0.12016435  0.95962471  0.64462655  1
  O  O19  1  0.42021093  0.95962471  0.85537345  1
  O  O20  1  0.95194350  0.29894941  0.14260599  1
  O  O21  1  0.24910709  0.29894941  0.35739401  1
  O  O22  1  0.04805650  0.70105059  0.85739401  1
  O  O23  1  0.75089291  0.70105059  0.64260599  1
