# generated using pymatgen
data_NaCuO
_symmetry_space_group_name_H-M   'P 1'
_cell_length_a   4.72753955
_cell_length_b   6.70111235
_cell_length_c   6.70111235
_cell_angle_alpha   82.85230127
_cell_angle_beta   69.34482514
_cell_angle_gamma   69.34482506
_symmetry_Int_Tables_number   1
_chemical_formula_structural   NaCuO
_chemical_formula_sum   'Na4 Cu4 O4'
_cell_volume   185.87503263
_cell_formula_units_Z   4
loop_
 _symmetry_equiv_pos_site_id
 _symmetry_equiv_pos_as_xyz
  1  'x, y, z'
loop_
 _atom_site_type_symbol
 _atom_site_label
 _atom_site_symmetry_multiplicity
 _atom_site_fract_x
 _atom_site_fract_y
 _atom_site_fract_z
 _atom_site_occupancy
  O  O0  1  0.45539133  0.79455543  0.79455543  1
  O  O1  1  0.75005324  0.79455543  0.20544457  1
  O  O2  1  0.75005324  0.20544457  0.79455543  1
  O  O3  1  0.04450219  0.20544457  0.20544457  1
  Na  Na4  1  0.92404148  0.82590444  0.82590444  1
  Na  Na5  1  0.25005407  0.82590444  0.17409556  1
  Na  Na6  1  0.25005407  0.17409556  0.82590444  1
  Na  Na7  1  0.57585037  0.17409556  0.17409556  1
  Cu  Cu8  1  0.89866702  0.50000000  0.20266595  1
  Cu  Cu9  1  0.89866702  0.20266595  0.50000000  1
  Cu  Cu10  1  0.60133298  0.79733405  0.50000000  1
  Cu  Cu11  1  0.60133298  0.50000000  0.79733405  1
