# generated using pymatgen
data_BiI3
_symmetry_space_group_name_H-M   'P 1'
_cell_length_a   8.92633862
_cell_length_b   8.92633861
_cell_length_c   8.92633861
_cell_angle_alpha   52.06330226
_cell_angle_beta   52.06330230
_cell_angle_gamma   52.06330222
_symmetry_Int_Tables_number   1
_chemical_formula_structural   BiI3
_chemical_formula_sum   'Bi2 I6'
_cell_volume   409.09927319
_cell_formula_units_Z   2
loop_
 _symmetry_equiv_pos_site_id
 _symmetry_equiv_pos_as_xyz
  1  'x, y, z'
loop_
 _atom_site_type_symbol
 _atom_site_label
 _atom_site_symmetry_multiplicity
 _atom_site_fract_x
 _atom_site_fract_y
 _atom_site_fract_z
 _atom_site_occupancy
  I  I0  1  0.92367301  0.27496491  0.56443467  1
  I  I1  1  0.27496491  0.56443467  0.92367301  1
  I  I2  1  0.43556533  0.07632699  0.72503509  1
  I  I3  1  0.72503509  0.43556533  0.07632699  1
  I  I4  1  0.07632699  0.72503509  0.43556533  1
  I  I5  1  0.56443467  0.92367301  0.27496491  1
  Bi  Bi6  1  0.66675910  0.66675910  0.66675910  1
  Bi  Bi7  1  0.33324090  0.33324090  0.33324090  1
