# generated using pymatgen
data_CaIrO3
_symmetry_space_group_name_H-M   'P 1'
_cell_length_a   3.21429639
_cell_length_b   5.18718668
_cell_length_c   7.37892542
_cell_angle_alpha   90.00000000
_cell_angle_beta   90.00000000
_cell_angle_gamma   108.04901080
_symmetry_Int_Tables_number   1
_chemical_formula_structural   CaIrO3
_chemical_formula_sum   'Ca2 Ir2 O6'
_cell_volume   116.97589123
_cell_formula_units_Z   2
loop_
 _symmetry_equiv_pos_site_id
 _symmetry_equiv_pos_as_xyz
  1  'x, y, z'
loop_
 _atom_site_type_symbol
 _atom_site_label
 _atom_site_symmetry_multiplicity
 _atom_site_fract_x
 _atom_site_fract_y
 _atom_site_fract_z
 _atom_site_occupancy
  Ca  Ca0  1  0.74993245  0.49986490  0.25000000  1
  Ca  Ca1  1  0.25006755  0.50013510  0.75000000  1
  Ir  Ir2  1  0.50000000  -0.00000000  0.50000000  1
  Ir  Ir3  1  0.50000000  0.00000000  -0.00000000  1
  O  O4  1  0.42199609  0.84399217  0.25000000  1
  O  O5  1  0.57800391  0.15600783  0.75000000  1
  O  O6  1  0.12551511  0.25103022  0.45046129  1
  O  O7  1  0.87448489  0.74896978  0.54953871  1
  O  O8  1  0.12551511  0.25103022  0.04953871  1
  O  O9  1  0.87448489  0.74896978  0.95046129  1
