# generated using pymatgen
data_Lu2S3
_symmetry_space_group_name_H-M   'P 1'
_cell_length_a   7.21333763
_cell_length_b   7.21333763
_cell_length_c   7.21333763
_cell_angle_alpha   55.71424763
_cell_angle_beta   55.71424755
_cell_angle_gamma   55.71424763
_symmetry_Int_Tables_number   1
_chemical_formula_structural   Lu2S3
_chemical_formula_sum   'Lu4 S6'
_cell_volume   239.01138696
_cell_formula_units_Z   2
loop_
 _symmetry_equiv_pos_site_id
 _symmetry_equiv_pos_as_xyz
  1  'x, y, z'
loop_
 _atom_site_type_symbol
 _atom_site_label
 _atom_site_symmetry_multiplicity
 _atom_site_fract_x
 _atom_site_fract_y
 _atom_site_fract_z
 _atom_site_occupancy
  S  S0  1  0.05344435  0.75000000  0.44655565  1
  S  S1  1  0.75000000  0.44655565  0.05344435  1
  S  S2  1  0.44655565  0.05344435  0.75000000  1
  S  S3  1  0.94655565  0.25000000  0.55344435  1
  S  S4  1  0.55344435  0.94655565  0.25000000  1
  S  S5  1  0.25000000  0.55344435  0.94655565  1
  Lu  Lu6  1  0.84894065  0.84894065  0.84894065  1
  Lu  Lu7  1  0.65105935  0.65105935  0.65105935  1
  Lu  Lu8  1  0.15105935  0.15105935  0.15105935  1
  Lu  Lu9  1  0.34894065  0.34894065  0.34894065  1
