# generated using pymatgen
data_LaAl3
_symmetry_space_group_name_H-M   'P 1'
_cell_length_a   6.64400696
_cell_length_b   6.64400696
_cell_length_c   4.67234449
_cell_angle_alpha   90.00000000
_cell_angle_beta   90.00000000
_cell_angle_gamma   120.00000000
_symmetry_Int_Tables_number   1
_chemical_formula_structural   LaAl3
_chemical_formula_sum   'La2 Al6'
_cell_volume   178.61817378
_cell_formula_units_Z   2
loop_
 _symmetry_equiv_pos_site_id
 _symmetry_equiv_pos_as_xyz
  1  'x, y, z'
loop_
 _atom_site_type_symbol
 _atom_site_label
 _atom_site_symmetry_multiplicity
 _atom_site_fract_x
 _atom_site_fract_y
 _atom_site_fract_z
 _atom_site_occupancy
  Al  Al0  1  0.86165402  0.72330805  0.25000000  1
  Al  Al1  1  0.13834598  0.86165402  0.75000000  1
  Al  Al2  1  0.72330805  0.86165402  0.75000000  1
  Al  Al3  1  0.27669195  0.13834598  0.25000000  1
  Al  Al4  1  0.86165402  0.13834598  0.25000000  1
  Al  Al5  1  0.13834598  0.27669195  0.75000000  1
  La  La6  1  0.33333333  0.66666667  0.25000000  1
  La  La7  1  0.66666667  0.33333333  0.75000000  1
