# generated using pymatgen
data_SmMgCd2
_symmetry_space_group_name_H-M   'P 1'
_cell_length_a   5.16158101
_cell_length_b   5.16158101
_cell_length_c   5.16158101
_cell_angle_alpha   60.03796667
_cell_angle_beta   60.03796667
_cell_angle_gamma   60.03796667
_symmetry_Int_Tables_number   1
_chemical_formula_structural   SmMgCd2
_chemical_formula_sum   'Sm1 Mg1 Cd2'
_cell_volume   97.32106094
_cell_formula_units_Z   1
loop_
 _symmetry_equiv_pos_site_id
 _symmetry_equiv_pos_as_xyz
  1  'x, y, z'
loop_
 _atom_site_type_symbol
 _atom_site_label
 _atom_site_symmetry_multiplicity
 _atom_site_fract_x
 _atom_site_fract_y
 _atom_site_fract_z
 _atom_site_occupancy
  Sm  Sm0  1  0.74999885  0.74999885  0.74999885  1
  Mg  Mg1  1  0.24999981  0.24999981  0.24999981  1
  Cd  Cd2  1  0.00000989  0.00000989  0.00000989  1
  Cd  Cd3  1  0.49999145  0.49999145  0.49999145  1
