# generated using pymatgen
data_Ba3FeN3
_symmetry_space_group_name_H-M   'P 1'
_cell_length_a   8.17604982
_cell_length_b   8.17604982
_cell_length_c   5.62874081
_cell_angle_alpha   90.00000000
_cell_angle_beta   90.00000000
_cell_angle_gamma   120.00000003
_symmetry_Int_Tables_number   1
_chemical_formula_structural   Ba3FeN3
_chemical_formula_sum   'Ba6 Fe2 N6'
_cell_volume   325.85841501
_cell_formula_units_Z   2
loop_
 _symmetry_equiv_pos_site_id
 _symmetry_equiv_pos_as_xyz
  1  'x, y, z'
loop_
 _atom_site_type_symbol
 _atom_site_label
 _atom_site_symmetry_multiplicity
 _atom_site_fract_x
 _atom_site_fract_y
 _atom_site_fract_z
 _atom_site_occupancy
  N  N0  1  0.55344246  0.87048856  0.75000000  1
  N  N1  1  0.68295389  0.55344246  0.25000000  1
  N  N2  1  0.87048856  0.31704611  0.25000000  1
  N  N3  1  0.12951144  0.68295389  0.75000000  1
  N  N4  1  0.31704611  0.44655754  0.75000000  1
  N  N5  1  0.44655754  0.12951144  0.25000000  1
  Fe  Fe6  1  0.66666667  0.33333333  0.25000000  1
  Fe  Fe7  1  0.33333333  0.66666667  0.75000000  1
  Ba  Ba8  1  0.71877748  0.63639318  0.75000000  1
  Ba  Ba9  1  0.08238430  0.71877748  0.25000000  1
  Ba  Ba10  1  0.63639318  0.91761570  0.25000000  1
  Ba  Ba11  1  0.36360682  0.08238430  0.75000000  1
  Ba  Ba12  1  0.91761570  0.28122252  0.75000000  1
  Ba  Ba13  1  0.28122252  0.36360682  0.25000000  1
