# generated using pymatgen
data_MnAsRh
_symmetry_space_group_name_H-M   'P 1'
_cell_length_a   3.65953261
_cell_length_b   6.49233340
_cell_length_c   6.48727222
_cell_angle_alpha   120.02581847
_cell_angle_beta   90.00000000
_cell_angle_gamma   90.00000000
_symmetry_Int_Tables_number   1
_chemical_formula_structural   MnAsRh
_chemical_formula_sum   'Mn3 As3 Rh3'
_cell_volume   133.44617902
_cell_formula_units_Z   3
loop_
 _symmetry_equiv_pos_site_id
 _symmetry_equiv_pos_as_xyz
  1  'x, y, z'
loop_
 _atom_site_type_symbol
 _atom_site_label
 _atom_site_symmetry_multiplicity
 _atom_site_fract_x
 _atom_site_fract_y
 _atom_site_fract_z
 _atom_site_occupancy
  Mn  Mn0  1  0.50000000  0.59488494  1.00000000  1
  Mn  Mn1  1  0.50000000  0.40502598  0.40501334  1
  Mn  Mn2  1  0.50000000  0.00001264  0.59498666  1
  As  As3  1  0.50000000  0.00013592  0.00000000  1
  As  As4  1  -0.00000000  0.33333050  0.66662899  1
  As  As5  1  -0.00000000  0.66670151  0.33337101  1
  Rh  Rh6  1  0.00000000  0.26325227  1.00000000  1
  Rh  Rh7  1  -0.00000000  0.73668079  0.73680534  1
  Rh  Rh8  1  -0.00000000  0.99987545  0.26319466  1
