# generated using pymatgen
data_Ca6GaN5
_symmetry_space_group_name_H-M   'P 1'
_cell_length_a   6.33371470
_cell_length_b   6.33371470
_cell_length_c   12.22858604
_cell_angle_alpha   90.00000000
_cell_angle_beta   90.00000000
_cell_angle_gamma   120.00000000
_symmetry_Int_Tables_number   1
_chemical_formula_structural   Ca6GaN5
_chemical_formula_sum   'Ca12 Ga2 N10'
_cell_volume   424.83850207
_cell_formula_units_Z   2
loop_
 _symmetry_equiv_pos_site_id
 _symmetry_equiv_pos_as_xyz
  1  'x, y, z'
loop_
 _atom_site_type_symbol
 _atom_site_label
 _atom_site_symmetry_multiplicity
 _atom_site_fract_x
 _atom_site_fract_y
 _atom_site_fract_z
 _atom_site_occupancy
  N  N0  1  0.70287285  0.00000000  0.75000000  1
  N  N1  1  0.29712715  0.29712715  0.75000000  1
  N  N2  1  0.29712715  0.00000000  0.25000000  1
  N  N3  1  0.66666667  0.33333333  0.50000000  1
  N  N4  1  0.33333333  0.66666667  0.00000000  1
  N  N5  1  0.33333333  0.66666667  0.50000000  1
  N  N6  1  0.66666667  0.33333333  0.00000000  1
  N  N7  1  0.70287285  0.70287285  0.25000000  1
  N  N8  1  0.00000000  0.29712715  0.25000000  1
  N  N9  1  0.00000000  0.70287285  0.75000000  1
  Ca  Ca10  1  0.00000000  0.41068049  0.87749788  1
  Ca  Ca11  1  0.58931951  0.58931951  0.87749788  1
  Ca  Ca12  1  0.58931951  0.00000000  0.12250212  1
  Ca  Ca13  1  0.41068049  0.00000000  0.62250212  1
  Ca  Ca14  1  0.41068049  0.41068049  0.37749788  1
  Ca  Ca15  1  0.58931951  0.00000000  0.37749788  1
  Ca  Ca16  1  0.41068049  0.41068049  0.12250212  1
  Ca  Ca17  1  0.00000000  0.58931951  0.12250212  1
  Ca  Ca18  1  0.00000000  0.41068049  0.62250212  1
  Ca  Ca19  1  0.58931951  0.58931951  0.62250212  1
  Ca  Ca20  1  0.41068049  0.00000000  0.87749788  1
  Ca  Ca21  1  0.00000000  0.58931951  0.37749788  1
  Ga  Ga22  1  0.00000000  0.00000000  0.75000000  1
  Ga  Ga23  1  0.00000000  0.00000000  0.25000000  1
