# generated using pymatgen
data_Tb2Cr2C3
_symmetry_space_group_name_H-M   'P 1'
_cell_length_a   3.39595210
_cell_length_b   5.47227883
_cell_length_c   5.60986811
_cell_angle_alpha   104.92536746
_cell_angle_beta   90.00000000
_cell_angle_gamma   108.07651704
_symmetry_Int_Tables_number   1
_chemical_formula_structural   Tb2Cr2C3
_chemical_formula_sum   'Tb2 Cr2 C3'
_cell_volume   95.39923915
_cell_formula_units_Z   1
loop_
 _symmetry_equiv_pos_site_id
 _symmetry_equiv_pos_as_xyz
  1  'x, y, z'
loop_
 _atom_site_type_symbol
 _atom_site_label
 _atom_site_symmetry_multiplicity
 _atom_site_fract_x
 _atom_site_fract_y
 _atom_site_fract_z
 _atom_site_occupancy
  Tb  Tb0  1  0.39534580  0.79069159  0.68285651  1
  Tb  Tb1  1  0.60465420  0.20930841  0.31714349  1
  Cr  Cr2  1  0.15741365  0.31482730  0.89250925  1
  Cr  Cr3  1  0.84258635  0.68517270  0.10749075  1
  C  C4  1  0.71258125  0.42516249  0.77155135  1
  C  C5  1  0.28741875  0.57483751  0.22844865  1
  C  C6  1  0.00000000  -0.00000000  0.00000000  1
