# generated using pymatgen
data_HfTaTc2
_symmetry_space_group_name_H-M   'P 1'
_cell_length_a   4.56040454
_cell_length_b   4.56039924
_cell_length_c   4.56040165
_cell_angle_alpha   59.99995733
_cell_angle_beta   59.99992845
_cell_angle_gamma   59.99993860
_symmetry_Int_Tables_number   1
_chemical_formula_structural   HfTaTc2
_chemical_formula_sum   'Hf1 Ta1 Tc2'
_cell_volume   67.06466413
_cell_formula_units_Z   1
loop_
 _symmetry_equiv_pos_site_id
 _symmetry_equiv_pos_as_xyz
  1  'x, y, z'
loop_
 _atom_site_type_symbol
 _atom_site_label
 _atom_site_symmetry_multiplicity
 _atom_site_fract_x
 _atom_site_fract_y
 _atom_site_fract_z
 _atom_site_occupancy
  Hf  Hf0  1  0.25000052  0.25000091  0.25000068  1
  Ta  Ta1  1  0.75000070  0.75000070  0.75000073  1
  Tc  Tc2  1  0.50000025  0.50000009  0.50000042  1
  Tc  Tc3  1  0.00000053  0.00000030  0.00000017  1
