# generated using pymatgen
data_Sm2Fe2Si2C
_symmetry_space_group_name_H-M   'P 1'
_cell_length_a   3.97762190
_cell_length_b   5.71307129
_cell_length_c   5.78884926
_cell_angle_alpha   73.55510022
_cell_angle_beta   69.90614674
_cell_angle_gamma   69.62788167
_symmetry_Int_Tables_number   1
_chemical_formula_structural   Sm2Fe2Si2C
_chemical_formula_sum   'Sm2 Fe2 Si2 C1'
_cell_volume   113.79926089
_cell_formula_units_Z   1
loop_
 _symmetry_equiv_pos_site_id
 _symmetry_equiv_pos_as_xyz
  1  'x, y, z'
loop_
 _atom_site_type_symbol
 _atom_site_label
 _atom_site_symmetry_multiplicity
 _atom_site_fract_x
 _atom_site_fract_y
 _atom_site_fract_z
 _atom_site_occupancy
  Sm  Sm0  1  0.44046168  0.82169893  0.29737771  1
  Sm  Sm1  1  0.55953832  0.17830107  0.70262229  1
  Fe  Fe2  1  0.80190142  0.30508654  0.09111062  1
  Fe  Fe3  1  0.19809858  0.69491346  0.90888938  1
  Si  Si4  1  0.83036800  0.60953903  0.72972496  1
  Si  Si5  1  0.16963200  0.39046097  0.27027504  1
  C  C6  1  0.00000000  0.00000000  0.00000000  1
