# generated using pymatgen
data_Ta4AlC3
_symmetry_space_group_name_H-M   'P 1'
_cell_length_a   3.14190212
_cell_length_b   3.14190212
_cell_length_c   24.25619446
_cell_angle_alpha   90.00000000
_cell_angle_beta   90.00000000
_cell_angle_gamma   120.00000002
_symmetry_Int_Tables_number   1
_chemical_formula_structural   Ta4AlC3
_chemical_formula_sum   'Ta8 Al2 C6'
_cell_volume   207.36650098
_cell_formula_units_Z   2
loop_
 _symmetry_equiv_pos_site_id
 _symmetry_equiv_pos_as_xyz
  1  'x, y, z'
loop_
 _atom_site_type_symbol
 _atom_site_label
 _atom_site_symmetry_multiplicity
 _atom_site_fract_x
 _atom_site_fract_y
 _atom_site_fract_z
 _atom_site_occupancy
  C  C0  1  0.66666667  0.33333333  0.39197191  1
  C  C1  1  0.33333333  0.66666667  0.89197191  1
  C  C2  1  0.33333333  0.66666667  0.60802809  1
  C  C3  1  0.00000000  0.00000000  0.00000000  1
  C  C4  1  0.66666667  0.33333333  0.10802809  1
  C  C5  1  0.00000000  0.00000000  0.50000000  1
  Al  Al6  1  0.66666667  0.33333333  0.75000000  1
  Al  Al7  1  0.33333333  0.66666667  0.25000000  1
  Ta  Ta8  1  0.00000000  0.00000000  0.34269189  1
  Ta  Ta9  1  0.00000000  0.00000000  0.84269189  1
  Ta  Ta10  1  0.00000000  0.00000000  0.65730811  1
  Ta  Ta11  1  0.00000000  0.00000000  0.15730811  1
  Ta  Ta12  1  0.33333333  0.66666667  0.44481808  1
  Ta  Ta13  1  0.66666667  0.33333333  0.94481808  1
  Ta  Ta14  1  0.66666667  0.33333333  0.55518192  1
  Ta  Ta15  1  0.33333333  0.66666667  0.05518192  1
