# generated using pymatgen
data_SrWO4
_symmetry_space_group_name_H-M   'P 1'
_cell_length_a   5.52200959
_cell_length_b   5.52235587
_cell_length_c   7.19728455
_cell_angle_alpha   112.56528193
_cell_angle_beta   112.55321031
_cell_angle_gamma   90.00331016
_symmetry_Int_Tables_number   1
_chemical_formula_structural   SrWO4
_chemical_formula_sum   'Sr2 W2 O8'
_cell_volume   184.36457383
_cell_formula_units_Z   2
loop_
 _symmetry_equiv_pos_site_id
 _symmetry_equiv_pos_as_xyz
  1  'x, y, z'
loop_
 _atom_site_type_symbol
 _atom_site_label
 _atom_site_symmetry_multiplicity
 _atom_site_fract_x
 _atom_site_fract_y
 _atom_site_fract_z
 _atom_site_occupancy
  O  O0  1  0.19461081  0.56554648  0.91604197  1
  O  O1  1  0.35047881  0.69455981  0.41605631  1
  O  O2  1  0.06553207  0.22154955  0.41609128  1
  O  O3  1  0.72158398  0.85045869  0.91603157  1
  O  O4  1  0.27841602  0.14954131  0.08396843  1
  O  O5  1  0.93446793  0.77845045  0.58390872  1
  O  O6  1  0.64952119  0.30544019  0.58394369  1
  O  O7  1  0.80538919  0.43445352  0.08395803  1
  Sr  Sr8  1  0.62497478  0.87500284  0.24999005  1
  Sr  Sr9  1  0.37502522  0.12499716  0.75000995  1
  W  W10  1  0.12491013  0.37504574  0.25002741  1
  W  W11  1  0.87508987  0.62495426  0.74997259  1
