# generated using pymatgen
data_YAgHg2
_symmetry_space_group_name_H-M   'P 1'
_cell_length_a   5.03783472
_cell_length_b   5.03783228
_cell_length_c   5.03783207
_cell_angle_alpha   59.99995097
_cell_angle_beta   59.99993008
_cell_angle_gamma   59.99994865
_symmetry_Int_Tables_number   1
_chemical_formula_structural   YAgHg2
_chemical_formula_sum   'Y1 Ag1 Hg2'
_cell_volume   90.40985026
_cell_formula_units_Z   1
loop_
 _symmetry_equiv_pos_site_id
 _symmetry_equiv_pos_as_xyz
  1  'x, y, z'
loop_
 _atom_site_type_symbol
 _atom_site_label
 _atom_site_symmetry_multiplicity
 _atom_site_fract_x
 _atom_site_fract_y
 _atom_site_fract_z
 _atom_site_occupancy
  Y  Y0  1  0.75000004  0.74999992  0.75000003  1
  Ag  Ag1  1  0.24999995  0.25000006  0.25000003  1
  Hg  Hg2  1  0.00000000  0.00000002  0.99999996  1
  Hg  Hg3  1  0.50000001  0.49999999  0.49999997  1
