# generated using pymatgen
data_Lu2NiSn6
_symmetry_space_group_name_H-M   'P 1'
_cell_length_a   4.36671818
_cell_length_b   4.41815213
_cell_length_c   11.34564096
_cell_angle_alpha   90.00000000
_cell_angle_beta   101.09523704
_cell_angle_gamma   90.00000000
_symmetry_Int_Tables_number   1
_chemical_formula_structural   Lu2NiSn6
_chemical_formula_sum   'Lu2 Ni1 Sn6'
_cell_volume   214.79813169
_cell_formula_units_Z   1
loop_
 _symmetry_equiv_pos_site_id
 _symmetry_equiv_pos_as_xyz
  1  'x, y, z'
loop_
 _atom_site_type_symbol
 _atom_site_label
 _atom_site_symmetry_multiplicity
 _atom_site_fract_x
 _atom_site_fract_y
 _atom_site_fract_z
 _atom_site_occupancy
  Lu  Lu0  1  0.17891859  -0.00000000  0.35783718  1
  Lu  Lu1  1  0.82108141  -0.00000000  0.64216282  1
  Ni  Ni2  1  0.50000000  0.50000000  -0.00000000  1
  Sn  Sn3  1  0.42944594  0.00000000  0.85889188  1
  Sn  Sn4  1  0.57055406  -0.00000000  0.14110812  1
  Sn  Sn5  1  0.07158880  0.50000000  0.14317760  1
  Sn  Sn6  1  0.92841120  0.50000000  0.85682240  1
  Sn  Sn7  1  0.70324557  0.50000000  0.40649114  1
  Sn  Sn8  1  0.29675443  0.50000000  0.59350886  1
