# generated using pymatgen
data_C
_symmetry_space_group_name_H-M   'P 1'
_cell_length_a   4.27452407
_cell_length_b   4.93472515
_cell_length_c   8.02832801
_cell_angle_alpha   90.00000000
_cell_angle_beta   90.00000000
_cell_angle_gamma   90.00000000
_symmetry_Int_Tables_number   1
_chemical_formula_structural   C
_chemical_formula_sum   C16
_cell_volume   169.34635121
_cell_formula_units_Z   16
loop_
 _symmetry_equiv_pos_site_id
 _symmetry_equiv_pos_as_xyz
  1  'x, y, z'
loop_
 _atom_site_type_symbol
 _atom_site_label
 _atom_site_symmetry_multiplicity
 _atom_site_fract_x
 _atom_site_fract_y
 _atom_site_fract_z
 _atom_site_occupancy
  C  C0  1  0.16660404  0.62499901  0.76005324  1
  C  C1  1  0.16655312  0.37501040  0.23993632  1
  C  C2  1  0.33339596  0.12499901  0.23994676  1
  C  C3  1  0.83339596  0.37500099  0.23994676  1
  C  C4  1  0.83339596  0.12499901  0.76005324  1
  C  C5  1  0.66655312  0.12498960  0.23993632  1
  C  C6  1  0.66660404  0.62499901  0.23994676  1
  C  C7  1  0.66655312  0.37501040  0.76006368  1
  C  C8  1  0.33344688  0.62498960  0.23993632  1
  C  C9  1  0.83344688  0.87501040  0.23993632  1
  C  C10  1  0.16660404  0.87500099  0.23994676  1
  C  C11  1  0.66660404  0.87500099  0.76005324  1
  C  C12  1  0.33339596  0.37500099  0.76005324  1
  C  C13  1  0.16655312  0.12498960  0.76006368  1
  C  C14  1  0.33344688  0.87501040  0.76006368  1
  C  C15  1  0.83344688  0.62498960  0.76006368  1
