# generated using pymatgen
data_Li2ZrO3
_symmetry_space_group_name_H-M   'P 1'
_cell_length_a   5.32329214
_cell_length_b   5.32329214
_cell_length_c   5.46143636
_cell_angle_alpha   101.12032496
_cell_angle_beta   101.12032493
_cell_angle_gamma   118.40412750
_symmetry_Int_Tables_number   1
_chemical_formula_structural   Li2ZrO3
_chemical_formula_sum   'Li4 Zr2 O6'
_cell_volume   126.10426777
_cell_formula_units_Z   2
loop_
 _symmetry_equiv_pos_site_id
 _symmetry_equiv_pos_as_xyz
  1  'x, y, z'
loop_
 _atom_site_type_symbol
 _atom_site_label
 _atom_site_symmetry_multiplicity
 _atom_site_fract_x
 _atom_site_fract_y
 _atom_site_fract_z
 _atom_site_occupancy
  Li  Li0  1  0.74172799  0.25827201  0.25000000  1
  Li  Li1  1  0.25827201  0.74172799  0.75000000  1
  Li  Li2  1  0.42405209  0.57594791  0.25000000  1
  Li  Li3  1  0.57594791  0.42405209  0.75000000  1
  O  O4  1  0.00000000  0.50000000  0.00000000  1
  O  O5  1  0.69364645  0.84537534  0.98721456  1
  O  O6  1  0.84537534  0.69364645  0.48721456  1
  O  O7  1  0.30635355  0.15462466  0.01278544  1
  O  O8  1  0.15462466  0.30635355  0.51278544  1
  O  O9  1  0.50000000  0.00000000  0.50000000  1
  Zr  Zr10  1  0.09094716  0.90905284  0.25000000  1
  Zr  Zr11  1  0.90905284  0.09094716  0.75000000  1
