# generated using pymatgen
data_BaWO4
_symmetry_space_group_name_H-M   'P 1'
_cell_length_a   5.74354179
_cell_length_b   5.74331613
_cell_length_c   7.61149363
_cell_angle_alpha   112.16107649
_cell_angle_beta   112.16408563
_cell_angle_gamma   89.99925419
_symmetry_Int_Tables_number   1
_chemical_formula_structural   BaWO4
_chemical_formula_sum   'Ba2 W2 O8'
_cell_volume   212.36538121
_cell_formula_units_Z   2
loop_
 _symmetry_equiv_pos_site_id
 _symmetry_equiv_pos_as_xyz
  1  'x, y, z'
loop_
 _atom_site_type_symbol
 _atom_site_label
 _atom_site_symmetry_multiplicity
 _atom_site_fract_x
 _atom_site_fract_y
 _atom_site_fract_z
 _atom_site_occupancy
  O  O0  1  0.18547970  0.57769496  0.90750768  1
  O  O1  1  0.32980716  0.68531500  0.40743232  1
  O  O2  1  0.07766865  0.22192660  0.40746550  1
  O  O3  1  0.72208992  0.82997684  0.90758290  1
  O  O4  1  0.27791008  0.17002316  0.09241710  1
  O  O5  1  0.92233135  0.77807340  0.59253450  1
  O  O6  1  0.67019284  0.31468500  0.59256768  1
  O  O7  1  0.81452030  0.42230504  0.09249232  1
  Ba  Ba8  1  0.62500252  0.87499878  0.25002139  1
  Ba  Ba9  1  0.37499748  0.12500122  0.74997861  1
  W  W10  1  0.12497051  0.37487313  0.24993091  1
  W  W11  1  0.87502949  0.62512687  0.75006909  1
