# generated using pymatgen
data_YNbO4
_symmetry_space_group_name_H-M   'P 1'
_cell_length_a   5.16017204
_cell_length_b   5.35072217
_cell_length_c   6.63018574
_cell_angle_alpha   112.17745127
_cell_angle_beta   111.23198993
_cell_angle_gamma   93.83628231
_symmetry_Int_Tables_number   1
_chemical_formula_structural   YNbO4
_chemical_formula_sum   'Y2 Nb2 O8'
_cell_volume   153.55477724
_cell_formula_units_Z   2
loop_
 _symmetry_equiv_pos_site_id
 _symmetry_equiv_pos_as_xyz
  1  'x, y, z'
loop_
 _atom_site_type_symbol
 _atom_site_label
 _atom_site_symmetry_multiplicity
 _atom_site_fract_x
 _atom_site_fract_y
 _atom_site_fract_z
 _atom_site_occupancy
  O  O0  1  0.41883135  0.21743343  0.43462174  1
  O  O1  1  0.01579039  0.71718832  0.43462174  1
  O  O2  1  0.58116865  0.78256657  0.56537826  1
  O  O3  1  0.98420961  0.28281168  0.56537826  1
  O  O4  1  0.78906077  0.12942262  0.07938701  1
  O  O5  1  0.29032624  0.44996439  0.07938701  1
  O  O6  1  0.21093923  0.87057738  0.92061299  1
  O  O7  1  0.70967376  0.55003561  0.92061299  1
  Y  Y8  1  0.37802482  0.12802482  0.75604964  1
  Y  Y9  1  0.62197518  0.87197518  0.24395036  1
  Nb  Nb10  1  0.85877103  0.60877103  0.71754206  1
  Nb  Nb11  1  0.14122897  0.39122897  0.28245794  1
