# generated using pymatgen
data_TcO2
_symmetry_space_group_name_H-M   'P 1'
_cell_length_a   4.81341913
_cell_length_b   5.53275255
_cell_length_c   5.58818734
_cell_angle_alpha   118.14869765
_cell_angle_beta   90.00000000
_cell_angle_gamma   90.00000000
_symmetry_Int_Tables_number   1
_chemical_formula_structural   TcO2
_chemical_formula_sum   'Tc4 O8'
_cell_volume   131.21988079
_cell_formula_units_Z   4
loop_
 _symmetry_equiv_pos_site_id
 _symmetry_equiv_pos_as_xyz
  1  'x, y, z'
loop_
 _atom_site_type_symbol
 _atom_site_label
 _atom_site_symmetry_multiplicity
 _atom_site_fract_x
 _atom_site_fract_y
 _atom_site_fract_z
 _atom_site_occupancy
  Tc  Tc0  1  0.50485934  0.26519126  0.78016351  1
  Tc  Tc1  1  0.00485934  0.73480874  0.71983649  1
  Tc  Tc2  1  0.49514066  0.73480874  0.21983649  1
  Tc  Tc3  1  0.99514066  0.26519126  0.28016351  1
  O  O4  1  0.21307918  0.39255539  0.62380457  1
  O  O5  1  0.19126282  0.89438852  0.08679342  1
  O  O6  1  0.80873718  0.10561148  0.91320658  1
  O  O7  1  0.69126282  0.10561148  0.41320658  1
  O  O8  1  0.30873718  0.89438852  0.58679342  1
  O  O9  1  0.28692082  0.39255539  0.12380457  1
  O  O10  1  0.71307918  0.60744461  0.87619543  1
  O  O11  1  0.78692082  0.60744461  0.37619543  1
