# generated using pymatgen
data_AsPd5
_symmetry_space_group_name_H-M   'P 1'
_cell_length_a   4.82103161
_cell_length_b   4.82103161
_cell_length_c   8.59702884
_cell_angle_alpha   95.03559615
_cell_angle_beta   95.03559619
_cell_angle_gamma   108.76288419
_symmetry_Int_Tables_number   1
_chemical_formula_structural   AsPd5
_chemical_formula_sum   'As2 Pd10'
_cell_volume   187.03534947
_cell_formula_units_Z   2
loop_
 _symmetry_equiv_pos_site_id
 _symmetry_equiv_pos_as_xyz
  1  'x, y, z'
loop_
 _atom_site_type_symbol
 _atom_site_label
 _atom_site_symmetry_multiplicity
 _atom_site_fract_x
 _atom_site_fract_y
 _atom_site_fract_z
 _atom_site_occupancy
  As  As0  1  0.25016635  0.20452401  0.71268329  1
  As  As1  1  0.79547599  0.74983365  0.28731671  1
  Pd  Pd2  1  0.22606368  0.70122570  0.82588381  1
  Pd  Pd3  1  0.29877430  0.77393632  0.17411619  1
  Pd  Pd4  1  0.74688400  0.18036820  0.82585562  1
  Pd  Pd5  1  0.81963180  0.25311600  0.17414438  1
  Pd  Pd6  1  0.66864763  0.62297160  0.64798552  1
  Pd  Pd7  1  0.37702840  0.33135237  0.35201448  1
  Pd  Pd8  1  0.76610264  0.72042694  0.99312719  1
  Pd  Pd9  1  0.27957306  0.23389736  0.00687281  1
  Pd  Pd10  1  0.83871675  0.16128325  0.50000000  1
  Pd  Pd11  1  0.20693539  0.79306461  0.50000000  1
