# generated using pymatgen
data_Sr3IrN3
_symmetry_space_group_name_H-M   'P 1'
_cell_length_a   7.74298482
_cell_length_b   7.74298482
_cell_length_c   5.33483360
_cell_angle_alpha   90.00000000
_cell_angle_beta   90.00000000
_cell_angle_gamma   120.00000152
_symmetry_Int_Tables_number   1
_chemical_formula_structural   Sr3IrN3
_chemical_formula_sum   'Sr6 Ir2 N6'
_cell_volume   276.99269661
_cell_formula_units_Z   2
loop_
 _symmetry_equiv_pos_site_id
 _symmetry_equiv_pos_as_xyz
  1  'x, y, z'
loop_
 _atom_site_type_symbol
 _atom_site_label
 _atom_site_symmetry_multiplicity
 _atom_site_fract_x
 _atom_site_fract_y
 _atom_site_fract_z
 _atom_site_occupancy
  Sr  Sr0  1  0.90428494  0.63763354  0.25000000  1
  Sr  Sr1  1  0.73334860  0.09571506  0.25000000  1
  Sr  Sr2  1  0.36236646  0.26665140  0.25000000  1
  Sr  Sr3  1  0.09571506  0.36236646  0.75000000  1
  Sr  Sr4  1  0.26665140  0.90428494  0.75000000  1
  Sr  Sr5  1  0.63763354  0.73334860  0.75000000  1
  Ir  Ir6  1  0.66666700  0.33333300  0.75000000  1
  Ir  Ir7  1  0.33333300  0.66666700  0.25000000  1
  N  N8  1  0.89514113  0.59495539  0.75000000  1
  N  N9  1  0.69981426  0.10485887  0.75000000  1
  N  N10  1  0.40504461  0.30018574  0.75000000  1
  N  N11  1  0.10485887  0.40504461  0.25000000  1
  N  N12  1  0.30018574  0.89514113  0.25000000  1
  N  N13  1  0.59495539  0.69981426  0.25000000  1
