# generated using pymatgen
data_BNF8
_symmetry_space_group_name_H-M   'P 1'
_cell_length_a   5.28192174
_cell_length_b   9.99298779
_cell_length_c   9.99298779
_cell_angle_alpha   90.00000000
_cell_angle_beta   90.00000000
_cell_angle_gamma   90.00000000
_symmetry_Int_Tables_number   1
_chemical_formula_structural   BNF8
_chemical_formula_sum   'B4 N4 F32'
_cell_volume   527.45167483
_cell_formula_units_Z   4
loop_
 _symmetry_equiv_pos_site_id
 _symmetry_equiv_pos_as_xyz
  1  'x, y, z'
loop_
 _atom_site_type_symbol
 _atom_site_label
 _atom_site_symmetry_multiplicity
 _atom_site_fract_x
 _atom_site_fract_y
 _atom_site_fract_z
 _atom_site_occupancy
  B  B0  1  0.59888554  0.24405281  0.74405281  1
  B  B1  1  0.40111446  0.74405281  0.75594719  1
  B  B2  1  0.40111446  0.25594719  0.24405281  1
  B  B3  1  0.59888554  0.75594719  0.25594719  1
  N  N4  1  0.00000000  0.00000000  0.00000000  1
  N  N5  1  0.00000000  0.50000000  0.50000000  1
  N  N6  1  0.96277800  0.00000000  0.50000000  1
  N  N7  1  0.03722200  0.50000000  0.00000000  1
  F  F8  1  0.14674768  0.94247817  0.09306201  1
  F  F9  1  0.85325232  0.09306201  0.05752183  1
  F  F10  1  0.85325232  0.90693799  0.94247817  1
  F  F11  1  0.14674768  0.05752183  0.90693799  1
  F  F12  1  0.85325232  0.44247817  0.40693799  1
  F  F13  1  0.85325232  0.55752183  0.59306201  1
  F  F14  1  0.14674768  0.40693799  0.55752183  1
  F  F15  1  0.14674768  0.59306201  0.44247817  1
  F  F16  1  0.10851882  0.07771664  0.57771664  1
  F  F17  1  0.89148118  0.57771664  0.92228336  1
  F  F18  1  0.89148118  0.42228336  0.07771664  1
  F  F19  1  0.10851882  0.92228336  0.42228336  1
  F  F20  1  0.81596163  0.07736133  0.42263867  1
  F  F21  1  0.18403837  0.42263867  0.92263867  1
  F  F22  1  0.18403837  0.57736133  0.07736133  1
  F  F23  1  0.81596163  0.92263867  0.57736133  1
  F  F24  1  0.68913140  0.27877798  0.61483840  1
  F  F25  1  0.31086860  0.61483840  0.72122202  1
  F  F26  1  0.31086860  0.38516160  0.27877798  1
  F  F27  1  0.68913140  0.72122202  0.38516160  1
  F  F28  1  0.31086860  0.77877798  0.88516160  1
  F  F29  1  0.31086860  0.22122202  0.11483840  1
  F  F30  1  0.68913140  0.88516160  0.22122202  1
  F  F31  1  0.68913140  0.11483840  0.77877798  1
  F  F32  1  0.32928921  0.24201622  0.74201622  1
  F  F33  1  0.67071079  0.74201622  0.75798378  1
  F  F34  1  0.67071079  0.25798378  0.24201622  1
  F  F35  1  0.32928921  0.75798378  0.25798378  1
  F  F36  1  0.68360612  0.33897544  0.83897544  1
  F  F37  1  0.31639388  0.83897544  0.66102456  1
  F  F38  1  0.31639388  0.16102456  0.33897544  1
  F  F39  1  0.68360612  0.66102456  0.16102456  1
