# generated using pymatgen
data_MoO3
_symmetry_space_group_name_H-M   'P 1'
_cell_length_a   7.43680938
_cell_length_b   7.79575372
_cell_length_c   8.00829852
_cell_angle_alpha   90.00000000
_cell_angle_beta   90.23534969
_cell_angle_gamma   90.00000000
_symmetry_Int_Tables_number   1
_chemical_formula_structural   MoO3
_chemical_formula_sum   'Mo8 O24'
_cell_volume   464.28146913
_cell_formula_units_Z   8
loop_
 _symmetry_equiv_pos_site_id
 _symmetry_equiv_pos_as_xyz
  1  'x, y, z'
loop_
 _atom_site_type_symbol
 _atom_site_label
 _atom_site_symmetry_multiplicity
 _atom_site_fract_x
 _atom_site_fract_y
 _atom_site_fract_z
 _atom_site_occupancy
  O  O0  1  0.77447491  0.99439012  0.49787639  1
  O  O1  1  0.72552509  0.49439012  0.00212361  1
  O  O2  1  0.22552509  0.00560988  0.50212361  1
  O  O3  1  0.27447491  0.50560988  0.99787639  1
  O  O4  1  0.77444364  0.47556481  0.50220451  1
  O  O5  1  0.72555636  0.97556481  0.99779549  1
  O  O6  1  0.22555636  0.52443519  0.49779549  1
  O  O7  1  0.27444364  0.02443519  0.00220451  1
  O  O8  1  0.99909373  0.02761295  0.22759471  1
  O  O9  1  0.50090627  0.52761295  0.27240529  1
  O  O10  1  0.00090627  0.97238705  0.77240529  1
  O  O11  1  0.49909373  0.47238705  0.72759471  1
  O  O12  1  0.00087357  0.47213961  0.22861210  1
  O  O13  1  0.49912643  0.97213961  0.27138790  1
  O  O14  1  0.99912643  0.52786039  0.77138790  1
  O  O15  1  0.50087357  0.02786039  0.72861210  1
  O  O16  1  0.27818847  0.25864127  0.26690356  1
  O  O17  1  0.22181153  0.75864127  0.23309644  1
  O  O18  1  0.72181153  0.74135873  0.73309644  1
  O  O19  1  0.77818847  0.24135873  0.76690356  1
  O  O20  1  0.22006159  0.25893473  0.74901113  1
  O  O21  1  0.27993841  0.75893473  0.75098887  1
  O  O22  1  0.77993841  0.74106527  0.25098887  1
  O  O23  1  0.72006159  0.24106527  0.24901113  1
  Mo  Mo24  1  0.74924390  0.46466301  0.28406282  1
  Mo  Mo25  1  0.75075610  0.96466301  0.21593718  1
  Mo  Mo26  1  0.25075610  0.53533699  0.71593718  1
  Mo  Mo27  1  0.24924390  0.03533699  0.78406282  1
  Mo  Mo28  1  0.75057562  0.46702413  0.78539268  1
  Mo  Mo29  1  0.74942438  0.96702413  0.71460732  1
  Mo  Mo30  1  0.24942438  0.53297587  0.21460732  1
  Mo  Mo31  1  0.25057562  0.03297587  0.28539268  1
