# generated using pymatgen
data_BeF2
_symmetry_space_group_name_H-M   'P 1'
_cell_length_a   8.56086072
_cell_length_b   8.56086072
_cell_length_c   8.56086072
_cell_angle_alpha   90.00000000
_cell_angle_beta   90.00000000
_cell_angle_gamma   90.00000000
_symmetry_Int_Tables_number   1
_chemical_formula_structural   BeF2
_chemical_formula_sum   'Be12 F24'
_cell_volume   627.41123918
_cell_formula_units_Z   12
loop_
 _symmetry_equiv_pos_site_id
 _symmetry_equiv_pos_as_xyz
  1  'x, y, z'
loop_
 _atom_site_type_symbol
 _atom_site_label
 _atom_site_symmetry_multiplicity
 _atom_site_fract_x
 _atom_site_fract_y
 _atom_site_fract_z
 _atom_site_occupancy
  Be  Be0  1  0.00000000  0.75000000  0.50000000  1
  Be  Be1  1  0.00000000  0.50000000  0.25000000  1
  Be  Be2  1  0.25000000  0.50000000  0.00000000  1
  Be  Be3  1  0.50000000  0.00000000  0.75000000  1
  Be  Be4  1  0.50000000  0.00000000  0.25000000  1
  Be  Be5  1  0.50000000  0.25000000  0.00000000  1
  Be  Be6  1  0.00000000  0.25000000  0.50000000  1
  Be  Be7  1  0.50000000  0.75000000  0.00000000  1
  Be  Be8  1  0.00000000  0.50000000  0.75000000  1
  Be  Be9  1  0.75000000  0.00000000  0.50000000  1
  Be  Be10  1  0.75000000  0.50000000  0.00000000  1
  Be  Be11  1  0.25000000  0.00000000  0.50000000  1
  F  F12  1  0.03327371  0.64558690  0.64558690  1
  F  F13  1  0.46672629  0.85441310  0.14558690  1
  F  F14  1  0.03327371  0.35441310  0.35441310  1
  F  F15  1  0.85441310  0.14558690  0.46672629  1
  F  F16  1  0.64558690  0.64558690  0.03327371  1
  F  F17  1  0.14558690  0.85441310  0.46672629  1
  F  F18  1  0.64558690  0.96672629  0.35441310  1
  F  F19  1  0.35441310  0.96672629  0.64558690  1
  F  F20  1  0.64558690  0.03327371  0.64558690  1
  F  F21  1  0.85441310  0.85441310  0.53327371  1
  F  F22  1  0.14558690  0.14558690  0.53327371  1
  F  F23  1  0.85441310  0.46672629  0.14558690  1
  F  F24  1  0.85441310  0.53327371  0.85441310  1
  F  F25  1  0.46672629  0.14558690  0.85441310  1
  F  F26  1  0.14558690  0.53327371  0.14558690  1
  F  F27  1  0.53327371  0.14558690  0.14558690  1
  F  F28  1  0.35441310  0.03327371  0.35441310  1
  F  F29  1  0.14558690  0.46672629  0.85441310  1
  F  F30  1  0.96672629  0.64558690  0.35441310  1
  F  F31  1  0.64558690  0.35441310  0.96672629  1
  F  F32  1  0.96672629  0.35441310  0.64558690  1
  F  F33  1  0.35441310  0.64558690  0.96672629  1
  F  F34  1  0.53327371  0.85441310  0.85441310  1
  F  F35  1  0.35441310  0.35441310  0.03327371  1
