# generated using pymatgen
data_LiCaN
_symmetry_space_group_name_H-M   'P 1'
_cell_length_a   3.67467384
_cell_length_b   5.55256336
_cell_length_c   8.50579550
_cell_angle_alpha   90.00000000
_cell_angle_beta   90.00000000
_cell_angle_gamma   90.00000000
_symmetry_Int_Tables_number   1
_chemical_formula_structural   LiCaN
_chemical_formula_sum   'Li4 Ca4 N4'
_cell_volume   173.55105482
_cell_formula_units_Z   4
loop_
 _symmetry_equiv_pos_site_id
 _symmetry_equiv_pos_as_xyz
  1  'x, y, z'
loop_
 _atom_site_type_symbol
 _atom_site_label
 _atom_site_symmetry_multiplicity
 _atom_site_fract_x
 _atom_site_fract_y
 _atom_site_fract_z
 _atom_site_occupancy
  Li  Li0  1  0.25000000  0.57469371  0.04755134  1
  Li  Li1  1  0.75000000  0.42530629  0.95244866  1
  Li  Li2  1  0.75000000  0.07469371  0.45244866  1
  Li  Li3  1  0.25000000  0.92530629  0.54755134  1
  N  N4  1  0.75000000  0.74084612  0.09282952  1
  N  N5  1  0.75000000  0.75915388  0.59282952  1
  N  N6  1  0.25000000  0.25915388  0.90717048  1
  N  N7  1  0.25000000  0.24084612  0.40717048  1
  Ca  Ca8  1  0.25000000  0.47344342  0.65633528  1
  Ca  Ca9  1  0.75000000  0.97344342  0.84366472  1
  Ca  Ca10  1  0.25000000  0.02655658  0.15633528  1
  Ca  Ca11  1  0.75000000  0.52655658  0.34366472  1
