# generated using pymatgen
data_Ta2VRu
_symmetry_space_group_name_H-M   'P 1'
_cell_length_a   4.47427972
_cell_length_b   4.47427959
_cell_length_c   4.47428050
_cell_angle_alpha   59.99994087
_cell_angle_beta   59.99999116
_cell_angle_gamma   59.99998724
_symmetry_Int_Tables_number   1
_chemical_formula_structural   Ta2VRu
_chemical_formula_sum   'Ta2 V1 Ru1'
_cell_volume   63.33651967
_cell_formula_units_Z   1
loop_
 _symmetry_equiv_pos_site_id
 _symmetry_equiv_pos_as_xyz
  1  'x, y, z'
loop_
 _atom_site_type_symbol
 _atom_site_label
 _atom_site_symmetry_multiplicity
 _atom_site_fract_x
 _atom_site_fract_y
 _atom_site_fract_z
 _atom_site_occupancy
  Ta  Ta0  1  0.00000002  0.00000009  0.00000041  1
  Ta  Ta1  1  0.50000018  0.49999971  0.50000051  1
  V  V2  1  0.75000070  0.75000149  0.75000038  1
  Ru  Ru3  1  0.25000110  0.25000071  0.25000069  1
