# generated using pymatgen
data_Li2CeP2
_symmetry_space_group_name_H-M   'P 1'
_cell_length_a   4.15679628
_cell_length_b   4.15679628
_cell_length_c   6.63645835
_cell_angle_alpha   90.00000000
_cell_angle_beta   90.00000000
_cell_angle_gamma   119.99999998
_symmetry_Int_Tables_number   1
_chemical_formula_structural   Li2CeP2
_chemical_formula_sum   'Li2 Ce1 P2'
_cell_volume   99.30805742
_cell_formula_units_Z   1
loop_
 _symmetry_equiv_pos_site_id
 _symmetry_equiv_pos_as_xyz
  1  'x, y, z'
loop_
 _atom_site_type_symbol
 _atom_site_label
 _atom_site_symmetry_multiplicity
 _atom_site_fract_x
 _atom_site_fract_y
 _atom_site_fract_z
 _atom_site_occupancy
  Li  Li0  1  0.66666667  0.33333333  0.37769767  1
  Li  Li1  1  0.33333333  0.66666667  0.62230233  1
  P  P2  1  0.66666667  0.33333333  0.76908595  1
  P  P3  1  0.33333333  0.66666667  0.23091405  1
  Ce  Ce4  1  0.00000000  0.00000000  0.00000000  1
