# generated using pymatgen
data_NbO2F
_symmetry_space_group_name_H-M   'P 1'
_cell_length_a   5.42385221
_cell_length_b   5.66847873
_cell_length_c   5.42385225
_cell_angle_alpha   119.65127461
_cell_angle_beta   61.60408906
_cell_angle_gamma   119.65127047
_symmetry_Int_Tables_number   1
_chemical_formula_structural   NbO2F
_chemical_formula_sum   'Nb2 O4 F2'
_cell_volume   119.91749779
_cell_formula_units_Z   2
loop_
 _symmetry_equiv_pos_site_id
 _symmetry_equiv_pos_as_xyz
  1  'x, y, z'
loop_
 _atom_site_type_symbol
 _atom_site_label
 _atom_site_symmetry_multiplicity
 _atom_site_fract_x
 _atom_site_fract_y
 _atom_site_fract_z
 _atom_site_occupancy
  Nb  Nb0  1  0.68851108  0.14196789  0.74808239  1
  Nb  Nb1  1  0.24808239  0.64196789  0.18851108  1
  O  O2  1  0.03871999  0.41410759  0.89737246  1
  O  O3  1  0.46343125  0.39953145  0.04946908  1
  O  O4  1  0.39737246  0.91410759  0.53871999  1
  O  O5  1  0.54946908  0.89953145  0.96343125  1
  F  F6  1  0.88925154  0.40804106  0.46759420  1
  F  F7  1  0.96759420  0.90804106  0.38925154  1
