# generated using pymatgen
data_CsNiCl3
_symmetry_space_group_name_H-M   'P 1'
_cell_length_a   7.30472378
_cell_length_b   7.30472378
_cell_length_c   5.98195783
_cell_angle_alpha   90.00000000
_cell_angle_beta   90.00000000
_cell_angle_gamma   120.00000000
_symmetry_Int_Tables_number   1
_chemical_formula_structural   CsNiCl3
_chemical_formula_sum   'Cs2 Ni2 Cl6'
_cell_volume   276.42770951
_cell_formula_units_Z   2
loop_
 _symmetry_equiv_pos_site_id
 _symmetry_equiv_pos_as_xyz
  1  'x, y, z'
loop_
 _atom_site_type_symbol
 _atom_site_label
 _atom_site_symmetry_multiplicity
 _atom_site_fract_x
 _atom_site_fract_y
 _atom_site_fract_z
 _atom_site_occupancy
  Cl  Cl0  1  0.85017451  0.70034902  0.75000000  1
  Cl  Cl1  1  0.14982549  0.85017451  0.25000000  1
  Cl  Cl2  1  0.70034902  0.85017451  0.25000000  1
  Cl  Cl3  1  0.29965098  0.14982549  0.75000000  1
  Cl  Cl4  1  0.14982549  0.29965098  0.25000000  1
  Cl  Cl5  1  0.85017451  0.14982549  0.75000000  1
  Ni  Ni6  1  0.00000000  0.00000000  0.50000000  1
  Ni  Ni7  1  0.00000000  0.00000000  0.00000000  1
  Cs  Cs8  1  0.66666667  0.33333333  0.25000000  1
  Cs  Cs9  1  0.33333333  0.66666667  0.75000000  1
