# generated using pymatgen
data_ScPPt
_symmetry_space_group_name_H-M   'P 1'
_cell_length_a   6.64498548
_cell_length_b   3.85887727
_cell_length_c   7.48330536
_cell_angle_alpha   90.00000000
_cell_angle_beta   90.00000000
_cell_angle_gamma   90.00000000
_symmetry_Int_Tables_number   1
_chemical_formula_structural   ScPPt
_chemical_formula_sum   'Sc4 P4 Pt4'
_cell_volume   191.88828869
_cell_formula_units_Z   4
loop_
 _symmetry_equiv_pos_site_id
 _symmetry_equiv_pos_as_xyz
  1  'x, y, z'
loop_
 _atom_site_type_symbol
 _atom_site_label
 _atom_site_symmetry_multiplicity
 _atom_site_fract_x
 _atom_site_fract_y
 _atom_site_fract_z
 _atom_site_occupancy
  Sc  Sc0  1  0.53164882  0.74999800  0.18059199  1
  Sc  Sc1  1  0.03164882  0.74999800  0.31940901  1
  Sc  Sc2  1  0.96835018  0.24999900  0.68059199  1
  Sc  Sc3  1  0.46835018  0.24999900  0.81940901  1
  P  P4  1  0.25503408  0.24999900  0.12514643  1
  P  P5  1  0.75503408  0.24999900  0.37485557  1
  P  P6  1  0.24496692  0.74999800  0.62514643  1
  P  P7  1  0.74496792  0.74999800  0.87485457  1
  Pt  Pt8  1  0.84753587  0.24999900  0.06189176  1
  Pt  Pt9  1  0.34753587  0.24999900  0.43810824  1
  Pt  Pt10  1  0.65246413  0.74999800  0.56189376  1
  Pt  Pt11  1  0.15246413  0.74999800  0.93810724  1
