# generated using pymatgen
data_RbMnN2
_symmetry_space_group_name_H-M   'P 1'
_cell_length_a   5.70456700
_cell_length_b   11.41167900
_cell_length_c   16.09058900
_cell_angle_alpha   90.00000000
_cell_angle_beta   90.00000000
_cell_angle_gamma   90.00000000
_symmetry_Int_Tables_number   1
_chemical_formula_structural   RbMnN2
_chemical_formula_sum   'Rb16 Mn16 N32'
_cell_volume   1047.47622400
_cell_formula_units_Z   16
loop_
 _symmetry_equiv_pos_site_id
 _symmetry_equiv_pos_as_xyz
  1  'x, y, z'
loop_
 _atom_site_type_symbol
 _atom_site_label
 _atom_site_symmetry_multiplicity
 _atom_site_fract_x
 _atom_site_fract_y
 _atom_site_fract_z
 _atom_site_occupancy
  Rb  Rb0  1  0.24994500  0.00005500  0.43750700  1
  Rb  Rb1  1  0.74994500  0.49994500  0.56249300  1
  Rb  Rb2  1  0.75005500  0.50005500  0.06249300  1
  Rb  Rb3  1  0.25005500  0.99994500  0.93750700  1
  Rb  Rb4  1  0.75005500  0.99994500  0.56249300  1
  Rb  Rb5  1  0.25005500  0.50005500  0.43750700  1
  Rb  Rb6  1  0.24994500  0.49994500  0.93750700  1
  Rb  Rb7  1  0.74994500  0.00005500  0.06249300  1
  Rb  Rb8  1  0.25512900  0.25006600  0.31250600  1
  Rb  Rb9  1  0.75512900  0.24993400  0.68749400  1
  Rb  Rb10  1  0.74487100  0.75006600  0.18749400  1
  Rb  Rb11  1  0.24487100  0.74993400  0.81250600  1
  Rb  Rb12  1  0.74487100  0.74993400  0.68749400  1
  Rb  Rb13  1  0.24487100  0.75006600  0.31250600  1
  Rb  Rb14  1  0.25512900  0.24993400  0.81250600  1
  Rb  Rb15  1  0.75512900  0.25006600  0.18749400  1
  Mn  Mn16  1  0.75005900  0.99999300  0.31253700  1
  Mn  Mn17  1  0.25005900  0.50000700  0.68746300  1
  Mn  Mn18  1  0.24994100  0.49999300  0.18746300  1
  Mn  Mn19  1  0.74994100  0.00000700  0.81253700  1
  Mn  Mn20  1  0.24994100  0.00000700  0.68746300  1
  Mn  Mn21  1  0.74994100  0.49999300  0.31253700  1
  Mn  Mn22  1  0.75005900  0.50000700  0.81253700  1
  Mn  Mn23  1  0.25005900  0.99999300  0.18746300  1
  Mn  Mn24  1  0.75329400  0.24999900  0.43750800  1
  Mn  Mn25  1  0.25329400  0.25000100  0.56249200  1
  Mn  Mn26  1  0.24670600  0.74999900  0.06249200  1
  Mn  Mn27  1  0.74670600  0.75000100  0.93750800  1
  Mn  Mn28  1  0.24670600  0.75000100  0.56249200  1
  Mn  Mn29  1  0.74670600  0.74999900  0.43750800  1
  Mn  Mn30  1  0.75329400  0.25000100  0.93750800  1
  Mn  Mn31  1  0.25329400  0.24999900  0.06249200  1
  N  N32  1  0.00544200  0.25004400  0.49894300  1
  N  N33  1  0.50544200  0.24995600  0.50105700  1
  N  N34  1  0.99455800  0.75004400  0.00105700  1
  N  N35  1  0.49455800  0.74995600  0.99894300  1
  N  N36  1  0.99455800  0.74995600  0.50105700  1
  N  N37  1  0.49455800  0.75004400  0.49894300  1
  N  N38  1  0.00544200  0.24995600  0.99894300  1
  N  N39  1  0.50544200  0.25004400  0.00105700  1
  N  N40  1  0.75063500  0.37501600  0.37506000  1
  N  N41  1  0.25063500  0.12498400  0.62494000  1
  N  N42  1  0.24936500  0.87501600  0.12494000  1
  N  N43  1  0.74936500  0.62498400  0.87506000  1
  N  N44  1  0.24936500  0.62498400  0.62494000  1
  N  N45  1  0.74936500  0.87501600  0.37506000  1
  N  N46  1  0.75063500  0.12498400  0.87506000  1
  N  N47  1  0.25063500  0.37501600  0.12494000  1
  N  N48  1  0.75089700  0.12499500  0.37503600  1
  N  N49  1  0.25089700  0.37500500  0.62496400  1
  N  N50  1  0.24910300  0.62499500  0.12496400  1
  N  N51  1  0.74910300  0.87500500  0.87503600  1
  N  N52  1  0.24910300  0.87500500  0.62496400  1
  N  N53  1  0.74910300  0.62499500  0.37503600  1
  N  N54  1  0.75089700  0.37500500  0.87503600  1
  N  N55  1  0.25089700  0.12499500  0.12496400  1
  N  N56  1  0.50008400  0.49996300  0.24993200  1
  N  N57  1  0.00008400  0.00003700  0.75006800  1
  N  N58  1  0.49991600  0.99996300  0.25006800  1
  N  N59  1  0.99991600  0.50003700  0.74993200  1
  N  N60  1  0.49991600  0.50003700  0.75006800  1
  N  N61  1  0.99991600  0.99996300  0.24993200  1
  N  N62  1  0.50008400  0.00003700  0.74993200  1
  N  N63  1  0.00008400  0.49996300  0.25006800  1
