# generated using pymatgen
data_Cu2O3
_symmetry_space_group_name_H-M   'P 1'
_cell_length_a   8.08884535
_cell_length_b   8.08884535
_cell_length_c   8.08884535
_cell_angle_alpha   109.44181552
_cell_angle_beta   109.52258786
_cell_angle_gamma   109.44927082
_symmetry_Int_Tables_number   1
_chemical_formula_structural   Cu2O3
_chemical_formula_sum   'Cu16 O24'
_cell_volume   407.41540186
_cell_formula_units_Z   8
loop_
 _symmetry_equiv_pos_site_id
 _symmetry_equiv_pos_as_xyz
  1  'x, y, z'
loop_
 _atom_site_type_symbol
 _atom_site_label
 _atom_site_symmetry_multiplicity
 _atom_site_fract_x
 _atom_site_fract_y
 _atom_site_fract_z
 _atom_site_occupancy
  Cu  Cu0  1  0.50000000  0.00000000  0.00000000  1
  Cu  Cu1  1  0.96595903  0.25000000  0.21595903  1
  Cu  Cu2  1  0.78406609  0.03406609  0.75000000  1
  Cu  Cu3  1  0.71593391  0.46593391  0.25000000  1
  Cu  Cu4  1  0.75000000  0.78410231  0.03410231  1
  Cu  Cu5  1  0.75000000  0.28410231  0.53410231  1
  Cu  Cu6  1  0.46595903  0.25000000  0.71595903  1
  Cu  Cu7  1  0.00000000  0.50000000  0.00000000  1
  Cu  Cu8  1  0.00000000  0.00000000  0.50000000  1
  Cu  Cu9  1  0.53404097  0.75000000  0.28404097  1
  Cu  Cu10  1  0.50000000  0.50000000  0.50000000  1
  Cu  Cu11  1  0.25000000  0.71589769  0.46589769  1
  Cu  Cu12  1  0.25000000  0.21589769  0.96589769  1
  Cu  Cu13  1  0.21593391  0.96593391  0.25000000  1
  Cu  Cu14  1  0.28406609  0.53406609  0.75000000  1
  Cu  Cu15  1  0.03404097  0.75000000  0.78404097  1
  O  O16  1  0.78594535  0.06067729  0.51813581  1
  O  O17  1  0.71405465  0.23219046  0.27473193  1
  O  O18  1  0.26809786  0.98151490  0.04244321  1
  O  O19  1  0.93907169  0.48151490  0.21341704  1
  O  O20  1  0.76809786  0.72565565  0.28658296  1
  O  O21  1  0.43907169  0.22565565  0.45755679  1
  O  O22  1  0.04254148  0.26780954  0.98186419  1
  O  O23  1  0.45745852  0.43932271  0.22526807  1
  O  O24  1  0.98175294  0.04227473  0.26786989  1
  O  O25  1  0.77440584  0.54227473  0.56052279  1
  O  O26  1  0.51824706  0.78611695  0.06052279  1
  O  O27  1  0.72559416  0.28611695  0.76786989  1
  O  O28  1  0.27440584  0.71388305  0.23213011  1
  O  O29  1  0.22559416  0.45772527  0.43947721  1
  O  O30  1  0.48175294  0.21388305  0.93947721  1
  O  O31  1  0.01824706  0.95772527  0.73213011  1
  O  O32  1  0.95745852  0.73219046  0.01813581  1
  O  O33  1  0.54254148  0.56067729  0.77473193  1
  O  O34  1  0.56092831  0.77434435  0.54244321  1
  O  O35  1  0.23190214  0.27434435  0.71341704  1
  O  O36  1  0.06092831  0.51848510  0.78658296  1
  O  O37  1  0.73190214  0.01848510  0.95755679  1
  O  O38  1  0.21405465  0.93932271  0.48186419  1
  O  O39  1  0.28594535  0.76780954  0.72526807  1
