# generated using pymatgen
data_Mg(PtO2)3
_symmetry_space_group_name_H-M   'P 1'
_cell_length_a   3.23815317
_cell_length_b   6.16322763
_cell_length_c   6.16322762
_cell_angle_alpha   108.79937888
_cell_angle_beta   90.00000000
_cell_angle_gamma   90.00000000
_symmetry_Int_Tables_number   1
_chemical_formula_structural   Mg(PtO2)3
_chemical_formula_sum   'Mg1 Pt3 O6'
_cell_volume   116.44061910
_cell_formula_units_Z   1
loop_
 _symmetry_equiv_pos_site_id
 _symmetry_equiv_pos_as_xyz
  1  'x, y, z'
loop_
 _atom_site_type_symbol
 _atom_site_label
 _atom_site_symmetry_multiplicity
 _atom_site_fract_x
 _atom_site_fract_y
 _atom_site_fract_z
 _atom_site_occupancy
  O  O0  1  0.00000000  0.91382292  0.66006841  1
  O  O1  1  0.00000000  0.08617708  0.33993159  1
  O  O2  1  0.00000000  0.66006841  0.91382292  1
  O  O3  1  0.00000000  0.33993159  0.08617708  1
  O  O4  1  0.50000000  0.35295511  0.64704489  1
  O  O5  1  0.50000000  0.64704489  0.35295511  1
  Mg  Mg6  1  0.00000000  0.50000000  0.50000000  1
  Pt  Pt7  1  0.50000000  0.50000000  0.00000000  1
  Pt  Pt8  1  0.00000000  0.00000000  0.00000000  1
  Pt  Pt9  1  0.50000000  0.00000000  0.50000000  1
