# generated using pymatgen
data_UI3
_symmetry_space_group_name_H-M   'P 1'
_cell_length_a   4.21518870
_cell_length_b   8.02369697
_cell_length_c   10.01992909
_cell_angle_alpha   90.00000000
_cell_angle_beta   90.00000000
_cell_angle_gamma   105.22862269
_symmetry_Int_Tables_number   1
_chemical_formula_structural   UI3
_chemical_formula_sum   'U2 I6'
_cell_volume   326.98807947
_cell_formula_units_Z   2
loop_
 _symmetry_equiv_pos_site_id
 _symmetry_equiv_pos_as_xyz
  1  'x, y, z'
loop_
 _atom_site_type_symbol
 _atom_site_label
 _atom_site_symmetry_multiplicity
 _atom_site_fract_x
 _atom_site_fract_y
 _atom_site_fract_z
 _atom_site_occupancy
  I  I0  1  0.34535529  0.69071058  0.43247161  1
  I  I1  1  0.65464471  0.30928942  0.56752839  1
  I  I2  1  0.90988203  0.81976405  0.75000000  1
  I  I3  1  0.09011797  0.18023595  0.25000000  1
  I  I4  1  0.34535529  0.69071058  0.06752839  1
  I  I5  1  0.65464471  0.30928942  0.93247161  1
  U  U6  1  0.73834347  0.47668694  0.25000000  1
  U  U7  1  0.26165653  0.52331306  0.75000000  1
