# generated using pymatgen
data_K2Cu(ClF)2
_symmetry_space_group_name_H-M   'P 1'
_cell_length_a   6.33820150
_cell_length_b   6.33734188
_cell_length_c   8.11328518
_cell_angle_alpha   90.00000000
_cell_angle_beta   112.99222785
_cell_angle_gamma   90.00000000
_symmetry_Int_Tables_number   1
_chemical_formula_structural   K2Cu(ClF)2
_chemical_formula_sum   'K4 Cu2 Cl4 F4'
_cell_volume   299.99982741
_cell_formula_units_Z   2
loop_
 _symmetry_equiv_pos_site_id
 _symmetry_equiv_pos_as_xyz
  1  'x, y, z'
loop_
 _atom_site_type_symbol
 _atom_site_label
 _atom_site_symmetry_multiplicity
 _atom_site_fract_x
 _atom_site_fract_y
 _atom_site_fract_z
 _atom_site_occupancy
  K  K0  1  0.12340416  0.50000000  0.24680833  1
  K  K1  1  0.62340416  -0.00000000  0.24680833  1
  K  K2  1  0.87659584  0.50000000  0.75319167  1
  K  K3  1  0.37659584  0.00000000  0.75319167  1
  Cu  Cu4  1  -0.00000000  0.00000000  -0.00000000  1
  Cu  Cu5  1  0.50000000  0.50000000  0.00000000  1
  Cl  Cl6  1  0.15615723  0.00000000  0.31231345  1
  Cl  Cl7  1  0.84384277  -0.00000000  0.68768655  1
  Cl  Cl8  1  0.65615723  0.50000000  0.31231345  1
  Cl  Cl9  1  0.34384277  0.50000000  0.68768655  1
  F  F10  1  0.78583539  0.21419695  0.00000000  1
  F  F11  1  0.21416461  0.78580305  1.00000000  1
  F  F12  1  0.28583539  0.28580305  0.00000000  1
  F  F13  1  0.71416461  0.71419695  1.00000000  1
