# generated using pymatgen
data_LaB4
_symmetry_space_group_name_H-M   'P 1'
_cell_length_a   4.18269541
_cell_length_b   7.31065593
_cell_length_c   7.31065593
_cell_angle_alpha   90.00000000
_cell_angle_beta   90.00000000
_cell_angle_gamma   90.00000000
_symmetry_Int_Tables_number   1
_chemical_formula_structural   LaB4
_chemical_formula_sum   'La4 B16'
_cell_volume   223.54704278
_cell_formula_units_Z   4
loop_
 _symmetry_equiv_pos_site_id
 _symmetry_equiv_pos_as_xyz
  1  'x, y, z'
loop_
 _atom_site_type_symbol
 _atom_site_label
 _atom_site_symmetry_multiplicity
 _atom_site_fract_x
 _atom_site_fract_y
 _atom_site_fract_z
 _atom_site_occupancy
  B  B0  1  0.50000000  0.46090222  0.32647836  1
  B  B1  1  0.50000000  0.53909778  0.67352164  1
  B  B2  1  0.50000000  0.32647836  0.53909778  1
  B  B3  1  0.50000000  0.67352164  0.46090222  1
  B  B4  1  0.20583226  0.00000000  0.00000000  1
  B  B5  1  0.79416774  0.50000000  0.50000000  1
  B  B6  1  0.79416774  0.00000000  0.00000000  1
  B  B7  1  0.20583226  0.50000000  0.50000000  1
  B  B8  1  0.50000000  0.08886560  0.58886560  1
  B  B9  1  0.50000000  0.41113440  0.08886560  1
  B  B10  1  0.50000000  0.58886560  0.91113440  1
  B  B11  1  0.50000000  0.91113440  0.41113440  1
  B  B12  1  0.50000000  0.17352164  0.03909778  1
  B  B13  1  0.50000000  0.96090222  0.17352164  1
  B  B14  1  0.50000000  0.03909778  0.82647836  1
  B  B15  1  0.50000000  0.82647836  0.96090222  1
  La  La16  1  0.00000000  0.68395522  0.18395522  1
  La  La17  1  0.00000000  0.81604478  0.68395522  1
  La  La18  1  0.00000000  0.18395522  0.31604478  1
  La  La19  1  0.00000000  0.31604478  0.81604478  1
