# generated using pymatgen
data_Mg2VN3
_symmetry_space_group_name_H-M   'P 1'
_cell_length_a   5.75123936
_cell_length_b   5.82287071
_cell_length_c   5.11987685
_cell_angle_alpha   90.00000000
_cell_angle_beta   90.00000000
_cell_angle_gamma   120.41286550
_symmetry_Int_Tables_number   1
_chemical_formula_structural   Mg2VN3
_chemical_formula_sum   'Mg4 V2 N6'
_cell_volume   147.86550204
_cell_formula_units_Z   2
loop_
 _symmetry_equiv_pos_site_id
 _symmetry_equiv_pos_as_xyz
  1  'x, y, z'
loop_
 _atom_site_type_symbol
 _atom_site_label
 _atom_site_symmetry_multiplicity
 _atom_site_fract_x
 _atom_site_fract_y
 _atom_site_fract_z
 _atom_site_occupancy
  Mg  Mg0  1  0.32976801  0.33120878  0.47866103  1
  Mg  Mg1  1  0.67023199  0.00144077  0.47866103  1
  Mg  Mg2  1  0.67023199  0.66879122  0.97866103  1
  Mg  Mg3  1  0.32976801  0.99855923  0.97866103  1
  V  V4  1  1.00000000  0.66343462  0.48230881  1
  V  V5  1  0.00000000  0.33656538  0.98230881  1
  N  N6  1  0.29726427  0.33230551  0.89321555  1
  N  N7  1  0.70273573  0.03504124  0.89321555  1
  N  N8  1  0.70273573  0.66769449  0.39321555  1
  N  N9  1  0.29726427  0.96495876  0.39321555  1
  N  N10  1  1.00000000  0.63649524  0.84593704  1
  N  N11  1  0.00000000  0.36350476  0.34593704  1
