# generated using pymatgen
data_LiAuI4
_symmetry_space_group_name_H-M   'P 1'
_cell_length_a   4.46989299
_cell_length_b   7.21159751
_cell_length_c   13.50046950
_cell_angle_alpha   91.98203024
_cell_angle_beta   90.00000000
_cell_angle_gamma   90.00000000
_symmetry_Int_Tables_number   1
_chemical_formula_structural   LiAuI4
_chemical_formula_sum   'Li2 Au2 I8'
_cell_volume   434.92820512
_cell_formula_units_Z   2
loop_
 _symmetry_equiv_pos_site_id
 _symmetry_equiv_pos_as_xyz
  1  'x, y, z'
loop_
 _atom_site_type_symbol
 _atom_site_label
 _atom_site_symmetry_multiplicity
 _atom_site_fract_x
 _atom_site_fract_y
 _atom_site_fract_z
 _atom_site_occupancy
  Li  Li0  1  0.00000000  0.00000000  0.50000000  1
  Li  Li1  1  0.50000000  0.50000000  0.00000000  1
  I  I2  1  0.99267309  0.31418940  0.11197194  1
  I  I3  1  0.49267309  0.18581060  0.38802806  1
  I  I4  1  0.00732691  0.68581060  0.88802806  1
  I  I5  1  0.50732691  0.81418940  0.61197194  1
  I  I6  1  0.32844008  0.83090865  0.13814495  1
  I  I7  1  0.82844008  0.66909135  0.36185505  1
  I  I8  1  0.67155992  0.16909135  0.86185505  1
  I  I9  1  0.17155992  0.33090865  0.63814495  1
  Au  Au10  1  0.50000000  0.50000000  0.50000000  1
  Au  Au11  1  0.00000000  0.00000000  0.00000000  1
