# generated using pymatgen
data_Al3Fe2Si3
_symmetry_space_group_name_H-M   'P 1'
_cell_length_a   7.13683107
_cell_length_b   8.30615399
_cell_length_c   14.38519437
_cell_angle_alpha   90.00000000
_cell_angle_beta   93.83675886
_cell_angle_gamma   90.00000000
_symmetry_Int_Tables_number   1
_chemical_formula_structural   Al3Fe2Si3
_chemical_formula_sum   'Al24 Fe16 Si24'
_cell_volume   850.83759664
_cell_formula_units_Z   8
loop_
 _symmetry_equiv_pos_site_id
 _symmetry_equiv_pos_as_xyz
  1  'x, y, z'
loop_
 _atom_site_type_symbol
 _atom_site_label
 _atom_site_symmetry_multiplicity
 _atom_site_fract_x
 _atom_site_fract_y
 _atom_site_fract_z
 _atom_site_occupancy
  Al  Al0  1  0.32496295  0.54524476  0.83137886  1
  Al  Al1  1  0.82496295  0.95475524  0.33137886  1
  Al  Al2  1  0.67503705  0.45475524  0.16862114  1
  Al  Al3  1  0.17503705  0.04524476  0.66862114  1
  Al  Al4  1  0.31163443  0.20343076  0.82234112  1
  Al  Al5  1  0.81163443  0.29656924  0.32234112  1
  Al  Al6  1  0.68836557  0.79656924  0.17765888  1
  Al  Al7  1  0.18836557  0.70343076  0.67765888  1
  Al  Al8  1  0.05089034  0.63725529  0.94930001  1
  Al  Al9  1  0.55089034  0.86274471  0.44930001  1
  Al  Al10  1  0.94910966  0.36274471  0.05069999  1
  Al  Al11  1  0.44910966  0.13725529  0.55069999  1
  Al  Al12  1  0.04574031  0.11335784  0.94374577  1
  Al  Al13  1  0.54574031  0.38664216  0.44374577  1
  Al  Al14  1  0.95425969  0.88664216  0.05625423  1
  Al  Al15  1  0.45425969  0.61335784  0.55625423  1
  Al  Al16  1  0.94797665  0.62455562  0.32590519  1
  Al  Al17  1  0.44797665  0.87544438  0.82590519  1
  Al  Al18  1  0.05202335  0.37544438  0.67409481  1
  Al  Al19  1  0.55202335  0.12455562  0.17409481  1
  Al  Al20  1  0.20799596  0.12308397  0.27066640  1
  Al  Al21  1  0.70799596  0.37691603  0.77066640  1
  Al  Al22  1  0.79200404  0.87691603  0.72933360  1
  Al  Al23  1  0.29200404  0.62308397  0.22933360  1
  Fe  Fe24  1  0.94404369  0.61580363  0.77230832  1
  Fe  Fe25  1  0.44404369  0.88419637  0.27230832  1
  Fe  Fe26  1  0.05595631  0.38419637  0.22769168  1
  Fe  Fe27  1  0.55595631  0.11580363  0.72769168  1
  Fe  Fe28  1  0.94480869  0.13693833  0.77088066  1
  Fe  Fe29  1  0.44480869  0.36306167  0.27088066  1
  Fe  Fe30  1  0.05519131  0.86306167  0.22911934  1
  Fe  Fe31  1  0.55519131  0.63693833  0.72911934  1
  Fe  Fe32  1  0.73768446  0.62660455  0.03504206  1
  Fe  Fe33  1  0.23768446  0.87339545  0.53504206  1
  Fe  Fe34  1  0.26231554  0.37339545  0.96495794  1
  Fe  Fe35  1  0.76231554  0.12660455  0.46495794  1
  Fe  Fe36  1  0.73401181  0.12409577  0.03025166  1
  Fe  Fe37  1  0.23401181  0.37590423  0.53025166  1
  Fe  Fe38  1  0.26598819  0.87590423  0.96974834  1
  Fe  Fe39  1  0.76598819  0.62409577  0.46974834  1
  Si  Si40  1  0.59305515  0.62488928  0.32612610  1
  Si  Si41  1  0.09305515  0.87511072  0.82612610  1
  Si  Si42  1  0.40694485  0.37511072  0.67387390  1
  Si  Si43  1  0.90694485  0.12488928  0.17387390  1
  Si  Si44  1  0.53234369  0.12229592  0.34739095  1
  Si  Si45  1  0.03234369  0.37770408  0.84739095  1
  Si  Si46  1  0.46765631  0.87770408  0.65260905  1
  Si  Si47  1  0.96765631  0.62229592  0.15260905  1
  Si  Si48  1  0.70765849  0.63875487  0.87612202  1
  Si  Si49  1  0.20765849  0.86124513  0.37612202  1
  Si  Si50  1  0.29234151  0.36124513  0.12387798  1
  Si  Si51  1  0.79234151  0.13875487  0.62387798  1
  Si  Si52  1  0.70461532  0.11536459  0.87357712  1
  Si  Si53  1  0.20461532  0.38463541  0.37357712  1
  Si  Si54  1  0.29538468  0.88463541  0.12642288  1
  Si  Si55  1  0.79538468  0.61536459  0.62642288  1
  Si  Si56  1  0.10166679  0.62739679  0.48907729  1
  Si  Si57  1  0.60166679  0.87260321  0.98907729  1
  Si  Si58  1  0.89833321  0.37260321  0.51092271  1
  Si  Si59  1  0.39833321  0.12739679  0.01092271  1
  Si  Si60  1  0.10441166  0.12161758  0.46758377  1
  Si  Si61  1  0.60441166  0.37838242  0.96758377  1
  Si  Si62  1  0.89558834  0.87838242  0.53241623  1
  Si  Si63  1  0.39558834  0.62161758  0.03241623  1
