# generated using pymatgen
data_Zn3As2
_symmetry_space_group_name_H-M   'P 1'
_cell_length_a   11.91786125
_cell_length_b   11.91786125
_cell_length_c   23.87169324
_cell_angle_alpha   90.00000000
_cell_angle_beta   90.00000000
_cell_angle_gamma   90.00000000
_symmetry_Int_Tables_number   1
_chemical_formula_structural   Zn3As2
_chemical_formula_sum   'Zn96 As64'
_cell_volume   3390.62589845
_cell_formula_units_Z   32
loop_
 _symmetry_equiv_pos_site_id
 _symmetry_equiv_pos_as_xyz
  1  'x, y, z'
loop_
 _atom_site_type_symbol
 _atom_site_label
 _atom_site_symmetry_multiplicity
 _atom_site_fract_x
 _atom_site_fract_y
 _atom_site_fract_z
 _atom_site_occupancy
  Zn  Zn0  1  0.13730867  0.89133171  0.07087785  1
  Zn  Zn1  1  0.63839437  0.86164123  0.55461669  1
  Zn  Zn2  1  0.39533993  0.62645790  0.93747480  1
  Zn  Zn3  1  0.36164123  0.36160563  0.94538331  1
  Zn  Zn4  1  0.85965407  0.14010805  0.19564018  1
  Zn  Zn5  1  0.88654562  0.63260216  0.32016239  1
  Zn  Zn6  1  0.14034593  0.64010805  0.19564018  1
  Zn  Zn7  1  0.36269133  0.89133171  0.92912215  1
  Zn  Zn8  1  0.87354210  0.39533993  0.43747480  1
  Zn  Zn9  1  0.12645790  0.60466007  0.56252520  1
  Zn  Zn10  1  0.37354210  0.60466007  0.43747480  1
  Zn  Zn11  1  0.63730867  0.10866829  0.07087785  1
  Zn  Zn12  1  0.13839437  0.13835877  0.55461669  1
  Zn  Zn13  1  0.63730867  0.39133171  0.92912215  1
  Zn  Zn14  1  0.10466007  0.87354210  0.93747480  1
  Zn  Zn15  1  0.87008779  0.89631829  0.31203569  1
  Zn  Zn16  1  0.10466007  0.62645790  0.06252520  1
  Zn  Zn17  1  0.89533993  0.37354210  0.93747480  1
  Zn  Zn18  1  0.62645790  0.39533993  0.56252520  1
  Zn  Zn19  1  0.60866829  0.36269133  0.42912215  1
  Zn  Zn20  1  0.35989195  0.64034593  0.30435982  1
  Zn  Zn21  1  0.86739784  0.88654562  0.82016239  1
  Zn  Zn22  1  0.12991221  0.39631829  0.31203569  1
  Zn  Zn23  1  0.35965407  0.64010805  0.80435982  1
  Zn  Zn24  1  0.63839437  0.63835877  0.44538331  1
  Zn  Zn25  1  0.13839437  0.36164123  0.44538331  1
  Zn  Zn26  1  0.39631829  0.37008779  0.81203569  1
  Zn  Zn27  1  0.88654562  0.86739784  0.67983761  1
  Zn  Zn28  1  0.89533993  0.12645790  0.06252520  1
  Zn  Zn29  1  0.11345438  0.36739784  0.67983761  1
  Zn  Zn30  1  0.86269133  0.39133171  0.07087785  1
  Zn  Zn31  1  0.63835877  0.86160563  0.94538331  1
  Zn  Zn32  1  0.35965407  0.85989195  0.19564018  1
  Zn  Zn33  1  0.64010805  0.35965407  0.69564018  1
  Zn  Zn34  1  0.36269133  0.60866829  0.07087785  1
  Zn  Zn35  1  0.35989195  0.85965407  0.69564018  1
  Zn  Zn36  1  0.10866829  0.86269133  0.57087785  1
  Zn  Zn37  1  0.14034593  0.85989195  0.80435982  1
  Zn  Zn38  1  0.87008779  0.60368171  0.68796431  1
  Zn  Zn39  1  0.13835877  0.13839437  0.94538331  1
  Zn  Zn40  1  0.89631829  0.62991221  0.81203569  1
  Zn  Zn41  1  0.13260216  0.11345438  0.17983761  1
  Zn  Zn42  1  0.60368171  0.87008779  0.81203569  1
  Zn  Zn43  1  0.14010805  0.85965407  0.30435982  1
  Zn  Zn44  1  0.39533993  0.87354210  0.06252520  1
  Zn  Zn45  1  0.89133171  0.13730867  0.42912215  1
  Zn  Zn46  1  0.85989195  0.35965407  0.30435982  1
  Zn  Zn47  1  0.86160563  0.86164123  0.44538331  1
  Zn  Zn48  1  0.85965407  0.35989195  0.80435982  1
  Zn  Zn49  1  0.62991221  0.60368171  0.31203569  1
  Zn  Zn50  1  0.86160563  0.63835877  0.55461669  1
  Zn  Zn51  1  0.13835877  0.36160563  0.05461669  1
  Zn  Zn52  1  0.62645790  0.10466007  0.43747480  1
  Zn  Zn53  1  0.89631829  0.87008779  0.18796431  1
  Zn  Zn54  1  0.10866829  0.63730867  0.42912215  1
  Zn  Zn55  1  0.36160563  0.36164123  0.55461669  1
  Zn  Zn56  1  0.61345438  0.63260216  0.67983761  1
  Zn  Zn57  1  0.86739784  0.61345438  0.17983761  1
  Zn  Zn58  1  0.60466007  0.12645790  0.93747480  1
  Zn  Zn59  1  0.36739784  0.11345438  0.82016239  1
  Zn  Zn60  1  0.86269133  0.10866829  0.92912215  1
  Zn  Zn61  1  0.60466007  0.37354210  0.06252520  1
  Zn  Zn62  1  0.13730867  0.60866829  0.92912215  1
  Zn  Zn63  1  0.89133171  0.36269133  0.57087785  1
  Zn  Zn64  1  0.11345438  0.13260216  0.32016239  1
  Zn  Zn65  1  0.13260216  0.38654562  0.82016239  1
  Zn  Zn66  1  0.86164123  0.86160563  0.05461669  1
  Zn  Zn67  1  0.64034593  0.35989195  0.19564018  1
  Zn  Zn68  1  0.63835877  0.63839437  0.05461669  1
  Zn  Zn69  1  0.14010805  0.64034593  0.69564018  1
  Zn  Zn70  1  0.37008779  0.39631829  0.68796431  1
  Zn  Zn71  1  0.37008779  0.10368171  0.31203569  1
  Zn  Zn72  1  0.37354210  0.89533993  0.56252520  1
  Zn  Zn73  1  0.38654562  0.13260216  0.67983761  1
  Zn  Zn74  1  0.60368171  0.62991221  0.18796431  1
  Zn  Zn75  1  0.36164123  0.13839437  0.05461669  1
  Zn  Zn76  1  0.12645790  0.89533993  0.43747480  1
  Zn  Zn77  1  0.87354210  0.10466007  0.56252520  1
  Zn  Zn78  1  0.62991221  0.89631829  0.68796431  1
  Zn  Zn79  1  0.60866829  0.13730867  0.57087785  1
  Zn  Zn80  1  0.64034593  0.14010805  0.80435982  1
  Zn  Zn81  1  0.85989195  0.14034593  0.69564018  1
  Zn  Zn82  1  0.39133171  0.63730867  0.57087785  1
  Zn  Zn83  1  0.39631829  0.12991221  0.18796431  1
  Zn  Zn84  1  0.38654562  0.36739784  0.32016239  1
  Zn  Zn85  1  0.64010805  0.14034593  0.30435982  1
  Zn  Zn86  1  0.61345438  0.86739784  0.32016239  1
  Zn  Zn87  1  0.86164123  0.63839437  0.94538331  1
  Zn  Zn88  1  0.36160563  0.13835877  0.44538331  1
  Zn  Zn89  1  0.36739784  0.38654562  0.17983761  1
  Zn  Zn90  1  0.10368171  0.12991221  0.81203569  1
  Zn  Zn91  1  0.10368171  0.37008779  0.18796431  1
  Zn  Zn92  1  0.63260216  0.61345438  0.82016239  1
  Zn  Zn93  1  0.12991221  0.10368171  0.68796431  1
  Zn  Zn94  1  0.39133171  0.86269133  0.42912215  1
  Zn  Zn95  1  0.63260216  0.88654562  0.17983761  1
  As  As96  1  0.75526731  0.99868119  0.75247147  1
  As  As97  1  0.25000000  0.75000000  0.62458633  1
  As  As98  1  0.50059010  0.75000000  0.00000000  1
  As  As99  1  0.00118467  0.00453630  0.62543668  1
  As  As100  1  0.49546370  0.00118467  0.12543668  1
  As  As101  1  0.99736829  0.25000000  0.50000000  1
  As  As102  1  0.99868119  0.74473269  0.25247147  1
  As  As103  1  0.49868119  0.25526731  0.25247147  1
  As  As104  1  0.25000000  0.25000000  0.62520944  1
  As  As105  1  0.75000000  0.99940990  0.50000000  1
  As  As106  1  0.24473269  0.00131881  0.24752853  1
  As  As107  1  0.49736829  0.75000000  0.50000000  1
  As  As108  1  0.00059010  0.25000000  0.00000000  1
  As  As109  1  0.99546370  0.50118467  0.87456332  1
  As  As110  1  0.25000000  0.99736829  0.00000000  1
  As  As111  1  0.75000000  0.25000000  0.62458633  1
  As  As112  1  0.25000000  0.49940990  0.50000000  1
  As  As113  1  0.49881533  0.00453630  0.37456332  1
  As  As114  1  0.74473269  0.50131881  0.75247147  1
  As  As115  1  0.99868119  0.75526731  0.74752853  1
  As  As116  1  0.99546370  0.99881533  0.12543668  1
  As  As117  1  0.25526731  0.00131881  0.75247147  1
  As  As118  1  0.00263171  0.75000000  0.50000000  1
  As  As119  1  0.49881533  0.49546370  0.62543668  1
  As  As120  1  0.75000000  0.75000000  0.62520944  1
  As  As121  1  0.25000000  0.50263171  0.00000000  1
  As  As122  1  0.99940990  0.75000000  0.00000000  1
  As  As123  1  0.25000000  0.25000000  0.87479056  1
  As  As124  1  0.25000000  0.00059010  0.50000000  1
  As  As125  1  0.75000000  0.75000000  0.37479056  1
  As  As126  1  0.24473269  0.49868119  0.75247147  1
  As  As127  1  0.75000000  0.49736829  0.00000000  1
  As  As128  1  0.75000000  0.50059010  0.50000000  1
  As  As129  1  0.00118467  0.49546370  0.37456332  1
  As  As130  1  0.00453630  0.00118467  0.87456332  1
  As  As131  1  0.75000000  0.75000000  0.87479056  1
  As  As132  1  0.00131881  0.24473269  0.25247147  1
  As  As133  1  0.99881533  0.99546370  0.37456332  1
  As  As134  1  0.50131881  0.75526731  0.25247147  1
  As  As135  1  0.75000000  0.25000000  0.37541367  1
  As  As136  1  0.25000000  0.75000000  0.37541367  1
  As  As137  1  0.49546370  0.49881533  0.87456332  1
  As  As138  1  0.50453630  0.50118467  0.12543668  1
  As  As139  1  0.99881533  0.50453630  0.62543668  1
  As  As140  1  0.50453630  0.99881533  0.87456332  1
  As  As141  1  0.25526731  0.49868119  0.24752853  1
  As  As142  1  0.25000000  0.75000000  0.87541367  1
  As  As143  1  0.74473269  0.99868119  0.24752853  1
  As  As144  1  0.50131881  0.74473269  0.74752853  1
  As  As145  1  0.75000000  0.25000000  0.12458633  1
  As  As146  1  0.75000000  0.25000000  0.87541367  1
  As  As147  1  0.50118467  0.99546370  0.62543668  1
  As  As148  1  0.49868119  0.24473269  0.74752853  1
  As  As149  1  0.00453630  0.49881533  0.12543668  1
  As  As150  1  0.75000000  0.00263171  0.00000000  1
  As  As151  1  0.75000000  0.75000000  0.12520944  1
  As  As152  1  0.25000000  0.25000000  0.12520944  1
  As  As153  1  0.00131881  0.25526731  0.74752853  1
  As  As154  1  0.50118467  0.50453630  0.37456332  1
  As  As155  1  0.49940990  0.25000000  0.00000000  1
  As  As156  1  0.75526731  0.50131881  0.24752853  1
  As  As157  1  0.25000000  0.75000000  0.12458633  1
  As  As158  1  0.25000000  0.25000000  0.37479056  1
  As  As159  1  0.50263171  0.25000000  0.50000000  1
