# generated using pymatgen
data_Ti2AlRe
_symmetry_space_group_name_H-M   'P 1'
_cell_length_a   4.44730815
_cell_length_b   4.44729288
_cell_length_c   4.44727462
_cell_angle_alpha   60.00001862
_cell_angle_beta   59.99999232
_cell_angle_gamma   60.00019650
_symmetry_Int_Tables_number   1
_chemical_formula_structural   Ti2AlRe
_chemical_formula_sum   'Ti2 Al1 Re1'
_cell_volume   62.19745060
_cell_formula_units_Z   1
loop_
 _symmetry_equiv_pos_site_id
 _symmetry_equiv_pos_as_xyz
  1  'x, y, z'
loop_
 _atom_site_type_symbol
 _atom_site_label
 _atom_site_symmetry_multiplicity
 _atom_site_fract_x
 _atom_site_fract_y
 _atom_site_fract_z
 _atom_site_occupancy
  Ti  Ti0  1  0.99999865  -0.00000064  0.00000158  1
  Ti  Ti1  1  0.50000041  0.50000067  0.49999899  1
  Al  Al2  1  0.24999864  0.24999933  0.24999928  1
  Re  Re3  1  0.75000130  0.74999964  0.74999915  1
