# generated using pymatgen
data_Ca4ZrN4
_symmetry_space_group_name_H-M   'P 1'
_cell_length_a   6.15583447
_cell_length_b   6.15671598
_cell_length_c   9.34454672
_cell_angle_alpha   84.43260868
_cell_angle_beta   109.20622508
_cell_angle_gamma   111.46899985
_symmetry_Int_Tables_number   1
_chemical_formula_structural   Ca4ZrN4
_chemical_formula_sum   'Ca8 Zr2 N8'
_cell_volume   311.12831790
_cell_formula_units_Z   2
loop_
 _symmetry_equiv_pos_site_id
 _symmetry_equiv_pos_as_xyz
  1  'x, y, z'
loop_
 _atom_site_type_symbol
 _atom_site_label
 _atom_site_symmetry_multiplicity
 _atom_site_fract_x
 _atom_site_fract_y
 _atom_site_fract_z
 _atom_site_occupancy
  Ca  Ca0  1  0.81549259  0.27180623  0.19556294  1
  Ca  Ca1  1  0.18450741  0.72819377  0.80443706  1
  Ca  Ca2  1  0.23793522  0.24335210  0.99406308  1
  Ca  Ca3  1  0.76206478  0.75664790  0.00593692  1
  Ca  Ca4  1  0.05011611  0.26245627  0.57455560  1
  Ca  Ca5  1  0.94988389  0.73754373  0.42544440  1
  Ca  Ca6  1  0.53716029  0.75153083  0.59466624  1
  Ca  Ca7  1  0.46283971  0.24846917  0.40533376  1
  Zr  Zr8  1  0.60744495  0.27953708  0.76549925  1
  Zr  Zr9  1  0.39255505  0.72046292  0.23450075  1
  N  N10  1  0.31408224  0.01329487  0.61532749  1
  N  N11  1  0.68591776  0.98670513  0.38467251  1
  N  N12  1  0.81216415  0.15666356  0.95808772  1
  N  N13  1  0.18783585  0.84333644  0.04191228  1
  N  N14  1  0.42336925  0.48894354  0.80171808  1
  N  N15  1  0.57663075  0.51105646  0.19828192  1
  N  N16  1  0.19703989  0.51383639  0.37987864  1
  N  N17  1  0.80296011  0.48616361  0.62012136  1
