# generated using pymatgen
data_Pb3O4
_symmetry_space_group_name_H-M   'P 1'
_cell_length_a   6.77666625
_cell_length_b   9.03945416
_cell_length_c   9.03945416
_cell_angle_alpha   90.00000000
_cell_angle_beta   90.00000000
_cell_angle_gamma   90.00000000
_symmetry_Int_Tables_number   1
_chemical_formula_structural   Pb3O4
_chemical_formula_sum   'Pb12 O16'
_cell_volume   553.73313316
_cell_formula_units_Z   4
loop_
 _symmetry_equiv_pos_site_id
 _symmetry_equiv_pos_as_xyz
  1  'x, y, z'
loop_
 _atom_site_type_symbol
 _atom_site_label
 _atom_site_symmetry_multiplicity
 _atom_site_fract_x
 _atom_site_fract_y
 _atom_site_fract_z
 _atom_site_occupancy
  Pb  Pb0  1  0.25000000  0.00000000  0.50000000  1
  Pb  Pb1  1  0.75000000  0.50000000  0.00000000  1
  Pb  Pb2  1  0.75000000  0.00000000  0.50000000  1
  Pb  Pb3  1  0.25000000  0.50000000  0.00000000  1
  Pb  Pb4  1  0.00000000  0.16748996  0.14492572  1
  Pb  Pb5  1  0.50000000  0.85507428  0.16748996  1
  Pb  Pb6  1  0.50000000  0.14492572  0.83251004  1
  Pb  Pb7  1  0.00000000  0.83251004  0.85507428  1
  Pb  Pb8  1  0.00000000  0.66748996  0.35507428  1
  Pb  Pb9  1  0.00000000  0.33251004  0.64492572  1
  Pb  Pb10  1  0.50000000  0.64492572  0.66748996  1
  Pb  Pb11  1  0.50000000  0.35507428  0.33251004  1
  O  O12  1  0.25000000  0.17061728  0.67061728  1
  O  O13  1  0.75000000  0.32938272  0.17061728  1
  O  O14  1  0.75000000  0.67061728  0.82938272  1
  O  O15  1  0.25000000  0.82938272  0.32938272  1
  O  O16  1  0.75000000  0.82938272  0.32938272  1
  O  O17  1  0.25000000  0.67061728  0.82938272  1
  O  O18  1  0.25000000  0.32938272  0.17061728  1
  O  O19  1  0.75000000  0.17061728  0.67061728  1
  O  O20  1  0.00000000  0.13338642  0.40520875  1
  O  O21  1  0.50000000  0.59479125  0.13338642  1
  O  O22  1  0.50000000  0.40520875  0.86661358  1
  O  O23  1  0.00000000  0.86661358  0.59479125  1
  O  O24  1  0.00000000  0.63338642  0.09479125  1
  O  O25  1  0.00000000  0.36661358  0.90520875  1
  O  O26  1  0.50000000  0.90520875  0.63338642  1
  O  O27  1  0.50000000  0.09479125  0.36661358  1
