# generated using pymatgen
data_KCrF3
_symmetry_space_group_name_H-M   'P 1'
_cell_length_a   5.95453125
_cell_length_b   5.97979483
_cell_length_c   5.99177583
_cell_angle_alpha   117.94483130
_cell_angle_beta   117.79983903
_cell_angle_gamma   93.50513191
_symmetry_Int_Tables_number   1
_chemical_formula_structural   KCrF3
_chemical_formula_sum   'K2 Cr2 F6'
_cell_volume   155.67387093
_cell_formula_units_Z   2
loop_
 _symmetry_equiv_pos_site_id
 _symmetry_equiv_pos_as_xyz
  1  'x, y, z'
loop_
 _atom_site_type_symbol
 _atom_site_label
 _atom_site_symmetry_multiplicity
 _atom_site_fract_x
 _atom_site_fract_y
 _atom_site_fract_z
 _atom_site_occupancy
  K  K0  1  0.74866180  0.74866180  0.49732359  1
  K  K1  1  0.25133820  0.25133820  0.50267641  1
  Cr  Cr2  1  0.00000000  0.50000000  0.00000000  1
  Cr  Cr3  1  0.50000000  0.00000000  0.00000000  1
  F  F4  1  0.23019026  0.73019026  0.46038151  1
  F  F5  1  0.71876025  0.28062942  0.00000000  1
  F  F6  1  0.28123975  0.71937058  1.00000000  1
  F  F7  1  0.23960696  0.19999774  0.00000000  1
  F  F8  1  0.76980974  0.26980974  0.53961849  1
  F  F9  1  0.76039304  0.80000226  1.00000000  1
