# generated using pymatgen
data_SbF5
_symmetry_space_group_name_H-M   'P 1'
_cell_length_a   5.52164204
_cell_length_b   7.91525551
_cell_length_c   10.09578652
_cell_angle_alpha   90.00000000
_cell_angle_beta   90.00000000
_cell_angle_gamma   110.94520012
_symmetry_Int_Tables_number   1
_chemical_formula_structural   SbF5
_chemical_formula_sum   'Sb4 F20'
_cell_volume   412.08262534
_cell_formula_units_Z   4
loop_
 _symmetry_equiv_pos_site_id
 _symmetry_equiv_pos_as_xyz
  1  'x, y, z'
loop_
 _atom_site_type_symbol
 _atom_site_label
 _atom_site_symmetry_multiplicity
 _atom_site_fract_x
 _atom_site_fract_y
 _atom_site_fract_z
 _atom_site_occupancy
  Sb  Sb0  1  0.88143300  0.59674870  0.75196577  1
  Sb  Sb1  1  0.11856700  0.90325130  0.25196577  1
  Sb  Sb2  1  0.11856700  0.40325130  0.24803423  1
  Sb  Sb3  1  0.88143300  0.09674870  0.74803423  1
  F  F4  1  0.60396624  0.56849878  0.86968188  1
  F  F5  1  0.39603376  0.93150122  0.36968188  1
  F  F6  1  0.39603376  0.43150122  0.13031812  1
  F  F7  1  0.60396624  0.06849878  0.63031812  1
  F  F8  1  0.64351376  0.48838293  0.61597313  1
  F  F9  1  0.35648624  0.01161707  0.11597313  1
  F  F10  1  0.35648624  0.51161707  0.38402687  1
  F  F11  1  0.64351376  0.98838293  0.88402687  1
  F  F12  1  0.88266149  0.79740606  0.39014966  1
  F  F13  1  0.11733851  0.70259394  0.89014966  1
  F  F14  1  0.11733851  0.20259394  0.60985034  1
  F  F15  1  0.88266149  0.29740606  0.10985034  1
  F  F16  1  0.83855497  0.87341558  0.13571016  1
  F  F17  1  0.16144503  0.62658442  0.63571016  1
  F  F18  1  0.16144503  0.12658442  0.86428984  1
  F  F19  1  0.83855497  0.37341558  0.36428984  1
  F  F20  1  0.88314715  0.84635207  0.69135809  1
  F  F21  1  0.11685285  0.65364793  0.19135809  1
  F  F22  1  0.11685285  0.15364793  0.30864191  1
  F  F23  1  0.88314715  0.34635207  0.80864191  1
