# generated using pymatgen
data_ZrBi
_symmetry_space_group_name_H-M   'P 1'
_cell_length_a   3.87798631
_cell_length_b   5.79233263
_cell_length_c   14.54583017
_cell_angle_alpha   90.00000000
_cell_angle_beta   90.00000000
_cell_angle_gamma   109.55743930
_symmetry_Int_Tables_number   1
_chemical_formula_structural   ZrBi
_chemical_formula_sum   'Zr6 Bi6'
_cell_volume   307.88633004
_cell_formula_units_Z   6
loop_
 _symmetry_equiv_pos_site_id
 _symmetry_equiv_pos_as_xyz
  1  'x, y, z'
loop_
 _atom_site_type_symbol
 _atom_site_label
 _atom_site_symmetry_multiplicity
 _atom_site_fract_x
 _atom_site_fract_y
 _atom_site_fract_z
 _atom_site_occupancy
  Zr  Zr0  1  0.07102606  0.14205213  0.88988987  1
  Zr  Zr1  1  0.92897394  0.85794787  0.11011013  1
  Zr  Zr2  1  0.92897394  0.85794787  0.38988987  1
  Zr  Zr3  1  0.07102606  0.14205213  0.61011013  1
  Zr  Zr4  1  0.39233001  0.78466003  0.75000000  1
  Zr  Zr5  1  0.60766999  0.21533997  0.25000000  1
  Bi  Bi6  1  0.67788231  0.35576462  0.75000000  1
  Bi  Bi7  1  0.32211769  0.64423538  0.25000000  1
  Bi  Bi8  1  0.64130103  0.28260206  0.45040321  1
  Bi  Bi9  1  0.35869897  0.71739794  0.54959679  1
  Bi  Bi10  1  0.35869897  0.71739794  0.95040321  1
  Bi  Bi11  1  0.64130103  0.28260206  0.04959679  1
