# generated using pymatgen
data_LiScAs2O7
_symmetry_space_group_name_H-M   'P 1'
_cell_length_a   4.92034231
_cell_length_b   5.54527429
_cell_length_c   5.54531476
_cell_angle_alpha   103.08604730
_cell_angle_beta   98.62427633
_cell_angle_gamma   98.62512083
_symmetry_Int_Tables_number   1
_chemical_formula_structural   LiScAs2O7
_chemical_formula_sum   'Li1 Sc1 As2 O7'
_cell_volume   143.02447846
_cell_formula_units_Z   1
loop_
 _symmetry_equiv_pos_site_id
 _symmetry_equiv_pos_as_xyz
  1  'x, y, z'
loop_
 _atom_site_type_symbol
 _atom_site_label
 _atom_site_symmetry_multiplicity
 _atom_site_fract_x
 _atom_site_fract_y
 _atom_site_fract_z
 _atom_site_occupancy
  As  As0  1  0.90888200  0.17970199  0.25387310  1
  Li  Li1  1  0.49999995  0.24866622  0.75133268  1
  As  As2  1  0.09111797  0.74612285  0.82030149  1
  Sc  Sc3  1  0.50000069  0.62949709  0.37050769  1
  O  O4  1  0.22094190  0.33441439  0.44380989  1
  O  O5  1  0.74900140  0.96536730  0.38623676  1
  O  O6  1  0.99999986  0.03640533  0.96359367  1
  O  O7  1  0.31350937  0.85898048  0.64475588  1
  O  O8  1  0.68648972  0.35524578  0.14102038  1
  O  O9  1  0.77905823  0.55618644  0.66558444  1
  O  O10  1  0.25099891  0.61376213  0.03463404  1
