# generated using pymatgen
data_LiCaSi2
_symmetry_space_group_name_H-M   'P 1'
_cell_length_a   3.80732207
_cell_length_b   7.93413281
_cell_length_c   10.67143746
_cell_angle_alpha   90.00000000
_cell_angle_beta   90.00000000
_cell_angle_gamma   90.00000000
_symmetry_Int_Tables_number   1
_chemical_formula_structural   LiCaSi2
_chemical_formula_sum   'Li4 Ca4 Si8'
_cell_volume   322.36063734
_cell_formula_units_Z   4
loop_
 _symmetry_equiv_pos_site_id
 _symmetry_equiv_pos_as_xyz
  1  'x, y, z'
loop_
 _atom_site_type_symbol
 _atom_site_label
 _atom_site_symmetry_multiplicity
 _atom_site_fract_x
 _atom_site_fract_y
 _atom_site_fract_z
 _atom_site_occupancy
  Li  Li0  1  0.25000000  0.99823071  0.61229244  1
  Li  Li1  1  0.25000000  0.49823071  0.88770756  1
  Li  Li2  1  0.75000000  0.50176929  0.11229244  1
  Li  Li3  1  0.75000000  0.00176929  0.38770756  1
  Ca  Ca4  1  0.75000000  0.36436509  0.63564859  1
  Ca  Ca5  1  0.25000000  0.13563491  0.13564859  1
  Ca  Ca6  1  0.75000000  0.86436509  0.86435141  1
  Ca  Ca7  1  0.25000000  0.63563491  0.36435141  1
  Si  Si8  1  0.25000000  0.66537739  0.67425824  1
  Si  Si9  1  0.25000000  0.16537739  0.82574176  1
  Si  Si10  1  0.75000000  0.26918418  0.93214044  1
  Si  Si11  1  0.25000000  0.23081582  0.43214044  1
  Si  Si12  1  0.75000000  0.33462261  0.32574176  1
  Si  Si13  1  0.75000000  0.76918418  0.56785956  1
  Si  Si14  1  0.25000000  0.73081582  0.06785956  1
  Si  Si15  1  0.75000000  0.83462261  0.17425824  1
