# generated using pymatgen
data_TmZn2
_symmetry_space_group_name_H-M   'P 1'
_cell_length_a   4.47867656
_cell_length_b   5.60074073
_cell_length_c   5.60074073
_cell_angle_alpha   77.38881811
_cell_angle_beta   66.43251926
_cell_angle_gamma   66.43251926
_symmetry_Int_Tables_number   1
_chemical_formula_structural   TmZn2
_chemical_formula_sum   'Tm2 Zn4'
_cell_volume   117.74333656
_cell_formula_units_Z   2
loop_
 _symmetry_equiv_pos_site_id
 _symmetry_equiv_pos_as_xyz
  1  'x, y, z'
loop_
 _atom_site_type_symbol
 _atom_site_label
 _atom_site_symmetry_multiplicity
 _atom_site_fract_x
 _atom_site_fract_y
 _atom_site_fract_z
 _atom_site_occupancy
  Tm  Tm0  1  0.53075714  0.71924286  0.21924286  1
  Tm  Tm1  1  0.46924286  0.28075714  0.78075714  1
  Zn  Zn2  1  0.16651112  0.29049827  0.37647949  1
  Zn  Zn3  1  0.83348888  0.70950173  0.62352051  1
  Zn  Zn4  1  0.83348888  0.12352051  0.20950173  1
  Zn  Zn5  1  0.16651112  0.87647949  0.79049827  1
