# generated using pymatgen
data_LiMnPt2
_symmetry_space_group_name_H-M   'P 1'
_cell_length_a   4.30277385
_cell_length_b   4.30277511
_cell_length_c   4.30277366
_cell_angle_alpha   59.99964099
_cell_angle_beta   59.99962517
_cell_angle_gamma   59.99963920
_symmetry_Int_Tables_number   1
_chemical_formula_structural   LiMnPt2
_chemical_formula_sum   'Li1 Mn1 Pt2'
_cell_volume   56.32835641
_cell_formula_units_Z   1
loop_
 _symmetry_equiv_pos_site_id
 _symmetry_equiv_pos_as_xyz
  1  'x, y, z'
loop_
 _atom_site_type_symbol
 _atom_site_label
 _atom_site_symmetry_multiplicity
 _atom_site_fract_x
 _atom_site_fract_y
 _atom_site_fract_z
 _atom_site_occupancy
  Li  Li0  1  0.24999961  0.24999970  0.24999972  1
  Mn  Mn1  1  0.75000065  0.75000044  0.75000065  1
  Pt  Pt2  1  0.00000060  0.00000062  0.00000040  1
  Pt  Pt3  1  0.49999914  0.49999925  0.49999924  1
