# generated using pymatgen
data_V5Si3
_symmetry_space_group_name_H-M   'P 1'
_cell_length_a   4.72405022
_cell_length_b   7.06048175
_cell_length_c   7.06048098
_cell_angle_alpha   83.64548762
_cell_angle_beta   70.50667912
_cell_angle_gamma   70.50668084
_symmetry_Int_Tables_number   1
_chemical_formula_structural   V5Si3
_chemical_formula_sum   'V10 Si6'
_cell_volume   209.27240285
_cell_formula_units_Z   2
loop_
 _symmetry_equiv_pos_site_id
 _symmetry_equiv_pos_as_xyz
  1  'x, y, z'
loop_
 _atom_site_type_symbol
 _atom_site_label
 _atom_site_symmetry_multiplicity
 _atom_site_fract_x
 _atom_site_fract_y
 _atom_site_fract_z
 _atom_site_occupancy
  V  V0  1  0.57376415  0.70129105  0.14989231  1
  V  V1  1  0.25000000  0.49968309  0.50031691  1
  V  V2  1  0.07376415  0.14989231  0.70129105  1
  V  V3  1  0.92623585  0.85010769  0.29870895  1
  V  V4  1  0.75000000  0.50031691  0.49968309  1
  V  V5  1  0.72400383  0.84958557  0.70139623  1
  V  V6  1  0.42623585  0.29870895  0.85010769  1
  V  V7  1  0.77599617  0.29860377  0.15041443  1
  V  V8  1  0.27599617  0.15041443  0.29860377  1
  V  V9  1  0.22400383  0.70139623  0.84958557  1
  Si  Si10  1  0.16583611  0.50006466  0.16760776  1
  Si  Si11  1  0.25000000  0.00017719  0.99982281  1
  Si  Si12  1  0.66583611  0.16760776  0.50006466  1
  Si  Si13  1  0.83416389  0.49993534  0.83239224  1
  Si  Si14  1  0.75000000  0.99982281  0.00017719  1
  Si  Si15  1  0.33416389  0.83239224  0.49993534  1
