# generated using pymatgen
data_Ba9Nb10O30
_symmetry_space_group_name_H-M   'P 1'
_cell_length_a   20.72469024
_cell_length_b   9.25916966
_cell_length_c   9.25816290
_cell_angle_alpha   66.36019052
_cell_angle_beta   63.38253749
_cell_angle_gamma   26.44169519
_symmetry_Int_Tables_number   1
_chemical_formula_structural   Ba9Nb10O30
_chemical_formula_sum   'Ba9 Nb10 O30'
_cell_volume   707.24665532
_cell_formula_units_Z   1
loop_
 _symmetry_equiv_pos_site_id
 _symmetry_equiv_pos_as_xyz
  1  'x, y, z'
loop_
 _atom_site_type_symbol
 _atom_site_label
 _atom_site_symmetry_multiplicity
 _atom_site_fract_x
 _atom_site_fract_y
 _atom_site_fract_z
 _atom_site_occupancy
  Ba  Ba0  1  0.19783631  0.00096364  0.00024962  1
  Ba  Ba1  1  0.39645830  0.00916540  0.00000325  1
  Ba  Ba2  1  0.60354170  0.99083460  -0.00000325  1
  Ba  Ba3  1  0.09860387  0.00149535  0.50360073  1
  Ba  Ba4  1  0.80216369  0.99903636  0.99975038  1
  Ba  Ba5  1  0.29968547  0.00169532  0.49996297  1
  Ba  Ba6  1  0.50000000  0.00000000  0.50000000  1
  Ba  Ba7  1  0.70031453  0.99830468  0.50003703  1
  Ba  Ba8  1  0.90139613  0.99850465  0.49639927  1
  Nb  Nb9  1  0.04897254  0.50704057  0.24658800  1
  Nb  Nb10  1  0.24689283  0.50579593  0.24709474  1
  Nb  Nb11  1  0.14753795  0.50764038  0.75293586  1
  Nb  Nb12  1  0.34517999  0.50579919  0.75452757  1
  Nb  Nb13  1  0.44968282  0.50044341  0.25043505  1
  Nb  Nb14  1  0.65482001  0.49420081  0.24547243  1
  Nb  Nb15  1  0.55031718  0.49955659  0.74956495  1
  Nb  Nb16  1  0.85246205  0.49235962  0.24706414  1
  Nb  Nb17  1  0.75310717  0.49420407  0.75290526  1
  Nb  Nb18  1  0.95102746  0.49295943  0.75341200  1
  O  O19  1  0.10106192  0.49379199  0.00011985  1
  O  O20  1  0.15208676  0.99916903  0.74713785  1
  O  O21  1  0.15193893  0.49304825  0.25309328  1
  O  O22  1  0.04992050  0.49972933  0.75050033  1
  O  O23  1  0.30382633  0.49319310  0.00015769  1
  O  O24  1  0.19926946  0.50148988  0.50015752  1
  O  O25  1  0.35019329  0.99977691  0.75024014  1
  O  O26  1  0.05079587  0.99943698  0.25281284  1
  O  O27  1  0.35012863  0.50001188  0.24966969  1
  O  O28  1  0.25331400  0.49294498  0.74706464  1
  O  O29  1  0.39953221  0.50060873  0.50006359  1
  O  O30  1  0.50000000  0.50000000  0.00000000  1
  O  O31  1  0.54976881  0.00019267  0.75092590  1
  O  O32  1  0.25035197  0.99972032  0.24977611  1
  O  O33  1  0.55013586  0.49976837  0.24955904  1
  O  O34  1  0.44986414  0.50023163  0.75044096  1
  O  O35  1  0.69617367  0.50680690  0.99984231  1
  O  O36  1  0.60046779  0.49939127  0.49993641  1
  O  O37  1  0.74964803  0.00027968  0.75022389  1
  O  O38  1  0.45023119  0.99980733  0.24907410  1
  O  O39  1  0.74668600  0.50705502  0.25293536  1
  O  O40  1  0.64987137  0.49998812  0.75033031  1
  O  O41  1  0.89893808  0.50620801  0.99988015  1
  O  O42  1  0.80073054  0.49851012  0.49984248  1
  O  O43  1  0.94920413  0.00056302  0.74718716  1
  O  O44  1  0.64980671  0.00022309  0.24975986  1
  O  O45  1  0.95007950  0.50027067  0.24949967  1
  O  O46  1  0.84806107  0.50695175  0.74690672  1
  O  O47  1  -0.00000000  0.50000000  0.50000000  1
  O  O48  1  0.84791324  0.00083097  0.25286215  1
