# generated using pymatgen
data_EuAlO3
_symmetry_space_group_name_H-M   'P 1'
_cell_length_a   5.33984996
_cell_length_b   5.31899079
_cell_length_c   7.55593288
_cell_angle_alpha   90.00000000
_cell_angle_beta   90.00000000
_cell_angle_gamma   90.00000000
_symmetry_Int_Tables_number   1
_chemical_formula_structural   EuAlO3
_chemical_formula_sum   'Eu4 Al4 O12'
_cell_volume   214.60823561
_cell_formula_units_Z   4
loop_
 _symmetry_equiv_pos_site_id
 _symmetry_equiv_pos_as_xyz
  1  'x, y, z'
loop_
 _atom_site_type_symbol
 _atom_site_label
 _atom_site_symmetry_multiplicity
 _atom_site_fract_x
 _atom_site_fract_y
 _atom_site_fract_z
 _atom_site_occupancy
  Eu  Eu0  1  0.49879313  0.48330884  0.75000000  1
  Eu  Eu1  1  0.00120687  0.98330884  0.75000000  1
  Eu  Eu2  1  0.50120687  0.51669116  0.25000000  1
  Eu  Eu3  1  0.99879313  0.01669116  0.25000000  1
  Al  Al4  1  -0.00000000  0.50000000  0.00000000  1
  Al  Al5  1  -0.00000000  0.50000000  0.50000000  1
  Al  Al6  1  0.50000000  0.00000000  -0.00000000  1
  Al  Al7  1  0.50000000  0.00000000  0.50000000  1
  O  O8  1  0.54251505  0.00558085  0.75000000  1
  O  O9  1  0.22194024  0.22182561  0.97826758  1
  O  O10  1  0.22194024  0.22182561  0.52173242  1
  O  O11  1  0.72194024  0.27817439  0.02173242  1
  O  O12  1  0.04251505  0.49441915  0.25000000  1
  O  O13  1  0.45748495  0.99441915  0.25000000  1
  O  O14  1  0.95748495  0.50558085  0.75000000  1
  O  O15  1  0.77805976  0.77817439  0.47826758  1
  O  O16  1  0.72194024  0.27817439  0.47826758  1
  O  O17  1  0.77805976  0.77817439  0.02173242  1
  O  O18  1  0.27805976  0.72182561  0.52173242  1
  O  O19  1  0.27805976  0.72182561  0.97826758  1
