# generated using pymatgen
data_Ce2InGe2
_symmetry_space_group_name_H-M   'P 1'
_cell_length_a   4.36509923
_cell_length_b   7.49532735
_cell_length_c   7.49532735
_cell_angle_alpha   90.00000000
_cell_angle_beta   90.00000000
_cell_angle_gamma   90.00000000
_symmetry_Int_Tables_number   1
_chemical_formula_structural   Ce2InGe2
_chemical_formula_sum   'Ce4 In2 Ge4'
_cell_volume   245.23097828
_cell_formula_units_Z   2
loop_
 _symmetry_equiv_pos_site_id
 _symmetry_equiv_pos_as_xyz
  1  'x, y, z'
loop_
 _atom_site_type_symbol
 _atom_site_label
 _atom_site_symmetry_multiplicity
 _atom_site_fract_x
 _atom_site_fract_y
 _atom_site_fract_z
 _atom_site_occupancy
  Ce  Ce0  1  0.50000000  0.82040703  0.32040703  1
  Ce  Ce1  1  0.50000000  0.67959297  0.82040703  1
  Ce  Ce2  1  0.50000000  0.32040703  0.17959297  1
  Ce  Ce3  1  0.50000000  0.17959297  0.67959297  1
  In  In4  1  0.00000000  0.00000000  0.00000000  1
  In  In5  1  -0.00000000  0.50000000  0.50000000  1
  Ge  Ge6  1  0.00000000  0.88015407  0.61984593  1
  Ge  Ge7  1  -0.00000000  0.11984593  0.38015407  1
  Ge  Ge8  1  0.00000000  0.38015407  0.88015407  1
  Ge  Ge9  1  -0.00000000  0.61984593  0.11984593  1
