# generated using pymatgen
data_LiNbIr2
_symmetry_space_group_name_H-M   'P 1'
_cell_length_a   4.36759452
_cell_length_b   4.36759561
_cell_length_c   4.36758959
_cell_angle_alpha   60.00001285
_cell_angle_beta   60.00007642
_cell_angle_gamma   60.00000391
_symmetry_Int_Tables_number   1
_chemical_formula_structural   LiNbIr2
_chemical_formula_sum   'Li1 Nb1 Ir2'
_cell_volume   58.91309836
_cell_formula_units_Z   1
loop_
 _symmetry_equiv_pos_site_id
 _symmetry_equiv_pos_as_xyz
  1  'x, y, z'
loop_
 _atom_site_type_symbol
 _atom_site_label
 _atom_site_symmetry_multiplicity
 _atom_site_fract_x
 _atom_site_fract_y
 _atom_site_fract_z
 _atom_site_occupancy
  Li  Li0  1  0.24999990  0.24999997  0.25000008  1
  Nb  Nb1  1  0.75000050  0.75000105  0.75000055  1
  Ir  Ir2  1  0.00000018  0.99999979  0.00000012  1
  Ir  Ir3  1  0.49999942  0.49999919  0.49999924  1
