# generated using pymatgen
data_Hf2P
_symmetry_space_group_name_H-M   'P 1'
_cell_length_a   3.58884299
_cell_length_b   12.31456326
_cell_length_c   15.09832481
_cell_angle_alpha   90.00000000
_cell_angle_beta   90.00000000
_cell_angle_gamma   90.00000000
_symmetry_Int_Tables_number   1
_chemical_formula_structural   Hf2P
_chemical_formula_sum   'Hf24 P12'
_cell_volume   667.27097878
_cell_formula_units_Z   12
loop_
 _symmetry_equiv_pos_site_id
 _symmetry_equiv_pos_as_xyz
  1  'x, y, z'
loop_
 _atom_site_type_symbol
 _atom_site_label
 _atom_site_symmetry_multiplicity
 _atom_site_fract_x
 _atom_site_fract_y
 _atom_site_fract_z
 _atom_site_occupancy
  Hf  Hf0  1  -0.00000000  0.52531016  0.10578606  1
  Hf  Hf1  1  0.00000000  0.09647586  0.75323774  1
  Hf  Hf2  1  -0.00000000  0.81200718  0.70946535  1
  Hf  Hf3  1  0.50000000  0.97468984  0.60578606  1
  Hf  Hf4  1  0.50000000  0.40352414  0.25323774  1
  Hf  Hf5  1  0.00000000  0.11674057  0.08470050  1
  Hf  Hf6  1  0.50000000  0.66115610  0.97826025  1
  Hf  Hf7  1  0.50000000  0.91183972  0.07644438  1
  Hf  Hf8  1  0.50000000  0.08816028  0.92355562  1
  Hf  Hf9  1  0.50000000  0.02531016  0.39421394  1
  Hf  Hf10  1  0.50000000  0.61674057  0.41529950  1
  Hf  Hf11  1  0.00000000  0.90352414  0.24676226  1
  Hf  Hf12  1  0.50000000  0.68799282  0.20946535  1
  Hf  Hf13  1  0.50000000  0.31200718  0.79053465  1
  Hf  Hf14  1  0.00000000  0.47468984  0.89421394  1
  Hf  Hf15  1  0.00000000  0.88325943  0.91529950  1
  Hf  Hf16  1  0.00000000  0.58816028  0.57644438  1
  Hf  Hf17  1  -0.00000000  0.41183972  0.42355562  1
  Hf  Hf18  1  -0.00000000  0.83884390  0.47826025  1
  Hf  Hf19  1  -0.00000000  0.18799282  0.29053465  1
  Hf  Hf20  1  0.50000000  0.33884390  0.02173975  1
  Hf  Hf21  1  0.50000000  0.38325943  0.58470050  1
  Hf  Hf22  1  -0.00000000  0.16115610  0.52173975  1
  Hf  Hf23  1  0.50000000  0.59647586  0.74676226  1
  P  P24  1  0.50000000  0.05714877  0.21236357  1
  P  P25  1  -0.00000000  0.75550008  0.09073853  1
  P  P26  1  0.50000000  0.94285123  0.78763643  1
  P  P27  1  -0.00000000  0.55714877  0.28763643  1
  P  P28  1  0.50000000  0.25550008  0.40926147  1
  P  P29  1  0.50000000  0.18719678  0.64915052  1
  P  P30  1  0.50000000  0.74449992  0.59073853  1
  P  P31  1  -0.00000000  0.68719678  0.85084948  1
  P  P32  1  0.50000000  0.81280322  0.35084948  1
  P  P33  1  -0.00000000  0.24449992  0.90926147  1
  P  P34  1  -0.00000000  0.31280322  0.14915052  1
  P  P35  1  -0.00000000  0.44285123  0.71236357  1
