# generated using pymatgen
data_HfGeO4
_symmetry_space_group_name_H-M   'P 1'
_cell_length_a   4.88853422
_cell_length_b   4.88853422
_cell_length_c   6.32611148
_cell_angle_alpha   112.72928346
_cell_angle_beta   112.72928349
_cell_angle_gamma   89.99999998
_symmetry_Int_Tables_number   1
_chemical_formula_structural   HfGeO4
_chemical_formula_sum   'Hf2 Ge2 O8'
_cell_volume   126.61487704
_cell_formula_units_Z   2
loop_
 _symmetry_equiv_pos_site_id
 _symmetry_equiv_pos_as_xyz
  1  'x, y, z'
loop_
 _atom_site_type_symbol
 _atom_site_label
 _atom_site_symmetry_multiplicity
 _atom_site_fract_x
 _atom_site_fract_y
 _atom_site_fract_z
 _atom_site_occupancy
  O  O0  1  0.31249107  0.46770700  0.08611199  1
  O  O1  1  0.61840500  0.81249107  0.58611199  1
  O  O2  1  0.96770700  0.27362092  0.58611199  1
  O  O3  1  0.77362092  0.11840500  0.08611199  1
  O  O4  1  0.22637908  0.88159500  0.91388801  1
  O  O5  1  0.03229300  0.72637908  0.41388801  1
  O  O6  1  0.38159500  0.18750893  0.41388801  1
  O  O7  1  0.68750893  0.53229300  0.91388801  1
  Ge  Ge8  1  0.87500000  0.62500000  0.75000000  1
  Ge  Ge9  1  0.12500000  0.37500000  0.25000000  1
  Hf  Hf10  1  0.37500000  0.12500000  0.75000000  1
  Hf  Hf11  1  0.62500000  0.87500000  0.25000000  1
