# generated using pymatgen
data_NdZn2
_symmetry_space_group_name_H-M   'P 1'
_cell_length_a   4.60794882
_cell_length_b   5.78929332
_cell_length_c   5.78929332
_cell_angle_alpha   80.22401700
_cell_angle_beta   66.54856454
_cell_angle_gamma   66.54856459
_symmetry_Int_Tables_number   1
_chemical_formula_structural   NdZn2
_chemical_formula_sum   'Nd2 Zn4'
_cell_volume   129.96730908
_cell_formula_units_Z   2
loop_
 _symmetry_equiv_pos_site_id
 _symmetry_equiv_pos_as_xyz
  1  'x, y, z'
loop_
 _atom_site_type_symbol
 _atom_site_label
 _atom_site_symmetry_multiplicity
 _atom_site_fract_x
 _atom_site_fract_y
 _atom_site_fract_z
 _atom_site_occupancy
  Zn  Zn0  1  0.83461158  0.72037942  0.61039743  1
  Zn  Zn1  1  0.16538842  0.27962058  0.38960257  1
  Zn  Zn2  1  0.83461158  0.11039743  0.22037942  1
  Zn  Zn3  1  0.16538842  0.88960257  0.77962058  1
  Nd  Nd4  1  0.53892427  0.71107573  0.21107573  1
  Nd  Nd5  1  0.46107573  0.28892427  0.78892427  1
