# generated using pymatgen
data_CsVN2
_symmetry_space_group_name_H-M   'P 1'
_cell_length_a   5.94234183
_cell_length_b   5.94168845
_cell_length_c   8.40466249
_cell_angle_alpha   89.99999735
_cell_angle_beta   135.00629934
_cell_angle_gamma   119.99636450
_symmetry_Int_Tables_number   1
_chemical_formula_structural   CsVN2
_chemical_formula_sum   'Cs2 V2 N4'
_cell_volume   148.35768354
_cell_formula_units_Z   2
loop_
 _symmetry_equiv_pos_site_id
 _symmetry_equiv_pos_as_xyz
  1  'x, y, z'
loop_
 _atom_site_type_symbol
 _atom_site_label
 _atom_site_symmetry_multiplicity
 _atom_site_fract_x
 _atom_site_fract_y
 _atom_site_fract_z
 _atom_site_occupancy
  Cs  Cs0  1  0.00000000  0.50000000  0.75000000  1
  Cs  Cs1  1  0.00000000  0.00000000  0.50000000  1
  V  V2  1  0.00000000  0.50000000  0.25000000  1
  V  V3  1  0.00000000  0.00000000  0.00000000  1
  N  N4  1  0.50000000  0.24945700  0.12500000  1
  N  N5  1  0.50000000  0.75054300  0.62500000  1
  N  N6  1  0.00108500  0.25054300  0.12554300  1
  N  N7  1  0.99891500  0.74945700  0.12445700  1
