# generated using pymatgen
data_Rb2SiAs2
_symmetry_space_group_name_H-M   'P 1'
_cell_length_a   6.48521174
_cell_length_b   7.40398637
_cell_length_c   8.55761994
_cell_angle_alpha   115.63242963
_cell_angle_beta   112.26645753
_cell_angle_gamma   89.99999998
_symmetry_Int_Tables_number   1
_chemical_formula_structural   Rb2SiAs2
_chemical_formula_sum   'Rb4 Si2 As4'
_cell_volume   336.16162028
_cell_formula_units_Z   2
loop_
 _symmetry_equiv_pos_site_id
 _symmetry_equiv_pos_as_xyz
  1  'x, y, z'
loop_
 _atom_site_type_symbol
 _atom_site_label
 _atom_site_symmetry_multiplicity
 _atom_site_fract_x
 _atom_site_fract_y
 _atom_site_fract_z
 _atom_site_occupancy
  Si  Si0  1  0.75000000  0.50000000  0.00000000  1
  Si  Si1  1  0.25000000  0.50000000  0.00000000  1
  As  As2  1  0.40335724  0.56120215  0.80671448  1
  As  As3  1  0.59664276  0.43879785  0.19328552  1
  As  As4  1  0.90335724  0.24551233  0.80671448  1
  As  As5  1  0.09664276  0.75448767  0.19328552  1
  Rb  Rb6  1  0.64372225  0.97729116  0.28744450  1
  Rb  Rb7  1  0.35627775  0.02270884  0.71255550  1
  Rb  Rb8  1  0.85627775  0.68984666  0.71255550  1
  Rb  Rb9  1  0.14372225  0.31015334  0.28744450  1
