# generated using pymatgen
data_Tb2Ti2S2O5
_symmetry_space_group_name_H-M   'P 1'
_cell_length_a   3.80500873
_cell_length_b   3.80500873
_cell_length_c   11.83613222
_cell_angle_alpha   99.24967682
_cell_angle_beta   99.24967680
_cell_angle_gamma   90.00000007
_symmetry_Int_Tables_number   1
_chemical_formula_structural   Tb2Ti2S2O5
_chemical_formula_sum   'Tb2 Ti2 S2 O5'
_cell_volume   166.87844102
_cell_formula_units_Z   1
loop_
 _symmetry_equiv_pos_site_id
 _symmetry_equiv_pos_as_xyz
  1  'x, y, z'
loop_
 _atom_site_type_symbol
 _atom_site_label
 _atom_site_symmetry_multiplicity
 _atom_site_fract_x
 _atom_site_fract_y
 _atom_site_fract_z
 _atom_site_occupancy
  O  O0  1  0.40058285  0.90058285  0.80116569  1
  O  O1  1  0.90058285  0.40058285  0.80116569  1
  O  O2  1  0.59941715  0.09941715  0.19883431  1
  O  O3  1  0.09941715  0.59941715  0.19883431  1
  O  O4  1  0.50000000  0.50000000  0.00000000  1
  S  S5  1  0.29494491  0.29494491  0.58988981  1
  S  S6  1  0.70505509  0.70505509  0.41011019  1
  Ti  Ti7  1  0.42127030  0.42127030  0.84254059  1
  Ti  Ti8  1  0.57872970  0.57872970  0.15745941  1
  Tb  Tb9  1  0.83334622  0.83334622  0.66669244  1
  Tb  Tb10  1  0.16665378  0.16665378  0.33330756  1
