# generated using pymatgen
data_KZrCuSe3
_symmetry_space_group_name_H-M   'P 1'
_cell_length_a   3.90731598
_cell_length_b   7.72837779
_cell_length_c   10.24176777
_cell_angle_alpha   90.00000000
_cell_angle_beta   90.00000000
_cell_angle_gamma   104.64268213
_symmetry_Int_Tables_number   1
_chemical_formula_structural   KZrCuSe3
_chemical_formula_sum   'K2 Zr2 Cu2 Se6'
_cell_volume   299.22801898
_cell_formula_units_Z   2
loop_
 _symmetry_equiv_pos_site_id
 _symmetry_equiv_pos_as_xyz
  1  'x, y, z'
loop_
 _atom_site_type_symbol
 _atom_site_label
 _atom_site_symmetry_multiplicity
 _atom_site_fract_x
 _atom_site_fract_y
 _atom_site_fract_z
 _atom_site_occupancy
  K  K0  1  0.74927253  0.49854505  0.75000000  1
  K  K1  1  0.25072747  0.50145495  0.25000000  1
  Cu  Cu2  1  0.46851305  0.93702611  0.75000000  1
  Cu  Cu3  1  0.53148695  0.06297389  0.25000000  1
  Se  Se4  1  0.37759833  0.75519666  0.94592277  1
  Se  Se5  1  0.93170931  0.86341861  0.25000000  1
  Se  Se6  1  0.62240167  0.24480334  0.44592277  1
  Se  Se7  1  0.62240167  0.24480334  0.05407723  1
  Se  Se8  1  0.37759833  0.75519666  0.55407723  1
  Se  Se9  1  0.06829069  0.13658139  0.75000000  1
  Zr  Zr10  1  0.00000000  0.00000000  0.00000000  1
  Zr  Zr11  1  0.00000000  0.00000000  0.50000000  1
