# generated using pymatgen
data_Sc2CuIr
_symmetry_space_group_name_H-M   'P 1'
_cell_length_a   4.57582720
_cell_length_b   4.57581519
_cell_length_c   4.57582993
_cell_angle_alpha   59.99993498
_cell_angle_beta   59.99981643
_cell_angle_gamma   60.00001099
_symmetry_Int_Tables_number   1
_chemical_formula_structural   Sc2CuIr
_chemical_formula_sum   'Sc2 Cu1 Ir1'
_cell_volume   67.74733066
_cell_formula_units_Z   1
loop_
 _symmetry_equiv_pos_site_id
 _symmetry_equiv_pos_as_xyz
  1  'x, y, z'
loop_
 _atom_site_type_symbol
 _atom_site_label
 _atom_site_symmetry_multiplicity
 _atom_site_fract_x
 _atom_site_fract_y
 _atom_site_fract_z
 _atom_site_occupancy
  Sc  Sc0  1  0.99999698  0.99999566  0.00000069  1
  Sc  Sc1  1  0.50000237  0.50000509  0.49999717  1
  Cu  Cu2  1  0.24999884  0.24999787  0.24999848  1
  Ir  Ir3  1  0.74999981  0.74999939  0.75000165  1
