# generated using pymatgen
data_CsCuSe4
_symmetry_space_group_name_H-M   'P 1'
_cell_length_a   5.59027835
_cell_length_b   9.23335248
_cell_length_c   14.53673972
_cell_angle_alpha   90.00000000
_cell_angle_beta   90.00000000
_cell_angle_gamma   90.00000000
_symmetry_Int_Tables_number   1
_chemical_formula_structural   CsCuSe4
_chemical_formula_sum   'Cs4 Cu4 Se16'
_cell_volume   750.34304628
_cell_formula_units_Z   4
loop_
 _symmetry_equiv_pos_site_id
 _symmetry_equiv_pos_as_xyz
  1  'x, y, z'
loop_
 _atom_site_type_symbol
 _atom_site_label
 _atom_site_symmetry_multiplicity
 _atom_site_fract_x
 _atom_site_fract_y
 _atom_site_fract_z
 _atom_site_occupancy
  Cu  Cu0  1  0.96463764  0.13572729  0.94077176  1
  Cu  Cu1  1  0.53536236  0.86427271  0.44077176  1
  Cu  Cu2  1  0.03536236  0.63572729  0.55922824  1
  Cu  Cu3  1  0.46463764  0.36427271  0.05922824  1
  Se  Se4  1  0.58090216  0.41270380  0.56022143  1
  Se  Se5  1  0.91909784  0.58729620  0.06022143  1
  Se  Se6  1  0.41909784  0.91270380  0.93977857  1
  Se  Se7  1  0.08090216  0.08729620  0.43977857  1
  Se  Se8  1  0.83647772  0.37043490  0.15107010  1
  Se  Se9  1  0.33647772  0.12956510  0.84892990  1
  Se  Se10  1  0.16352228  0.87043490  0.34892990  1
  Se  Se11  1  0.66352228  0.62956510  0.65107010  1
  Se  Se12  1  0.66084021  0.11273458  0.41160340  1
  Se  Se13  1  0.16084021  0.38726542  0.58839660  1
  Se  Se14  1  0.33915979  0.61273458  0.08839660  1
  Se  Se15  1  0.83915979  0.88726542  0.91160340  1
  Se  Se16  1  0.13300669  0.20363678  0.09104265  1
  Se  Se17  1  0.63300669  0.29636322  0.90895735  1
  Se  Se18  1  0.86699331  0.70363678  0.40895735  1
  Se  Se19  1  0.36699331  0.79636322  0.59104265  1
  Cs  Cs20  1  0.68453055  0.93759598  0.17184077  1
  Cs  Cs21  1  0.18453055  0.56240402  0.82815923  1
  Cs  Cs22  1  0.31546945  0.43759598  0.32815923  1
  Cs  Cs23  1  0.81546945  0.06240402  0.67184077  1
