# generated using pymatgen
data_LiTb2Ir
_symmetry_space_group_name_H-M   'P 1'
_cell_length_a   4.95104734
_cell_length_b   4.95104734
_cell_length_c   4.95104734
_cell_angle_alpha   59.91281174
_cell_angle_beta   59.91281174
_cell_angle_gamma   59.91281174
_symmetry_Int_Tables_number   1
_chemical_formula_structural   LiTb2Ir
_chemical_formula_sum   'Li1 Tb2 Ir1'
_cell_volume   85.64784031
_cell_formula_units_Z   1
loop_
 _symmetry_equiv_pos_site_id
 _symmetry_equiv_pos_as_xyz
  1  'x, y, z'
loop_
 _atom_site_type_symbol
 _atom_site_label
 _atom_site_symmetry_multiplicity
 _atom_site_fract_x
 _atom_site_fract_y
 _atom_site_fract_z
 _atom_site_occupancy
  Tb  Tb0  1  -0.00010415  -0.00010415  -0.00010415  1
  Tb  Tb1  1  0.50010351  0.50010351  0.50010351  1
  Li  Li2  1  0.74999989  0.74999989  0.74999989  1
  Ir  Ir3  1  0.25000074  0.25000074  0.25000074  1
