# generated using pymatgen
data_HfInPd2
_symmetry_space_group_name_H-M   'P 1'
_cell_length_a   4.66596761
_cell_length_b   4.66231076
_cell_length_c   4.66146722
_cell_angle_alpha   60.08380248
_cell_angle_beta   60.05203019
_cell_angle_gamma   60.03550125
_symmetry_Int_Tables_number   1
_chemical_formula_structural   HfInPd2
_chemical_formula_sum   'Hf1 In1 Pd2'
_cell_volume   71.79797527
_cell_formula_units_Z   1
loop_
 _symmetry_equiv_pos_site_id
 _symmetry_equiv_pos_as_xyz
  1  'x, y, z'
loop_
 _atom_site_type_symbol
 _atom_site_label
 _atom_site_symmetry_multiplicity
 _atom_site_fract_x
 _atom_site_fract_y
 _atom_site_fract_z
 _atom_site_occupancy
  Hf  Hf0  1  0.25001241  0.24997225  0.24993882  1
  In  In1  1  0.75001667  0.75000644  0.74998580  1
  Pd  Pd2  1  0.99987792  0.00009594  0.00001429  1
  Pd  Pd3  1  0.50009401  0.49992637  0.50006209  1
