# generated using pymatgen
data_PrSi2Ag
_symmetry_space_group_name_H-M   'P 1'
_cell_length_a   4.24979054
_cell_length_b   4.28901841
_cell_length_c   9.07992871
_cell_angle_alpha   103.66126557
_cell_angle_beta   90.00000000
_cell_angle_gamma   90.00000000
_symmetry_Int_Tables_number   1
_chemical_formula_structural   PrSi2Ag
_chemical_formula_sum   'Pr2 Si4 Ag2'
_cell_volume   160.82149864
_cell_formula_units_Z   2
loop_
 _symmetry_equiv_pos_site_id
 _symmetry_equiv_pos_as_xyz
  1  'x, y, z'
loop_
 _atom_site_type_symbol
 _atom_site_label
 _atom_site_symmetry_multiplicity
 _atom_site_fract_x
 _atom_site_fract_y
 _atom_site_fract_z
 _atom_site_occupancy
  Pr  Pr0  1  0.25000000  0.40298795  0.80597589  1
  Pr  Pr1  1  0.75000000  0.59701205  0.19402411  1
  Si  Si2  1  0.25000000  0.03253267  0.06506534  1
  Si  Si3  1  0.75000000  0.96746733  0.93493466  1
  Si  Si4  1  0.25000000  0.16468411  0.32936821  1
  Si  Si5  1  0.75000000  0.83531589  0.67063179  1
  Ag  Ag6  1  0.25000000  0.74835424  0.49670848  1
  Ag  Ag7  1  0.75000000  0.25164576  0.50329152  1
