# generated using pymatgen
data_Hf2FeOs
_symmetry_space_group_name_H-M   'P 1'
_cell_length_a   4.53898425
_cell_length_b   4.53898227
_cell_length_c   4.53898179
_cell_angle_alpha   60.00002458
_cell_angle_beta   60.00002680
_cell_angle_gamma   60.00006220
_symmetry_Int_Tables_number   1
_chemical_formula_structural   Hf2FeOs
_chemical_formula_sum   'Hf2 Fe1 Os1'
_cell_volume   66.12428315
_cell_formula_units_Z   1
loop_
 _symmetry_equiv_pos_site_id
 _symmetry_equiv_pos_as_xyz
  1  'x, y, z'
loop_
 _atom_site_type_symbol
 _atom_site_label
 _atom_site_symmetry_multiplicity
 _atom_site_fract_x
 _atom_site_fract_y
 _atom_site_fract_z
 _atom_site_occupancy
  Hf  Hf0  1  0.00000034  -0.00000018  0.99999981  1
  Hf  Hf1  1  0.50000110  0.50000057  0.50000070  1
  Fe  Fe2  1  0.24999838  0.24999969  0.24999969  1
  Os  Os3  1  0.75000018  0.74999992  0.74999980  1
