# generated using pymatgen
data_Hf2MoIr
_symmetry_space_group_name_H-M   'P 1'
_cell_length_a   4.64336043
_cell_length_b   4.64335083
_cell_length_c   4.64335280
_cell_angle_alpha   60.00004776
_cell_angle_beta   59.99998448
_cell_angle_gamma   59.99999013
_symmetry_Int_Tables_number   1
_chemical_formula_structural   Hf2MoIr
_chemical_formula_sum   'Hf2 Mo1 Ir1'
_cell_volume   70.79142464
_cell_formula_units_Z   1
loop_
 _symmetry_equiv_pos_site_id
 _symmetry_equiv_pos_as_xyz
  1  'x, y, z'
loop_
 _atom_site_type_symbol
 _atom_site_label
 _atom_site_symmetry_multiplicity
 _atom_site_fract_x
 _atom_site_fract_y
 _atom_site_fract_z
 _atom_site_occupancy
  Hf  Hf0  1  0.00000043  0.99999991  -0.00000005  1
  Hf  Hf1  1  0.50000029  0.50000081  0.50000058  1
  Mo  Mo2  1  0.74999955  0.74999920  0.74999934  1
  Ir  Ir3  1  0.24999972  0.25000008  0.25000014  1
