# generated using pymatgen
data_Pr2TlCd
_symmetry_space_group_name_H-M   'P 1'
_cell_length_a   5.54502919
_cell_length_b   5.54503305
_cell_length_c   5.54503077
_cell_angle_alpha   60.00000342
_cell_angle_beta   60.00001818
_cell_angle_gamma   59.99993875
_symmetry_Int_Tables_number   1
_chemical_formula_structural   Pr2TlCd
_chemical_formula_sum   'Pr2 Tl1 Cd1'
_cell_volume   120.55821495
_cell_formula_units_Z   1
loop_
 _symmetry_equiv_pos_site_id
 _symmetry_equiv_pos_as_xyz
  1  'x, y, z'
loop_
 _atom_site_type_symbol
 _atom_site_label
 _atom_site_symmetry_multiplicity
 _atom_site_fract_x
 _atom_site_fract_y
 _atom_site_fract_z
 _atom_site_occupancy
  Pr  Pr0  1  0.00000005  0.00000003  0.99999998  1
  Pr  Pr1  1  0.50000079  0.50000083  0.50000092  1
  Tl  Tl2  1  0.74999912  0.74999917  0.74999912  1
  Cd  Cd3  1  0.25000004  0.24999997  0.24999999  1
