# generated using pymatgen
data_AcPbAu2
_symmetry_space_group_name_H-M   'P 1'
_cell_length_a   5.32293704
_cell_length_b   5.32293809
_cell_length_c   5.32293793
_cell_angle_alpha   59.99998493
_cell_angle_beta   59.99998796
_cell_angle_gamma   60.00000848
_symmetry_Int_Tables_number   1
_chemical_formula_structural   AcPbAu2
_chemical_formula_sum   'Ac1 Pb1 Au2'
_cell_volume   106.64465339
_cell_formula_units_Z   1
loop_
 _symmetry_equiv_pos_site_id
 _symmetry_equiv_pos_as_xyz
  1  'x, y, z'
loop_
 _atom_site_type_symbol
 _atom_site_label
 _atom_site_symmetry_multiplicity
 _atom_site_fract_x
 _atom_site_fract_y
 _atom_site_fract_z
 _atom_site_occupancy
  Ac  Ac0  1  0.24999993  0.24999995  0.25000008  1
  Pb  Pb1  1  0.75000005  0.75000007  0.74999999  1
  Au  Au2  1  0.50000005  0.50000004  0.49999989  1
  Au  Au3  1  0.99999997  0.99999994  0.00000004  1
