# generated using pymatgen
data_Ca6In2NF
_symmetry_space_group_name_H-M   'P 1'
_cell_length_a   7.04346485
_cell_length_b   7.04346382
_cell_length_c   7.04346427
_cell_angle_alpha   60.00001199
_cell_angle_beta   60.00002793
_cell_angle_gamma   59.99990841
_symmetry_Int_Tables_number   1
_chemical_formula_structural   Ca6In2NF
_chemical_formula_sum   'Ca6 In2 N1 F1'
_cell_volume   247.08352468
_cell_formula_units_Z   1
loop_
 _symmetry_equiv_pos_site_id
 _symmetry_equiv_pos_as_xyz
  1  'x, y, z'
loop_
 _atom_site_type_symbol
 _atom_site_label
 _atom_site_symmetry_multiplicity
 _atom_site_fract_x
 _atom_site_fract_y
 _atom_site_fract_z
 _atom_site_occupancy
  Ca  Ca0  1  0.23998735  0.76001254  0.76001256  1
  Ca  Ca1  1  0.23998736  0.76001273  0.23998724  1
  Ca  Ca2  1  0.76001291  0.23998690  0.76001286  1
  Ca  Ca3  1  0.76001265  0.76001235  0.23998757  1
  Ca  Ca4  1  0.23998727  0.23998793  0.76001254  1
  Ca  Ca5  1  0.76001247  0.23998765  0.23998726  1
  In  In6  1  0.24999990  0.24999998  0.25000009  1
  In  In7  1  0.75000001  0.74999989  0.74999993  1
  N  N8  1  0.00000009  0.00000012  0.99999998  1
  F  F9  1  0.49999998  0.49999990  0.49999997  1
