# generated using pymatgen
data_NaAcTl2
_symmetry_space_group_name_H-M   'P 1'
_cell_length_a   5.66462693
_cell_length_b   5.66462641
_cell_length_c   5.66462785
_cell_angle_alpha   59.99994186
_cell_angle_beta   59.99993616
_cell_angle_gamma   59.99996887
_symmetry_Int_Tables_number   1
_chemical_formula_structural   NaAcTl2
_chemical_formula_sum   'Na1 Ac1 Tl2'
_cell_volume   128.52821260
_cell_formula_units_Z   1
loop_
 _symmetry_equiv_pos_site_id
 _symmetry_equiv_pos_as_xyz
  1  'x, y, z'
loop_
 _atom_site_type_symbol
 _atom_site_label
 _atom_site_symmetry_multiplicity
 _atom_site_fract_x
 _atom_site_fract_y
 _atom_site_fract_z
 _atom_site_occupancy
  Na  Na0  1  0.75000100  0.75000103  0.75000099  1
  Ac  Ac1  1  0.25000009  0.24999998  0.25000029  1
  Tl  Tl2  1  0.00000002  0.00000005  0.99999990  1
  Tl  Tl3  1  0.50000089  0.50000094  0.50000082  1
