# generated using pymatgen
data_TlNO3
_symmetry_space_group_name_H-M   'P 1'
_cell_length_a   6.40636742
_cell_length_b   8.18021455
_cell_length_c   12.49699699
_cell_angle_alpha   90.00000000
_cell_angle_beta   90.00000000
_cell_angle_gamma   90.00000000
_symmetry_Int_Tables_number   1
_chemical_formula_structural   TlNO3
_chemical_formula_sum   'Tl8 N8 O24'
_cell_volume   654.91087565
_cell_formula_units_Z   8
loop_
 _symmetry_equiv_pos_site_id
 _symmetry_equiv_pos_as_xyz
  1  'x, y, z'
loop_
 _atom_site_type_symbol
 _atom_site_label
 _atom_site_symmetry_multiplicity
 _atom_site_fract_x
 _atom_site_fract_y
 _atom_site_fract_z
 _atom_site_occupancy
  N  N0  1  0.66652384  0.25000000  0.13593189  1
  N  N1  1  0.16652384  0.75000000  0.36406811  1
  N  N2  1  0.33347616  0.75000000  0.86406811  1
  N  N3  1  0.83347616  0.25000000  0.63593189  1
  N  N4  1  0.73131205  0.75000000  0.10939294  1
  N  N5  1  0.23131205  0.25000000  0.39060706  1
  N  N6  1  0.26868795  0.25000000  0.89060706  1
  N  N7  1  0.76868795  0.75000000  0.60939294  1
  O  O8  1  0.65255916  0.25000000  0.67608309  1
  O  O9  1  0.15255916  0.75000000  0.82391691  1
  O  O10  1  0.34744084  0.75000000  0.32391691  1
  O  O11  1  0.84744084  0.25000000  0.17608309  1
  O  O12  1  0.86361531  0.25000000  0.53622086  1
  O  O13  1  0.36361531  0.75000000  0.96377914  1
  O  O14  1  0.13638469  0.75000000  0.46377914  1
  O  O15  1  0.63638469  0.25000000  0.03622086  1
  O  O16  1  0.83757738  0.88491310  0.64345724  1
  O  O17  1  0.33757738  0.11508690  0.85654276  1
  O  O18  1  0.16242262  0.38491310  0.35654276  1
  O  O19  1  0.66242262  0.61508690  0.14345724  1
  O  O20  1  0.16242262  0.11508690  0.35654276  1
  O  O21  1  0.66242262  0.88491310  0.14345724  1
  O  O22  1  0.83757738  0.61508690  0.64345724  1
  O  O23  1  0.33757738  0.38491310  0.85654276  1
  O  O24  1  0.62330581  0.75000000  0.53837613  1
  O  O25  1  0.12330581  0.25000000  0.96162387  1
  O  O26  1  0.37669419  0.25000000  0.46162387  1
  O  O27  1  0.87669419  0.75000000  0.03837613  1
  O  O28  1  0.99189901  0.25000000  0.69934571  1
  O  O29  1  0.49189901  0.75000000  0.80065429  1
  O  O30  1  0.00810099  0.75000000  0.30065429  1
  O  O31  1  0.50810099  0.25000000  0.19934571  1
  Tl  Tl32  1  0.29321601  0.99618223  0.62772663  1
  Tl  Tl33  1  0.79321601  0.00381777  0.87227337  1
  Tl  Tl34  1  0.70678399  0.49618223  0.37227337  1
  Tl  Tl35  1  0.20678399  0.50381777  0.12772663  1
  Tl  Tl36  1  0.70678399  0.00381777  0.37227337  1
  Tl  Tl37  1  0.20678399  0.99618223  0.12772663  1
  Tl  Tl38  1  0.29321601  0.50381777  0.62772663  1
  Tl  Tl39  1  0.79321601  0.49618223  0.87227337  1
