# generated using pymatgen
data_SmSi2Rh
_symmetry_space_group_name_H-M   'P 1'
_cell_length_a   4.19676640
_cell_length_b   4.21276452
_cell_length_c   8.61762689
_cell_angle_alpha   104.14798453
_cell_angle_beta   90.00000000
_cell_angle_gamma   90.00000000
_symmetry_Int_Tables_number   1
_chemical_formula_structural   SmSi2Rh
_chemical_formula_sum   'Sm2 Si4 Rh2'
_cell_volume   147.73812212
_cell_formula_units_Z   2
loop_
 _symmetry_equiv_pos_site_id
 _symmetry_equiv_pos_as_xyz
  1  'x, y, z'
loop_
 _atom_site_type_symbol
 _atom_site_label
 _atom_site_symmetry_multiplicity
 _atom_site_fract_x
 _atom_site_fract_y
 _atom_site_fract_z
 _atom_site_occupancy
  Sm  Sm0  1  0.25000000  0.39565635  0.79131269  1
  Sm  Sm1  1  0.75000000  0.60434365  0.20868731  1
  Si  Si2  1  0.25000000  0.03837704  0.07675409  1
  Si  Si3  1  0.75000000  0.96162296  0.92324591  1
  Si  Si4  1  0.25000000  0.75047923  0.50095846  1
  Si  Si5  1  0.75000000  0.24952077  0.49904154  1
  Rh  Rh6  1  0.25000000  0.17915296  0.35830592  1
  Rh  Rh7  1  0.75000000  0.82084704  0.64169408  1
