# generated using pymatgen
data_PdF4
_symmetry_space_group_name_H-M   'P 1'
_cell_length_a   5.58209415
_cell_length_b   5.58209415
_cell_length_c   5.64944042
_cell_angle_alpha   106.86743859
_cell_angle_beta   106.86743856
_cell_angle_gamma   114.37341818
_symmetry_Int_Tables_number   1
_chemical_formula_structural   PdF4
_chemical_formula_sum   'Pd2 F8'
_cell_volume   135.42377487
_cell_formula_units_Z   2
loop_
 _symmetry_equiv_pos_site_id
 _symmetry_equiv_pos_as_xyz
  1  'x, y, z'
loop_
 _atom_site_type_symbol
 _atom_site_label
 _atom_site_symmetry_multiplicity
 _atom_site_fract_x
 _atom_site_fract_y
 _atom_site_fract_z
 _atom_site_occupancy
  F  F0  1  0.97932943  0.75971885  0.18887830  1
  F  F1  1  0.57084055  0.79045113  0.81112170  1
  F  F2  1  0.00945897  0.29073278  0.31156751  1
  F  F3  1  0.97916527  0.69789146  0.68843249  1
  F  F4  1  0.04073278  0.25945897  0.81156751  1
  F  F5  1  0.44789146  0.22916527  0.18843249  1
  F  F6  1  0.54045113  0.82084055  0.31112170  1
  F  F7  1  0.50971885  0.22932943  0.68887830  1
  Pd  Pd8  1  0.73820578  0.23820578  0.50000000  1
  Pd  Pd9  1  0.98820578  0.98820578  1.00000000  1
