# generated using pymatgen
data_TiFe2Ge
_symmetry_space_group_name_H-M   'P 1'
_cell_length_a   4.09420250
_cell_length_b   4.09411091
_cell_length_c   4.09414886
_cell_angle_alpha   59.99355815
_cell_angle_beta   59.99143014
_cell_angle_gamma   59.99212195
_symmetry_Int_Tables_number   1
_chemical_formula_structural   TiFe2Ge
_chemical_formula_sum   'Ti1 Fe2 Ge1'
_cell_volume   48.51794703
_cell_formula_units_Z   1
loop_
 _symmetry_equiv_pos_site_id
 _symmetry_equiv_pos_as_xyz
  1  'x, y, z'
loop_
 _atom_site_type_symbol
 _atom_site_label
 _atom_site_symmetry_multiplicity
 _atom_site_fract_x
 _atom_site_fract_y
 _atom_site_fract_z
 _atom_site_occupancy
  Ti  Ti0  1  0.74999722  0.74999971  0.74999621  1
  Fe  Fe1  1  0.99998992  0.99999509  0.99998482  1
  Fe  Fe2  1  0.50001334  0.50000816  0.50001528  1
  Ge  Ge3  1  0.24999952  0.24999704  0.25000369  1
