# generated using pymatgen
data_LiY2Al
_symmetry_space_group_name_H-M   'P 1'
_cell_length_a   5.17150345
_cell_length_b   5.17149781
_cell_length_c   5.17150473
_cell_angle_alpha   59.99993197
_cell_angle_beta   59.99997214
_cell_angle_gamma   59.99997539
_symmetry_Int_Tables_number   1
_chemical_formula_structural   LiY2Al
_chemical_formula_sum   'Li1 Y2 Al1'
_cell_volume   97.79906359
_cell_formula_units_Z   1
loop_
 _symmetry_equiv_pos_site_id
 _symmetry_equiv_pos_as_xyz
  1  'x, y, z'
loop_
 _atom_site_type_symbol
 _atom_site_label
 _atom_site_symmetry_multiplicity
 _atom_site_fract_x
 _atom_site_fract_y
 _atom_site_fract_z
 _atom_site_occupancy
  Li  Li0  1  0.75000005  0.74999994  0.75000010  1
  Y  Y1  1  0.00000006  0.00000000  -0.00000002  1
  Y  Y2  1  0.49999981  0.50000013  0.49999996  1
  Al  Al3  1  0.25000008  0.24999993  0.24999997  1
