# generated using pymatgen
data_Mg2SiO4
_symmetry_space_group_name_H-M   'P 1'
_cell_length_a   4.80284011
_cell_length_b   6.04789316
_cell_length_c   10.32335500
_cell_angle_alpha   90.00000000
_cell_angle_beta   90.00000000
_cell_angle_gamma   90.00000000
_symmetry_Int_Tables_number   1
_chemical_formula_structural   Mg2SiO4
_chemical_formula_sum   'Mg8 Si4 O16'
_cell_volume   299.86315183
_cell_formula_units_Z   4
loop_
 _symmetry_equiv_pos_site_id
 _symmetry_equiv_pos_as_xyz
  1  'x, y, z'
loop_
 _atom_site_type_symbol
 _atom_site_label
 _atom_site_symmetry_multiplicity
 _atom_site_fract_x
 _atom_site_fract_y
 _atom_site_fract_z
 _atom_site_occupancy
  O  O0  1  0.27694588  0.46698643  0.83716514  1
  O  O1  1  0.77694588  0.53301357  0.66283486  1
  O  O2  1  0.72305412  0.96698643  0.16283486  1
  O  O3  1  0.22305412  0.03301357  0.33716514  1
  O  O4  1  0.72305412  0.53301357  0.16283486  1
  O  O5  1  0.22305412  0.46698643  0.33716514  1
  O  O6  1  0.27694588  0.03301357  0.83716514  1
  O  O7  1  0.77694588  0.96698643  0.66283486  1
  O  O8  1  0.77785123  0.75000000  0.44678168  1
  O  O9  1  0.27785123  0.25000000  0.05321832  1
  O  O10  1  0.22214877  0.25000000  0.55321832  1
  O  O11  1  0.72214877  0.75000000  0.94678168  1
  O  O12  1  0.26596148  0.75000000  0.59167662  1
  O  O13  1  0.76596148  0.25000000  0.90832338  1
  O  O14  1  0.73403852  0.25000000  0.40832338  1
  O  O15  1  0.23403852  0.75000000  0.09167662  1
  Mg  Mg16  1  0.00000000  0.00000000  0.00000000  1
  Mg  Mg17  1  0.50000000  0.00000000  0.50000000  1
  Mg  Mg18  1  0.00000000  0.50000000  0.00000000  1
  Mg  Mg19  1  0.50000000  0.50000000  0.50000000  1
  Mg  Mg20  1  0.00837501  0.75000000  0.27726435  1
  Mg  Mg21  1  0.50837501  0.25000000  0.22273565  1
  Mg  Mg22  1  0.99162499  0.25000000  0.72273565  1
  Mg  Mg23  1  0.49162499  0.75000000  0.77726435  1
  Si  Si24  1  0.92597431  0.75000000  0.59363761  1
  Si  Si25  1  0.42597431  0.25000000  0.90636239  1
  Si  Si26  1  0.07402569  0.25000000  0.40636239  1
  Si  Si27  1  0.57402569  0.75000000  0.09363761  1
