# generated using pymatgen
data_Cu3PSe4
_symmetry_space_group_name_H-M   'P 1'
_cell_length_a   6.43070181
_cell_length_b   6.72931781
_cell_length_c   7.75337327
_cell_angle_alpha   90.00000000
_cell_angle_beta   90.00000000
_cell_angle_gamma   90.00000000
_symmetry_Int_Tables_number   1
_chemical_formula_structural   Cu3PSe4
_chemical_formula_sum   'Cu6 P2 Se8'
_cell_volume   335.52130639
_cell_formula_units_Z   2
loop_
 _symmetry_equiv_pos_site_id
 _symmetry_equiv_pos_as_xyz
  1  'x, y, z'
loop_
 _atom_site_type_symbol
 _atom_site_label
 _atom_site_symmetry_multiplicity
 _atom_site_fract_x
 _atom_site_fract_y
 _atom_site_fract_z
 _atom_site_occupancy
  P  P0  1  0.49985761  0.67198730  0.00000000  1
  P  P1  1  0.99985761  0.32801270  0.50000000  1
  Cu  Cu2  1  0.00926136  0.82350376  0.74608346  1
  Cu  Cu3  1  0.50926136  0.17649624  0.75391654  1
  Cu  Cu4  1  0.50926136  0.17649624  0.24608346  1
  Cu  Cu5  1  0.00926136  0.82350376  0.25391654  1
  Cu  Cu6  1  0.99709018  0.34652659  0.00000000  1
  Cu  Cu7  1  0.49709018  0.65347341  0.50000000  1
  Se  Se8  1  0.35825870  0.32059810  0.50000000  1
  Se  Se9  1  0.85825870  0.67940190  0.00000000  1
  Se  Se10  1  0.87474045  0.64670113  0.50000000  1
  Se  Se11  1  0.37474045  0.35329887  0.00000000  1
  Se  Se12  1  0.38240517  0.83660262  0.75667837  1
  Se  Se13  1  0.88240517  0.16339738  0.74332163  1
  Se  Se14  1  0.88240517  0.16339738  0.25667837  1
  Se  Se15  1  0.38240517  0.83660262  0.24332163  1
