# generated using pymatgen
data_SmCu4Ag
_symmetry_space_group_name_H-M   'P 1'
_cell_length_a   5.10084397
_cell_length_b   5.10084397
_cell_length_c   5.10084397
_cell_angle_alpha   120.00000000
_cell_angle_beta   90.00000000
_cell_angle_gamma   120.00000000
_symmetry_Int_Tables_number   1
_chemical_formula_structural   SmCu4Ag
_chemical_formula_sum   'Sm1 Cu4 Ag1'
_cell_volume   93.84499576
_cell_formula_units_Z   1
loop_
 _symmetry_equiv_pos_site_id
 _symmetry_equiv_pos_as_xyz
  1  'x, y, z'
loop_
 _atom_site_type_symbol
 _atom_site_label
 _atom_site_symmetry_multiplicity
 _atom_site_fract_x
 _atom_site_fract_y
 _atom_site_fract_z
 _atom_site_occupancy
  Sm  Sm0  1  0.00000000  0.00000000  0.00000000  1
  Cu  Cu1  1  0.37618766  0.75237532  0.12856399  1
  Cu  Cu2  1  0.37618766  0.24762368  0.62381134  1
  Cu  Cu3  1  0.37618766  0.75237532  0.62381134  1
  Cu  Cu4  1  0.87143601  0.24762368  0.62381234  1
  Ag  Ag5  1  0.74999900  0.49999900  0.25000000  1
