# generated using pymatgen
data_SmPt
_symmetry_space_group_name_H-M   'P 1'
_cell_length_a   4.59087205
_cell_length_b   7.25311884
_cell_length_c   5.65514663
_cell_angle_alpha   90.00000000
_cell_angle_beta   90.00000000
_cell_angle_gamma   90.00000000
_symmetry_Int_Tables_number   1
_chemical_formula_structural   SmPt
_chemical_formula_sum   'Sm4 Pt4'
_cell_volume   188.30586736
_cell_formula_units_Z   4
loop_
 _symmetry_equiv_pos_site_id
 _symmetry_equiv_pos_as_xyz
  1  'x, y, z'
loop_
 _atom_site_type_symbol
 _atom_site_label
 _atom_site_symmetry_multiplicity
 _atom_site_fract_x
 _atom_site_fract_y
 _atom_site_fract_z
 _atom_site_occupancy
  Sm  Sm0  1  0.75000000  0.81746792  0.36251568  1
  Sm  Sm1  1  0.25000000  0.18253208  0.63748432  1
  Sm  Sm2  1  0.25000000  0.68253208  0.86251568  1
  Sm  Sm3  1  0.75000000  0.31746792  0.13748432  1
  Pt  Pt4  1  0.75000000  0.95573704  0.84790380  1
  Pt  Pt5  1  0.25000000  0.04426296  0.15209620  1
  Pt  Pt6  1  0.25000000  0.54426296  0.34790380  1
  Pt  Pt7  1  0.75000000  0.45573704  0.65209620  1
