# generated using pymatgen
data_ThInAu2
_symmetry_space_group_name_H-M   'P 1'
_cell_length_a   5.07943633
_cell_length_b   5.07944108
_cell_length_c   5.07943853
_cell_angle_alpha   60.00000089
_cell_angle_beta   60.00011356
_cell_angle_gamma   59.99990812
_symmetry_Int_Tables_number   1
_chemical_formula_structural   ThInAu2
_chemical_formula_sum   'Th1 In1 Au2'
_cell_volume   92.66852133
_cell_formula_units_Z   1
loop_
 _symmetry_equiv_pos_site_id
 _symmetry_equiv_pos_as_xyz
  1  'x, y, z'
loop_
 _atom_site_type_symbol
 _atom_site_label
 _atom_site_symmetry_multiplicity
 _atom_site_fract_x
 _atom_site_fract_y
 _atom_site_fract_z
 _atom_site_occupancy
  Th  Th0  1  0.50000010  0.49999950  0.50000012  1
  In  In1  1  0.99999999  0.00000034  -0.00000009  1
  Au  Au2  1  0.25000005  0.24999997  0.24999997  1
  Au  Au3  1  0.74999985  0.75000020  0.75000000  1
