# generated using pymatgen
data_CeTlAu2
_symmetry_space_group_name_H-M   'P 1'
_cell_length_a   5.11228848
_cell_length_b   5.11228547
_cell_length_c   5.11228599
_cell_angle_alpha   60.00048179
_cell_angle_beta   60.00044848
_cell_angle_gamma   60.00069839
_symmetry_Int_Tables_number   1
_chemical_formula_structural   CeTlAu2
_chemical_formula_sum   'Ce1 Tl1 Au2'
_cell_volume   94.47914130
_cell_formula_units_Z   1
loop_
 _symmetry_equiv_pos_site_id
 _symmetry_equiv_pos_as_xyz
  1  'x, y, z'
loop_
 _atom_site_type_symbol
 _atom_site_label
 _atom_site_symmetry_multiplicity
 _atom_site_fract_x
 _atom_site_fract_y
 _atom_site_fract_z
 _atom_site_occupancy
  Ce  Ce0  1  0.25000053  0.25000010  0.25000139  1
  Tl  Tl1  1  0.75000002  0.75000022  0.74999972  1
  Au  Au2  1  0.00000006  0.00000033  -0.00000015  1
  Au  Au3  1  0.49999939  0.49999936  0.49999904  1
