# generated using pymatgen
data_Cs2CO3
_symmetry_space_group_name_H-M   'P 1'
_cell_length_a   6.26332450
_cell_length_b   8.09278919
_cell_length_c   10.60089059
_cell_angle_alpha   90.00000000
_cell_angle_beta   90.00000000
_cell_angle_gamma   96.24116386
_symmetry_Int_Tables_number   1
_chemical_formula_structural   Cs2CO3
_chemical_formula_sum   'Cs8 C4 O12'
_cell_volume   534.15072391
_cell_formula_units_Z   4
loop_
 _symmetry_equiv_pos_site_id
 _symmetry_equiv_pos_as_xyz
  1  'x, y, z'
loop_
 _atom_site_type_symbol
 _atom_site_label
 _atom_site_symmetry_multiplicity
 _atom_site_fract_x
 _atom_site_fract_y
 _atom_site_fract_z
 _atom_site_occupancy
  Cs  Cs0  1  0.75533824  0.81898423  0.91640803  1
  Cs  Cs1  1  0.24466176  0.68101577  0.41640803  1
  Cs  Cs2  1  0.24466176  0.18101577  0.08359197  1
  Cs  Cs3  1  0.75533824  0.31898423  0.58359197  1
  Cs  Cs4  1  0.74152328  0.98078619  0.28155729  1
  Cs  Cs5  1  0.25847672  0.51921381  0.78155729  1
  Cs  Cs6  1  0.25847672  0.01921381  0.71844271  1
  Cs  Cs7  1  0.74152328  0.48078619  0.21844271  1
  C  C8  1  0.75677589  0.74214566  0.58064754  1
  C  C9  1  0.75677589  0.24214566  0.91935246  1
  C  C10  1  0.24322411  0.25785434  0.41935246  1
  C  C11  1  0.24322411  0.75785434  0.08064754  1
  O  O12  1  0.92730565  0.22194276  0.85174099  1
  O  O13  1  0.07269435  0.27805724  0.35174099  1
  O  O14  1  0.07269435  0.77805724  0.14825901  1
  O  O15  1  0.92730565  0.72194276  0.64825901  1
  O  O16  1  0.59905999  0.31438205  0.87104535  1
  O  O17  1  0.59905999  0.81438205  0.62895465  1
  O  O18  1  0.40094001  0.68561795  0.12895465  1
  O  O19  1  0.40094001  0.18561795  0.37104535  1
  O  O20  1  0.74479614  0.68737726  0.46415076  1
  O  O21  1  0.25520386  0.81262274  0.96415076  1
  O  O22  1  0.25520386  0.31262274  0.53584924  1
  O  O23  1  0.74479614  0.18737726  0.03584924  1
