# generated using pymatgen
data_Ca5Al2(SiN4)2
_symmetry_space_group_name_H-M   'P 1'
_cell_length_a   9.29502987
_cell_length_b   6.17776641
_cell_length_c   15.56467290
_cell_angle_alpha   90.00000000
_cell_angle_beta   90.00000000
_cell_angle_gamma   90.00000000
_symmetry_Int_Tables_number   1
_chemical_formula_structural   Ca5Al2(SiN4)2
_chemical_formula_sum   'Ca20 Al8 Si8 N32'
_cell_volume   893.76279243
_cell_formula_units_Z   4
loop_
 _symmetry_equiv_pos_site_id
 _symmetry_equiv_pos_as_xyz
  1  'x, y, z'
loop_
 _atom_site_type_symbol
 _atom_site_label
 _atom_site_symmetry_multiplicity
 _atom_site_fract_x
 _atom_site_fract_y
 _atom_site_fract_z
 _atom_site_occupancy
  Ca  Ca0  1  0.30178261  0.17112132  0.10401107  1
  Ca  Ca1  1  0.19821739  0.32887868  0.60401107  1
  Ca  Ca2  1  0.80178261  0.32887868  0.89598893  1
  Ca  Ca3  1  0.69821739  0.17112132  0.39598893  1
  Ca  Ca4  1  0.69821739  0.82887868  0.89598893  1
  Ca  Ca5  1  0.80178261  0.67112132  0.39598893  1
  Ca  Ca6  1  0.19821739  0.67112132  0.10401107  1
  Ca  Ca7  1  0.30178261  0.82887868  0.60401107  1
  Ca  Ca8  1  0.00000000  0.36528573  0.25000000  1
  Ca  Ca9  1  0.50000000  0.13471627  0.75000000  1
  Ca  Ca10  1  0.00000000  0.63471527  0.75000000  1
  Ca  Ca11  1  0.50000000  0.86528573  0.25000000  1
  Ca  Ca12  1  0.35905448  0.12599063  0.42531084  1
  Ca  Ca13  1  0.14094552  0.37401037  0.92531084  1
  Ca  Ca14  1  0.85905448  0.37401037  0.57468916  1
  Ca  Ca15  1  0.64094652  0.12599063  0.07468916  1
  Ca  Ca16  1  0.64094652  0.87401037  0.57468916  1
  Ca  Ca17  1  0.85905448  0.62599063  0.07468916  1
  Ca  Ca18  1  0.14094552  0.62599063  0.42531084  1
  Ca  Ca19  1  0.35905448  0.87401037  0.92531084  1
  Al  Al20  1  0.35480115  0.41141113  0.26347670  1
  Al  Al21  1  0.14519885  0.08858687  0.76347670  1
  Al  Al22  1  0.85480115  0.08858687  0.73652330  1
  Al  Al23  1  0.64519885  0.41141113  0.23652330  1
  Al  Al24  1  0.64519885  0.58858687  0.73652330  1
  Al  Al25  1  0.85480115  0.91141113  0.23652330  1
  Al  Al26  1  0.14519885  0.91141113  0.26347670  1
  Al  Al27  1  0.35480115  0.58858687  0.76347670  1
  Si  Si28  1  0.00640555  0.09469096  0.07055014  1
  Si  Si29  1  0.49359445  0.40531104  0.57054914  1
  Si  Si30  1  0.50640655  0.40531104  0.92944986  1
  Si  Si31  1  0.99359345  0.09469096  0.42944986  1
  Si  Si32  1  0.99359345  0.90531004  0.92944986  1
  Si  Si33  1  0.50640655  0.59468896  0.42944986  1
  Si  Si34  1  0.49359445  0.59468896  0.07055014  1
  Si  Si35  1  0.00640555  0.90531004  0.57054914  1
  N  N36  1  0.04695710  0.36089311  0.09056307  1
  N  N37  1  0.45304390  0.13910789  0.59056307  1
  N  N38  1  0.54695710  0.13910789  0.90943693  1
  N  N39  1  0.95304290  0.36089311  0.40943693  1
  N  N40  1  0.95304290  0.63910789  0.90943693  1
  N  N41  1  0.54695710  0.86089211  0.40943693  1
  N  N42  1  0.45304390  0.86089211  0.09056307  1
  N  N43  1  0.04695710  0.63910789  0.59056307  1
  N  N44  1  0.14093046  0.01359016  0.49457442  1
  N  N45  1  0.35906954  0.48640784  0.99457342  1
  N  N46  1  0.64093046  0.48640784  0.50542558  1
  N  N47  1  0.85906954  0.01359016  0.00542558  1
  N  N48  1  0.85906954  0.98640784  0.50542558  1
  N  N49  1  0.64093046  0.51359216  0.00542558  1
  N  N50  1  0.35906954  0.51359216  0.49457442  1
  N  N51  1  0.14093046  0.98640784  0.99457342  1
  N  N52  1  0.27768566  0.13461498  0.26801447  1
  N  N53  1  0.22231434  0.36538502  0.76801347  1
  N  N54  1  0.77768666  0.36538502  0.73198653  1
  N  N55  1  0.72231434  0.13461498  0.23198553  1
  N  N56  1  0.72231434  0.86538602  0.73198653  1
  N  N57  1  0.77768666  0.63461498  0.23198553  1
  N  N58  1  0.22231434  0.63461498  0.26801447  1
  N  N59  1  0.27768566  0.86538602  0.76801347  1
  N  N60  1  0.48043067  0.42793560  0.16140846  1
  N  N61  1  0.01956933  0.07206440  0.66140846  1
  N  N62  1  0.98042967  0.07206440  0.83859254  1
  N  N63  1  0.51956933  0.42793560  0.33859254  1
  N  N64  1  0.51956933  0.57206640  0.83859254  1
  N  N65  1  0.98042967  0.92793460  0.33859254  1
  N  N66  1  0.01956933  0.92793460  0.16140846  1
  N  N67  1  0.48043067  0.57206640  0.66140846  1
