# generated using pymatgen
data_UO2
_symmetry_space_group_name_H-M   'P 1'
_cell_length_a   5.41588781
_cell_length_b   5.42272184
_cell_length_c   10.84485647
_cell_angle_alpha   90.06302975
_cell_angle_beta   90.14321449
_cell_angle_gamma   90.02961354
_symmetry_Int_Tables_number   1
_chemical_formula_structural   UO2
_chemical_formula_sum   'U8 O16'
_cell_volume   318.49976619
_cell_formula_units_Z   8
loop_
 _symmetry_equiv_pos_site_id
 _symmetry_equiv_pos_as_xyz
  1  'x, y, z'
loop_
 _atom_site_type_symbol
 _atom_site_label
 _atom_site_symmetry_multiplicity
 _atom_site_fract_x
 _atom_site_fract_y
 _atom_site_fract_z
 _atom_site_occupancy
  U  U0  1  0.49989644  0.75019233  0.87519409  1
  U  U1  1  0.50017056  0.74969513  0.37525139  1
  U  U2  1  -0.00015663  0.75037044  0.62466844  1
  U  U3  1  0.50005577  0.25037191  0.62464861  1
  U  U4  1  0.49968176  0.24975186  0.12478856  1
  U  U5  1  0.00047280  0.24986615  0.37523996  1
  U  U6  1  -0.00048338  0.74937988  0.12484750  1
  U  U7  1  -0.00005833  0.25067296  0.87517605  1
  O  O8  1  0.24867575  0.49972508  0.25084856  1
  O  O9  1  0.74966300  0.49764394  0.99930297  1
  O  O10  1  0.25181958  -0.00057458  0.25055681  1
  O  O11  1  0.24979807  0.00311583  0.00051777  1
  O  O12  1  0.74847843  0.49769264  0.24935568  1
  O  O13  1  0.24965597  0.49757455  0.50047039  1
  O  O14  1  0.74973921  -0.00276255  0.99953386  1
  O  O15  1  0.24955048  0.50247100  0.00055475  1
  O  O16  1  0.25081163  -0.00192536  0.50057708  1
  O  O17  1  0.75164931  0.49994614  0.74908418  1
  O  O18  1  0.74997087  0.50239509  0.49941476  1
  O  O19  1  0.74828682  0.00035065  0.74937415  1
  O  O20  1  0.25193266  0.50208084  0.75055040  1
  O  O21  1  0.75193028  0.99800941  0.24967677  1
  O  O22  1  0.24815893  0.00192954  0.75068956  1
  O  O23  1  0.75030002  0.00202714  0.49967769  1
