# generated using pymatgen
data_UNi5
_symmetry_space_group_name_H-M   'P 1'
_cell_length_a   4.78161545
_cell_length_b   4.78161545
_cell_length_c   4.78161545
_cell_angle_alpha   60.00000000
_cell_angle_beta   60.00000000
_cell_angle_gamma   60.00000000
_symmetry_Int_Tables_number   1
_chemical_formula_structural   UNi5
_chemical_formula_sum   'U1 Ni5'
_cell_volume   77.30524138
_cell_formula_units_Z   1
loop_
 _symmetry_equiv_pos_site_id
 _symmetry_equiv_pos_as_xyz
  1  'x, y, z'
loop_
 _atom_site_type_symbol
 _atom_site_label
 _atom_site_symmetry_multiplicity
 _atom_site_fract_x
 _atom_site_fract_y
 _atom_site_fract_z
 _atom_site_occupancy
  U  U0  1  0.00000000  0.00000000  0.00000000  1
  Ni  Ni1  1  0.75000000  0.75000000  0.75000000  1
  Ni  Ni2  1  0.87297984  0.37567339  0.37567339  1
  Ni  Ni3  1  0.37567339  0.87297984  0.37567339  1
  Ni  Ni4  1  0.37567339  0.37567339  0.87297984  1
  Ni  Ni5  1  0.37567339  0.37567339  0.37567339  1
