# generated using pymatgen
data_VGaRu2
_symmetry_space_group_name_H-M   'P 1'
_cell_length_a   4.26383071
_cell_length_b   4.26085391
_cell_length_c   4.26129439
_cell_angle_alpha   59.96051593
_cell_angle_beta   60.01215145
_cell_angle_gamma   60.00634637
_symmetry_Int_Tables_number   1
_chemical_formula_structural   VGaRu2
_chemical_formula_sum   'V1 Ga1 Ru2'
_cell_volume   54.73360287
_cell_formula_units_Z   1
loop_
 _symmetry_equiv_pos_site_id
 _symmetry_equiv_pos_as_xyz
  1  'x, y, z'
loop_
 _atom_site_type_symbol
 _atom_site_label
 _atom_site_symmetry_multiplicity
 _atom_site_fract_x
 _atom_site_fract_y
 _atom_site_fract_z
 _atom_site_occupancy
  V  V0  1  0.75000404  0.74995220  0.74998326  1
  Ga  Ga1  1  0.24996919  0.25000327  0.25003687  1
  Ru  Ru2  1  0.00000663  -0.00000041  0.00003985  1
  Ru  Ru3  1  0.50001813  0.50004294  0.49993802  1
