# generated using pymatgen
data_LaInHg2
_symmetry_space_group_name_H-M   'P 1'
_cell_length_a   5.33157462
_cell_length_b   5.33160453
_cell_length_c   5.33155621
_cell_angle_alpha   59.89026258
_cell_angle_beta   59.89009362
_cell_angle_gamma   59.88948749
_symmetry_Int_Tables_number   1
_chemical_formula_structural   LaInHg2
_chemical_formula_sum   'La1 In1 Hg2'
_cell_volume   106.89728561
_cell_formula_units_Z   1
loop_
 _symmetry_equiv_pos_site_id
 _symmetry_equiv_pos_as_xyz
  1  'x, y, z'
loop_
 _atom_site_type_symbol
 _atom_site_label
 _atom_site_symmetry_multiplicity
 _atom_site_fract_x
 _atom_site_fract_y
 _atom_site_fract_z
 _atom_site_occupancy
  La  La0  1  0.74999570  0.74999531  0.75000102  1
  In  In1  1  0.25000003  0.25000137  0.24999825  1
  Hg  Hg2  1  0.99992810  0.99992661  -0.00007473  1
  Hg  Hg3  1  0.50007418  0.50007472  0.50007345  1
