# generated using pymatgen
data_TaCuRh2
_symmetry_space_group_name_H-M   'P 1'
_cell_length_a   4.35320706
_cell_length_b   4.35320816
_cell_length_c   4.35320842
_cell_angle_alpha   60.00001811
_cell_angle_beta   59.99999140
_cell_angle_gamma   59.99998770
_symmetry_Int_Tables_number   1
_chemical_formula_structural   TaCuRh2
_chemical_formula_sum   'Ta1 Cu1 Rh2'
_cell_volume   58.33285242
_cell_formula_units_Z   1
loop_
 _symmetry_equiv_pos_site_id
 _symmetry_equiv_pos_as_xyz
  1  'x, y, z'
loop_
 _atom_site_type_symbol
 _atom_site_label
 _atom_site_symmetry_multiplicity
 _atom_site_fract_x
 _atom_site_fract_y
 _atom_site_fract_z
 _atom_site_occupancy
  Ta  Ta0  1  0.75000075  0.75000079  0.75000088  1
  Cu  Cu1  1  0.25000004  0.25000009  0.25000002  1
  Rh  Rh2  1  0.99999973  1.00000000  0.00000053  1
  Rh  Rh3  1  0.50000048  0.50000012  0.49999957  1
