# generated using pymatgen
data_Y2Cr2C3
_symmetry_space_group_name_H-M   'P 1'
_cell_length_a   3.38368926
_cell_length_b   5.49667721
_cell_length_c   5.58001475
_cell_angle_alpha   104.98471361
_cell_angle_beta   90.00000000
_cell_angle_gamma   107.92634086
_symmetry_Int_Tables_number   1
_chemical_formula_structural   Y2Cr2C3
_chemical_formula_sum   'Y2 Cr2 C3'
_cell_volume   95.02852355
_cell_formula_units_Z   1
loop_
 _symmetry_equiv_pos_site_id
 _symmetry_equiv_pos_as_xyz
  1  'x, y, z'
loop_
 _atom_site_type_symbol
 _atom_site_label
 _atom_site_symmetry_multiplicity
 _atom_site_fract_x
 _atom_site_fract_y
 _atom_site_fract_z
 _atom_site_occupancy
  Y  Y0  1  0.39422599  0.78845197  0.68235732  1
  Y  Y1  1  0.60577401  0.21154803  0.31764268  1
  Cr  Cr2  1  0.15667833  0.31335666  0.89112168  1
  Cr  Cr3  1  0.84332167  0.68664334  0.10887832  1
  C  C4  1  0.71404404  0.42808808  0.77158820  1
  C  C5  1  0.28595596  0.57191192  0.22841180  1
  C  C6  1  -0.00000000  0.00000000  0.00000000  1
