# generated using pymatgen
data_Be2CuRh
_symmetry_space_group_name_H-M   'P 1'
_cell_length_a   3.88432380
_cell_length_b   3.88432230
_cell_length_c   3.88432500
_cell_angle_alpha   60.00017740
_cell_angle_beta   60.00013284
_cell_angle_gamma   60.00015753
_symmetry_Int_Tables_number   1
_chemical_formula_structural   Be2CuRh
_chemical_formula_sum   'Be2 Cu1 Rh1'
_cell_volume   41.44124385
_cell_formula_units_Z   1
loop_
 _symmetry_equiv_pos_site_id
 _symmetry_equiv_pos_as_xyz
  1  'x, y, z'
loop_
 _atom_site_type_symbol
 _atom_site_label
 _atom_site_symmetry_multiplicity
 _atom_site_fract_x
 _atom_site_fract_y
 _atom_site_fract_z
 _atom_site_occupancy
  Be  Be0  1  0.49999928  0.49999953  0.49999943  1
  Be  Be1  1  -0.00000033  0.00000013  0.00000009  1
  Cu  Cu2  1  0.25000024  0.24999998  0.24999991  1
  Rh  Rh3  1  0.75000082  0.75000036  0.75000057  1
