# generated using pymatgen
data_Zn(CrSe2)2
_symmetry_space_group_name_H-M   'P 1'
_cell_length_a   7.49849496
_cell_length_b   7.49849495
_cell_length_c   7.49849495
_cell_angle_alpha   59.99999997
_cell_angle_beta   59.99999998
_cell_angle_gamma   59.99999998
_symmetry_Int_Tables_number   1
_chemical_formula_structural   Zn(CrSe2)2
_chemical_formula_sum   'Zn2 Cr4 Se8'
_cell_volume   298.13112056
_cell_formula_units_Z   2
loop_
 _symmetry_equiv_pos_site_id
 _symmetry_equiv_pos_as_xyz
  1  'x, y, z'
loop_
 _atom_site_type_symbol
 _atom_site_label
 _atom_site_symmetry_multiplicity
 _atom_site_fract_x
 _atom_site_fract_y
 _atom_site_fract_z
 _atom_site_occupancy
  Cr  Cr0  1  0.50000000  0.00000000  0.50000000  1
  Cr  Cr1  1  0.00000000  0.50000000  0.50000000  1
  Cr  Cr2  1  0.50000000  0.50000000  0.50000000  1
  Cr  Cr3  1  0.50000000  0.50000000  0.00000000  1
  Zn  Zn4  1  0.12500000  0.12500000  0.12500000  1
  Zn  Zn5  1  0.87500000  0.87500000  0.87500000  1
  Se  Se6  1  0.26050110  0.26050110  0.26050110  1
  Se  Se7  1  0.73949890  0.73949890  0.28150331  1
  Se  Se8  1  0.28150331  0.73949890  0.73949890  1
  Se  Se9  1  0.73949890  0.28150331  0.73949890  1
  Se  Se10  1  0.71849669  0.26050110  0.26050110  1
  Se  Se11  1  0.26050110  0.71849669  0.26050110  1
  Se  Se12  1  0.26050110  0.26050110  0.71849669  1
  Se  Se13  1  0.73949890  0.73949890  0.73949890  1
