# generated using pymatgen
data_Mg2Al4Si5O18
_symmetry_space_group_name_H-M   'P 1'
_cell_length_a   9.44015984
_cell_length_b   9.83024060
_cell_length_c   9.93464511
_cell_angle_alpha   119.65296525
_cell_angle_beta   90.00000000
_cell_angle_gamma   90.00000000
_symmetry_Int_Tables_number   1
_chemical_formula_structural   Mg2Al4Si5O18
_chemical_formula_sum   'Mg4 Al8 Si10 O36'
_cell_volume   801.18829284
_cell_formula_units_Z   2
loop_
 _symmetry_equiv_pos_site_id
 _symmetry_equiv_pos_as_xyz
  1  'x, y, z'
loop_
 _atom_site_type_symbol
 _atom_site_label
 _atom_site_symmetry_multiplicity
 _atom_site_fract_x
 _atom_site_fract_y
 _atom_site_fract_z
 _atom_site_occupancy
  O  O0  1  0.34893787  0.47872741  0.12493454  1
  O  O1  1  0.85819455  0.48345742  0.34686797  1
  O  O2  1  0.35819455  0.13658945  0.65313203  1
  O  O3  1  0.35819455  0.86341055  0.34686797  1
  O  O4  1  0.50000000  0.91458164  0.67157537  1
  O  O5  1  0.50000000  0.08541836  0.32842463  1
  O  O6  1  0.00000000  0.24300627  0.32842463  1
  O  O7  1  0.00000000  0.75699373  0.67157537  1
  O  O8  1  0.50000000  0.20502208  0.91311680  1
  O  O9  1  0.50000000  0.79497792  0.08688320  1
  O  O10  1  0.00000000  0.29190528  0.08688320  1
  O  O11  1  0.00000000  0.70809472  0.91311680  1
  O  O12  1  0.50000000  0.30715531  0.24396261  1
  O  O13  1  0.50000000  0.69284469  0.75603739  1
  O  O14  1  0.00000000  0.06319270  0.75603739  1
  O  O15  1  0.00000000  0.93680730  0.24396261  1
  O  O16  1  0.64180545  0.86341055  0.34686797  1
  O  O17  1  0.64180545  0.13658945  0.65313203  1
  O  O18  1  0.14151168  0.14415023  0.49424922  1
  O  O19  1  0.14180545  0.48345742  0.34686797  1
  O  O20  1  0.35848832  0.64990101  0.50575078  1
  O  O21  1  0.35848832  0.35009899  0.49424922  1
  O  O22  1  0.85848832  0.85584977  0.50575078  1
  O  O23  1  0.85848832  0.14415023  0.49424922  1
  O  O24  1  0.64151168  0.35009899  0.49424922  1
  O  O25  1  0.64151168  0.64990101  0.50575078  1
  O  O26  1  0.15106213  0.64620713  0.12493454  1
  O  O27  1  0.15106213  0.35379287  0.87506546  1
  O  O28  1  0.34893787  0.52127259  0.87506546  1
  O  O29  1  0.14151168  0.85584977  0.50575078  1
  O  O30  1  0.84893787  0.35379287  0.87506546  1
  O  O31  1  0.84893787  0.64620713  0.12493454  1
  O  O32  1  0.65106213  0.47872741  0.12493454  1
  O  O33  1  0.65106213  0.52127259  0.87506546  1
  O  O34  1  0.14180545  0.51654258  0.65313203  1
  O  O35  1  0.85819455  0.51654258  0.65313203  1
  Mg  Mg36  1  0.25000000  0.66253082  0.32506165  1
  Mg  Mg37  1  0.25000000  0.33746918  0.67493835  1
  Mg  Mg38  1  0.75000000  0.33746918  0.67493835  1
  Mg  Mg39  1  0.75000000  0.66253082  0.32506165  1
  Al  Al40  1  0.24992415  0.50000000  0.50000000  1
  Al  Al41  1  0.25007585  0.00000000  0.50000000  1
  Al  Al42  1  0.74992415  0.00000000  0.50000000  1
  Al  Al43  1  0.75007585  0.50000000  0.50000000  1
  Al  Al44  1  0.50000000  0.35838670  0.10077159  1
  Al  Al45  1  0.50000000  0.64161330  0.89922841  1
  Al  Al46  1  0.00000000  0.25761511  0.89922841  1
  Al  Al47  1  0.00000000  0.74238489  0.10077159  1
  Si  Si48  1  0.50000000  0.72910930  0.61562103  1
  Si  Si49  1  0.50000000  0.27089070  0.38437897  1
  Si  Si50  1  0.00000000  0.88651172  0.61562103  1
  Si  Si51  1  0.00000000  0.11348828  0.38437897  1
  Si  Si52  1  0.75000000  0.50000000  0.00000000  1
  Si  Si53  1  0.25000000  0.50000000  0.00000000  1
  Si  Si54  1  0.00000000  0.62790618  0.72944556  1
  Si  Si55  1  0.00000000  0.37209382  0.27055444  1
  Si  Si56  1  0.50000000  0.89846062  0.27055444  1
  Si  Si57  1  0.50000000  0.10153938  0.72944556  1
