# generated using pymatgen
data_TiZnRh2
_symmetry_space_group_name_H-M   'P 1'
_cell_length_a   4.32358215
_cell_length_b   4.32356337
_cell_length_c   4.32356619
_cell_angle_alpha   60.00004577
_cell_angle_beta   59.99995353
_cell_angle_gamma   60.00011626
_symmetry_Int_Tables_number   1
_chemical_formula_structural   TiZnRh2
_chemical_formula_sum   'Ti1 Zn1 Rh2'
_cell_volume   57.14957922
_cell_formula_units_Z   1
loop_
 _symmetry_equiv_pos_site_id
 _symmetry_equiv_pos_as_xyz
  1  'x, y, z'
loop_
 _atom_site_type_symbol
 _atom_site_label
 _atom_site_symmetry_multiplicity
 _atom_site_fract_x
 _atom_site_fract_y
 _atom_site_fract_z
 _atom_site_occupancy
  Ti  Ti0  1  0.24999880  0.25000023  0.25000257  1
  Zn  Zn1  1  0.74999935  0.75000003  0.75000080  1
  Rh  Rh2  1  0.00000299  -0.00000145  0.99999914  1
  Rh  Rh3  1  0.49999986  0.50000219  0.49999849  1
