# generated using pymatgen
data_Be2NiPt
_symmetry_space_group_name_H-M   'P 1'
_cell_length_a   3.87116877
_cell_length_b   3.87116736
_cell_length_c   3.87116990
_cell_angle_alpha   60.00010786
_cell_angle_beta   60.00009070
_cell_angle_gamma   60.00012894
_symmetry_Int_Tables_number   1
_chemical_formula_structural   Be2NiPt
_chemical_formula_sum   'Be2 Ni1 Pt1'
_cell_volume   41.02157793
_cell_formula_units_Z   1
loop_
 _symmetry_equiv_pos_site_id
 _symmetry_equiv_pos_as_xyz
  1  'x, y, z'
loop_
 _atom_site_type_symbol
 _atom_site_label
 _atom_site_symmetry_multiplicity
 _atom_site_fract_x
 _atom_site_fract_y
 _atom_site_fract_z
 _atom_site_occupancy
  Be  Be0  1  0.50000104  0.50000099  0.50000081  1
  Be  Be1  1  0.99999979  0.00000006  0.99999961  1
  Ni  Ni2  1  0.24999911  0.24999900  0.25000066  1
  Pt  Pt3  1  0.75000005  0.74999995  0.74999893  1
