# generated using pymatgen
data_Pm2IrAu
_symmetry_space_group_name_H-M   'P 1'
_cell_length_a   5.10069619
_cell_length_b   5.10069596
_cell_length_c   5.10069847
_cell_angle_alpha   59.99996684
_cell_angle_beta   60.00002508
_cell_angle_gamma   59.99996386
_symmetry_Int_Tables_number   1
_chemical_formula_structural   Pm2IrAu
_chemical_formula_sum   'Pm2 Ir1 Au1'
_cell_volume   93.83684606
_cell_formula_units_Z   1
loop_
 _symmetry_equiv_pos_site_id
 _symmetry_equiv_pos_as_xyz
  1  'x, y, z'
loop_
 _atom_site_type_symbol
 _atom_site_label
 _atom_site_symmetry_multiplicity
 _atom_site_fract_x
 _atom_site_fract_y
 _atom_site_fract_z
 _atom_site_occupancy
  Pm  Pm0  1  0.00000005  0.99999980  0.00000022  1
  Pm  Pm1  1  0.50000002  0.50000016  0.49999981  1
  Ir  Ir2  1  0.74999990  0.75000015  0.75000011  1
  Au  Au3  1  0.25000002  0.24999989  0.24999987  1
