# generated using pymatgen
data_YbPrAg2
_symmetry_space_group_name_H-M   'P 1'
_cell_length_a   5.27336975
_cell_length_b   5.27337053
_cell_length_c   5.27336847
_cell_angle_alpha   59.99998740
_cell_angle_beta   60.00002657
_cell_angle_gamma   59.99995728
_symmetry_Int_Tables_number   1
_chemical_formula_structural   YbPrAg2
_chemical_formula_sum   'Yb1 Pr1 Ag2'
_cell_volume   103.69302349
_cell_formula_units_Z   1
loop_
 _symmetry_equiv_pos_site_id
 _symmetry_equiv_pos_as_xyz
  1  'x, y, z'
loop_
 _atom_site_type_symbol
 _atom_site_label
 _atom_site_symmetry_multiplicity
 _atom_site_fract_x
 _atom_site_fract_y
 _atom_site_fract_z
 _atom_site_occupancy
  Yb  Yb0  1  0.74999997  0.75000001  0.75000002  1
  Pr  Pr1  1  0.25000005  0.24999995  0.25000001  1
  Ag  Ag2  1  0.49999998  0.50000005  0.50000000  1
  Ag  Ag3  1  0.00000000  -0.00000001  -0.00000002  1
