# generated using pymatgen
data_PaNi2Sn
_symmetry_space_group_name_H-M   'P 1'
_cell_length_a   4.60172471
_cell_length_b   4.59856862
_cell_length_c   4.60471500
_cell_angle_alpha   60.00686540
_cell_angle_beta   60.03942282
_cell_angle_gamma   59.95084459
_symmetry_Int_Tables_number   1
_chemical_formula_structural   PaNi2Sn
_chemical_formula_sum   'Pa1 Ni2 Sn1'
_cell_volume   68.90030135
_cell_formula_units_Z   1
loop_
 _symmetry_equiv_pos_site_id
 _symmetry_equiv_pos_as_xyz
  1  'x, y, z'
loop_
 _atom_site_type_symbol
 _atom_site_label
 _atom_site_symmetry_multiplicity
 _atom_site_fract_x
 _atom_site_fract_y
 _atom_site_fract_z
 _atom_site_occupancy
  Pa  Pa0  1  0.24996288  0.24996813  0.25006413  1
  Ni  Ni1  1  0.00007820  0.00017667  0.00007320  1
  Ni  Ni2  1  0.49996113  0.49984162  0.49989062  1
  Sn  Sn3  1  0.74999879  0.75001458  0.74997306  1
