# generated using pymatgen
data_Ti2NiMo
_symmetry_space_group_name_H-M   'P 1'
_cell_length_a   4.35627171
_cell_length_b   4.35626779
_cell_length_c   4.35626708
_cell_angle_alpha   59.99999635
_cell_angle_beta   59.99996907
_cell_angle_gamma   60.00001267
_symmetry_Int_Tables_number   1
_chemical_formula_structural   Ti2NiMo
_chemical_formula_sum   'Ti2 Ni1 Mo1'
_cell_volume   58.45598156
_cell_formula_units_Z   1
loop_
 _symmetry_equiv_pos_site_id
 _symmetry_equiv_pos_as_xyz
  1  'x, y, z'
loop_
 _atom_site_type_symbol
 _atom_site_label
 _atom_site_symmetry_multiplicity
 _atom_site_fract_x
 _atom_site_fract_y
 _atom_site_fract_z
 _atom_site_occupancy
  Ti  Ti0  1  0.00000009  0.00000019  -0.00000040  1
  Ti  Ti1  1  0.49999988  0.50000024  0.50000047  1
  Ni  Ni2  1  0.75000149  0.75000051  0.75000107  1
  Mo  Mo3  1  0.25000054  0.25000105  0.25000085  1
