# generated using pymatgen
data_Sc2ZnOs
_symmetry_space_group_name_H-M   'P 1'
_cell_length_a   4.62633937
_cell_length_b   4.62633917
_cell_length_c   4.62632450
_cell_angle_alpha   59.99992017
_cell_angle_beta   60.00010410
_cell_angle_gamma   59.99993953
_symmetry_Int_Tables_number   1
_chemical_formula_structural   Sc2ZnOs
_chemical_formula_sum   'Sc2 Zn1 Os1'
_cell_volume   70.01578006
_cell_formula_units_Z   1
loop_
 _symmetry_equiv_pos_site_id
 _symmetry_equiv_pos_as_xyz
  1  'x, y, z'
loop_
 _atom_site_type_symbol
 _atom_site_label
 _atom_site_symmetry_multiplicity
 _atom_site_fract_x
 _atom_site_fract_y
 _atom_site_fract_z
 _atom_site_occupancy
  Sc  Sc0  1  0.00000061  0.99999979  0.99999996  1
  Sc  Sc1  1  0.49999999  0.50000094  0.50000123  1
  Zn  Zn2  1  0.75000011  0.75000022  0.74999995  1
  Os  Os3  1  0.25000028  0.25000004  0.24999986  1
