# generated using pymatgen
data_SmTlAg2
_symmetry_space_group_name_H-M   'P 1'
_cell_length_a   5.06263181
_cell_length_b   5.06263320
_cell_length_c   5.06263090
_cell_angle_alpha   60.00000411
_cell_angle_beta   60.00002088
_cell_angle_gamma   59.99998018
_symmetry_Int_Tables_number   1
_chemical_formula_structural   SmTlAg2
_chemical_formula_sum   'Sm1 Tl1 Ag2'
_cell_volume   91.75169383
_cell_formula_units_Z   1
loop_
 _symmetry_equiv_pos_site_id
 _symmetry_equiv_pos_as_xyz
  1  'x, y, z'
loop_
 _atom_site_type_symbol
 _atom_site_label
 _atom_site_symmetry_multiplicity
 _atom_site_fract_x
 _atom_site_fract_y
 _atom_site_fract_z
 _atom_site_occupancy
  Sm  Sm0  1  0.24999906  0.24999911  0.24999926  1
  Tl  Tl1  1  0.74999912  0.74999914  0.74999903  1
  Ag  Ag2  1  0.49999989  0.49999991  0.49999982  1
  Ag  Ag3  1  0.99999992  0.99999984  0.99999989  1
