# generated using pymatgen
data_Re3N
_symmetry_space_group_name_H-M   'P 1'
_cell_length_a   2.83736925
_cell_length_b   2.83737215
_cell_length_c   7.19688617
_cell_angle_alpha   90.00000000
_cell_angle_beta   90.00000000
_cell_angle_gamma   120.00140967
_symmetry_Int_Tables_number   1
_chemical_formula_structural   Re3N
_chemical_formula_sum   'Re3 N1'
_cell_volume   50.17660303
_cell_formula_units_Z   1
loop_
 _symmetry_equiv_pos_site_id
 _symmetry_equiv_pos_as_xyz
  1  'x, y, z'
loop_
 _atom_site_type_symbol
 _atom_site_label
 _atom_site_symmetry_multiplicity
 _atom_site_fract_x
 _atom_site_fract_y
 _atom_site_fract_z
 _atom_site_occupancy
  Re  Re0  1  0.33333451  0.66666849  0.19846660  1
  Re  Re1  1  0.33333451  0.66666849  0.80153240  1
  Re  Re2  1  0.66665244  0.33335056  0.50000000  1
  N  N3  1  0.66668155  0.33331845  0.00000000  1
