# generated using pymatgen
data_CeZn2
_symmetry_space_group_name_H-M   'P 1'
_cell_length_a   4.61319011
_cell_length_b   5.72915632
_cell_length_c   5.72915633
_cell_angle_alpha   87.27754752
_cell_angle_beta   66.25878093
_cell_angle_gamma   66.25878086
_symmetry_Int_Tables_number   1
_chemical_formula_structural   CeZn2
_chemical_formula_sum   'Ce2 Zn4'
_cell_volume   125.68374725
_cell_formula_units_Z   2
loop_
 _symmetry_equiv_pos_site_id
 _symmetry_equiv_pos_as_xyz
  1  'x, y, z'
loop_
 _atom_site_type_symbol
 _atom_site_label
 _atom_site_symmetry_multiplicity
 _atom_site_fract_x
 _atom_site_fract_y
 _atom_site_fract_z
 _atom_site_occupancy
  Zn  Zn0  1  0.53543701  0.29864657  0.63047942  1
  Zn  Zn1  1  0.46456299  0.70135343  0.36952058  1
  Zn  Zn2  1  0.03543701  0.13047942  0.79864657  1
  Zn  Zn3  1  0.96456299  0.86952058  0.20135343  1
  Ce  Ce4  1  0.75000000  0.73380575  0.76619425  1
  Ce  Ce5  1  0.25000000  0.26619425  0.23380575  1
