# generated using pymatgen
data_Ce2Re2Si2C
_symmetry_space_group_name_H-M   'P 1'
_cell_length_a   4.10777329
_cell_length_b   5.89323586
_cell_length_c   6.00387833
_cell_angle_alpha   72.25070439
_cell_angle_beta   69.99553845
_cell_angle_gamma   69.60342974
_symmetry_Int_Tables_number   1
_chemical_formula_structural   Ce2Re2Si2C
_chemical_formula_sum   'Ce2 Re2 Si2 C1'
_cell_volume   125.13510123
_cell_formula_units_Z   1
loop_
 _symmetry_equiv_pos_site_id
 _symmetry_equiv_pos_as_xyz
  1  'x, y, z'
loop_
 _atom_site_type_symbol
 _atom_site_label
 _atom_site_symmetry_multiplicity
 _atom_site_fract_x
 _atom_site_fract_y
 _atom_site_fract_z
 _atom_site_occupancy
  Ce  Ce0  1  0.42940211  0.84271572  0.29848006  1
  Ce  Ce1  1  0.57059789  0.15728428  0.70151994  1
  Re  Re2  1  0.79249099  0.32142599  0.09359204  1
  Re  Re3  1  0.20750901  0.67857401  0.90640796  1
  Si  Si4  1  0.85572139  0.60047599  0.68808123  1
  Si  Si5  1  0.14427861  0.39952401  0.31191877  1
  C  C6  1  0.00000000  -0.00000000  0.00000000  1
