# generated using pymatgen
data_Hf2CoRe
_symmetry_space_group_name_H-M   'P 1'
_cell_length_a   4.56108597
_cell_length_b   4.56108776
_cell_length_c   4.56109318
_cell_angle_alpha   60.00003426
_cell_angle_beta   60.00002867
_cell_angle_gamma   60.00011677
_symmetry_Int_Tables_number   1
_chemical_formula_structural   Hf2CoRe
_chemical_formula_sum   'Hf2 Co1 Re1'
_cell_volume   67.09516469
_cell_formula_units_Z   1
loop_
 _symmetry_equiv_pos_site_id
 _symmetry_equiv_pos_as_xyz
  1  'x, y, z'
loop_
 _atom_site_type_symbol
 _atom_site_label
 _atom_site_symmetry_multiplicity
 _atom_site_fract_x
 _atom_site_fract_y
 _atom_site_fract_z
 _atom_site_occupancy
  Hf  Hf0  1  0.99999871  0.00000098  0.00000015  1
  Hf  Hf1  1  0.50000034  0.49999994  0.49999989  1
  Co  Co2  1  0.25000030  0.25000020  0.25000156  1
  Re  Re3  1  0.75000165  0.74999988  0.74999940  1
