# generated using pymatgen
data_ZrCdRh2
_symmetry_space_group_name_H-M   'P 1'
_cell_length_a   4.60224758
_cell_length_b   4.60224608
_cell_length_c   4.60225639
_cell_angle_alpha   60.00030607
_cell_angle_beta   60.00036208
_cell_angle_gamma   60.00024792
_symmetry_Int_Tables_number   1
_chemical_formula_structural   ZrCdRh2
_chemical_formula_sum   'Zr1 Cd1 Rh2'
_cell_volume   68.92846894
_cell_formula_units_Z   1
loop_
 _symmetry_equiv_pos_site_id
 _symmetry_equiv_pos_as_xyz
  1  'x, y, z'
loop_
 _atom_site_type_symbol
 _atom_site_label
 _atom_site_symmetry_multiplicity
 _atom_site_fract_x
 _atom_site_fract_y
 _atom_site_fract_z
 _atom_site_occupancy
  Zr  Zr0  1  0.75000144  0.75000088  0.74999986  1
  Cd  Cd1  1  0.25000041  0.25000010  0.25000145  1
  Rh  Rh2  1  0.00000017  0.00000054  0.99999965  1
  Rh  Rh3  1  0.49999998  0.50000047  0.50000104  1
