# generated using pymatgen
data_Li2YbSn
_symmetry_space_group_name_H-M   'P 1'
_cell_length_a   4.88345389
_cell_length_b   4.88345672
_cell_length_c   4.88345733
_cell_angle_alpha   59.99983940
_cell_angle_beta   59.99988270
_cell_angle_gamma   59.99985602
_symmetry_Int_Tables_number   1
_chemical_formula_structural   Li2YbSn
_chemical_formula_sum   'Li2 Yb1 Sn1'
_cell_volume   82.35034995
_cell_formula_units_Z   1
loop_
 _symmetry_equiv_pos_site_id
 _symmetry_equiv_pos_as_xyz
  1  'x, y, z'
loop_
 _atom_site_type_symbol
 _atom_site_label
 _atom_site_symmetry_multiplicity
 _atom_site_fract_x
 _atom_site_fract_y
 _atom_site_fract_z
 _atom_site_occupancy
  Yb  Yb0  1  0.74999943  0.74999935  0.74999945  1
  Li  Li1  1  0.99999979  0.99999952  0.99999971  1
  Li  Li2  1  0.50000093  0.50000089  0.50000087  1
  Sn  Sn3  1  0.24999986  0.25000025  0.24999996  1
