# generated using pymatgen
data_AlVOs2
_symmetry_space_group_name_H-M   'P 1'
_cell_length_a   4.26425918
_cell_length_b   4.26426465
_cell_length_c   4.26426171
_cell_angle_alpha   60.00040932
_cell_angle_beta   60.00018529
_cell_angle_gamma   60.00011585
_symmetry_Int_Tables_number   1
_chemical_formula_structural   AlVOs2
_chemical_formula_sum   'Al1 V1 Os2'
_cell_volume   54.83008601
_cell_formula_units_Z   1
loop_
 _symmetry_equiv_pos_site_id
 _symmetry_equiv_pos_as_xyz
  1  'x, y, z'
loop_
 _atom_site_type_symbol
 _atom_site_label
 _atom_site_symmetry_multiplicity
 _atom_site_fract_x
 _atom_site_fract_y
 _atom_site_fract_z
 _atom_site_occupancy
  Al  Al0  1  0.25000029  0.24999975  0.24999984  1
  V  V1  1  0.75000035  0.74999978  0.75000146  1
  Os  Os2  1  0.50000034  0.49999936  0.49999875  1
  Os  Os3  1  -0.00000099  0.00000111  -0.00000005  1
