# generated using pymatgen
data_Ac2IrAu
_symmetry_space_group_name_H-M   'P 1'
_cell_length_a   5.38547597
_cell_length_b   5.38547788
_cell_length_c   5.38547684
_cell_angle_alpha   60.00000929
_cell_angle_beta   59.99995587
_cell_angle_gamma   60.00000982
_symmetry_Int_Tables_number   1
_chemical_formula_structural   Ac2IrAu
_chemical_formula_sum   'Ac2 Ir1 Au1'
_cell_volume   110.44788946
_cell_formula_units_Z   1
loop_
 _symmetry_equiv_pos_site_id
 _symmetry_equiv_pos_as_xyz
  1  'x, y, z'
loop_
 _atom_site_type_symbol
 _atom_site_label
 _atom_site_symmetry_multiplicity
 _atom_site_fract_x
 _atom_site_fract_y
 _atom_site_fract_z
 _atom_site_occupancy
  Ac  Ac0  1  0.00000023  0.00000013  0.99999995  1
  Ac  Ac1  1  0.49999987  0.49999997  0.50000000  1
  Ir  Ir2  1  0.74999994  0.74999999  0.75000010  1
  Au  Au3  1  0.25000095  0.25000091  0.25000096  1
