# generated using pymatgen
data_Cd(PtO2)3
_symmetry_space_group_name_H-M   'P 1'
_cell_length_a   3.24145987
_cell_length_b   6.32502838
_cell_length_c   6.32502838
_cell_angle_alpha   109.30556621
_cell_angle_beta   90.00000000
_cell_angle_gamma   90.00000000
_symmetry_Int_Tables_number   1
_chemical_formula_structural   Cd(PtO2)3
_chemical_formula_sum   'Cd1 Pt3 O6'
_cell_volume   122.38585878
_cell_formula_units_Z   1
loop_
 _symmetry_equiv_pos_site_id
 _symmetry_equiv_pos_as_xyz
  1  'x, y, z'
loop_
 _atom_site_type_symbol
 _atom_site_label
 _atom_site_symmetry_multiplicity
 _atom_site_fract_x
 _atom_site_fract_y
 _atom_site_fract_z
 _atom_site_occupancy
  O  O0  1  0.00000000  0.92336062  0.66504675  1
  O  O1  1  0.00000000  0.07663938  0.33495325  1
  O  O2  1  0.00000000  0.66504675  0.92336062  1
  O  O3  1  0.00000000  0.33495325  0.07663938  1
  O  O4  1  0.50000000  0.33815614  0.66184386  1
  O  O5  1  0.50000000  0.66184386  0.33815614  1
  Cd  Cd6  1  0.00000000  0.50000000  0.50000000  1
  Pt  Pt7  1  0.50000000  0.50000000  0.00000000  1
  Pt  Pt8  1  0.00000000  0.00000000  0.00000000  1
  Pt  Pt9  1  0.50000000  0.00000000  0.50000000  1
