# generated using pymatgen
data_Sr4As2O
_symmetry_space_group_name_H-M   'P 1'
_cell_length_a   4.88349874
_cell_length_b   4.88349874
_cell_length_c   8.92487307
_cell_angle_alpha   105.87796063
_cell_angle_beta   105.87796059
_cell_angle_gamma   89.99999995
_symmetry_Int_Tables_number   1
_chemical_formula_structural   Sr4As2O
_chemical_formula_sum   'Sr4 As2 O1'
_cell_volume   196.26811263
_cell_formula_units_Z   1
loop_
 _symmetry_equiv_pos_site_id
 _symmetry_equiv_pos_as_xyz
  1  'x, y, z'
loop_
 _atom_site_type_symbol
 _atom_site_label
 _atom_site_symmetry_multiplicity
 _atom_site_fract_x
 _atom_site_fract_y
 _atom_site_fract_z
 _atom_site_occupancy
  O  O0  1  0.50000000  0.50000000  0.00000000  1
  As  As1  1  0.86394146  0.86394146  0.72788291  1
  As  As2  1  0.13605854  0.13605854  0.27211709  1
  Sr  Sr3  1  0.67382402  0.67382402  0.34764804  1
  Sr  Sr4  1  0.32617598  0.32617598  0.65235196  1
  Sr  Sr5  1  0.00000000  0.50000000  0.00000000  1
  Sr  Sr6  1  0.50000000  0.00000000  0.00000000  1
