# generated using pymatgen
data_La2SiO5
_symmetry_space_group_name_H-M   'P 1'
_cell_length_a   7.01451008
_cell_length_b   7.72617780
_cell_length_c   9.35622625
_cell_angle_alpha   90.00000000
_cell_angle_beta   109.03781492
_cell_angle_gamma   90.00000000
_symmetry_Int_Tables_number   1
_chemical_formula_structural   La2SiO5
_chemical_formula_sum   'La8 Si4 O20'
_cell_volume   479.32934910
_cell_formula_units_Z   4
loop_
 _symmetry_equiv_pos_site_id
 _symmetry_equiv_pos_as_xyz
  1  'x, y, z'
loop_
 _atom_site_type_symbol
 _atom_site_label
 _atom_site_symmetry_multiplicity
 _atom_site_fract_x
 _atom_site_fract_y
 _atom_site_fract_z
 _atom_site_occupancy
  O  O0  1  0.45075471  0.87389482  0.61005455  1
  O  O1  1  0.04924529  0.37389482  0.38994545  1
  O  O2  1  0.54924529  0.12610518  0.38994545  1
  O  O3  1  0.95075471  0.62610518  0.61005455  1
  O  O4  1  0.05006460  0.23273730  0.91259910  1
  O  O5  1  0.44993540  0.73273730  0.08740090  1
  O  O6  1  0.94993540  0.76726270  0.08740090  1
  O  O7  1  0.55006460  0.26726270  0.91259910  1
  O  O8  1  0.99625361  0.13137553  0.62162683  1
  O  O9  1  0.50374639  0.63137553  0.37837317  1
  O  O10  1  0.00374639  0.86862447  0.37837317  1
  O  O11  1  0.49625361  0.36862447  0.62162683  1
  O  O12  1  0.36722682  0.57730941  0.78797912  1
  O  O13  1  0.13277318  0.07730941  0.21202088  1
  O  O14  1  0.63277318  0.42269059  0.21202088  1
  O  O15  1  0.86722682  0.92269059  0.78797912  1
  O  O16  1  0.75611806  0.53776029  0.86880735  1
  O  O17  1  0.74388194  0.03776029  0.13119265  1
  O  O18  1  0.24388194  0.46223971  0.13119265  1
  O  O19  1  0.25611806  0.96223971  0.86880735  1
  Si  Si20  1  0.04280089  0.07213874  0.79961891  1
  Si  Si21  1  0.45719911  0.57213874  0.20038109  1
  Si  Si22  1  0.95719911  0.92786126  0.20038109  1
  Si  Si23  1  0.54280089  0.42786126  0.79961891  1
  La  La24  1  0.26895819  0.12643720  0.49066810  1
  La  La25  1  0.23104181  0.62643720  0.50933190  1
  La  La26  1  0.73104181  0.87356280  0.50933190  1
  La  La27  1  0.76895819  0.37356280  0.49066810  1
  La  La28  1  0.09518155  0.65984107  0.88902548  1
  La  La29  1  0.40481845  0.15984107  0.11097452  1
  La  La30  1  0.90481845  0.34015893  0.11097452  1
  La  La31  1  0.59518155  0.84015893  0.88902548  1
