# generated using pymatgen
data_Ca5(InSb3)2
_symmetry_space_group_name_H-M   'P 1'
_cell_length_a   4.61932431
_cell_length_b   12.24267427
_cell_length_c   14.43364288
_cell_angle_alpha   89.98853198
_cell_angle_beta   90.00694354
_cell_angle_gamma   89.99646244
_symmetry_Int_Tables_number   1
_chemical_formula_structural   Ca5(InSb3)2
_chemical_formula_sum   'Ca10 In4 Sb12'
_cell_volume   816.26409137
_cell_formula_units_Z   2
loop_
 _symmetry_equiv_pos_site_id
 _symmetry_equiv_pos_as_xyz
  1  'x, y, z'
loop_
 _atom_site_type_symbol
 _atom_site_label
 _atom_site_symmetry_multiplicity
 _atom_site_fract_x
 _atom_site_fract_y
 _atom_site_fract_z
 _atom_site_occupancy
  Ca  Ca0  1  0.50002363  0.67752873  0.48529076  1
  Ca  Ca1  1  0.49976154  0.82233415  0.98532784  1
  Ca  Ca2  1  0.50003641  0.40870648  0.24792639  1
  Ca  Ca3  1  0.50042739  0.90845568  0.25219768  1
  Ca  Ca4  1  0.49947325  0.59155658  0.75227161  1
  Ca  Ca5  1  0.49955464  0.17768189  0.01470438  1
  Ca  Ca6  1  0.49979848  0.09161773  0.74769998  1
  Ca  Ca7  1  0.50026467  0.99993795  0.50009457  1
  Ca  Ca8  1  0.50063354  0.32227089  0.51446516  1
  Ca  Ca9  1  0.50011958  0.49992139  0.00003094  1
  In  In10  1  -0.00044878  0.66327962  0.28680717  1
  In  In11  1  0.00002484  0.16341878  0.21315851  1
  In  In12  1  0.00012266  0.83666758  0.78687295  1
  In  In13  1  0.00038283  0.33676885  0.71303817  1
  Sb  Sb14  1  0.99978415  0.96292317  0.09579284  1
  Sb  Sb15  1  0.00028606  0.85018721  0.40727433  1
  Sb  Sb16  1  0.49930604  0.66167682  0.17000967  1
  Sb  Sb17  1  -0.00007867  0.46278085  0.40429475  1
  Sb  Sb18  1  0.99988101  0.64946631  0.90730832  1
  Sb  Sb19  1  -0.00020207  0.14982009  0.59263682  1
  Sb  Sb20  1  0.00007821  0.03708457  0.90417823  1
  Sb  Sb21  1  0.50014915  0.16172869  0.33004030  1
  Sb  Sb22  1  0.50012901  0.83810453  0.67008385  1
  Sb  Sb23  1  0.99978673  0.53727028  0.59576305  1
  Sb  Sb24  1  0.00017826  0.35045915  0.09285123  1
  Sb  Sb25  1  0.50052742  0.33835199  0.82988051  1
