# generated using pymatgen
data_K2Zr(BO3)2
_symmetry_space_group_name_H-M   'P 1'
_cell_length_a   6.73869066
_cell_length_b   6.73869066
_cell_length_c   6.73869066
_cell_angle_alpha   46.79682115
_cell_angle_beta   46.79682114
_cell_angle_gamma   46.79682113
_symmetry_Int_Tables_number   1
_chemical_formula_structural   K2Zr(BO3)2
_chemical_formula_sum   'K2 Zr1 B2 O6'
_cell_volume   148.56071283
_cell_formula_units_Z   1
loop_
 _symmetry_equiv_pos_site_id
 _symmetry_equiv_pos_as_xyz
  1  'x, y, z'
loop_
 _atom_site_type_symbol
 _atom_site_label
 _atom_site_symmetry_multiplicity
 _atom_site_fract_x
 _atom_site_fract_y
 _atom_site_fract_z
 _atom_site_occupancy
  B  B0  1  0.59729906  0.59729906  0.59729906  1
  B  B1  1  0.40270094  0.40270094  0.40270094  1
  O  O2  1  0.74623963  0.29732694  0.74623963  1
  O  O3  1  0.25376037  0.25376037  0.70267306  1
  O  O4  1  0.70267306  0.25376037  0.25376037  1
  O  O5  1  0.25376037  0.70267306  0.25376037  1
  O  O6  1  0.74623963  0.74623963  0.29732694  1
  O  O7  1  0.29732694  0.74623963  0.74623963  1
  K  K8  1  0.78958273  0.78958273  0.78958273  1
  K  K9  1  0.21041727  0.21041727  0.21041727  1
  Zr  Zr10  1  0.00000000  0.00000000  0.00000000  1
