# generated using pymatgen
data_YNiSn
_symmetry_space_group_name_H-M   'P 1'
_cell_length_a   4.47676897
_cell_length_b   7.16784503
_cell_length_c   7.69921649
_cell_angle_alpha   90.00000000
_cell_angle_beta   90.00000000
_cell_angle_gamma   90.00000000
_symmetry_Int_Tables_number   1
_chemical_formula_structural   YNiSn
_chemical_formula_sum   'Y4 Ni4 Sn4'
_cell_volume   247.05851195
_cell_formula_units_Z   4
loop_
 _symmetry_equiv_pos_site_id
 _symmetry_equiv_pos_as_xyz
  1  'x, y, z'
loop_
 _atom_site_type_symbol
 _atom_site_label
 _atom_site_symmetry_multiplicity
 _atom_site_fract_x
 _atom_site_fract_y
 _atom_site_fract_z
 _atom_site_occupancy
  Ni  Ni0  1  0.75000000  0.80097658  0.91476250  1
  Ni  Ni1  1  0.25000000  0.19902342  0.08523750  1
  Ni  Ni2  1  0.75000000  0.30097658  0.58523750  1
  Ni  Ni3  1  0.25000000  0.69902342  0.41476250  1
  Y  Y4  1  0.75000000  0.51265273  0.20285109  1
  Y  Y5  1  0.25000000  0.98734727  0.70285109  1
  Y  Y6  1  0.25000000  0.48734727  0.79714891  1
  Y  Y7  1  0.75000000  0.01265273  0.29714891  1
  Sn  Sn8  1  0.25000000  0.80908238  0.08701154  1
  Sn  Sn9  1  0.25000000  0.30908238  0.41298846  1
  Sn  Sn10  1  0.75000000  0.69091762  0.58701154  1
  Sn  Sn11  1  0.75000000  0.19091762  0.91298846  1
