# generated using pymatgen
data_CsSnSe3
_symmetry_space_group_name_H-M   'P 1'
_cell_length_a   7.22774028
_cell_length_b   7.64469579
_cell_length_c   8.20689690
_cell_angle_alpha   97.41780136
_cell_angle_beta   115.03052869
_cell_angle_gamma   107.84796300
_symmetry_Int_Tables_number   1
_chemical_formula_structural   CsSnSe3
_chemical_formula_sum   'Cs2 Sn2 Se6'
_cell_volume   373.08078818
_cell_formula_units_Z   2
loop_
 _symmetry_equiv_pos_site_id
 _symmetry_equiv_pos_as_xyz
  1  'x, y, z'
loop_
 _atom_site_type_symbol
 _atom_site_label
 _atom_site_symmetry_multiplicity
 _atom_site_fract_x
 _atom_site_fract_y
 _atom_site_fract_z
 _atom_site_occupancy
  Cs  Cs0  1  0.22932703  0.19113564  0.86183916  1
  Cs  Cs1  1  0.77067297  0.80886436  0.13816084  1
  Sn  Sn2  1  0.22127667  0.51066509  0.42634395  1
  Sn  Sn3  1  0.77872333  0.48933491  0.57365605  1
  Se  Se4  1  0.66064875  0.77533286  0.55847841  1
  Se  Se5  1  0.18340220  0.61399902  0.12099346  1
  Se  Se6  1  0.33935125  0.22466714  0.44152159  1
  Se  Se7  1  0.22461536  0.69797963  0.71518480  1
  Se  Se8  1  0.77538464  0.30202037  0.28481520  1
  Se  Se9  1  0.81659780  0.38600098  0.87900654  1
