# generated using pymatgen
data_Ca2ZnN2
_symmetry_space_group_name_H-M   'P 1'
_cell_length_a   3.60013463
_cell_length_b   3.60013463
_cell_length_c   6.80762316
_cell_angle_alpha   105.33245354
_cell_angle_beta   105.33245356
_cell_angle_gamma   89.99999998
_symmetry_Int_Tables_number   1
_chemical_formula_structural   Ca2ZnN2
_chemical_formula_sum   'Ca2 Zn1 N2'
_cell_volume   81.83212461
_cell_formula_units_Z   1
loop_
 _symmetry_equiv_pos_site_id
 _symmetry_equiv_pos_as_xyz
  1  'x, y, z'
loop_
 _atom_site_type_symbol
 _atom_site_label
 _atom_site_symmetry_multiplicity
 _atom_site_fract_x
 _atom_site_fract_y
 _atom_site_fract_z
 _atom_site_occupancy
  N  N0  1  0.85369926  0.85369926  0.70739852  1
  N  N1  1  0.14630074  0.14630074  0.29260148  1
  Ca  Ca2  1  0.66344925  0.66344925  0.32689849  1
  Ca  Ca3  1  0.33655075  0.33655075  0.67310151  1
  Zn  Zn4  1  0.00000000  0.00000000  0.00000000  1
