# generated using pymatgen
data_SrZnF4
_symmetry_space_group_name_H-M   'P 1'
_cell_length_a   5.53616874
_cell_length_b   5.53616874
_cell_length_c   7.10849700
_cell_angle_alpha   112.91748269
_cell_angle_beta   112.91748275
_cell_angle_gamma   89.99999996
_symmetry_Int_Tables_number   1
_chemical_formula_structural   SrZnF4
_chemical_formula_sum   'Sr2 Zn2 F8'
_cell_volume   181.85610688
_cell_formula_units_Z   2
loop_
 _symmetry_equiv_pos_site_id
 _symmetry_equiv_pos_as_xyz
  1  'x, y, z'
loop_
 _atom_site_type_symbol
 _atom_site_label
 _atom_site_symmetry_multiplicity
 _atom_site_fract_x
 _atom_site_fract_y
 _atom_site_fract_z
 _atom_site_occupancy
  F  F0  1  0.29902768  0.45266138  0.08269198  1
  F  F1  1  0.63003061  0.79902768  0.58269198  1
  F  F2  1  0.95266138  0.28366430  0.58269198  1
  F  F3  1  0.78366430  0.13003061  0.08269198  1
  F  F4  1  0.21633570  0.86996939  0.91730802  1
  F  F5  1  0.04733862  0.71633570  0.41730802  1
  F  F6  1  0.36996939  0.20097232  0.41730802  1
  F  F7  1  0.70097232  0.54733862  0.91730802  1
  Zn  Zn8  1  0.87500000  0.62500000  0.75000000  1
  Zn  Zn9  1  0.12500000  0.37500000  0.25000000  1
  Sr  Sr10  1  0.37500000  0.12500000  0.75000000  1
  Sr  Sr11  1  0.62500000  0.87500000  0.25000000  1
