# generated using pymatgen
data_YMgPd
_symmetry_space_group_name_H-M   'P 1'
_cell_length_a   7.47137939
_cell_length_b   7.47137938
_cell_length_c   4.09223170
_cell_angle_alpha   90.00000000
_cell_angle_beta   90.00000000
_cell_angle_gamma   119.99999998
_symmetry_Int_Tables_number   1
_chemical_formula_structural   YMgPd
_chemical_formula_sum   'Y3 Mg3 Pd3'
_cell_volume   197.83012566
_cell_formula_units_Z   3
loop_
 _symmetry_equiv_pos_site_id
 _symmetry_equiv_pos_as_xyz
  1  'x, y, z'
loop_
 _atom_site_type_symbol
 _atom_site_label
 _atom_site_symmetry_multiplicity
 _atom_site_fract_x
 _atom_site_fract_y
 _atom_site_fract_z
 _atom_site_occupancy
  Mg  Mg0  1  0.75520798  0.75520798  0.00000000  1
  Mg  Mg1  1  0.24479202  0.00000000  0.00000000  1
  Mg  Mg2  1  0.00000000  0.24479202  0.00000000  1
  Y  Y3  1  0.41172991  0.41172991  0.50000000  1
  Y  Y4  1  0.00000000  0.58827009  0.50000000  1
  Y  Y5  1  0.58827009  0.00000000  0.50000000  1
  Pd  Pd6  1  0.66666667  0.33333333  0.00000000  1
  Pd  Pd7  1  0.33333333  0.66666667  0.00000000  1
  Pd  Pd8  1  0.00000000  0.00000000  0.50000000  1
