# generated using pymatgen
data_BaPr2NiO5
_symmetry_space_group_name_H-M   'P 1'
_cell_length_a   3.87899935
_cell_length_b   6.02595396
_cell_length_c   6.94121677
_cell_angle_alpha   115.72306865
_cell_angle_beta   106.22043239
_cell_angle_gamma   90.00774900
_symmetry_Int_Tables_number   1
_chemical_formula_structural   BaPr2NiO5
_chemical_formula_sum   'Ba1 Pr2 Ni1 O5'
_cell_volume   138.96339752
_cell_formula_units_Z   1
loop_
 _symmetry_equiv_pos_site_id
 _symmetry_equiv_pos_as_xyz
  1  'x, y, z'
loop_
 _atom_site_type_symbol
 _atom_site_label
 _atom_site_symmetry_multiplicity
 _atom_site_fract_x
 _atom_site_fract_y
 _atom_site_fract_z
 _atom_site_occupancy
  O  O0  1  0.99999912  0.50000015  0.99999983  1
  O  O1  1  0.35601973  0.59778818  0.71198851  1
  O  O2  1  0.64398012  0.40221198  0.28801128  1
  O  O3  1  0.64400085  0.88580283  0.28801909  1
  O  O4  1  0.35599902  0.11419731  0.71198090  1
  Ni  Ni5  1  0.50000010  0.49999966  0.00000044  1
  Ba  Ba6  1  0.99999992  0.99999986  0.99999976  1
  Pr  Pr7  1  0.20265218  0.70261634  0.40521587  1
  Pr  Pr8  1  0.79734833  0.29738380  0.59478382  1
