# generated using pymatgen
data_Mg2Au
_symmetry_space_group_name_H-M   'P 1'
_cell_length_a   8.53811205
_cell_length_b   13.20547263
_cell_length_c   18.92033079
_cell_angle_alpha   90.00000000
_cell_angle_beta   90.00000000
_cell_angle_gamma   90.00000000
_symmetry_Int_Tables_number   1
_chemical_formula_structural   Mg2Au
_chemical_formula_sum   'Mg72 Au36'
_cell_volume   2133.26360688
_cell_formula_units_Z   36
loop_
 _symmetry_equiv_pos_site_id
 _symmetry_equiv_pos_as_xyz
  1  'x, y, z'
loop_
 _atom_site_type_symbol
 _atom_site_label
 _atom_site_symmetry_multiplicity
 _atom_site_fract_x
 _atom_site_fract_y
 _atom_site_fract_z
 _atom_site_occupancy
  Mg  Mg0  1  0.43931645  0.75000000  0.43715060  1
  Mg  Mg1  1  0.06068355  0.75000000  0.93715060  1
  Mg  Mg2  1  0.56068355  0.25000000  0.56284940  1
  Mg  Mg3  1  0.93931645  0.25000000  0.06284940  1
  Mg  Mg4  1  0.44109776  0.75000000  0.11986484  1
  Mg  Mg5  1  0.05890224  0.75000000  0.61986484  1
  Mg  Mg6  1  0.55890224  0.25000000  0.88013516  1
  Mg  Mg7  1  0.94109776  0.25000000  0.38013516  1
  Mg  Mg8  1  0.44094381  0.75000000  0.77251660  1
  Mg  Mg9  1  0.05905619  0.75000000  0.27251660  1
  Mg  Mg10  1  0.55905619  0.25000000  0.22748340  1
  Mg  Mg11  1  0.94094381  0.25000000  0.72748340  1
  Mg  Mg12  1  0.71092501  0.75000000  0.32386016  1
  Mg  Mg13  1  0.78907499  0.75000000  0.82386016  1
  Mg  Mg14  1  0.28907499  0.25000000  0.67613984  1
  Mg  Mg15  1  0.21092501  0.25000000  0.17613984  1
  Mg  Mg16  1  0.68911542  0.75000000  0.98947349  1
  Mg  Mg17  1  0.81088458  0.75000000  0.48947349  1
  Mg  Mg18  1  0.31088458  0.25000000  0.01052651  1
  Mg  Mg19  1  0.18911542  0.25000000  0.51052651  1
  Mg  Mg20  1  0.69569155  0.75000000  0.65357157  1
  Mg  Mg21  1  0.80430845  0.75000000  0.15357157  1
  Mg  Mg22  1  0.30430845  0.25000000  0.34642843  1
  Mg  Mg23  1  0.19569155  0.25000000  0.84642843  1
  Mg  Mg24  1  0.44191908  0.41575065  0.44643901  1
  Mg  Mg25  1  0.05808092  0.08424935  0.94643901  1
  Mg  Mg26  1  0.55808092  0.91575065  0.55356099  1
  Mg  Mg27  1  0.94191908  0.58424935  0.05356099  1
  Mg  Mg28  1  0.55808092  0.58424935  0.55356099  1
  Mg  Mg29  1  0.94191908  0.91575065  0.05356099  1
  Mg  Mg30  1  0.44191908  0.08424935  0.44643901  1
  Mg  Mg31  1  0.05808092  0.41575065  0.94643901  1
  Mg  Mg32  1  0.44020653  0.41950221  0.11233550  1
  Mg  Mg33  1  0.05979347  0.08049779  0.61233550  1
  Mg  Mg34  1  0.55979347  0.91950221  0.88766450  1
  Mg  Mg35  1  0.94020653  0.58049779  0.38766450  1
  Mg  Mg36  1  0.55979347  0.58049779  0.88766450  1
  Mg  Mg37  1  0.94020653  0.91950221  0.38766450  1
  Mg  Mg38  1  0.44020653  0.08049779  0.11233550  1
  Mg  Mg39  1  0.05979347  0.41950221  0.61233550  1
  Mg  Mg40  1  0.44294813  0.41551540  0.77098115  1
  Mg  Mg41  1  0.05705187  0.08448460  0.27098115  1
  Mg  Mg42  1  0.55705187  0.91551540  0.22901885  1
  Mg  Mg43  1  0.94294813  0.58448460  0.72901885  1
  Mg  Mg44  1  0.55705187  0.58448460  0.22901885  1
  Mg  Mg45  1  0.94294813  0.91551540  0.72901885  1
  Mg  Mg46  1  0.44294813  0.08448460  0.77098115  1
  Mg  Mg47  1  0.05705187  0.41551540  0.27098115  1
  Mg  Mg48  1  0.69715473  0.41489002  0.32340894  1
  Mg  Mg49  1  0.80284527  0.08510998  0.82340894  1
  Mg  Mg50  1  0.30284527  0.91489002  0.67659106  1
  Mg  Mg51  1  0.19715473  0.58510998  0.17659106  1
  Mg  Mg52  1  0.30284527  0.58510998  0.67659106  1
  Mg  Mg53  1  0.19715473  0.91489002  0.17659106  1
  Mg  Mg54  1  0.69715473  0.08510998  0.32340894  1
  Mg  Mg55  1  0.80284527  0.41489002  0.82340894  1
  Mg  Mg56  1  0.68877691  0.41174997  0.98867027  1
  Mg  Mg57  1  0.81122309  0.08825003  0.48867027  1
  Mg  Mg58  1  0.31122309  0.91174997  0.01132973  1
  Mg  Mg59  1  0.18877691  0.58825003  0.51132973  1
  Mg  Mg60  1  0.31122309  0.58825003  0.01132973  1
  Mg  Mg61  1  0.18877691  0.91174997  0.51132973  1
  Mg  Mg62  1  0.68877691  0.08825003  0.98867027  1
  Mg  Mg63  1  0.81122309  0.41174997  0.48867027  1
  Mg  Mg64  1  0.70563491  0.42279918  0.65361865  1
  Mg  Mg65  1  0.79436509  0.07720082  0.15361865  1
  Mg  Mg66  1  0.29436509  0.92279918  0.34638135  1
  Mg  Mg67  1  0.20563491  0.57720082  0.84638135  1
  Mg  Mg68  1  0.29436509  0.57720082  0.34638135  1
  Mg  Mg69  1  0.20563491  0.92279918  0.84638135  1
  Mg  Mg70  1  0.70563491  0.07720082  0.65361865  1
  Mg  Mg71  1  0.79436509  0.42279918  0.15361865  1
  Au  Au72  1  0.37358659  0.75000000  0.58610272  1
  Au  Au73  1  0.12641341  0.75000000  0.08610272  1
  Au  Au74  1  0.62641341  0.25000000  0.41389728  1
  Au  Au75  1  0.87358659  0.25000000  0.91389728  1
  Au  Au76  1  0.37905484  0.75000000  0.91482040  1
  Au  Au77  1  0.12094516  0.75000000  0.41482040  1
  Au  Au78  1  0.62094516  0.25000000  0.08517960  1
  Au  Au79  1  0.87905484  0.25000000  0.58517960  1
  Au  Au80  1  0.37918342  0.75000000  0.26556885  1
  Au  Au81  1  0.12081658  0.75000000  0.76556885  1
  Au  Au82  1  0.62081658  0.25000000  0.73443115  1
  Au  Au83  1  0.87918342  0.25000000  0.23443115  1
  Au  Au84  1  0.62292497  0.91737584  0.40948812  1
  Au  Au85  1  0.87707503  0.58262416  0.90948812  1
  Au  Au86  1  0.37707503  0.41737584  0.59051188  1
  Au  Au87  1  0.12292497  0.08262416  0.09051188  1
  Au  Au88  1  0.37707503  0.08262416  0.59051188  1
  Au  Au89  1  0.12292497  0.41737584  0.09051188  1
  Au  Au90  1  0.62292497  0.58262416  0.40948812  1
  Au  Au91  1  0.87707503  0.91737584  0.90948812  1
  Au  Au92  1  0.62365003  0.91460749  0.08175465  1
  Au  Au93  1  0.87634997  0.58539251  0.58175465  1
  Au  Au94  1  0.37634997  0.41460749  0.91824535  1
  Au  Au95  1  0.12365003  0.08539251  0.41824535  1
  Au  Au96  1  0.37634997  0.08539251  0.91824535  1
  Au  Au97  1  0.12365003  0.41460749  0.41824535  1
  Au  Au98  1  0.62365003  0.58539251  0.08175465  1
  Au  Au99  1  0.87634997  0.91460749  0.58175465  1
  Au  Au100  1  0.62428253  0.91606468  0.74422909  1
  Au  Au101  1  0.87571747  0.58393532  0.24422909  1
  Au  Au102  1  0.37571747  0.41606468  0.25577091  1
  Au  Au103  1  0.12428253  0.08393532  0.75577091  1
  Au  Au104  1  0.37571747  0.08393532  0.25577091  1
  Au  Au105  1  0.12428253  0.41606468  0.75577091  1
  Au  Au106  1  0.62428253  0.58393532  0.74422909  1
  Au  Au107  1  0.87571747  0.91606468  0.24422909  1
