# generated using pymatgen
data_SiC
_symmetry_space_group_name_H-M   'P 1'
_cell_length_a   3.09414056
_cell_length_b   3.09414050
_cell_length_c   40.48348898
_cell_angle_alpha   90.00000000
_cell_angle_beta   90.00000000
_cell_angle_gamma   120.00000063
_symmetry_Int_Tables_number   1
_chemical_formula_structural   SiC
_chemical_formula_sum   'Si16 C16'
_cell_volume   335.65153108
_cell_formula_units_Z   16
loop_
 _symmetry_equiv_pos_site_id
 _symmetry_equiv_pos_as_xyz
  1  'x, y, z'
loop_
 _atom_site_type_symbol
 _atom_site_label
 _atom_site_symmetry_multiplicity
 _atom_site_fract_x
 _atom_site_fract_y
 _atom_site_fract_z
 _atom_site_occupancy
  Si  Si0  1  0.33333300  0.66666700  0.81248474  1
  Si  Si1  1  0.33333300  0.66666700  0.56251596  1
  Si  Si2  1  0.00000000  0.00000000  0.37501273  1
  Si  Si3  1  0.66666700  0.33333300  0.93743755  1
  Si  Si4  1  0.66666700  0.33333300  0.06251596  1
  Si  Si5  1  0.00000000  0.00000000  0.24997443  1
  Si  Si6  1  0.00000000  0.00000000  0.87501273  1
  Si  Si7  1  0.66666700  0.33333300  0.68747946  1
  Si  Si8  1  0.66666700  0.33333300  0.49998198  1
  Si  Si9  1  0.33333300  0.66666700  0.43743755  1
  Si  Si10  1  0.33333300  0.66666700  0.99998198  1
  Si  Si11  1  0.00000000  0.00000000  0.74997443  1
  Si  Si12  1  0.66666700  0.33333300  0.31248474  1
  Si  Si13  1  0.00000000  0.00000000  0.62494228  1
  Si  Si14  1  0.33333300  0.66666700  0.18747946  1
  Si  Si15  1  0.00000000  0.00000000  0.12494228  1
  C  C16  1  0.00000000  0.00000000  0.17181752  1
  C  C17  1  0.33333300  0.66666700  0.48431562  1
  C  C18  1  0.66666700  0.33333300  0.35947666  1
  C  C19  1  0.33333300  0.66666700  0.04697821  1
  C  C20  1  0.66666700  0.33333300  0.54697821  1
  C  C21  1  0.00000000  0.00000000  0.92188338  1
  C  C22  1  0.33333300  0.66666700  0.60938097  1
  C  C23  1  0.66666700  0.33333300  0.73447421  1
  C  C24  1  0.00000000  0.00000000  0.42188338  1
  C  C25  1  0.66666700  0.33333300  0.98431562  1
  C  C26  1  0.00000000  0.00000000  0.79680427  1
  C  C27  1  0.66666700  0.33333300  0.10938097  1
  C  C28  1  0.33333300  0.66666700  0.85947666  1
  C  C29  1  0.00000000  0.00000000  0.29680427  1
  C  C30  1  0.00000000  0.00000000  0.67181752  1
  C  C31  1  0.33333300  0.66666700  0.23447421  1
