# generated using pymatgen
data_CaSiO3
_symmetry_space_group_name_H-M   'P 1'
_cell_length_a   7.15107932
_cell_length_b   7.39278433
_cell_length_c   8.02477391
_cell_angle_alpha   103.45248333
_cell_angle_beta   95.51996534
_cell_angle_gamma   90.08050931
_symmetry_Int_Tables_number   1
_chemical_formula_structural   CaSiO3
_chemical_formula_sum   'Ca6 Si6 O18'
_cell_volume   410.56368732
_cell_formula_units_Z   6
loop_
 _symmetry_equiv_pos_site_id
 _symmetry_equiv_pos_as_xyz
  1  'x, y, z'
loop_
 _atom_site_type_symbol
 _atom_site_label
 _atom_site_symmetry_multiplicity
 _atom_site_fract_x
 _atom_site_fract_y
 _atom_site_fract_z
 _atom_site_occupancy
  O  O0  1  0.09327349  0.51157237  0.27045301  1
  O  O1  1  0.90672651  0.48842763  0.72954699  1
  O  O2  1  0.09379737  0.87056173  0.26860274  1
  O  O3  1  0.90620263  0.12943827  0.73139726  1
  O  O4  1  0.22875928  0.17953800  0.22135467  1
  O  O5  1  0.77124072  0.82046200  0.77864533  1
  O  O6  1  0.83125228  0.72551225  0.39926736  1
  O  O7  1  0.16874772  0.27448775  0.60073264  1
  O  O8  1  0.26309536  0.86812684  0.97959119  1
  O  O9  1  0.73690464  0.13187316  0.02040881  1
  O  O10  1  0.26718046  0.37190279  0.98193631  1
  O  O11  1  0.73281954  0.62809721  0.01806369  1
  O  O12  1  0.53427629  0.53634325  0.69625047  1
  O  O13  1  0.46572371  0.46365675  0.30374953  1
  O  O14  1  0.53418643  0.06384738  0.69893249  1
  O  O15  1  0.46581357  0.93615262  0.30106751  1
  O  O16  1  0.79835613  0.23125287  0.43106282  1
  O  O17  1  0.20164387  0.76874713  0.56893718  1
  Si  Si18  1  0.05799879  0.72309266  0.39482942  1
  Si  Si19  1  0.94200121  0.27690734  0.60517058  1
  Si  Si20  1  0.27016544  0.95387442  0.18408396  1
  Si  Si21  1  0.72983456  0.04612558  0.81591604  1
  Si  Si22  1  0.27056226  0.38742583  0.18480846  1
  Si  Si23  1  0.72943774  0.61257417  0.81519154  1
  Ca  Ca24  1  0.52973389  0.75051905  0.50428435  1
  Ca  Ca25  1  0.47026611  0.24948095  0.49571565  1
  Ca  Ca26  1  0.76307570  0.92977747  0.20471160  1
  Ca  Ca27  1  0.23692430  0.07022253  0.79528840  1
  Ca  Ca28  1  0.75960115  0.42396736  0.19750069  1
  Ca  Ca29  1  0.24039885  0.57603264  0.80249931  1
