# generated using pymatgen
data_SiC
_symmetry_space_group_name_H-M   'P 1'
_cell_length_a   3.09470915
_cell_length_b   3.09470896
_cell_length_c   68.33205373
_cell_angle_alpha   90.00000000
_cell_angle_beta   90.00000000
_cell_angle_gamma   120.00000197
_symmetry_Int_Tables_number   1
_chemical_formula_structural   SiC
_chemical_formula_sum   'Si27 C27'
_cell_volume   566.75420041
_cell_formula_units_Z   27
loop_
 _symmetry_equiv_pos_site_id
 _symmetry_equiv_pos_as_xyz
  1  'x, y, z'
loop_
 _atom_site_type_symbol
 _atom_site_label
 _atom_site_symmetry_multiplicity
 _atom_site_fract_x
 _atom_site_fract_y
 _atom_site_fract_z
 _atom_site_occupancy
  Si  Si0  1  0.00000000  0.00000000  0.22221379  1
  Si  Si1  1  0.66666700  0.33333300  0.96295021  1
  Si  Si2  1  0.66666700  0.33333300  0.40737805  1
  Si  Si3  1  0.33333300  0.66666700  0.29626448  1
  Si  Si4  1  0.33333300  0.66666700  0.51848590  1
  Si  Si5  1  0.66666700  0.33333300  0.62959670  1
  Si  Si6  1  0.00000000  0.00000000  0.92589156  1
  Si  Si7  1  0.00000000  0.00000000  0.77776835  1
  Si  Si8  1  0.00000000  0.00000000  0.44443384  1
  Si  Si9  1  0.33333300  0.66666700  0.74070760  1
  Si  Si10  1  0.33333300  0.66666700  0.14813805  1
  Si  Si11  1  0.00000000  0.00000000  0.66665312  1
  Si  Si12  1  0.66666700  0.33333300  0.18517181  1
  Si  Si13  1  0.66666700  0.33333300  0.48148574  1
  Si  Si14  1  0.33333300  0.66666700  0.88889672  1
  Si  Si15  1  0.66666700  0.33333300  0.11107101  1
  Si  Si16  1  0.33333300  0.66666700  0.81479485  1
  Si  Si17  1  0.66666700  0.33333300  0.25926502  1
  Si  Si18  1  0.00000000  0.00000000  0.99998346  1
  Si  Si19  1  0.66666700  0.33333300  0.85183846  1
  Si  Si20  1  0.00000000  0.00000000  0.55554658  1
  Si  Si21  1  0.00000000  0.00000000  0.07407497  1
  Si  Si22  1  0.00000000  0.00000000  0.33332460  1
  Si  Si23  1  0.66666700  0.33333300  0.70370736  1
  Si  Si24  1  0.33333300  0.66666700  0.59260074  1
  Si  Si25  1  0.33333300  0.66666700  0.37037995  1
  Si  Si26  1  0.33333300  0.66666700  0.03702710  1
  C  C27  1  0.00000000  0.00000000  0.80562547  1
  C  C28  1  0.66666700  0.33333300  0.50926344  1
  C  C29  1  0.33333300  0.66666700  0.91667420  1
  C  C30  1  0.33333300  0.66666700  0.06488051  1
  C  C31  1  0.66666700  0.33333300  0.99081404  1
  C  C32  1  0.66666700  0.33333300  0.43515529  1
  C  C33  1  0.66666700  0.33333300  0.13885734  1
  C  C34  1  0.00000000  0.00000000  0.47229019  1
  C  C35  1  0.33333300  0.66666700  0.76849227  1
  C  C36  1  0.33333300  0.66666700  0.39815179  1
  C  C37  1  0.33333300  0.66666700  0.62037418  1
  C  C38  1  0.00000000  0.00000000  0.10185644  1
  C  C39  1  0.00000000  0.00000000  0.02773746  1
  C  C40  1  0.66666700  0.33333300  0.21292577  1
  C  C41  1  0.00000000  0.00000000  0.95367696  1
  C  C42  1  0.00000000  0.00000000  0.58339441  1
  C  C43  1  0.00000000  0.00000000  0.69450277  1
  C  C44  1  0.66666700  0.33333300  0.87969886  1
  C  C45  1  0.33333300  0.66666700  0.17599380  1
  C  C46  1  0.00000000  0.00000000  0.36117760  1
  C  C47  1  0.66666700  0.33333300  0.73147905  1
  C  C48  1  0.33333300  0.66666700  0.32404379  1
  C  C49  1  0.66666700  0.33333300  0.65736856  1
  C  C50  1  0.66666700  0.33333300  0.28704098  1
  C  C51  1  0.00000000  0.00000000  0.25007003  1
  C  C52  1  0.33333300  0.66666700  0.54625921  1
  C  C53  1  0.33333300  0.66666700  0.84255561  1
