# generated using pymatgen
data_KIO4
_symmetry_space_group_name_H-M   'P 1'
_cell_length_a   5.85724828
_cell_length_b   5.85708377
_cell_length_c   7.66889415
_cell_angle_alpha   112.44140826
_cell_angle_beta   112.44566445
_cell_angle_gamma   90.01055956
_symmetry_Int_Tables_number   1
_chemical_formula_structural   KIO4
_chemical_formula_sum   'K2 I2 O8'
_cell_volume   221.44250239
_cell_formula_units_Z   2
loop_
 _symmetry_equiv_pos_site_id
 _symmetry_equiv_pos_as_xyz
  1  'x, y, z'
loop_
 _atom_site_type_symbol
 _atom_site_label
 _atom_site_symmetry_multiplicity
 _atom_site_fract_x
 _atom_site_fract_y
 _atom_site_fract_z
 _atom_site_occupancy
  O  O0  1  0.92574851  0.76675745  0.59430956  1
  O  O1  1  0.82753504  0.42573426  0.09428631  1
  O  O2  1  0.26681052  0.16855315  0.09431892  1
  O  O3  1  0.66855406  0.32755002  0.59429168  1
  O  O4  1  0.33144594  0.67244998  0.40570832  1
  O  O5  1  0.73318948  0.83144685  0.90568108  1
  O  O6  1  0.17246496  0.57426574  0.90571369  1
  O  O7  1  0.07425149  0.23324255  0.40569044  1
  K  K8  1  0.62500775  0.87500531  0.25001068  1
  K  K9  1  0.37499225  0.12499469  0.74998932  1
  I  I10  1  0.87497730  0.62495778  0.74991543  1
  I  I11  1  0.12502270  0.37504222  0.25008457  1
