# generated using pymatgen
data_KNbO3
_symmetry_space_group_name_H-M   'P 1'
_cell_length_a   4.01755117
_cell_length_b   4.13066071
_cell_length_c   4.13066072
_cell_angle_alpha   90.35216643
_cell_angle_beta   90.00000000
_cell_angle_gamma   90.00000000
_symmetry_Int_Tables_number   1
_chemical_formula_structural   KNbO3
_chemical_formula_sum   'K1 Nb1 O3'
_cell_volume   68.54760131
_cell_formula_units_Z   1
loop_
 _symmetry_equiv_pos_site_id
 _symmetry_equiv_pos_as_xyz
  1  'x, y, z'
loop_
 _atom_site_type_symbol
 _atom_site_label
 _atom_site_symmetry_multiplicity
 _atom_site_fract_x
 _atom_site_fract_y
 _atom_site_fract_z
 _atom_site_occupancy
  O  O0  1  0.00000000  0.53797555  0.97160921  1
  O  O1  1  0.00000000  0.02839079  0.46202445  1
  O  O2  1  0.50000000  0.03630805  0.96369195  1
  K  K3  1  0.50000000  0.51016930  0.48983070  1
  Nb  Nb4  1  0.00000000  0.99515631  0.00484369  1
