# generated using pymatgen
data_SiC
_symmetry_space_group_name_H-M   'P 1'
_cell_length_a   3.09404143
_cell_length_b   3.09404137
_cell_length_c   45.55453504
_cell_angle_alpha   90.00000000
_cell_angle_beta   90.00000000
_cell_angle_gamma   120.00000072
_symmetry_Int_Tables_number   1
_chemical_formula_structural   SiC
_chemical_formula_sum   'Si18 C18'
_cell_volume   377.67173925
_cell_formula_units_Z   18
loop_
 _symmetry_equiv_pos_site_id
 _symmetry_equiv_pos_as_xyz
  1  'x, y, z'
loop_
 _atom_site_type_symbol
 _atom_site_label
 _atom_site_symmetry_multiplicity
 _atom_site_fract_x
 _atom_site_fract_y
 _atom_site_fract_z
 _atom_site_occupancy
  Si  Si0  1  0.00000000  0.00000000  0.22220218  1
  Si  Si1  1  0.66666700  0.33333300  0.33331622  1
  Si  Si2  1  0.33333300  0.66666700  0.72222887  1
  Si  Si3  1  0.66666700  0.33333300  0.55554133  1
  Si  Si4  1  0.00000000  0.00000000  0.44442719  1
  Si  Si5  1  0.33333300  0.66666700  0.27775716  1
  Si  Si6  1  0.00000000  0.00000000  0.66664729  1
  Si  Si7  1  0.33333300  0.66666700  0.05553057  1
  Si  Si8  1  0.33333300  0.66666700  0.61108662  1
  Si  Si9  1  0.66666700  0.33333300  0.88890026  1
  Si  Si10  1  0.00000000  0.00000000  0.83331597  1
  Si  Si11  1  0.33333300  0.66666700  0.94438919  1
  Si  Si12  1  0.66666700  0.33333300  0.11109382  1
  Si  Si13  1  0.00000000  0.00000000  0.99998236  1
  Si  Si14  1  0.33333300  0.66666700  0.16664160  1
  Si  Si15  1  0.66666700  0.33333300  0.77772721  1
  Si  Si16  1  0.33333300  0.66666700  0.38886641  1
  Si  Si17  1  0.33333300  0.66666700  0.49997089  1
  C  C18  1  0.33333300  0.66666700  0.54160006  1
  C  C19  1  0.66666700  0.33333300  0.93056747  1
  C  C20  1  0.00000000  0.00000000  0.04176363  1
  C  C21  1  0.66666700  0.33333300  0.59731460  1
  C  C22  1  0.00000000  0.00000000  0.26398436  1
  C  C23  1  0.33333300  0.66666700  0.20828054  1
  C  C24  1  0.33333300  0.66666700  0.43050422  1
  C  C25  1  0.00000000  0.00000000  0.70843613  1
  C  C26  1  0.66666700  0.33333300  0.15287500  1
  C  C27  1  0.33333300  0.66666700  0.98605639  1
  C  C28  1  0.33333300  0.66666700  0.76388989  1
  C  C29  1  0.33333300  0.66666700  0.09716922  1
  C  C30  1  0.33333300  0.66666700  0.31939510  1
  C  C31  1  0.00000000  0.00000000  0.48620061  1
  C  C32  1  0.66666700  0.33333300  0.81940805  1
  C  C33  1  0.33333300  0.66666700  0.65273606  1
  C  C34  1  0.00000000  0.00000000  0.87509709  1
  C  C35  1  0.66666700  0.33333300  0.37509645  1
