# generated using pymatgen
data_SiC
_symmetry_space_group_name_H-M   'P 1'
_cell_length_a   3.09495858
_cell_length_b   3.09495837
_cell_length_c   35.42028978
_cell_angle_alpha   90.00000000
_cell_angle_beta   90.00000000
_cell_angle_gamma   120.00000226
_symmetry_Int_Tables_number   1
_chemical_formula_structural   SiC
_chemical_formula_sum   'Si14 C14'
_cell_volume   293.82746246
_cell_formula_units_Z   14
loop_
 _symmetry_equiv_pos_site_id
 _symmetry_equiv_pos_as_xyz
  1  'x, y, z'
loop_
 _atom_site_type_symbol
 _atom_site_label
 _atom_site_symmetry_multiplicity
 _atom_site_fract_x
 _atom_site_fract_y
 _atom_site_fract_z
 _atom_site_occupancy
  Si  Si0  1  0.66666700  0.33333300  0.14283430  1
  Si  Si1  1  0.00000000  0.00000000  0.64279103  1
  Si  Si2  1  0.00000000  0.00000000  0.21422045  1
  Si  Si3  1  0.33333300  0.66666700  0.07144997  1
  Si  Si4  1  0.66666700  0.33333300  0.85712496  1
  Si  Si5  1  0.66666700  0.33333300  0.57145242  1
  Si  Si6  1  0.00000000  0.00000000  0.78573266  1
  Si  Si7  1  0.00000000  0.00000000  0.35716231  1
  Si  Si8  1  0.00000000  0.00000000  0.99998245  1
  Si  Si9  1  0.66666700  0.33333300  0.42850749  1
  Si  Si10  1  0.33333300  0.66666700  0.92851006  1
  Si  Si11  1  0.33333300  0.66666700  0.28569950  1
  Si  Si12  1  0.33333300  0.66666700  0.49998305  1
  Si  Si13  1  0.33333300  0.66666700  0.71426435  1
  C  C14  1  0.66666700  0.33333300  0.19644751  1
  C  C15  1  0.33333300  0.66666700  0.33940028  1
  C  C16  1  0.66666700  0.33333300  0.91073426  1
  C  C17  1  0.00000000  0.00000000  0.83929526  1
  C  C18  1  0.00000000  0.00000000  0.41071850  1
  C  C19  1  0.33333300  0.66666700  0.55368554  1
  C  C20  1  0.00000000  0.00000000  0.26779923  1
  C  C21  1  0.33333300  0.66666700  0.76798876  1
  C  C22  1  0.33333300  0.66666700  0.98206366  1
  C  C23  1  0.00000000  0.00000000  0.69637288  1
  C  C24  1  0.00000000  0.00000000  0.05368624  1
  C  C25  1  0.66666700  0.33333300  0.48206350  1
  C  C26  1  0.66666700  0.33333300  0.62501494  1
  C  C27  1  0.33333300  0.66666700  0.12501441  1
