# generated using pymatgen
data_SiC
_symmetry_space_group_name_H-M   'P 1'
_cell_length_a   3.09491757
_cell_length_b   3.09491758
_cell_length_c   53.13655191
_cell_angle_alpha   90.00000000
_cell_angle_beta   90.00000000
_cell_angle_gamma   119.99999981
_symmetry_Int_Tables_number   1
_chemical_formula_structural   SiC
_chemical_formula_sum   'Si21 C21'
_cell_volume   440.78029961
_cell_formula_units_Z   21
loop_
 _symmetry_equiv_pos_site_id
 _symmetry_equiv_pos_as_xyz
  1  'x, y, z'
loop_
 _atom_site_type_symbol
 _atom_site_label
 _atom_site_symmetry_multiplicity
 _atom_site_fract_x
 _atom_site_fract_y
 _atom_site_fract_z
 _atom_site_occupancy
  Si  Si0  1  0.66666700  0.33333300  0.47620181  1
  Si  Si1  1  0.66666700  0.33333300  0.19048894  1
  Si  Si2  1  0.33333300  0.66666700  0.61906717  1
  Si  Si3  1  0.66666700  0.33333300  0.09520907  1
  Si  Si4  1  0.33333300  0.66666700  0.76188190  1
  Si  Si5  1  0.66666700  0.33333300  0.90477011  1
  Si  Si6  1  0.00000000  0.00000000  0.71426933  1
  Si  Si7  1  0.00000000  0.00000000  0.28569843  1
  Si  Si8  1  0.33333300  0.66666700  0.95234242  1
  Si  Si9  1  0.33333300  0.66666700  0.52376749  1
  Si  Si10  1  0.00000000  0.00000000  0.14285485  1
  Si  Si11  1  0.33333300  0.66666700  0.23805335  1
  Si  Si12  1  0.00000000  0.00000000  -0.00000471  1
  Si  Si13  1  0.00000000  0.00000000  0.42855947  1
  Si  Si14  1  0.33333300  0.66666700  0.33333113  1
  Si  Si15  1  0.33333300  0.66666700  0.04763918  1
  Si  Si16  1  0.66666700  0.33333300  0.80947340  1
  Si  Si17  1  0.66666700  0.33333300  0.66665762  1
  Si  Si18  1  0.00000000  0.00000000  0.57141812  1
  Si  Si19  1  0.66666700  0.33333300  0.38090100  1
  Si  Si20  1  0.00000000  0.00000000  0.85712658  1
  C  C21  1  0.33333300  0.66666700  0.27375877  1
  C  C22  1  0.66666700  0.33333300  0.70239165  1
  C  C23  1  0.66666700  0.33333300  0.94047933  1
  C  C24  1  0.33333300  0.66666700  0.65478743  1
  C  C25  1  0.33333300  0.66666700  0.79761598  1
  C  C26  1  0.00000000  0.00000000  0.32150425  1
  C  C27  1  0.33333300  0.66666700  0.08336252  1
  C  C28  1  0.00000000  0.00000000  0.60723652  1
  C  C29  1  0.00000000  0.00000000  0.03582055  1
  C  C30  1  0.66666700  0.33333300  0.22619374  1
  C  C31  1  0.00000000  0.00000000  0.17866985  1
  C  C32  1  0.66666700  0.33333300  0.51190275  1
  C  C33  1  0.00000000  0.00000000  0.89293967  1
  C  C34  1  0.00000000  0.00000000  0.46436413  1
  C  C35  1  0.33333300  0.66666700  0.55947271  1
  C  C36  1  0.33333300  0.66666700  0.98804713  1
  C  C37  1  0.66666700  0.33333300  0.84518390  1
  C  C38  1  0.33333300  0.66666700  0.36903031  1
  C  C39  1  0.66666700  0.33333300  0.13092243  1
  C  C40  1  0.66666700  0.33333300  0.41659857  1
  C  C41  1  0.00000000  0.00000000  0.75001112  1
