# generated using pymatgen
data_HoGa3
_symmetry_space_group_name_H-M   'P 1'
_cell_length_a   6.25055745
_cell_length_b   6.25055810
_cell_length_c   4.58462361
_cell_angle_alpha   90.00000000
_cell_angle_beta   90.00000000
_cell_angle_gamma   120.00000212
_symmetry_Int_Tables_number   1
_chemical_formula_structural   HoGa3
_chemical_formula_sum   'Ho2 Ga6'
_cell_volume   155.12145029
_cell_formula_units_Z   2
loop_
 _symmetry_equiv_pos_site_id
 _symmetry_equiv_pos_as_xyz
  1  'x, y, z'
loop_
 _atom_site_type_symbol
 _atom_site_label
 _atom_site_symmetry_multiplicity
 _atom_site_fract_x
 _atom_site_fract_y
 _atom_site_fract_z
 _atom_site_occupancy
  Ho  Ho0  1  0.33333300  0.66666600  0.75000100  1
  Ho  Ho1  1  0.66666800  0.33333400  0.24999900  1
  Ga  Ga2  1  0.14953291  0.29906583  0.24999900  1
  Ga  Ga3  1  0.70093617  0.85046809  0.24999900  1
  Ga  Ga4  1  0.14953291  0.85046809  0.24999900  1
  Ga  Ga5  1  0.85046809  0.70093417  0.75000100  1
  Ga  Ga6  1  0.29906583  0.14953191  0.75000100  1
  Ga  Ga7  1  0.85046609  0.14953191  0.75000100  1
