# generated using pymatgen
data_Sr2Co(ClO)2
_symmetry_space_group_name_H-M   'P 1'
_cell_length_a   4.09720829
_cell_length_b   4.09720829
_cell_length_c   8.19786153
_cell_angle_alpha   104.47129555
_cell_angle_beta   104.47129550
_cell_angle_gamma   89.99999999
_symmetry_Int_Tables_number   1
_chemical_formula_structural   Sr2Co(ClO)2
_chemical_formula_sum   'Sr2 Co1 Cl2 O2'
_cell_volume   128.73799895
_cell_formula_units_Z   1
loop_
 _symmetry_equiv_pos_site_id
 _symmetry_equiv_pos_as_xyz
  1  'x, y, z'
loop_
 _atom_site_type_symbol
 _atom_site_label
 _atom_site_symmetry_multiplicity
 _atom_site_fract_x
 _atom_site_fract_y
 _atom_site_fract_z
 _atom_site_occupancy
  O  O0  1  0.50000000  1.00000000  0.00000032  1
  O  O1  1  0.99999909  0.49999963  0.00000017  1
  Cl  Cl2  1  0.17991421  0.17991560  0.35983024  1
  Cl  Cl3  1  0.82008457  0.82008443  0.64016980  1
  Co  Co4  1  0.00000000  0.00000000  0.00000000  1
  Sr  Sr5  1  0.60744247  0.60744237  0.21488320  1
  Sr  Sr6  1  0.39255886  0.39255766  0.78511715  1
