# generated using pymatgen
data_WO3
_symmetry_space_group_name_H-M   'P 1'
_cell_length_a   7.68868627
_cell_length_b   7.74975516
_cell_length_c   7.76990407
_cell_angle_alpha   90.00000000
_cell_angle_beta   90.00000000
_cell_angle_gamma   90.00000000
_symmetry_Int_Tables_number   1
_chemical_formula_structural   WO3
_chemical_formula_sum   'W8 O24'
_cell_volume   462.97312242
_cell_formula_units_Z   8
loop_
 _symmetry_equiv_pos_site_id
 _symmetry_equiv_pos_as_xyz
  1  'x, y, z'
loop_
 _atom_site_type_symbol
 _atom_site_label
 _atom_site_symmetry_multiplicity
 _atom_site_fract_x
 _atom_site_fract_y
 _atom_site_fract_z
 _atom_site_occupancy
  W  W0  1  0.25000000  0.01631758  0.48516931  1
  W  W1  1  0.25000000  0.51629843  0.51480837  1
  W  W2  1  0.25000000  0.01629843  0.98519163  1
  W  W3  1  0.75000000  0.48368242  0.98516931  1
  W  W4  1  0.75000000  0.98368242  0.51483069  1
  W  W5  1  0.75000000  0.48370157  0.48519163  1
  W  W6  1  0.75000000  0.98370157  0.01480837  1
  W  W7  1  0.25000000  0.51631758  0.01483069  1
  O  O8  1  0.75000000  0.24404947  0.49921300  1
  O  O9  1  0.75000000  0.99345423  0.75325023  1
  O  O10  1  0.50000000  0.00000000  0.50000000  1
  O  O11  1  0.75000000  0.74403908  0.50081884  1
  O  O12  1  0.25000000  0.50654577  0.25325023  1
  O  O13  1  0.75000000  0.74404947  0.00078700  1
  O  O14  1  0.00000000  0.00000000  0.00000000  1
  O  O15  1  0.75000000  0.24403908  0.99918116  1
  O  O16  1  0.25000000  0.75596092  0.00081884  1
  O  O17  1  0.75000000  0.99345272  0.25323745  1
  O  O18  1  0.25000000  0.00654728  0.74676255  1
  O  O19  1  0.25000000  0.75595053  0.50078700  1
  O  O20  1  0.25000000  0.00654577  0.24674977  1
  O  O21  1  0.25000000  0.25596092  0.49918116  1
  O  O22  1  0.00000000  0.00000000  0.50000000  1
  O  O23  1  0.50000000  0.50000000  0.50000000  1
  O  O24  1  0.25000000  0.50654728  0.75323745  1
  O  O25  1  0.75000000  0.49345423  0.74674977  1
  O  O26  1  0.75000000  0.49345272  0.24676255  1
  O  O27  1  0.00000000  0.50000000  0.00000000  1
  O  O28  1  0.25000000  0.25595053  0.99921300  1
  O  O29  1  0.00000000  0.50000000  0.50000000  1
  O  O30  1  0.50000000  0.50000000  0.00000000  1
  O  O31  1  0.50000000  0.00000000  0.00000000  1
