# generated using pymatgen
data_RbTiBr3
_symmetry_space_group_name_H-M   'P 1'
_cell_length_a   7.84374685
_cell_length_b   7.84374664
_cell_length_c   5.90817558
_cell_angle_alpha   90.00000000
_cell_angle_beta   90.00000000
_cell_angle_gamma   120.00000092
_symmetry_Int_Tables_number   1
_chemical_formula_structural   RbTiBr3
_chemical_formula_sum   'Rb2 Ti2 Br6'
_cell_volume   314.79740738
_cell_formula_units_Z   2
loop_
 _symmetry_equiv_pos_site_id
 _symmetry_equiv_pos_as_xyz
  1  'x, y, z'
loop_
 _atom_site_type_symbol
 _atom_site_label
 _atom_site_symmetry_multiplicity
 _atom_site_fract_x
 _atom_site_fract_y
 _atom_site_fract_z
 _atom_site_occupancy
  Rb  Rb0  1  0.66666700  0.33333300  0.25000000  1
  Rb  Rb1  1  0.33333300  0.66666700  0.75000000  1
  Ti  Ti2  1  0.00000000  0.00000000  0.00000000  1
  Ti  Ti3  1  0.00000000  0.00000000  0.50000000  1
  Br  Br4  1  0.67132079  0.83566040  0.25000000  1
  Br  Br5  1  0.83566040  0.16433960  0.75000000  1
  Br  Br6  1  0.16433960  0.83566040  0.25000000  1
  Br  Br7  1  0.32867921  0.16433960  0.75000000  1
  Br  Br8  1  0.16433960  0.32867921  0.25000000  1
  Br  Br9  1  0.83566040  0.67132079  0.75000000  1
