# generated using pymatgen
data_ScCrC2
_symmetry_space_group_name_H-M   'P 1'
_cell_length_a   3.25844416
_cell_length_b   3.25844416
_cell_length_c   9.02811477
_cell_angle_alpha   90.00000000
_cell_angle_beta   90.00000000
_cell_angle_gamma   119.99999999
_symmetry_Int_Tables_number   1
_chemical_formula_structural   ScCrC2
_chemical_formula_sum   'Sc2 Cr2 C4'
_cell_volume   83.01341285
_cell_formula_units_Z   2
loop_
 _symmetry_equiv_pos_site_id
 _symmetry_equiv_pos_as_xyz
  1  'x, y, z'
loop_
 _atom_site_type_symbol
 _atom_site_label
 _atom_site_symmetry_multiplicity
 _atom_site_fract_x
 _atom_site_fract_y
 _atom_site_fract_z
 _atom_site_occupancy
  C  C0  1  0.33333333  0.66666667  0.83458340  1
  C  C1  1  0.66666667  0.33333333  0.33458340  1
  C  C2  1  0.33333333  0.66666667  0.66541660  1
  C  C3  1  0.66666667  0.33333333  0.16541660  1
  Sc  Sc4  1  0.00000000  0.00000000  0.50000000  1
  Sc  Sc5  1  0.00000000  0.00000000  0.00000000  1
  Cr  Cr6  1  0.33333333  0.66666667  0.25000000  1
  Cr  Cr7  1  0.66666667  0.33333333  0.75000000  1
