# generated using pymatgen
data_Li2MnP2O7
_symmetry_space_group_name_H-M   'P 1'
_cell_length_a   9.95108245
_cell_length_b   10.00670386
_cell_length_c   11.32788534
_cell_angle_alpha   102.52056628
_cell_angle_beta   90.00000000
_cell_angle_gamma   90.00000000
_symmetry_Int_Tables_number   1
_chemical_formula_structural   Li2MnP2O7
_chemical_formula_sum   'Li16 Mn8 P16 O56'
_cell_volume   1101.17702167
_cell_formula_units_Z   8
loop_
 _symmetry_equiv_pos_site_id
 _symmetry_equiv_pos_as_xyz
  1  'x, y, z'
loop_
 _atom_site_type_symbol
 _atom_site_label
 _atom_site_symmetry_multiplicity
 _atom_site_fract_x
 _atom_site_fract_y
 _atom_site_fract_z
 _atom_site_occupancy
  Li  Li0  1  0.39213304  0.41496532  0.97153682  1
  Li  Li1  1  0.78083536  0.38874540  0.55232571  1
  Li  Li2  1  0.10786696  0.91496532  0.97153682  1
  Li  Li3  1  0.21916464  0.61125460  0.44767429  1
  Li  Li4  1  0.28083536  0.11125460  0.44767429  1
  Li  Li5  1  0.41905037  0.82549951  0.44937362  1
  Li  Li6  1  0.71916464  0.88874540  0.55232571  1
  Li  Li7  1  0.58094963  0.17450049  0.55062638  1
  Li  Li8  1  0.60786696  0.58503468  0.02846318  1
  Li  Li9  1  0.59076496  0.15422958  0.04314241  1
  Li  Li10  1  0.40923504  0.84577042  0.95685759  1
  Li  Li11  1  0.89213304  0.08503468  0.02846318  1
  Li  Li12  1  0.91905037  0.67450049  0.55062638  1
  Li  Li13  1  0.08094963  0.32549951  0.44937362  1
  Li  Li14  1  0.09076496  0.34577042  0.95685759  1
  Li  Li15  1  0.90923504  0.65422958  0.04314241  1
  Mn  Mn16  1  0.91932258  0.79788625  0.32442888  1
  Mn  Mn17  1  0.28639498  0.24610963  0.17799451  1
  Mn  Mn18  1  0.41932258  0.70211375  0.67557112  1
  Mn  Mn19  1  0.21360502  0.74610963  0.17799451  1
  Mn  Mn20  1  0.71360502  0.75389037  0.82200549  1
  Mn  Mn21  1  0.58067742  0.29788625  0.32442888  1
  Mn  Mn22  1  0.08067742  0.20211375  0.67557112  1
  Mn  Mn23  1  0.78639498  0.25389037  0.82200549  1
  P  P24  1  0.54666126  0.02619271  0.76245484  1
  P  P25  1  0.29714523  0.11923734  0.89189746  1
  P  P26  1  0.14935213  0.87656998  0.57169889  1
  P  P27  1  0.04666126  0.47380729  0.23754516  1
  P  P28  1  0.20285477  0.61923734  0.89189746  1
  P  P29  1  0.43310231  0.55929177  0.24468321  1
  P  P30  1  0.64935213  0.62343002  0.42830111  1
  P  P31  1  0.79714523  0.38076266  0.10810254  1
  P  P32  1  0.70285477  0.88076266  0.10810254  1
  P  P33  1  0.06689769  0.05929177  0.24468321  1
  P  P34  1  0.56689769  0.44070823  0.75531679  1
  P  P35  1  0.95333874  0.52619271  0.76245484  1
  P  P36  1  0.93310231  0.94070823  0.75531679  1
  P  P37  1  0.85064787  0.12343002  0.42830111  1
  P  P38  1  0.35064787  0.37656998  0.57169889  1
  P  P39  1  0.45333874  0.97380729  0.23754516  1
  O  O40  1  0.08691173  0.47505710  0.36729660  1
  O  O41  1  0.82994666  0.83595285  0.68593664  1
  O  O42  1  0.08753376  0.91532319  0.26987885  1
  O  O43  1  0.22288397  0.48209222  0.92491884  1
  O  O44  1  0.53433637  0.87965762  0.78809339  1
  O  O45  1  0.33985259  0.52170249  0.55099705  1
  O  O46  1  0.17242651  0.18311229  0.84754556  1
  O  O47  1  0.83985259  0.97829751  0.44900295  1
  O  O48  1  0.17005334  0.16404715  0.31406336  1
  O  O49  1  0.39837480  0.09469004  0.77583693  1
  O  O50  1  0.03433637  0.62034238  0.21190661  1
  O  O51  1  0.27711603  0.98209222  0.92491884  1
  O  O52  1  0.93806534  0.22464106  0.51789582  1
  O  O53  1  0.91246624  0.08467681  0.73012115  1
  O  O54  1  0.77711603  0.51790778  0.07508116  1
  O  O55  1  0.82757349  0.81688771  0.15245444  1
  O  O56  1  0.58068013  0.61201397  0.29599164  1
  O  O57  1  0.60162520  0.90530996  0.22416307  1
  O  O58  1  0.56193466  0.72464106  0.51789582  1
  O  O59  1  0.32757349  0.68311229  0.84754556  1
  O  O60  1  0.46566363  0.12034238  0.21190661  1
  O  O61  1  0.32994666  0.66404715  0.31406336  1
  O  O62  1  0.89837480  0.40530996  0.22416307  1
  O  O63  1  0.91308827  0.52494290  0.63270340  1
  O  O64  1  0.28784088  0.81116836  0.57924264  1
  O  O65  1  0.58753376  0.58467681  0.73012115  1
  O  O66  1  0.41931987  0.38798603  0.70400836  1
  O  O67  1  0.78784088  0.68883164  0.42075736  1
  O  O68  1  0.58691173  0.02494290  0.63270340  1
  O  O69  1  0.67005334  0.33595285  0.68593664  1
  O  O70  1  0.43806534  0.27535894  0.48210418  1
  O  O71  1  0.13536859  0.38360853  0.14109668  1
  O  O72  1  0.86775577  0.27722849  0.00359891  1
  O  O73  1  0.06193466  0.77535894  0.48210418  1
  O  O74  1  0.21215912  0.31116836  0.57924264  1
  O  O75  1  0.16014741  0.02170249  0.55099705  1
  O  O76  1  0.36775577  0.22277151  0.99640109  1
  O  O77  1  0.43632993  0.56343185  0.11194731  1
  O  O78  1  0.63536859  0.11639147  0.85890332  1
  O  O79  1  0.41246624  0.41532319  0.26987885  1
  O  O80  1  0.72288397  0.01790778  0.07508116  1
  O  O81  1  0.96566363  0.37965762  0.78809339  1
  O  O82  1  0.93632993  0.93656815  0.88805269  1
  O  O83  1  0.71215912  0.18883164  0.42075736  1
  O  O84  1  0.36463141  0.88360853  0.14109668  1
  O  O85  1  0.13224423  0.72277151  0.99640109  1
  O  O86  1  0.10162520  0.59469004  0.77583693  1
  O  O87  1  0.66014741  0.47829751  0.44900295  1
  O  O88  1  0.41308827  0.97505710  0.36729660  1
  O  O89  1  0.56367007  0.43656815  0.88805269  1
  O  O90  1  0.06367007  0.06343185  0.11194731  1
  O  O91  1  0.67242651  0.31688771  0.15245444  1
  O  O92  1  0.91931987  0.11201397  0.29599164  1
  O  O93  1  0.08068013  0.88798603  0.70400836  1
  O  O94  1  0.86463141  0.61639147  0.85890332  1
  O  O95  1  0.63224423  0.77722849  0.00359891  1
