# generated using pymatgen
data_Na2Ti3O7
_symmetry_space_group_name_H-M   'P 1'
_cell_length_a   3.82046029
_cell_length_b   8.66178771
_cell_length_c   9.24019398
_cell_angle_alpha   101.73899135
_cell_angle_beta   90.00000000
_cell_angle_gamma   90.00000000
_symmetry_Int_Tables_number   1
_chemical_formula_structural   Na2Ti3O7
_chemical_formula_sum   'Na4 Ti6 O14'
_cell_volume   299.38120037
_cell_formula_units_Z   2
loop_
 _symmetry_equiv_pos_site_id
 _symmetry_equiv_pos_as_xyz
  1  'x, y, z'
loop_
 _atom_site_type_symbol
 _atom_site_label
 _atom_site_symmetry_multiplicity
 _atom_site_fract_x
 _atom_site_fract_y
 _atom_site_fract_z
 _atom_site_occupancy
  O  O0  1  0.75000000  0.08494416  0.95604584  1
  O  O1  1  0.25000000  0.91505584  0.04395416  1
  O  O2  1  0.75000000  0.19498117  0.68210873  1
  O  O3  1  0.25000000  0.80501883  0.31789127  1
  O  O4  1  0.75000000  0.98586015  0.24692984  1
  O  O5  1  0.25000000  0.01413985  0.75307016  1
  O  O6  1  0.75000000  0.67593089  0.09156039  1
  O  O7  1  0.25000000  0.32406911  0.90843961  1
  O  O8  1  0.75000000  0.55680506  0.34572817  1
  O  O9  1  0.25000000  0.44319494  0.65427183  1
  O  O10  1  0.25000000  0.21858668  0.18674614  1
  O  O11  1  0.75000000  0.78141332  0.81325386  1
  O  O12  1  0.25000000  0.15082129  0.46130515  1
  O  O13  1  0.75000000  0.84917871  0.53869485  1
  Na  Na14  1  0.75000000  0.50039397  0.84242892  1
  Na  Na15  1  0.25000000  0.49960603  0.15757108  1
  Na  Na16  1  0.75000000  0.31791914  0.40874611  1
  Na  Na17  1  0.25000000  0.68208086  0.59125389  1
  Ti  Ti18  1  0.75000000  0.96865419  0.72068001  1
  Ti  Ti19  1  0.25000000  0.03134581  0.27931999  1
  Ti  Ti20  1  0.75000000  0.75206473  0.32503185  1
  Ti  Ti21  1  0.25000000  0.24793527  0.67496815  1
  Ti  Ti22  1  0.75000000  0.85326670  0.01545995  1
  Ti  Ti23  1  0.25000000  0.14673330  0.98454005  1
