# generated using pymatgen
data_Fe2O3
_symmetry_space_group_name_H-M   'P 1'
_cell_length_a   5.13754443
_cell_length_b   5.48378763
_cell_length_c   5.13754440
_cell_angle_alpha   62.06755032
_cell_angle_beta   119.99999828
_cell_angle_gamma   117.93245659
_symmetry_Int_Tables_number   1
_chemical_formula_structural   Fe2O3
_chemical_formula_sum   'Fe4 O6'
_cell_volume   105.43004725
_cell_formula_units_Z   2
loop_
 _symmetry_equiv_pos_site_id
 _symmetry_equiv_pos_as_xyz
  1  'x, y, z'
loop_
 _atom_site_type_symbol
 _atom_site_label
 _atom_site_symmetry_multiplicity
 _atom_site_fract_x
 _atom_site_fract_y
 _atom_site_fract_z
 _atom_site_occupancy
  Fe  Fe0  1  0.35342210  0.06026630  0.64657790  1
  Fe  Fe1  1  0.14657790  0.43973370  0.85342210  1
  Fe  Fe2  1  0.64657957  0.93973870  0.35342043  1
  Fe  Fe3  1  0.85342043  0.56026130  0.14657957  1
  O  O4  1  0.55326437  0.75000000  0.05326437  1
  O  O5  1  0.25000000  0.75000000  0.44673563  1
  O  O6  1  0.05324162  0.25000000  0.25000000  1
  O  O7  1  0.75000000  0.25000000  0.55324162  1
  O  O8  1  0.44675838  0.25000000  0.94675838  1
  O  O9  1  0.94673563  0.75000000  0.75000000  1
