# generated using pymatgen
data_Cr3Se4
_symmetry_space_group_name_H-M   'P 1'
_cell_length_a   3.67958849
_cell_length_b   6.43459513
_cell_length_c   6.91890693
_cell_angle_alpha   116.13916896
_cell_angle_beta   105.42092654
_cell_angle_gamma   89.99999998
_symmetry_Int_Tables_number   1
_chemical_formula_structural   Cr3Se4
_chemical_formula_sum   'Cr3 Se4'
_cell_volume   140.46316614
_cell_formula_units_Z   1
loop_
 _symmetry_equiv_pos_site_id
 _symmetry_equiv_pos_as_xyz
  1  'x, y, z'
loop_
 _atom_site_type_symbol
 _atom_site_label
 _atom_site_symmetry_multiplicity
 _atom_site_fract_x
 _atom_site_fract_y
 _atom_site_fract_z
 _atom_site_occupancy
  Cr  Cr0  1  0.50000000  0.50000000  0.00000000  1
  Cr  Cr1  1  0.23831491  0.21773967  0.47662983  1
  Cr  Cr2  1  0.76168509  0.78226033  0.52337017  1
  Se  Se3  1  0.86574025  0.52273063  0.73148049  1
  Se  Se4  1  0.13425975  0.47726937  0.26851951  1
  Se  Se5  1  0.37719688  0.04895421  0.75439375  1
  Se  Se6  1  0.62280312  0.95104579  0.24560625  1
