# generated using pymatgen
data_Li2FeSiO4
_symmetry_space_group_name_H-M   'P 1'
_cell_length_a   5.01703126
_cell_length_b   5.41024779
_cell_length_c   6.34019612
_cell_angle_alpha   90.00000000
_cell_angle_beta   90.00000000
_cell_angle_gamma   90.00000000
_symmetry_Int_Tables_number   1
_chemical_formula_structural   Li2FeSiO4
_chemical_formula_sum   'Li4 Fe2 Si2 O8'
_cell_volume   172.09436706
_cell_formula_units_Z   2
loop_
 _symmetry_equiv_pos_site_id
 _symmetry_equiv_pos_as_xyz
  1  'x, y, z'
loop_
 _atom_site_type_symbol
 _atom_site_label
 _atom_site_symmetry_multiplicity
 _atom_site_fract_x
 _atom_site_fract_y
 _atom_site_fract_z
 _atom_site_occupancy
  Li  Li0  1  0.05746272  0.66817390  0.75023345  1
  Li  Li1  1  0.55746272  0.33182610  0.74976655  1
  Li  Li2  1  0.55746272  0.33182610  0.25023345  1
  Li  Li3  1  0.05746272  0.66817390  0.24976655  1
  O  O4  1  0.72090759  0.17942034  0.00000000  1
  O  O5  1  0.15941197  0.31416481  0.78599340  1
  O  O6  1  0.22090759  0.82057966  0.50000000  1
  O  O7  1  0.64825969  0.12263712  0.50000000  1
  O  O8  1  0.65941197  0.68583519  0.28599340  1
  O  O9  1  0.65941197  0.68583519  0.71400660  1
  O  O10  1  0.15941197  0.31416481  0.21400660  1
  O  O11  1  0.14825969  0.87736288  0.00000000  1
  Si  Si12  1  0.04981992  0.17030935  0.00000000  1
  Si  Si13  1  0.54981992  0.82969065  0.50000000  1
  Fe  Fe14  1  0.06226343  0.17081792  0.50000000  1
  Fe  Fe15  1  0.56226343  0.82918208  0.00000000  1
