# generated using pymatgen
data_SrTiO3
_symmetry_space_group_name_H-M   'P 1'
_cell_length_a   5.57603510
_cell_length_b   5.57603358
_cell_length_c   5.57861485
_cell_angle_alpha   119.98469611
_cell_angle_beta   119.98470905
_cell_angle_gamma   90.00002088
_symmetry_Int_Tables_number   1
_chemical_formula_structural   SrTiO3
_chemical_formula_sum   'Sr2 Ti2 O6'
_cell_volume   122.70517881
_cell_formula_units_Z   2
loop_
 _symmetry_equiv_pos_site_id
 _symmetry_equiv_pos_as_xyz
  1  'x, y, z'
loop_
 _atom_site_type_symbol
 _atom_site_label
 _atom_site_symmetry_multiplicity
 _atom_site_fract_x
 _atom_site_fract_y
 _atom_site_fract_z
 _atom_site_occupancy
  O  O0  1  0.24111001  0.74111000  0.00000006  1
  O  O1  1  0.25889011  0.24111013  0.00000019  1
  Sr  Sr2  1  0.75000025  0.25000009  0.50000034  1
  Ti  Ti3  1  0.50000028  0.50000010  0.00000008  1
  O  O4  1  0.74110975  0.75888993  0.99999978  1
  O  O5  1  0.25000004  0.24999993  0.50000001  1
  O  O6  1  0.75889003  0.25889001  0.99999998  1
  Ti  Ti7  1  0.99999992  0.00000017  0.00000011  1
  Sr  Sr8  1  0.24999966  0.74999974  0.49999947  1
  O  O9  1  0.74999995  0.74999990  0.49999998  1
