# generated using pymatgen
data_Al4W
_symmetry_space_group_name_H-M   'P 1'
_cell_length_a   5.24444216
_cell_length_b   5.27974129
_cell_length_c   9.30210009
_cell_angle_alpha   73.51328773
_cell_angle_beta   87.17445414
_cell_angle_gamma   79.99693340
_symmetry_Int_Tables_number   1
_chemical_formula_structural   Al4W
_chemical_formula_sum   'Al12 W3'
_cell_volume   243.22437525
_cell_formula_units_Z   3
loop_
 _symmetry_equiv_pos_site_id
 _symmetry_equiv_pos_as_xyz
  1  'x, y, z'
loop_
 _atom_site_type_symbol
 _atom_site_label
 _atom_site_symmetry_multiplicity
 _atom_site_fract_x
 _atom_site_fract_y
 _atom_site_fract_z
 _atom_site_occupancy
  Al  Al0  1  0.51220356  0.85471347  0.00000000  1
  Al  Al1  1  0.15042336  0.49687455  0.00000000  1
  Al  Al2  1  0.68556396  0.41745538  0.84623563  1
  Al  Al3  1  0.68556396  0.26369101  0.15376437  1
  Al  Al4  1  0.21367474  0.30489795  0.76346425  1
  Al  Al5  1  0.21367474  0.06836219  0.23653575  1
  Al  Al6  1  0.80793947  0.94151358  0.75300036  1
  Al  Al7  1  0.80793947  0.69451394  0.24699964  1
  Al  Al8  1  0.58364675  0.54940650  0.52994155  1
  Al  Al9  1  0.58364675  0.07934805  0.47005845  1
  Al  Al10  1  0.07373362  0.22696485  0.50023144  1
  Al  Al11  1  0.07373362  0.72719630  0.49976856  1
  W  W12  1  0.99231427  0.01010283  0.00000000  1
  W  W13  1  0.33097087  0.80798743  0.72598454  1
  W  W14  1  0.33097087  0.53397197  0.27401546  1
