# generated using pymatgen
data_DyAlZn
_symmetry_space_group_name_H-M   'P 1'
_cell_length_a   4.48419066
_cell_length_b   4.48493438
_cell_length_c   7.16241056
_cell_angle_alpha   90.00000000
_cell_angle_beta   90.00000000
_cell_angle_gamma   119.99451464
_symmetry_Int_Tables_number   1
_chemical_formula_structural   DyAlZn
_chemical_formula_sum   'Dy2 Al2 Zn2'
_cell_volume   124.75386496
_cell_formula_units_Z   2
loop_
 _symmetry_equiv_pos_site_id
 _symmetry_equiv_pos_as_xyz
  1  'x, y, z'
loop_
 _atom_site_type_symbol
 _atom_site_label
 _atom_site_symmetry_multiplicity
 _atom_site_fract_x
 _atom_site_fract_y
 _atom_site_fract_z
 _atom_site_occupancy
  Dy  Dy0  1  0.00000000  0.00000000  0.50000000  1
  Dy  Dy1  1  0.00000000  0.00000000  0.00000000  1
  Al  Al2  1  0.33316636  0.66633271  0.25000000  1
  Al  Al3  1  0.66683364  0.33366729  0.75000000  1
  Zn  Zn4  1  0.33318328  0.66636656  0.75000000  1
  Zn  Zn5  1  0.66681672  0.33363344  0.25000000  1
