# generated using pymatgen
data_GeO2
_symmetry_space_group_name_H-M   'P 1'
_cell_length_a   5.08727224
_cell_length_b   5.08727224
_cell_length_c   7.29155021
_cell_angle_alpha   90.00000000
_cell_angle_beta   90.00000000
_cell_angle_gamma   90.00000000
_symmetry_Int_Tables_number   1
_chemical_formula_structural   GeO2
_chemical_formula_sum   'Ge4 O8'
_cell_volume   188.70779013
_cell_formula_units_Z   4
loop_
 _symmetry_equiv_pos_site_id
 _symmetry_equiv_pos_as_xyz
  1  'x, y, z'
loop_
 _atom_site_type_symbol
 _atom_site_label
 _atom_site_symmetry_multiplicity
 _atom_site_fract_x
 _atom_site_fract_y
 _atom_site_fract_z
 _atom_site_occupancy
  O  O0  1  0.84331994  0.77204916  0.29587062  1
  O  O1  1  0.15668006  0.22795084  0.79587062  1
  O  O2  1  0.77204916  0.84331994  0.70412938  1
  O  O3  1  0.27204916  0.65668006  0.04587062  1
  O  O4  1  0.22795084  0.15668006  0.20412938  1
  O  O5  1  0.34331994  0.72795084  0.45412938  1
  O  O6  1  0.65668006  0.27204916  0.95412938  1
  O  O7  1  0.72795084  0.34331994  0.54587062  1
  Ge  Ge8  1  0.68121055  0.68121055  0.50000000  1
  Ge  Ge9  1  0.81878945  0.18121055  0.75000000  1
  Ge  Ge10  1  0.18121055  0.81878945  0.25000000  1
  Ge  Ge11  1  0.31878945  0.31878945  0.00000000  1
