# generated using pymatgen
data_Li2CuGe
_symmetry_space_group_name_H-M   'P 1'
_cell_length_a   4.21642492
_cell_length_b   15.00373263
_cell_length_c   7.18961385
_cell_angle_alpha   16.58913885
_cell_angle_beta   54.09376584
_cell_angle_gamma   55.80230681
_symmetry_Int_Tables_number   1
_chemical_formula_structural   Li2CuGe
_chemical_formula_sum   'Li4 Cu2 Ge2'
_cell_volume   105.18133805
_cell_formula_units_Z   2
loop_
 _symmetry_equiv_pos_site_id
 _symmetry_equiv_pos_as_xyz
  1  'x, y, z'
loop_
 _atom_site_type_symbol
 _atom_site_label
 _atom_site_symmetry_multiplicity
 _atom_site_fract_x
 _atom_site_fract_y
 _atom_site_fract_z
 _atom_site_occupancy
  Li  Li0  1  0.81249713  0.90762215  0.37225857  1
  Li  Li1  1  0.81249713  0.34237786  0.00274715  1
  Li  Li2  1  0.06240464  0.41066462  0.11626613  1
  Li  Li3  1  0.06240464  0.83933538  0.75892459  1
  Cu  Cu4  1  0.56378923  0.39748791  0.64123494  1
  Cu  Cu5  1  0.56378923  0.85251208  0.23118660  1
  Ge  Ge6  1  0.31130900  0.35330314  0.48208472  1
  Ge  Ge7  1  0.31130900  0.89669686  0.89529729  1
