# generated using pymatgen
data_Li
_symmetry_space_group_name_H-M   'P 1'
_cell_length_a   3.06376550
_cell_length_b   3.06376532
_cell_length_c   7.62993049
_cell_angle_alpha   78.41784494
_cell_angle_beta   78.41784256
_cell_angle_gamma   60.00000198
_symmetry_Int_Tables_number   1
_chemical_formula_structural   Li
_chemical_formula_sum   Li3
_cell_volume   60.33454368
_cell_formula_units_Z   3
loop_
 _symmetry_equiv_pos_site_id
 _symmetry_equiv_pos_as_xyz
  1  'x, y, z'
loop_
 _atom_site_type_symbol
 _atom_site_label
 _atom_site_symmetry_multiplicity
 _atom_site_fract_x
 _atom_site_fract_y
 _atom_site_fract_z
 _atom_site_occupancy
  Li  Li0  1  0.77794608  0.77794608  0.66616175  1
  Li  Li1  1  0.22205392  0.22205392  0.33383825  1
  Li  Li2  1  0.00000000  0.00000000  0.00000000  1
