# generated using pymatgen
data_TiOF
_symmetry_space_group_name_H-M   'P 1'
_cell_length_a   2.88285424
_cell_length_b   4.08114458
_cell_length_c   3.96878813
_cell_angle_alpha   90.00000000
_cell_angle_beta   89.97537443
_cell_angle_gamma   135.05868968
_symmetry_Int_Tables_number   1
_chemical_formula_structural   TiOF
_chemical_formula_sum   'Ti1 O1 F1'
_cell_volume   32.98391370
_cell_formula_units_Z   1
loop_
 _symmetry_equiv_pos_site_id
 _symmetry_equiv_pos_as_xyz
  1  'x, y, z'
loop_
 _atom_site_type_symbol
 _atom_site_label
 _atom_site_symmetry_multiplicity
 _atom_site_fract_x
 _atom_site_fract_y
 _atom_site_fract_z
 _atom_site_occupancy
  Ti  Ti0  1  0.00000096  0.50000048  0.00024554  1
  O  O1  1  0.00000067  0.00000034  0.00002836  1
  F  F2  1  0.99999837  0.49999918  0.50009010  1
