# generated using pymatgen
data_LiInSe2
_symmetry_space_group_name_H-M   'P 1'
_cell_length_a   6.94212513
_cell_length_b   7.33774373
_cell_length_c   8.57463344
_cell_angle_alpha   90.00000000
_cell_angle_beta   90.00000000
_cell_angle_gamma   90.00000000
_symmetry_Int_Tables_number   1
_chemical_formula_structural   LiInSe2
_chemical_formula_sum   'Li4 In4 Se8'
_cell_volume   436.78784148
_cell_formula_units_Z   4
loop_
 _symmetry_equiv_pos_site_id
 _symmetry_equiv_pos_as_xyz
  1  'x, y, z'
loop_
 _atom_site_type_symbol
 _atom_site_label
 _atom_site_symmetry_multiplicity
 _atom_site_fract_x
 _atom_site_fract_y
 _atom_site_fract_z
 _atom_site_occupancy
  Li  Li0  1  0.99819256  0.58780257  0.87552470  1
  Li  Li1  1  0.49819256  0.41219743  0.12447530  1
  Li  Li2  1  0.49819256  0.91219743  0.37552470  1
  Li  Li3  1  0.99819256  0.08780257  0.62447530  1
  Se  Se4  1  0.61938487  0.08018672  0.12934564  1
  Se  Se5  1  0.11938487  0.91981328  0.87065436  1
  Se  Se6  1  0.11938487  0.41981328  0.62934564  1
  Se  Se7  1  0.61938487  0.58018672  0.37065436  1
  Se  Se8  1  0.12594911  0.41752134  0.12046500  1
  Se  Se9  1  0.62594911  0.58247866  0.87953500  1
  Se  Se10  1  0.62594911  0.08247866  0.62046500  1
  Se  Se11  1  0.12594911  0.91752134  0.37953500  1
  In  In12  1  0.99927346  0.57963157  0.37379893  1
  In  In13  1  0.49927346  0.42036843  0.62620107  1
  In  In14  1  0.49927346  0.92036843  0.87379893  1
  In  In15  1  0.99927346  0.07963157  0.12620107  1
