# generated using pymatgen
data_Ca3Al2(SiO4)3
_symmetry_space_group_name_H-M   'P 1'
_cell_length_a   10.36545002
_cell_length_b   10.36545002
_cell_length_c   10.36545002
_cell_angle_alpha   109.47122065
_cell_angle_beta   109.47122065
_cell_angle_gamma   109.47122062
_symmetry_Int_Tables_number   1
_chemical_formula_structural   Ca3Al2(SiO4)3
_chemical_formula_sum   'Ca12 Al8 Si12 O48'
_cell_volume   857.31928866
_cell_formula_units_Z   4
loop_
 _symmetry_equiv_pos_site_id
 _symmetry_equiv_pos_as_xyz
  1  'x, y, z'
loop_
 _atom_site_type_symbol
 _atom_site_label
 _atom_site_symmetry_multiplicity
 _atom_site_fract_x
 _atom_site_fract_y
 _atom_site_fract_z
 _atom_site_occupancy
  O  O0  1  0.50674789  0.39346913  0.81077191  1
  O  O1  1  0.10653087  0.61327877  0.41730278  1
  O  O2  1  0.68922809  0.08269722  0.69597598  1
  O  O3  1  0.99325211  0.80402402  0.88672123  1
  O  O4  1  0.99325211  0.68922809  0.10653087  1
  O  O5  1  0.80402402  0.88672123  0.99325211  1
  O  O6  1  0.08269722  0.88672123  0.39346913  1
  O  O7  1  0.88672123  0.99325211  0.80402402  1
  O  O8  1  0.41730278  0.81077191  0.80402402  1
  O  O9  1  0.61327877  0.69597598  0.50674789  1
  O  O10  1  0.69597598  0.50674789  0.61327877  1
  O  O11  1  0.10653087  0.99325211  0.68922809  1
  O  O12  1  0.88672123  0.39346913  0.08269722  1
  O  O13  1  0.80402402  0.41730278  0.81077191  1
  O  O14  1  0.68922809  0.10653087  0.99325211  1
  O  O15  1  0.39346913  0.08269722  0.88672123  1
  O  O16  1  0.81077191  0.80402402  0.41730278  1
  O  O17  1  0.41730278  0.10653087  0.61327877  1
  O  O18  1  0.08269722  0.69597598  0.68922809  1
  O  O19  1  0.58269722  0.18922809  0.19597598  1
  O  O20  1  0.69597598  0.68922809  0.08269722  1
  O  O21  1  0.81077191  0.50674789  0.39346913  1
  O  O22  1  0.61327877  0.41730278  0.10653087  1
  O  O23  1  0.50674789  0.61327877  0.69597598  1
  O  O24  1  0.49325211  0.60653087  0.18922809  1
  O  O25  1  0.89346913  0.38672123  0.58269722  1
  O  O26  1  0.31077191  0.91730278  0.30402402  1
  O  O27  1  0.00674789  0.19597598  0.11327877  1
  O  O28  1  0.00674789  0.31077191  0.89346913  1
  O  O29  1  0.19597598  0.11327877  0.00674789  1
  O  O30  1  0.91730278  0.11327877  0.60653087  1
  O  O31  1  0.11327877  0.00674789  0.19597598  1
  O  O32  1  0.49325211  0.38672123  0.30402402  1
  O  O33  1  0.38672123  0.58269722  0.89346913  1
  O  O34  1  0.18922809  0.49325211  0.60653087  1
  O  O35  1  0.60653087  0.18922809  0.49325211  1
  O  O36  1  0.30402402  0.31077191  0.91730278  1
  O  O37  1  0.91730278  0.30402402  0.31077191  1
  O  O38  1  0.58269722  0.89346913  0.38672123  1
  O  O39  1  0.18922809  0.19597598  0.58269722  1
  O  O40  1  0.60653087  0.91730278  0.11327877  1
  O  O41  1  0.31077191  0.89346913  0.00674789  1
  O  O42  1  0.19597598  0.58269722  0.18922809  1
  O  O43  1  0.11327877  0.60653087  0.91730278  1
  O  O44  1  0.89346913  0.00674789  0.31077191  1
  O  O45  1  0.30402402  0.49325211  0.38672123  1
  O  O46  1  0.38672123  0.30402402  0.49325211  1
  O  O47  1  0.39346913  0.81077191  0.50674789  1
  Al  Al48  1  0.50000000  0.00000000  0.00000000  1
  Al  Al49  1  0.00000000  0.00000000  0.00000000  1
  Al  Al50  1  0.00000000  0.50000000  0.00000000  1
  Al  Al51  1  0.00000000  0.00000000  0.50000000  1
  Al  Al52  1  0.00000000  0.50000000  0.50000000  1
  Al  Al53  1  0.50000000  0.00000000  0.50000000  1
  Al  Al54  1  0.50000000  0.50000000  0.00000000  1
  Al  Al55  1  0.50000000  0.50000000  0.50000000  1
  Si  Si56  1  0.25000000  0.12500000  0.87500000  1
  Si  Si57  1  0.87500000  0.25000000  0.12500000  1
  Si  Si58  1  0.62500000  0.75000000  0.37500000  1
  Si  Si59  1  0.25000000  0.62500000  0.37500000  1
  Si  Si60  1  0.37500000  0.62500000  0.75000000  1
  Si  Si61  1  0.75000000  0.37500000  0.62500000  1
  Si  Si62  1  0.87500000  0.12500000  0.75000000  1
  Si  Si63  1  0.12500000  0.75000000  0.87500000  1
  Si  Si64  1  0.12500000  0.87500000  0.25000000  1
  Si  Si65  1  0.62500000  0.37500000  0.25000000  1
  Si  Si66  1  0.37500000  0.25000000  0.62500000  1
  Si  Si67  1  0.75000000  0.87500000  0.12500000  1
  Ca  Ca68  1  0.25000000  0.87500000  0.62500000  1
  Ca  Ca69  1  0.87500000  0.62500000  0.25000000  1
  Ca  Ca70  1  0.62500000  0.87500000  0.75000000  1
  Ca  Ca71  1  0.87500000  0.75000000  0.62500000  1
  Ca  Ca72  1  0.62500000  0.25000000  0.87500000  1
  Ca  Ca73  1  0.75000000  0.62500000  0.87500000  1
  Ca  Ca74  1  0.75000000  0.12500000  0.37500000  1
  Ca  Ca75  1  0.12500000  0.37500000  0.75000000  1
  Ca  Ca76  1  0.37500000  0.12500000  0.25000000  1
  Ca  Ca77  1  0.12500000  0.25000000  0.37500000  1
  Ca  Ca78  1  0.37500000  0.75000000  0.12500000  1
  Ca  Ca79  1  0.25000000  0.37500000  0.12500000  1
