# generated using pymatgen
data_BaSi
_symmetry_space_group_name_H-M   'P 1'
_cell_length_a   4.15761665
_cell_length_b   5.06111981
_cell_length_c   6.56749506
_cell_angle_alpha   112.66334971
_cell_angle_beta   90.00000000
_cell_angle_gamma   90.00000000
_symmetry_Int_Tables_number   1
_chemical_formula_structural   BaSi
_chemical_formula_sum   'Ba2 Si2'
_cell_volume   127.52379424
_cell_formula_units_Z   2
loop_
 _symmetry_equiv_pos_site_id
 _symmetry_equiv_pos_as_xyz
  1  'x, y, z'
loop_
 _atom_site_type_symbol
 _atom_site_label
 _atom_site_symmetry_multiplicity
 _atom_site_fract_x
 _atom_site_fract_y
 _atom_site_fract_z
 _atom_site_occupancy
  Si  Si0  1  0.25000000  0.55757939  0.11515878  1
  Si  Si1  1  0.75000000  0.44242061  0.88484122  1
  Ba  Ba2  1  0.25000000  0.86039523  0.72079046  1
  Ba  Ba3  1  0.75000000  0.13960477  0.27920954  1
