# generated using pymatgen
data_Fe13Co3
_symmetry_space_group_name_H-M   'P 1'
_cell_length_a   5.71347334
_cell_length_b   5.71347461
_cell_length_c   5.71245261
_cell_angle_alpha   89.99999900
_cell_angle_beta   89.99997483
_cell_angle_gamma   90.00005134
_symmetry_Int_Tables_number   1
_chemical_formula_structural   Fe13Co3
_chemical_formula_sum   'Fe13 Co3'
_cell_volume   186.47607404
_cell_formula_units_Z   1
loop_
 _symmetry_equiv_pos_site_id
 _symmetry_equiv_pos_as_xyz
  1  'x, y, z'
loop_
 _atom_site_type_symbol
 _atom_site_label
 _atom_site_symmetry_multiplicity
 _atom_site_fract_x
 _atom_site_fract_y
 _atom_site_fract_z
 _atom_site_occupancy
  Fe  Fe0  1  0.99999951  0.49999960  0.49999986  1
  Fe  Fe1  1  0.24974809  0.75025265  0.75029736  1
  Fe  Fe2  1  0.75025187  0.24974729  0.24970217  1
  Fe  Fe3  1  0.75025216  0.24974718  0.75029712  1
  Fe  Fe4  1  0.75025233  0.75025256  0.75029713  1
  Fe  Fe5  1  0.49999983  0.50000030  0.50000140  1
  Fe  Fe6  1  0.24974701  0.75025292  0.24970316  1
  Fe  Fe7  1  0.24974811  0.24974689  0.75029732  1
  Fe  Fe8  1  0.24974838  0.24974765  0.24970238  1
  Fe  Fe9  1  0.50000042  0.00000046  0.49999971  1
  Fe  Fe10  1  -0.00000025  0.50000001  0.00000052  1
  Fe  Fe11  1  0.75025230  0.75025291  0.24970221  1
  Fe  Fe12  1  0.49999996  -0.00000041  0.99999977  1
  Co  Co13  1  0.50000011  0.50000006  0.99999984  1
  Co  Co14  1  0.00000003  0.99999996  0.49999996  1
  Co  Co15  1  0.00000014  -0.00000004  0.00000009  1
