# generated using pymatgen
data_SnO
_symmetry_space_group_name_H-M   'P 1'
_cell_length_a   3.87118727
_cell_length_b   3.87121827
_cell_length_c   10.22195992
_cell_angle_alpha   90.00013408
_cell_angle_beta   89.99993931
_cell_angle_gamma   90.01850928
_symmetry_Int_Tables_number   1
_chemical_formula_structural   SnO
_chemical_formula_sum   'Sn4 O4'
_cell_volume   153.18843886
_cell_formula_units_Z   4
loop_
 _symmetry_equiv_pos_site_id
 _symmetry_equiv_pos_as_xyz
  1  'x, y, z'
loop_
 _atom_site_type_symbol
 _atom_site_label
 _atom_site_symmetry_multiplicity
 _atom_site_fract_x
 _atom_site_fract_y
 _atom_site_fract_z
 _atom_site_occupancy
  O  O0  1  0.01235710  0.48805385  0.12150032  1
  O  O1  1  0.48805661  0.01235825  0.62149038  1
  O  O2  1  0.98764063  0.51194263  0.62148872  1
  Sn  Sn3  1  0.48675375  0.51324575  0.73535294  1
  O  O4  1  0.51194718  0.98764390  0.12150185  1
  Sn  Sn5  1  0.01165368  0.98834655  0.00766288  1
  Sn  Sn6  1  0.51324467  0.48675595  0.23535488  1
  Sn  Sn7  1  0.98834637  0.01165311  0.50764804  1
