# generated using pymatgen
data_NdMnSi2
_symmetry_space_group_name_H-M   'P 1'
_cell_length_a   3.98609437
_cell_length_b   4.07435877
_cell_length_c   9.03057275
_cell_angle_alpha   103.03739541
_cell_angle_beta   90.00000000
_cell_angle_gamma   90.00000000
_symmetry_Int_Tables_number   1
_chemical_formula_structural   NdMnSi2
_chemical_formula_sum   'Nd2 Mn2 Si4'
_cell_volume   142.88299178
_cell_formula_units_Z   2
loop_
 _symmetry_equiv_pos_site_id
 _symmetry_equiv_pos_as_xyz
  1  'x, y, z'
loop_
 _atom_site_type_symbol
 _atom_site_label
 _atom_site_symmetry_multiplicity
 _atom_site_fract_x
 _atom_site_fract_y
 _atom_site_fract_z
 _atom_site_occupancy
  Si  Si0  1  0.25000000  0.67782729  0.35565458  1
  Si  Si1  1  0.75000000  0.32217271  0.64434542  1
  Si  Si2  1  0.75000000  0.46346387  0.92692774  1
  Si  Si3  1  0.25000000  0.53653613  0.07307226  1
  Mn  Mn4  1  0.75000000  0.75022950  0.50045900  1
  Mn  Mn5  1  0.25000000  0.24977050  0.49954100  1
  Nd  Nd6  1  0.25000000  0.89872849  0.79745698  1
  Nd  Nd7  1  0.75000000  0.10127151  0.20254302  1
