# generated using pymatgen
data_V2OF5
_symmetry_space_group_name_H-M   'P 1'
_cell_length_a   5.20338606
_cell_length_b   5.44170710
_cell_length_c   5.23242556
_cell_angle_alpha   118.59963484
_cell_angle_beta   119.18145894
_cell_angle_gamma   90.94992124
_symmetry_Int_Tables_number   1
_chemical_formula_structural   V2OF5
_chemical_formula_sum   'V2 O1 F5'
_cell_volume   107.36215956
_cell_formula_units_Z   1
loop_
 _symmetry_equiv_pos_site_id
 _symmetry_equiv_pos_as_xyz
  1  'x, y, z'
loop_
 _atom_site_type_symbol
 _atom_site_label
 _atom_site_symmetry_multiplicity
 _atom_site_fract_x
 _atom_site_fract_y
 _atom_site_fract_z
 _atom_site_occupancy
  V  V0  1  0.68575338  0.99315354  0.32550441  1
  V  V1  1  0.15665973  0.47166233  0.31796830  1
  O  O2  1  0.97307750  0.21484585  0.39417202  1
  F  F3  1  0.32790060  0.73136567  0.23040700  1
  F  F4  1  0.39399860  0.20973945  0.20411218  1
  F  F5  1  0.50769167  0.71280786  0.81822748  1
  F  F6  1  0.91393995  0.73267442  0.42883646  1
  F  F7  1  0.80213156  0.22898487  0.81425114  1
