# generated using pymatgen
data_Ti(SnO2)2
_symmetry_space_group_name_H-M   'P 1'
_cell_length_a   6.00547591
_cell_length_b   8.61936848
_cell_length_c   8.61936848
_cell_angle_alpha   90.00000000
_cell_angle_beta   90.00000000
_cell_angle_gamma   90.00000000
_symmetry_Int_Tables_number   1
_chemical_formula_structural   Ti(SnO2)2
_chemical_formula_sum   'Ti4 Sn8 O16'
_cell_volume   446.16790255
_cell_formula_units_Z   4
loop_
 _symmetry_equiv_pos_site_id
 _symmetry_equiv_pos_as_xyz
  1  'x, y, z'
loop_
 _atom_site_type_symbol
 _atom_site_label
 _atom_site_symmetry_multiplicity
 _atom_site_fract_x
 _atom_site_fract_y
 _atom_site_fract_z
 _atom_site_occupancy
  O  O0  1  0.50000000  0.88103917  0.40264104  1
  O  O1  1  0.50000000  0.11896083  0.59735896  1
  O  O2  1  0.00000000  0.40264104  0.11896083  1
  O  O3  1  0.00000000  0.59735896  0.88103917  1
  O  O4  1  0.00000000  0.90264104  0.38103917  1
  O  O5  1  0.50000000  0.61896083  0.90264104  1
  O  O6  1  0.50000000  0.38103917  0.09735896  1
  O  O7  1  0.00000000  0.09735896  0.61896083  1
  O  O8  1  0.75000000  0.66304561  0.16304561  1
  O  O9  1  0.25000000  0.83695439  0.66304561  1
  O  O10  1  0.25000000  0.16304561  0.33695439  1
  O  O11  1  0.75000000  0.33695439  0.83695439  1
  O  O12  1  0.25000000  0.66304561  0.16304561  1
  O  O13  1  0.75000000  0.83695439  0.66304561  1
  O  O14  1  0.75000000  0.16304561  0.33695439  1
  O  O15  1  0.25000000  0.33695439  0.83695439  1
  Ti  Ti16  1  0.25000000  0.50000000  0.00000000  1
  Ti  Ti17  1  0.75000000  0.00000000  0.50000000  1
  Ti  Ti18  1  0.75000000  0.50000000  0.00000000  1
  Ti  Ti19  1  0.25000000  0.00000000  0.50000000  1
  Sn  Sn20  1  0.50000000  0.33678894  0.35286749  1
  Sn  Sn21  1  0.50000000  0.66321106  0.64713251  1
  Sn  Sn22  1  0.00000000  0.35286749  0.66321106  1
  Sn  Sn23  1  0.00000000  0.64713251  0.33678894  1
  Sn  Sn24  1  0.00000000  0.85286749  0.83678894  1
  Sn  Sn25  1  0.50000000  0.16321106  0.85286749  1
  Sn  Sn26  1  0.50000000  0.83678894  0.14713251  1
  Sn  Sn27  1  0.00000000  0.14713251  0.16321106  1
