# generated using pymatgen
data_RbCu3S2
_symmetry_space_group_name_H-M   'P 1'
_cell_length_a   3.91884560
_cell_length_b   7.58407604
_cell_length_c   8.53182275
_cell_angle_alpha   111.37899403
_cell_angle_beta   90.00000000
_cell_angle_gamma   104.97277972
_symmetry_Int_Tables_number   1
_chemical_formula_structural   RbCu3S2
_chemical_formula_sum   'Rb2 Cu6 S4'
_cell_volume   226.85399077
_cell_formula_units_Z   2
loop_
 _symmetry_equiv_pos_site_id
 _symmetry_equiv_pos_as_xyz
  1  'x, y, z'
loop_
 _atom_site_type_symbol
 _atom_site_label
 _atom_site_symmetry_multiplicity
 _atom_site_fract_x
 _atom_site_fract_y
 _atom_site_fract_z
 _atom_site_occupancy
  S  S0  1  0.81037341  0.62074681  0.31959517  1
  S  S1  1  0.18962659  0.37925319  0.68040483  1
  S  S2  1  0.52476387  0.04952774  0.24777715  1
  S  S3  1  0.47523613  0.95047226  0.75222285  1
  Cu  Cu4  1  0.40781799  0.81563598  0.36583150  1
  Cu  Cu5  1  0.30981536  0.61963072  0.57902532  1
  Cu  Cu6  1  0.06430485  0.12860970  0.41059110  1
  Cu  Cu7  1  0.93569515  0.87139030  0.58940890  1
  Cu  Cu8  1  0.69018464  0.38036928  0.42097468  1
  Cu  Cu9  1  0.59218201  0.18436402  0.63416850  1
  Rb  Rb10  1  0.86410365  0.72820729  0.95677564  1
  Rb  Rb11  1  0.13589635  0.27179271  0.04322436  1
