# generated using pymatgen
data_CeSiHRu
_symmetry_space_group_name_H-M   'P 1'
_cell_length_a   4.17470035
_cell_length_b   4.17479182
_cell_length_c   7.23040890
_cell_angle_alpha   89.99558685
_cell_angle_beta   90.00205120
_cell_angle_gamma   89.99925618
_symmetry_Int_Tables_number   1
_chemical_formula_structural   CeSiHRu
_chemical_formula_sum   'Ce2 Si2 H2 Ru2'
_cell_volume   126.01521633
_cell_formula_units_Z   2
loop_
 _symmetry_equiv_pos_site_id
 _symmetry_equiv_pos_as_xyz
  1  'x, y, z'
loop_
 _atom_site_type_symbol
 _atom_site_label
 _atom_site_symmetry_multiplicity
 _atom_site_fract_x
 _atom_site_fract_y
 _atom_site_fract_z
 _atom_site_occupancy
  Ce  Ce0  1  0.25000561  0.25001178  0.66962144  1
  Ce  Ce1  1  0.75000230  0.74999816  0.33039723  1
  Si  Si2  1  0.24999919  0.25000009  0.16298225  1
  Si  Si3  1  0.75000561  0.75001232  0.83699449  1
  H  H4  1  0.75000030  0.25000792  0.50000232  1
  H  H5  1  0.24999794  0.75000205  0.50000506  1
  Ru  Ru6  1  0.74998846  0.24997959  0.00001212  1
  Ru  Ru7  1  0.25000060  0.74998809  0.99998511  1
