# generated using pymatgen
data_PNO
_symmetry_space_group_name_H-M   'P 1'
_cell_length_a   4.68731231
_cell_length_b   4.68731231
_cell_length_c   5.00388345
_cell_angle_alpha   120.09497277
_cell_angle_beta   120.09497277
_cell_angle_gamma   90.07449565
_symmetry_Int_Tables_number   1
_chemical_formula_structural   PNO
_chemical_formula_sum   'P2 N2 O2'
_cell_volume   77.46433255
_cell_formula_units_Z   2
loop_
 _symmetry_equiv_pos_site_id
 _symmetry_equiv_pos_as_xyz
  1  'x, y, z'
loop_
 _atom_site_type_symbol
 _atom_site_label
 _atom_site_symmetry_multiplicity
 _atom_site_fract_x
 _atom_site_fract_y
 _atom_site_fract_z
 _atom_site_occupancy
  N  N0  1  0.13325401  0.74265514  0.75078862  1
  N  N1  1  0.99265514  0.88325401  0.25078862  1
  O  O2  1  0.25140562  0.38269981  0.24933902  1
  O  O3  1  0.63269981  0.00140562  0.74933902  1
  P  P4  1  0.01017265  0.97981278  0.99987236  1
  P  P5  1  0.22981278  0.76017265  0.49987236  1
