# generated using pymatgen
data_BaCuF4
_symmetry_space_group_name_H-M   'P 1'
_cell_length_a   4.36862908
_cell_length_b   5.76112291
_cell_length_c   7.56305763
_cell_angle_alpha   90.00000000
_cell_angle_beta   106.78694645
_cell_angle_gamma   90.00000000
_symmetry_Int_Tables_number   1
_chemical_formula_structural   BaCuF4
_chemical_formula_sum   'Ba2 Cu2 F8'
_cell_volume   182.23697069
_cell_formula_units_Z   2
loop_
 _symmetry_equiv_pos_site_id
 _symmetry_equiv_pos_as_xyz
  1  'x, y, z'
loop_
 _atom_site_type_symbol
 _atom_site_label
 _atom_site_symmetry_multiplicity
 _atom_site_fract_x
 _atom_site_fract_y
 _atom_site_fract_z
 _atom_site_occupancy
  F  F0  1  0.92140868  0.53404467  0.84281736  1
  F  F1  1  0.07859132  0.03404467  0.15718264  1
  F  F2  1  0.32972013  0.25553215  0.65944027  1
  F  F3  1  0.67027987  0.75553215  0.34055973  1
  F  F4  1  0.52263222  0.33839968  0.04526445  1
  F  F5  1  0.47736778  0.83839968  0.95473555  1
  F  F6  1  0.69819210  0.23696925  0.39638420  1
  F  F7  1  0.30180790  0.73696925  0.60361580  1
  Cu  Cu8  1  0.41015509  0.53072380  0.82031018  1
  Cu  Cu9  1  0.58984491  0.03072380  0.17968982  1
  Ba  Ba10  1  0.14184297  0.49743044  0.28368594  1
  Ba  Ba11  1  0.85815703  0.99743044  0.71631406  1
