# generated using pymatgen
data_FeSO4
_symmetry_space_group_name_H-M   'P 1'
_cell_length_a   4.85784627
_cell_length_b   4.85784627
_cell_length_c   6.73328420
_cell_angle_alpha   90.00000000
_cell_angle_beta   90.00000000
_cell_angle_gamma   113.86325270
_symmetry_Int_Tables_number   1
_chemical_formula_structural   FeSO4
_chemical_formula_sum   'Fe2 S2 O8'
_cell_volume   145.31306134
_cell_formula_units_Z   2
loop_
 _symmetry_equiv_pos_site_id
 _symmetry_equiv_pos_as_xyz
  1  'x, y, z'
loop_
 _atom_site_type_symbol
 _atom_site_label
 _atom_site_symmetry_multiplicity
 _atom_site_fract_x
 _atom_site_fract_y
 _atom_site_fract_z
 _atom_site_occupancy
  O  O0  1  0.22251049  0.31414012  0.75000000  1
  O  O1  1  0.77748951  0.68585988  0.25000000  1
  O  O2  1  0.31414012  0.22251049  0.25000000  1
  O  O3  1  0.68585988  0.77748951  0.75000000  1
  O  O4  1  0.24701617  0.75298383  0.93247067  1
  O  O5  1  0.75298383  0.24701617  0.43247067  1
  O  O6  1  0.75298383  0.24701617  0.06752933  1
  O  O7  1  0.24701617  0.75298383  0.56752933  1
  S  S8  1  0.65343528  0.34656472  0.25000000  1
  S  S9  1  0.34656472  0.65343528  0.75000000  1
  Fe  Fe10  1  0.00000000  0.00000000  0.50000000  1
  Fe  Fe11  1  0.00000000  0.00000000  0.00000000  1
