# generated using pymatgen
data_Mn(ReO4)2
_symmetry_space_group_name_H-M   'P 1'
_cell_length_a   5.95269074
_cell_length_b   5.95269033
_cell_length_c   6.55761966
_cell_angle_alpha   90.00000000
_cell_angle_beta   90.00000000
_cell_angle_gamma   119.99999782
_symmetry_Int_Tables_number   1
_chemical_formula_structural   Mn(ReO4)2
_chemical_formula_sum   'Mn1 Re2 O8'
_cell_volume   201.23498048
_cell_formula_units_Z   1
loop_
 _symmetry_equiv_pos_site_id
 _symmetry_equiv_pos_as_xyz
  1  'x, y, z'
loop_
 _atom_site_type_symbol
 _atom_site_label
 _atom_site_symmetry_multiplicity
 _atom_site_fract_x
 _atom_site_fract_y
 _atom_site_fract_z
 _atom_site_occupancy
  Mn  Mn0  1  -0.00000000  -0.00000000  -0.00000000  1
  Re  Re1  1  0.33333400  0.66666700  0.27625931  1
  Re  Re2  1  0.66666800  0.33333300  0.72374069  1
  O  O3  1  0.66666800  0.33333300  0.45942053  1
  O  O4  1  0.33333400  0.66666700  0.54057947  1
  O  O5  1  0.82384282  0.16904708  0.81385012  1
  O  O6  1  0.16904708  0.34520326  0.18614988  1
  O  O7  1  0.65479674  0.82384282  0.18614988  1
  O  O8  1  0.34520426  0.17615818  0.81385012  1
  O  O9  1  0.83095392  0.65479474  0.81385012  1
  O  O10  1  0.17615818  0.83095292  0.18614988  1
