# generated using pymatgen
data_BaSb2
_symmetry_space_group_name_H-M   'P 1'
_cell_length_a   4.48380601
_cell_length_b   5.23917224
_cell_length_c   9.52723811
_cell_angle_alpha   101.64591028
_cell_angle_beta   90.00000000
_cell_angle_gamma   90.00000000
_symmetry_Int_Tables_number   1
_chemical_formula_structural   BaSb2
_chemical_formula_sum   'Ba2 Sb4'
_cell_volume   219.20110332
_cell_formula_units_Z   2
loop_
 _symmetry_equiv_pos_site_id
 _symmetry_equiv_pos_as_xyz
  1  'x, y, z'
loop_
 _atom_site_type_symbol
 _atom_site_label
 _atom_site_symmetry_multiplicity
 _atom_site_fract_x
 _atom_site_fract_y
 _atom_site_fract_z
 _atom_site_occupancy
  Ba  Ba0  1  0.25000000  0.41913061  0.28554830  1
  Ba  Ba1  1  0.75000000  0.58086939  0.71445170  1
  Sb  Sb2  1  0.25000000  0.03963057  0.60428850  1
  Sb  Sb3  1  0.75000000  0.96036943  0.39571150  1
  Sb  Sb4  1  0.25000000  0.83146065  0.02240604  1
  Sb  Sb5  1  0.75000000  0.16853935  0.97759396  1
