# generated using pymatgen
data_ZnS
_symmetry_space_group_name_H-M   'P 1'
_cell_length_a   15.91043538
_cell_length_b   15.91043538
_cell_length_c   15.91043538
_cell_angle_alpha   13.90878263
_cell_angle_beta   13.90878265
_cell_angle_gamma   13.90878262
_symmetry_Int_Tables_number   1
_chemical_formula_structural   ZnS
_chemical_formula_sum   'Zn5 S5'
_cell_volume   202.53003194
_cell_formula_units_Z   5
loop_
 _symmetry_equiv_pos_site_id
 _symmetry_equiv_pos_as_xyz
  1  'x, y, z'
loop_
 _atom_site_type_symbol
 _atom_site_label
 _atom_site_symmetry_multiplicity
 _atom_site_fract_x
 _atom_site_fract_y
 _atom_site_fract_z
 _atom_site_occupancy
  S  S0  1  0.31671173  0.31671173  0.31671173  1
  S  S1  1  0.91660746  0.91660746  0.91660746  1
  S  S2  1  0.51670144  0.51670144  0.51670144  1
  S  S3  1  0.78326460  0.78326460  0.78326460  1
  S  S4  1  0.04998935  0.04998935  0.04998935  1
  Zn  Zn5  1  0.26667887  0.26667887  0.26667887  1
  Zn  Zn6  1  0.86668354  0.86668354  0.86668354  1
  Zn  Zn7  1  0.46667287  0.46667287  0.46667287  1
  Zn  Zn8  1  0.73332017  0.73332017  0.73332017  1
  Zn  Zn9  1  0.00004329  0.00004329  0.00004329  1
