# generated using pymatgen
data_Na2FeO3
_symmetry_space_group_name_H-M   'P 1'
_cell_length_a   5.37144801
_cell_length_b   5.37144801
_cell_length_c   5.78810833
_cell_angle_alpha   80.73225327
_cell_angle_beta   99.26774673
_cell_angle_gamma   59.87508703
_symmetry_Int_Tables_number   1
_chemical_formula_structural   Na2FeO3
_chemical_formula_sum   'Na4 Fe2 O6'
_cell_volume   136.71692531
_cell_formula_units_Z   2
loop_
 _symmetry_equiv_pos_site_id
 _symmetry_equiv_pos_as_xyz
  1  'x, y, z'
loop_
 _atom_site_type_symbol
 _atom_site_label
 _atom_site_symmetry_multiplicity
 _atom_site_fract_x
 _atom_site_fract_y
 _atom_site_fract_z
 _atom_site_occupancy
  Na  Na0  1  0.15788755  0.15788755  0.50000000  1
  Na  Na1  1  0.84211245  0.84211245  0.50000000  1
  Na  Na2  1  0.50000000  0.50000000  0.50000000  1
  Na  Na3  1  0.00000000  0.00000000  0.00000000  1
  Fe  Fe4  1  0.66686180  0.66686180  0.00000000  1
  Fe  Fe5  1  0.33313720  0.33313720  0.00000000  1
  O  O6  1  0.30664059  0.69335941  0.79542512  1
  O  O7  1  0.07125455  0.55168788  0.20209935  1
  O  O8  1  0.44831212  0.92874545  0.20209935  1
  O  O9  1  0.92874545  0.44831212  0.79790065  1
  O  O10  1  0.55168788  0.07125455  0.79790065  1
  O  O11  1  0.69335941  0.30664059  0.20457488  1
