# generated using pymatgen
data_UTeP
_symmetry_space_group_name_H-M   'P 1'
_cell_length_a   4.08565975
_cell_length_b   4.08565975
_cell_length_c   8.89801441
_cell_angle_alpha   103.27250281
_cell_angle_beta   103.27250281
_cell_angle_gamma   90.00000003
_symmetry_Int_Tables_number   1
_chemical_formula_structural   UTeP
_chemical_formula_sum   'U2 Te2 P2'
_cell_volume   140.48435524
_cell_formula_units_Z   2
loop_
 _symmetry_equiv_pos_site_id
 _symmetry_equiv_pos_as_xyz
  1  'x, y, z'
loop_
 _atom_site_type_symbol
 _atom_site_label
 _atom_site_symmetry_multiplicity
 _atom_site_fract_x
 _atom_site_fract_y
 _atom_site_fract_z
 _atom_site_occupancy
  P  P0  1  0.00000000  0.50000000  0.00000000  1
  P  P1  1  0.50000000  0.00000000  0.00000000  1
  Te  Te2  1  0.31633302  0.31633302  0.63266604  1
  Te  Te3  1  0.68366698  0.68366698  0.36733396  1
  U  U4  1  0.89101417  0.89101417  0.78202834  1
  U  U5  1  0.10898583  0.10898583  0.21797166  1
