# generated using pymatgen
data_Ca3Cd2
_symmetry_space_group_name_H-M   'P 1'
_cell_length_a   7.98471614
_cell_length_b   8.90399520
_cell_length_c   8.90399520
_cell_angle_alpha   90.00061466
_cell_angle_beta   90.00000000
_cell_angle_gamma   90.00000000
_symmetry_Int_Tables_number   1
_chemical_formula_structural   Ca3Cd2
_chemical_formula_sum   'Ca12 Cd8'
_cell_volume   633.03732246
_cell_formula_units_Z   4
loop_
 _symmetry_equiv_pos_site_id
 _symmetry_equiv_pos_as_xyz
  1  'x, y, z'
loop_
 _atom_site_type_symbol
 _atom_site_label
 _atom_site_symmetry_multiplicity
 _atom_site_fract_x
 _atom_site_fract_y
 _atom_site_fract_z
 _atom_site_occupancy
  Ca  Ca0  1  0.25625722  0.14608103  0.14608103  1
  Ca  Ca1  1  0.75625708  0.35391883  0.64608117  1
  Ca  Ca2  1  0.75625708  0.64608117  0.35391883  1
  Ca  Ca3  1  0.25625722  0.85391897  0.85391897  1
  Ca  Ca4  1  0.75623708  0.19713156  0.19713156  1
  Ca  Ca5  1  0.25623710  0.30286842  0.69713158  1
  Ca  Ca6  1  0.25623710  0.69713158  0.30286842  1
  Ca  Ca7  1  0.75623708  0.80286844  0.80286844  1
  Ca  Ca8  1  0.50612935  0.00000000  0.50000000  1
  Ca  Ca9  1  0.00612876  0.00000000  0.50000000  1
  Ca  Ca10  1  0.00612876  0.50000000  0.00000000  1
  Ca  Ca11  1  0.50612935  0.50000000  0.00000000  1
  Cd  Cd12  1  0.05822344  0.37531159  0.37531159  1
  Cd  Cd13  1  0.55822352  0.12468831  0.87531169  1
  Cd  Cd14  1  0.55822352  0.87531169  0.12468831  1
  Cd  Cd15  1  0.05822344  0.62468841  0.62468841  1
  Cd  Cd16  1  0.45415326  0.37530706  0.37530706  1
  Cd  Cd17  1  0.95415318  0.12469283  0.87530717  1
  Cd  Cd18  1  0.95415318  0.87530717  0.12469283  1
  Cd  Cd19  1  0.45415326  0.62469294  0.62469294  1
