# generated using pymatgen
data_MnSeO4
_symmetry_space_group_name_H-M   'P 1'
_cell_length_a   5.10781799
_cell_length_b   5.10781814
_cell_length_c   6.95602727
_cell_angle_alpha   90.00000000
_cell_angle_beta   90.00000000
_cell_angle_gamma   113.13056022
_symmetry_Int_Tables_number   1
_chemical_formula_structural   MnSeO4
_chemical_formula_sum   'Mn2 Se2 O8'
_cell_volume   166.89248985
_cell_formula_units_Z   2
loop_
 _symmetry_equiv_pos_site_id
 _symmetry_equiv_pos_as_xyz
  1  'x, y, z'
loop_
 _atom_site_type_symbol
 _atom_site_label
 _atom_site_symmetry_multiplicity
 _atom_site_fract_x
 _atom_site_fract_y
 _atom_site_fract_z
 _atom_site_occupancy
  Mn  Mn0  1  0.00000000  0.00000000  0.00000000  1
  Mn  Mn1  1  0.00000000  0.00000000  0.50000000  1
  Se  Se2  1  0.64849426  0.35150574  0.25000000  1
  Se  Se3  1  0.35150574  0.64849426  0.75000000  1
  O  O4  1  0.75298881  0.24701119  0.45076475  1
  O  O5  1  0.24701119  0.75298881  0.54923525  1
  O  O6  1  0.22424926  0.28653436  0.75000000  1
  O  O7  1  0.77575074  0.71346564  0.25000000  1
  O  O8  1  0.75298881  0.24701119  0.04923525  1
  O  O9  1  0.24701119  0.75298881  0.95076475  1
  O  O10  1  0.71346564  0.77575074  0.75000000  1
  O  O11  1  0.28653436  0.22424926  0.25000000  1
