# generated using pymatgen
data_Cu2GeSe3
_symmetry_space_group_name_H-M   'P 1'
_cell_length_a   7.95920667
_cell_length_b   11.90479776
_cell_length_c   6.86880638
_cell_angle_alpha   30.06495025
_cell_angle_beta   54.91816913
_cell_angle_gamma   60.18240844
_symmetry_Int_Tables_number   1
_chemical_formula_structural   Cu2GeSe3
_chemical_formula_sum   'Cu4 Ge2 Se6'
_cell_volume   266.82356567
_cell_formula_units_Z   2
loop_
 _symmetry_equiv_pos_site_id
 _symmetry_equiv_pos_as_xyz
  1  'x, y, z'
loop_
 _atom_site_type_symbol
 _atom_site_label
 _atom_site_symmetry_multiplicity
 _atom_site_fract_x
 _atom_site_fract_y
 _atom_site_fract_z
 _atom_site_occupancy
  Cu  Cu0  1  0.99615289  0.99786025  0.99715445  1
  Cu  Cu1  1  0.99783577  0.66531997  0.00358053  1
  Cu  Cu2  1  0.49451186  0.33728691  0.98760573  1
  Cu  Cu3  1  0.49456510  0.66972552  0.99673494  1
  Ge  Ge4  1  0.00658229  0.33996182  0.98883209  1
  Ge  Ge5  1  0.50959206  0.99010086  0.01199358  1
  Se  Se6  1  0.12246186  0.33422558  0.25472828  1
  Se  Se7  1  0.12441862  0.66740598  0.24496915  1
  Se  Se8  1  0.61681051  0.33909926  0.23840155  1
  Se  Se9  1  0.12006686  0.99272036  0.25590465  1
  Se  Se10  1  0.62673497  0.66473797  0.24459085  1
  Se  Se11  1  0.62356921  0.00006251  0.25587919  1
