# generated using pymatgen
data_CaVO3
_symmetry_space_group_name_H-M   'P 1'
_cell_length_a   5.46467809
_cell_length_b   5.33834393
_cell_length_c   7.71530924
_cell_angle_alpha   90.00000000
_cell_angle_beta   90.00000000
_cell_angle_gamma   90.00000000
_symmetry_Int_Tables_number   1
_chemical_formula_structural   CaVO3
_chemical_formula_sum   'Ca4 V4 O12'
_cell_volume   225.07355577
_cell_formula_units_Z   4
loop_
 _symmetry_equiv_pos_site_id
 _symmetry_equiv_pos_as_xyz
  1  'x, y, z'
loop_
 _atom_site_type_symbol
 _atom_site_label
 _atom_site_symmetry_multiplicity
 _atom_site_fract_x
 _atom_site_fract_y
 _atom_site_fract_z
 _atom_site_occupancy
  O  O0  1  0.79795271  0.78598422  0.46332388  1
  O  O1  1  0.29795118  0.71401459  0.03667589  1
  O  O2  1  0.70204816  0.28598462  0.53667566  1
  O  O3  1  0.20204849  0.21401499  0.96332497  1
  O  O4  1  0.20204849  0.21401499  0.53667566  1
  O  O5  1  0.70204816  0.28598462  0.96332497  1
  O  O6  1  0.29795118  0.71401459  0.46332388  1
  O  O7  1  0.79795271  0.78598422  0.03667589  1
  O  O8  1  0.51664220  0.92253462  0.75000032  1
  O  O9  1  0.01664253  0.57746607  0.75000032  1
  O  O10  1  0.48335713  0.07746647  0.25000054  1
  O  O11  1  0.98335866  0.42253314  0.25000054  1
  Ca  Ca12  1  0.95458562  0.00671637  0.75000032  1
  Ca  Ca13  1  0.45458595  0.49328323  0.75000032  1
  Ca  Ca14  1  0.54541525  0.50671598  0.25000054  1
  Ca  Ca15  1  0.04541558  0.99328471  0.25000054  1
  V  V16  1  0.49999967  0.00000000  0.00000000  1
  V  V17  1  0.00000000  0.49999960  0.49999977  1
  V  V18  1  0.00000000  0.49999960  0.00000000  1
  V  V19  1  0.49999967  0.00000000  0.49999977  1
