# generated using pymatgen
data_Sc3IrC4
_symmetry_space_group_name_H-M   'P 1'
_cell_length_a   5.62530469
_cell_length_b   5.62598795
_cell_length_c   6.75713814
_cell_angle_alpha   65.39881421
_cell_angle_beta   83.86592380
_cell_angle_gamma   75.12689916
_symmetry_Int_Tables_number   1
_chemical_formula_structural   Sc3IrC4
_chemical_formula_sum   'Sc6 Ir2 C8'
_cell_volume   187.92327662
_cell_formula_units_Z   2
loop_
 _symmetry_equiv_pos_site_id
 _symmetry_equiv_pos_as_xyz
  1  'x, y, z'
loop_
 _atom_site_type_symbol
 _atom_site_label
 _atom_site_symmetry_multiplicity
 _atom_site_fract_x
 _atom_site_fract_y
 _atom_site_fract_z
 _atom_site_occupancy
  Sc  Sc0  1  0.23680697  0.23875619  1.00000000  1
  Sc  Sc1  1  0.50000000  0.69140706  0.61718589  1
  Sc  Sc2  1  0.00000000  0.81043524  0.37912953  1
  Sc  Sc3  1  0.50000000  0.30859294  0.38281411  1
  Sc  Sc4  1  0.76319303  0.76124381  0.00000000  1
  Sc  Sc5  1  1.00000000  0.18956476  0.62087047  1
  Ir  Ir6  1  0.72817720  0.27079438  1.00000000  1
  Ir  Ir7  1  0.27182280  0.72920562  0.00000000  1
  C  C8  1  0.08155626  0.70985967  0.74240762  1
  C  C9  1  0.08155626  0.45226729  0.25759238  1
  C  C10  1  0.91844374  0.54773271  0.74240762  1
  C  C11  1  0.91844374  0.29014033  0.25759238  1
  C  C12  1  0.41848771  0.79123066  0.25534593  1
  C  C13  1  0.58151229  0.20876934  0.74465407  1
  C  C14  1  0.41848771  0.04657659  0.74465407  1
  C  C15  1  0.58151229  0.95342341  0.25534593  1
