# generated using pymatgen
data_Ca3CoN3
_symmetry_space_group_name_H-M   'P 1'
_cell_length_a   7.16599136
_cell_length_b   7.16578895
_cell_length_c   4.97176063
_cell_angle_alpha   90.00000000
_cell_angle_beta   90.00000000
_cell_angle_gamma   120.03445299
_symmetry_Int_Tables_number   1
_chemical_formula_structural   Ca3CoN3
_chemical_formula_sum   'Ca6 Co2 N6'
_cell_volume   221.01932902
_cell_formula_units_Z   2
loop_
 _symmetry_equiv_pos_site_id
 _symmetry_equiv_pos_as_xyz
  1  'x, y, z'
loop_
 _atom_site_type_symbol
 _atom_site_label
 _atom_site_symmetry_multiplicity
 _atom_site_fract_x
 _atom_site_fract_y
 _atom_site_fract_z
 _atom_site_occupancy
  Ca  Ca0  1  0.91504564  0.63834164  0.25000000  1
  Ca  Ca1  1  0.72363861  0.08510406  0.25000000  1
  Ca  Ca2  1  0.36128391  0.27648775  0.25000000  1
  Ca  Ca3  1  0.08495436  0.36165836  0.75000000  1
  Ca  Ca4  1  0.27636139  0.91489594  0.75000000  1
  Ca  Ca5  1  0.63871609  0.72351225  0.75000000  1
  Co  Co6  1  0.66664816  0.33327272  0.75000000  1
  Co  Co7  1  0.33335184  0.66672728  0.25000000  1
  N  N8  1  0.89593890  0.59499639  0.75000000  1
  N  N9  1  0.69911082  0.10406671  0.75000000  1
  N  N10  1  0.40519476  0.30123299  0.75000000  1
  N  N11  1  0.10406110  0.40500361  0.25000000  1
  N  N12  1  0.30088918  0.89593329  0.25000000  1
  N  N13  1  0.59480524  0.69876701  0.25000000  1
