# generated using pymatgen
data_Ba2Mn3(AsO)2
_symmetry_space_group_name_H-M   'P 1'
_cell_length_a   4.35867598
_cell_length_b   4.35867598
_cell_length_c   10.59935585
_cell_angle_alpha   101.86523462
_cell_angle_beta   101.86523463
_cell_angle_gamma   90.00000004
_symmetry_Int_Tables_number   1
_chemical_formula_structural   Ba2Mn3(AsO)2
_chemical_formula_sum   'Ba2 Mn3 As2 O2'
_cell_volume   192.66625365
_cell_formula_units_Z   1
loop_
 _symmetry_equiv_pos_site_id
 _symmetry_equiv_pos_as_xyz
  1  'x, y, z'
loop_
 _atom_site_type_symbol
 _atom_site_label
 _atom_site_symmetry_multiplicity
 _atom_site_fract_x
 _atom_site_fract_y
 _atom_site_fract_z
 _atom_site_occupancy
  O  O0  1  0.99999888  0.49999984  0.00000029  1
  O  O1  1  0.49999900  0.99999998  0.00000031  1
  Mn  Mn2  1  0.00000000  0.00000000  0.00000000  1
  Mn  Mn3  1  0.75000028  0.24999881  0.49999972  1
  Mn  Mn4  1  0.25000027  0.75000121  0.49999990  1
  As  As5  1  0.17155975  0.17156002  0.34312099  1
  As  As6  1  0.82844075  0.82843996  0.65687955  1
  Ba  Ba7  1  0.58728879  0.58728794  0.17457706  1
  Ba  Ba8  1  0.41271176  0.41271208  0.82542256  1
