# generated using pymatgen
data_CeAgAs2
_symmetry_space_group_name_H-M   'P 1'
_cell_length_a   4.09966640
_cell_length_b   4.10437533
_cell_length_c   10.19306375
_cell_angle_alpha   90.00000000
_cell_angle_beta   90.00000000
_cell_angle_gamma   90.00000000
_symmetry_Int_Tables_number   1
_chemical_formula_structural   CeAgAs2
_chemical_formula_sum   'Ce2 Ag2 As4'
_cell_volume   171.51429697
_cell_formula_units_Z   2
loop_
 _symmetry_equiv_pos_site_id
 _symmetry_equiv_pos_as_xyz
  1  'x, y, z'
loop_
 _atom_site_type_symbol
 _atom_site_label
 _atom_site_symmetry_multiplicity
 _atom_site_fract_x
 _atom_site_fract_y
 _atom_site_fract_z
 _atom_site_occupancy
  Ce  Ce0  1  0.75000000  0.73448890  0.77880926  1
  Ce  Ce1  1  0.25000000  0.23448890  0.22119074  1
  Ag  Ag2  1  0.75000000  0.24357450  0.49995763  1
  Ag  Ag3  1  0.25000000  0.74357450  0.50004237  1
  As  As4  1  0.75000000  0.73536579  0.31150383  1
  As  As5  1  0.25000000  0.23536579  0.68849617  1
  As  As6  1  0.75000000  0.23237080  0.99988339  1
  As  As7  1  0.25000000  0.73237080  0.00011661  1
