# generated using pymatgen
data_Li2CrFeO4
_symmetry_space_group_name_H-M   'P 1'
_cell_length_a   2.97472507
_cell_length_b   5.16484850
_cell_length_c   5.15235886
_cell_angle_alpha   80.45286012
_cell_angle_beta   90.00123003
_cell_angle_gamma   106.74255804
_symmetry_Int_Tables_number   1
_chemical_formula_structural   Li2CrFeO4
_chemical_formula_sum   'Li2 Cr1 Fe1 O4'
_cell_volume   74.65954073
_cell_formula_units_Z   1
loop_
 _symmetry_equiv_pos_site_id
 _symmetry_equiv_pos_as_xyz
  1  'x, y, z'
loop_
 _atom_site_type_symbol
 _atom_site_label
 _atom_site_symmetry_multiplicity
 _atom_site_fract_x
 _atom_site_fract_y
 _atom_site_fract_z
 _atom_site_occupancy
  Li  Li0  1  0.49923350  0.99844876  0.50124365  1
  Li  Li1  1  0.00076550  0.00155124  0.99875635  1
  Cr  Cr2  1  0.75000000  0.50000000  0.75000000  1
  Fe  Fe3  1  0.25000000  0.50000000  0.25000000  1
  O  O4  1  0.86430236  0.72854184  0.38018896  1
  O  O5  1  0.63569764  0.27145716  0.11981104  1
  O  O6  1  0.36285122  0.72561931  0.87764941  1
  O  O7  1  0.13714878  0.27438069  0.62235059  1
