# generated using pymatgen
data_CaAl2(SiO4)2
_symmetry_space_group_name_H-M   'P 1'
_cell_length_a   8.86682129
_cell_length_b   9.54417485
_cell_length_c   8.19167149
_cell_angle_alpha   82.06897295
_cell_angle_beta   85.01883346
_cell_angle_gamma   89.74461999
_symmetry_Int_Tables_number   1
_chemical_formula_structural   CaAl2(SiO4)2
_chemical_formula_sum   'Ca4 Al8 Si8 O32'
_cell_volume   683.98860534
_cell_formula_units_Z   4
loop_
 _symmetry_equiv_pos_site_id
 _symmetry_equiv_pos_as_xyz
  1  'x, y, z'
loop_
 _atom_site_type_symbol
 _atom_site_label
 _atom_site_symmetry_multiplicity
 _atom_site_fract_x
 _atom_site_fract_y
 _atom_site_fract_z
 _atom_site_occupancy
  Ca  Ca0  1  0.07551216  0.00337831  0.22781819  1
  Ca  Ca1  1  0.41793210  0.42696288  0.31083775  1
  Ca  Ca2  1  0.58206790  0.57303712  0.68916225  1
  Ca  Ca3  1  0.92448784  0.99662169  0.77218181  1
  Al  Al4  1  0.44084567  0.18844608  0.00183605  1
  Al  Al5  1  0.06759209  0.68983212  0.12141194  1
  Al  Al6  1  0.77297734  0.45344105  0.38650216  1
  Al  Al7  1  0.27841610  0.05697696  0.52087861  1
  Al  Al8  1  0.72158390  0.94302304  0.47912139  1
  Al  Al9  1  0.22702266  0.54655895  0.61349784  1
  Al  Al10  1  0.93240791  0.31016788  0.87858806  1
  Al  Al11  1  0.55915433  0.81155392  0.99816395  1
  Si  Si12  1  0.73869736  0.05480181  0.09744457  1
  Si  Si13  1  0.75529190  0.54664741  0.02175240  1
  Si  Si14  1  0.05460754  0.29436127  0.49705907  1
  Si  Si15  1  0.42903609  0.79475508  0.39295251  1
  Si  Si16  1  0.57096391  0.20524492  0.60704749  1
  Si  Si17  1  0.94539246  0.70563873  0.50294093  1
  Si  Si18  1  0.24470810  0.45335259  0.97824760  1
  Si  Si19  1  0.26130264  0.94519819  0.90255543  1
  O  O20  1  0.28661194  0.06571652  0.02492110  1
  O  O21  1  0.88975598  0.14143007  0.00027679  1
  O  O22  1  0.36621594  0.34433881  0.07093686  1
  O  O23  1  0.58634110  0.14289214  0.12974555  1
  O  O24  1  0.21857064  0.56971509  0.10782542  1
  O  O25  1  0.90450433  0.62785196  0.05531628  1
  O  O26  1  0.67405842  0.47844131  0.20535260  1
  O  O27  1  0.48801843  0.78681536  0.20369160  1
  O  O28  1  0.03442288  0.74801627  0.31833027  1
  O  O29  1  0.12281685  0.14857294  0.42881377  1
  O  O30  1  0.94248046  0.36580316  0.36380783  1
  O  O31  1  0.80122375  0.98767314  0.27397989  1
  O  O32  1  0.43609759  0.16975966  0.49277155  1
  O  O33  1  0.29312976  0.91158997  0.40882858  1
  O  O34  1  0.20124885  0.39704389  0.51047882  1
  O  O35  1  0.37789593  0.62997310  0.47465817  1
  O  O36  1  0.62210407  0.37002690  0.52534183  1
  O  O37  1  0.79875115  0.60295611  0.48952118  1
  O  O38  1  0.70687024  0.08841103  0.59117142  1
  O  O39  1  0.56390241  0.83024034  0.50722845  1
  O  O40  1  0.19877625  0.01232686  0.72602011  1
  O  O41  1  0.05751954  0.63419684  0.63619217  1
  O  O42  1  0.87718315  0.85142706  0.57118623  1
  O  O43  1  0.96557712  0.25198373  0.68166973  1
  O  O44  1  0.51198157  0.21318564  0.79630840  1
  O  O45  1  0.32594158  0.52155869  0.79464740  1
  O  O46  1  0.09549567  0.37214804  0.94468372  1
  O  O47  1  0.78142936  0.43028491  0.89217458  1
  O  O48  1  0.41365890  0.85710786  0.87025445  1
  O  O49  1  0.63378406  0.65566119  0.92906314  1
  O  O50  1  0.11024402  0.85856993  0.99972321  1
  O  O51  1  0.71338806  0.93428348  0.97507890  1
