# generated using pymatgen
data_Na2CoP2O7
_symmetry_space_group_name_H-M   'P 1'
_cell_length_a   5.26115015
_cell_length_b   8.90408340
_cell_length_c   13.69978615
_cell_angle_alpha   90.00000000
_cell_angle_beta   90.00000000
_cell_angle_gamma   91.50790801
_symmetry_Int_Tables_number   1
_chemical_formula_structural   Na2CoP2O7
_chemical_formula_sum   'Na8 Co4 P8 O28'
_cell_volume   641.55409639
_cell_formula_units_Z   4
loop_
 _symmetry_equiv_pos_site_id
 _symmetry_equiv_pos_as_xyz
  1  'x, y, z'
loop_
 _atom_site_type_symbol
 _atom_site_label
 _atom_site_symmetry_multiplicity
 _atom_site_fract_x
 _atom_site_fract_y
 _atom_site_fract_z
 _atom_site_occupancy
  Na  Na0  1  0.26545668  0.85648553  0.70413070  1
  Na  Na1  1  0.76545668  0.35648553  0.79586930  1
  Na  Na2  1  0.73454332  0.14351447  0.29586930  1
  Na  Na3  1  0.23454332  0.64351447  0.20413070  1
  Na  Na4  1  0.29295840  0.36441195  0.39263129  1
  Na  Na5  1  0.79295840  0.86441195  0.10736871  1
  Na  Na6  1  0.70704160  0.63558805  0.60736871  1
  Na  Na7  1  0.20704160  0.13558805  0.89263129  1
  Co  Co8  1  0.29920297  0.26202777  0.66791423  1
  Co  Co9  1  0.79920297  0.76202777  0.83208577  1
  Co  Co10  1  0.70079703  0.73797223  0.33208577  1
  Co  Co11  1  0.20079703  0.23797223  0.16791423  1
  P  P12  1  0.29846386  0.76656824  0.95910839  1
  P  P13  1  0.79846386  0.26656824  0.54089161  1
  P  P14  1  0.70153614  0.23343176  0.04089161  1
  P  P15  1  0.20153614  0.73343176  0.45910839  1
  P  P16  1  0.26408645  0.54767281  0.81037449  1
  P  P17  1  0.76408645  0.04767281  0.68962551  1
  P  P18  1  0.73591355  0.45232719  0.18962551  1
  P  P19  1  0.23591355  0.95232719  0.31037449  1
  O  O20  1  0.99835774  0.58816887  0.77190144  1
  O  O21  1  0.49835774  0.08816887  0.72809856  1
  O  O22  1  0.00164226  0.41183113  0.22809856  1
  O  O23  1  0.50164226  0.91183113  0.27190144  1
  O  O24  1  0.48164881  0.64055482  0.76438616  1
  O  O25  1  0.98164881  0.14055482  0.73561384  1
  O  O26  1  0.51835119  0.35944518  0.23561384  1
  O  O27  1  0.01835119  0.85944518  0.26438616  1
  O  O28  1  0.58520789  0.80681500  0.94756691  1
  O  O29  1  0.08520789  0.30681500  0.55243309  1
  O  O30  1  0.41479211  0.19318500  0.05243309  1
  O  O31  1  0.91479211  0.69318500  0.44756691  1
  O  O32  1  0.13737199  0.85569993  0.88467064  1
  O  O33  1  0.63737199  0.35569993  0.61532936  1
  O  O34  1  0.86262801  0.14430007  0.11532936  1
  O  O35  1  0.36262801  0.64430007  0.38467064  1
  O  O36  1  0.20633555  0.77477407  0.06264917  1
  O  O37  1  0.70633555  0.27477407  0.43735083  1
  O  O38  1  0.79366445  0.22522593  0.93735083  1
  O  O39  1  0.29366445  0.72522593  0.56264917  1
  O  O40  1  0.30170862  0.37746196  0.80188622  1
  O  O41  1  0.80170862  0.87746196  0.69811378  1
  O  O42  1  0.69829138  0.62253804  0.19811378  1
  O  O43  1  0.19829138  0.12253804  0.30188622  1
  O  O44  1  0.26514432  0.58757970  0.92611177  1
  O  O45  1  0.76514432  0.08757970  0.57388823  1
  O  O46  1  0.73485568  0.41242030  0.07388823  1
  O  O47  1  0.23485568  0.91242030  0.42611177  1
