# generated using pymatgen
data_BaFeF4
_symmetry_space_group_name_H-M   'P 1'
_cell_length_a   4.30916522
_cell_length_b   5.89726639
_cell_length_c   7.92033874
_cell_angle_alpha   90.00000000
_cell_angle_beta   105.78519610
_cell_angle_gamma   90.00000000
_symmetry_Int_Tables_number   1
_chemical_formula_structural   BaFeF4
_chemical_formula_sum   'Ba2 Fe2 F8'
_cell_volume   193.68360452
_cell_formula_units_Z   2
loop_
 _symmetry_equiv_pos_site_id
 _symmetry_equiv_pos_as_xyz
  1  'x, y, z'
loop_
 _atom_site_type_symbol
 _atom_site_label
 _atom_site_symmetry_multiplicity
 _atom_site_fract_x
 _atom_site_fract_y
 _atom_site_fract_z
 _atom_site_occupancy
  F  F0  1  0.91733473  0.51916862  0.83466946  1
  F  F1  1  0.08266527  0.01916862  0.16533054  1
  F  F2  1  0.46748799  0.85218807  0.93497597  1
  F  F3  1  0.53251201  0.35218807  0.06502403  1
  F  F4  1  0.69765713  0.20146741  0.39531426  1
  F  F5  1  0.30234287  0.70146741  0.60468574  1
  F  F6  1  0.67009778  0.73061726  0.34019556  1
  F  F7  1  0.32990222  0.23061726  0.65980444  1
  Fe  Fe8  1  0.41415199  0.50545978  0.82830398  1
  Fe  Fe9  1  0.58584801  0.00545978  0.17169602  1
  Ba  Ba10  1  0.84682676  0.96349886  0.69365351  1
  Ba  Ba11  1  0.15317324  0.46349886  0.30634649  1
