# generated using pymatgen
data_Ca2B4Rh5
_symmetry_space_group_name_H-M   'P 1'
_cell_length_a   5.52331430
_cell_length_b   5.64608294
_cell_length_c   6.28241252
_cell_angle_alpha   77.58367802
_cell_angle_beta   63.92256558
_cell_angle_gamma   60.71671758
_symmetry_Int_Tables_number   1
_chemical_formula_structural   Ca2B4Rh5
_chemical_formula_sum   'Ca2 B4 Rh5'
_cell_volume   153.48606629
_cell_formula_units_Z   1
loop_
 _symmetry_equiv_pos_site_id
 _symmetry_equiv_pos_as_xyz
  1  'x, y, z'
loop_
 _atom_site_type_symbol
 _atom_site_label
 _atom_site_symmetry_multiplicity
 _atom_site_fract_x
 _atom_site_fract_y
 _atom_site_fract_z
 _atom_site_occupancy
  B  B0  1  0.20833186  0.32280026  0.26053601  1
  B  B1  1  0.79166814  0.67719974  0.73946399  1
  B  B2  1  0.46886788  0.32280026  0.73946399  1
  B  B3  1  0.53113212  0.67719974  0.26053601  1
  Ca  Ca4  1  0.14299359  0.00000000  0.71401281  1
  Ca  Ca5  1  0.85700641  0.00000000  0.28598719  1
  Rh  Rh6  1  0.50000000  0.00000000  0.00000000  1
  Rh  Rh7  1  0.50000000  0.50000000  0.00000000  1
  Rh  Rh8  1  0.00000000  0.50000000  0.00000000  1
  Rh  Rh9  1  0.25000000  0.50000000  0.50000000  1
  Rh  Rh10  1  0.75000000  0.50000000  0.50000000  1
