# generated using pymatgen
data_ReO2
_symmetry_space_group_name_H-M   'P 1'
_cell_length_a   4.62975945
_cell_length_b   4.88610475
_cell_length_c   5.70027496
_cell_angle_alpha   90.00000000
_cell_angle_beta   90.00000000
_cell_angle_gamma   90.00000000
_symmetry_Int_Tables_number   1
_chemical_formula_structural   ReO2
_chemical_formula_sum   'Re4 O8'
_cell_volume   128.94871095
_cell_formula_units_Z   4
loop_
 _symmetry_equiv_pos_site_id
 _symmetry_equiv_pos_as_xyz
  1  'x, y, z'
loop_
 _atom_site_type_symbol
 _atom_site_label
 _atom_site_symmetry_multiplicity
 _atom_site_fract_x
 _atom_site_fract_y
 _atom_site_fract_z
 _atom_site_occupancy
  O  O0  1  0.59136179  0.24253854  0.64038992  1
  O  O1  1  0.09136179  0.25746146  0.85961008  1
  O  O2  1  0.40863821  0.74253854  0.85961008  1
  O  O3  1  0.90863821  0.75746146  0.64038992  1
  O  O4  1  0.09136179  0.24253854  0.35961008  1
  O  O5  1  0.59136179  0.25746146  0.14038992  1
  O  O6  1  0.90863821  0.74253854  0.14038992  1
  O  O7  1  0.40863821  0.75746146  0.35961008  1
  Re  Re8  1  0.25000000  0.50000000  0.60752553  1
  Re  Re9  1  0.75000000  0.00000000  0.89247447  1
  Re  Re10  1  0.75000000  0.50000000  0.39247447  1
  Re  Re11  1  0.25000000  0.00000000  0.10752553  1
