# generated using pymatgen
data_AlPO4
_symmetry_space_group_name_H-M   'P 1'
_cell_length_a   5.13272951
_cell_length_b   5.10648652
_cell_length_c   8.46243015
_cell_angle_alpha   90.00000000
_cell_angle_beta   90.00000000
_cell_angle_gamma   118.80529206
_symmetry_Int_Tables_number   1
_chemical_formula_structural   AlPO4
_chemical_formula_sum   'Al2 P2 O8'
_cell_volume   194.35679688
_cell_formula_units_Z   2
loop_
 _symmetry_equiv_pos_site_id
 _symmetry_equiv_pos_as_xyz
  1  'x, y, z'
loop_
 _atom_site_type_symbol
 _atom_site_label
 _atom_site_symmetry_multiplicity
 _atom_site_fract_x
 _atom_site_fract_y
 _atom_site_fract_z
 _atom_site_occupancy
  O  O0  1  0.39720270  0.53754617  0.45295530  1
  O  O1  1  0.60279730  0.46245383  0.95295530  1
  O  O2  1  0.51980648  0.05986036  0.53423044  1
  O  O3  1  0.48019352  0.94013964  0.03423044  1
  O  O4  1  0.31402423  0.64845470  0.73211381  1
  O  O5  1  0.68597577  0.35154530  0.23211381  1
  O  O6  1  0.01074360  0.34135108  0.01311049  1
  O  O7  1  0.98925640  0.65864892  0.51311049  1
  Al  Al8  1  0.35278731  0.60253059  0.93269212  1
  Al  Al9  1  0.64721269  0.39746941  0.43269212  1
  P  P10  1  0.30549722  0.72560121  0.55819783  1
  P  P11  1  0.69450278  0.27439879  0.05819783  1
