# generated using pymatgen
data_ErFeO3
_symmetry_space_group_name_H-M   'P 1'
_cell_length_a   5.30309548
_cell_length_b   5.62506037
_cell_length_c   7.69459293
_cell_angle_alpha   90.00000000
_cell_angle_beta   90.00000000
_cell_angle_gamma   90.00000000
_symmetry_Int_Tables_number   1
_chemical_formula_structural   ErFeO3
_chemical_formula_sum   'Er4 Fe4 O12'
_cell_volume   229.53149396
_cell_formula_units_Z   4
loop_
 _symmetry_equiv_pos_site_id
 _symmetry_equiv_pos_as_xyz
  1  'x, y, z'
loop_
 _atom_site_type_symbol
 _atom_site_label
 _atom_site_symmetry_multiplicity
 _atom_site_fract_x
 _atom_site_fract_y
 _atom_site_fract_z
 _atom_site_occupancy
  O  O0  1  0.69092971  0.30647227  0.43765777  1
  O  O1  1  0.19092977  0.19352763  0.56234225  1
  O  O2  1  0.80907009  0.80647217  0.06234224  1
  O  O3  1  0.30907016  0.69352753  0.93765778  1
  O  O4  1  0.30907016  0.69352753  0.56234225  1
  O  O5  1  0.80907009  0.80647217  0.43765777  1
  O  O6  1  0.19092977  0.19352763  0.93765778  1
  O  O7  1  0.69092971  0.30647227  0.06234224  1
  O  O8  1  0.12233777  0.45260614  0.24999934  1
  O  O9  1  0.62233770  0.04739376  0.74999934  1
  O  O10  1  0.87766209  0.54739366  0.74999934  1
  O  O11  1  0.37766216  0.95260604  0.24999934  1
  Fe  Fe12  1  0.00000000  0.49999990  0.50000001  1
  Fe  Fe13  1  0.49999993  0.00000000  0.50000001  1
  Fe  Fe14  1  0.49999993  0.00000000  0.00000000  1
  Fe  Fe15  1  0.00000000  0.49999990  0.00000000  1
  Er  Er16  1  0.02041466  0.93036962  0.74999934  1
  Er  Er17  1  0.52041459  0.56963008  0.24999934  1
  Er  Er18  1  0.47958528  0.43036972  0.74999934  1
  Er  Er19  1  0.97958521  0.06963018  0.24999934  1
