# generated using pymatgen
data_LaSbPd
_symmetry_space_group_name_H-M   'P 1'
_cell_length_a   4.65435000
_cell_length_b   4.65391513
_cell_length_c   8.20214228
_cell_angle_alpha   90.00000000
_cell_angle_beta   90.00000000
_cell_angle_gamma   120.00309111
_symmetry_Int_Tables_number   1
_chemical_formula_structural   LaSbPd
_chemical_formula_sum   'La2 Sb2 Pd2'
_cell_volume   153.85864349
_cell_formula_units_Z   2
loop_
 _symmetry_equiv_pos_site_id
 _symmetry_equiv_pos_as_xyz
  1  'x, y, z'
loop_
 _atom_site_type_symbol
 _atom_site_label
 _atom_site_symmetry_multiplicity
 _atom_site_fract_x
 _atom_site_fract_y
 _atom_site_fract_z
 _atom_site_occupancy
  La  La0  1  0.00000000  0.00000000  0.50000000  1
  La  La1  1  0.00000000  0.00000000  0.00000000  1
  Sb  Sb2  1  0.33332549  0.66665098  0.75000000  1
  Sb  Sb3  1  0.66667451  0.33334902  0.25000000  1
  Pd  Pd4  1  0.33331646  0.66663291  0.25000000  1
  Pd  Pd5  1  0.66668354  0.33336709  0.75000000  1
