# generated using pymatgen
data_ZnS
_symmetry_space_group_name_H-M   'P 1'
_cell_length_a   15.91666351
_cell_length_b   15.91666342
_cell_length_c   15.91666348
_cell_angle_alpha   13.89951752
_cell_angle_beta   13.89951884
_cell_angle_gamma   13.89951821
_symmetry_Int_Tables_number   1
_chemical_formula_structural   ZnS
_chemical_formula_sum   'Zn5 S5'
_cell_volume   202.50193333
_cell_formula_units_Z   5
loop_
 _symmetry_equiv_pos_site_id
 _symmetry_equiv_pos_as_xyz
  1  'x, y, z'
loop_
 _atom_site_type_symbol
 _atom_site_label
 _atom_site_symmetry_multiplicity
 _atom_site_fract_x
 _atom_site_fract_y
 _atom_site_fract_z
 _atom_site_occupancy
  Zn  Zn0  1  0.60000315  0.60000315  0.60000315  1
  Zn  Zn1  1  0.86666834  0.86666834  0.86666834  1
  Zn  Zn2  1  0.46665276  0.46665276  0.46665276  1
  Zn  Zn3  1  1.00000608  1.00000608  1.00000608  1
  Zn  Zn4  1  0.73334050  0.73334050  0.73334050  1
  S  S5  1  0.05003708  0.05003708  0.05003708  1
  S  S6  1  0.78329963  0.78329963  0.78329963  1
  S  S7  1  0.65000214  0.65000214  0.65000214  1
  S  S8  1  0.51666466  0.51666466  0.51666466  1
  S  S9  1  0.91666566  0.91666566  0.91666566  1
