# generated using pymatgen
data_Ho2Cr2C3
_symmetry_space_group_name_H-M   'P 1'
_cell_length_a   3.35538137
_cell_length_b   5.47934313
_cell_length_c   5.55061464
_cell_angle_alpha   105.18858262
_cell_angle_beta   90.00000000
_cell_angle_gamma   107.82944862
_symmetry_Int_Tables_number   1
_chemical_formula_structural   Ho2Cr2C3
_chemical_formula_sum   'Ho2 Cr2 C3'
_cell_volume   93.39680698
_cell_formula_units_Z   1
loop_
 _symmetry_equiv_pos_site_id
 _symmetry_equiv_pos_as_xyz
  1  'x, y, z'
loop_
 _atom_site_type_symbol
 _atom_site_label
 _atom_site_symmetry_multiplicity
 _atom_site_fract_x
 _atom_site_fract_y
 _atom_site_fract_z
 _atom_site_occupancy
  C  C0  1  0.28396667  0.56793334  0.73155804  1
  C  C1  1  0.71603333  0.43206666  0.26844196  1
  C  C2  1  0.00000000  0.00000000  0.50000000  1
  Cr  Cr3  1  0.84363595  0.68727190  0.61045830  1
  Cr  Cr4  1  0.15636405  0.31272810  0.38954170  1
  Ho  Ho5  1  0.60647499  0.21294999  0.81655042  1
  Ho  Ho6  1  0.39352501  0.78705001  0.18344958  1
