# generated using pymatgen
data_Ca2SiH2O5
_symmetry_space_group_name_H-M   'P 1'
_cell_length_a   9.25228417
_cell_length_b   9.55313221
_cell_length_c   10.78915612
_cell_angle_alpha   90.00000000
_cell_angle_beta   90.00000000
_cell_angle_gamma   90.00000000
_symmetry_Int_Tables_number   1
_chemical_formula_structural   Ca2SiH2O5
_chemical_formula_sum   'Ca16 Si8 H16 O40'
_cell_volume   953.63510229
_cell_formula_units_Z   8
loop_
 _symmetry_equiv_pos_site_id
 _symmetry_equiv_pos_as_xyz
  1  'x, y, z'
loop_
 _atom_site_type_symbol
 _atom_site_label
 _atom_site_symmetry_multiplicity
 _atom_site_fract_x
 _atom_site_fract_y
 _atom_site_fract_z
 _atom_site_occupancy
  Ca  Ca0  1  0.83161906  0.51699639  0.93040207  1
  Ca  Ca1  1  0.33161906  0.48300361  0.56959793  1
  Ca  Ca2  1  0.66838094  0.01699639  0.06959793  1
  Ca  Ca3  1  0.16838094  0.98300361  0.43040207  1
  Ca  Ca4  1  0.16838094  0.48300361  0.06959793  1
  Ca  Ca5  1  0.66838094  0.51699639  0.43040207  1
  Ca  Ca6  1  0.33161906  0.98300361  0.93040207  1
  Ca  Ca7  1  0.83161906  0.01699639  0.56959793  1
  Ca  Ca8  1  0.99524912  0.65414150  0.61218947  1
  Ca  Ca9  1  0.49524912  0.34585850  0.88781053  1
  Ca  Ca10  1  0.50475088  0.15414150  0.38781053  1
  Ca  Ca11  1  0.00475088  0.84585850  0.11218947  1
  Ca  Ca12  1  0.00475088  0.34585850  0.38781053  1
  Ca  Ca13  1  0.50475088  0.65414150  0.11218947  1
  Ca  Ca14  1  0.49524912  0.84585850  0.61218947  1
  Ca  Ca15  1  0.99524912  0.15414150  0.88781053  1
  Si  Si16  1  0.78625589  0.83193081  0.84073172  1
  Si  Si17  1  0.28625589  0.16806919  0.65926828  1
  Si  Si18  1  0.71374411  0.33193081  0.15926828  1
  Si  Si19  1  0.21374411  0.66806919  0.34073172  1
  Si  Si20  1  0.21374411  0.16806919  0.15926828  1
  Si  Si21  1  0.71374411  0.83193081  0.34073172  1
  Si  Si22  1  0.28625589  0.66806919  0.84073172  1
  Si  Si23  1  0.78625589  0.33193081  0.65926828  1
  O  O24  1  0.86020230  0.94569287  0.93607347  1
  O  O25  1  0.36020230  0.05430713  0.56392653  1
  O  O26  1  0.63979770  0.44569287  0.06392653  1
  O  O27  1  0.13979770  0.55430713  0.43607347  1
  O  O28  1  0.13979770  0.05430713  0.06392653  1
  O  O29  1  0.63979770  0.94569287  0.43607347  1
  O  O30  1  0.36020230  0.55430713  0.93607347  1
  O  O31  1  0.86020230  0.44569287  0.56392653  1
  O  O32  1  0.65252630  0.75052021  0.92518370  1
  O  O33  1  0.15252630  0.24947979  0.57481630  1
  O  O34  1  0.84747370  0.25052021  0.07481630  1
  O  O35  1  0.34747370  0.74947979  0.42518370  1
  O  O36  1  0.34747370  0.24947979  0.07481630  1
  O  O37  1  0.84747370  0.75052021  0.42518370  1
  O  O38  1  0.15252630  0.74947979  0.92518370  1
  O  O39  1  0.65252630  0.25052021  0.57481630  1
  O  O40  1  0.90220424  0.70695997  0.80934003  1
  O  O41  1  0.40220424  0.29304003  0.69065997  1
  O  O42  1  0.59779576  0.20695997  0.19065997  1
  O  O43  1  0.09779576  0.79304003  0.30934003  1
  O  O44  1  0.09779576  0.29304003  0.19065997  1
  O  O45  1  0.59779576  0.70695997  0.30934003  1
  O  O46  1  0.40220424  0.79304003  0.80934003  1
  O  O47  1  0.90220424  0.20695997  0.69065997  1
  O  O48  1  0.70723228  0.90092540  0.72079759  1
  O  O49  1  0.20723228  0.09907460  0.77920241  1
  O  O50  1  0.79276772  0.40092540  0.27920241  1
  O  O51  1  0.29276772  0.59907460  0.22079759  1
  O  O52  1  0.29276772  0.09907460  0.27920241  1
  O  O53  1  0.79276772  0.90092540  0.22079759  1
  O  O54  1  0.20723228  0.59907460  0.72079759  1
  O  O55  1  0.70723228  0.40092540  0.77920241  1
  O  O56  1  0.54717661  0.60736693  0.60233707  1
  O  O57  1  0.04717661  0.39263307  0.89766293  1
  O  O58  1  0.95282339  0.10736693  0.39766293  1
  O  O59  1  0.45282339  0.89263307  0.10233707  1
  O  O60  1  0.45282339  0.39263307  0.39766293  1
  O  O61  1  0.95282339  0.60736693  0.10233707  1
  O  O62  1  0.04717661  0.89263307  0.60233707  1
  O  O63  1  0.54717661  0.10736693  0.89766293  1
  H  H64  1  0.55749654  0.76061763  0.87761035  1
  H  H65  1  0.05749654  0.23938237  0.62238965  1
  H  H66  1  0.94250346  0.26061763  0.12238965  1
  H  H67  1  0.44250346  0.73938237  0.37761035  1
  H  H68  1  0.44250346  0.23938237  0.12238965  1
  H  H69  1  0.94250346  0.76061763  0.37761035  1
  H  H70  1  0.05749654  0.73938237  0.87761035  1
  H  H71  1  0.55749654  0.26061763  0.62238965  1
  H  H72  1  0.60031507  0.57239539  0.67439050  1
  H  H73  1  0.10031507  0.42760461  0.82560950  1
  H  H74  1  0.89968493  0.07239539  0.32560950  1
  H  H75  1  0.39968493  0.92760461  0.17439050  1
  H  H76  1  0.39968493  0.42760461  0.32560950  1
  H  H77  1  0.89968493  0.57239539  0.17439050  1
  H  H78  1  0.10031507  0.92760461  0.67439050  1
  H  H79  1  0.60031507  0.07239539  0.82560950  1
