# generated using pymatgen
data_KFeS2
_symmetry_space_group_name_H-M   'P 1'
_cell_length_a   5.37102017
_cell_length_b   6.64715620
_cell_length_c   6.64715620
_cell_angle_alpha   116.23402009
_cell_angle_beta   101.53614817
_cell_angle_gamma   101.53614819
_symmetry_Int_Tables_number   1
_chemical_formula_structural   KFeS2
_chemical_formula_sum   'K2 Fe2 S4'
_cell_volume   197.02369828
_cell_formula_units_Z   2
loop_
 _symmetry_equiv_pos_site_id
 _symmetry_equiv_pos_as_xyz
  1  'x, y, z'
loop_
 _atom_site_type_symbol
 _atom_site_label
 _atom_site_symmetry_multiplicity
 _atom_site_fract_x
 _atom_site_fract_y
 _atom_site_fract_z
 _atom_site_occupancy
  S  S0  1  0.40275830  0.91556573  0.70332894  1
  S  S1  1  0.09724170  0.29667106  0.08443427  1
  S  S2  1  0.90275830  0.70332894  0.91556573  1
  S  S3  1  0.59724170  0.08443427  0.29667106  1
  K  K4  1  0.75000000  0.64188178  0.35811822  1
  K  K5  1  0.25000000  0.35811822  0.64188178  1
  Fe  Fe6  1  0.25000000  0.99791988  0.00208012  1
  Fe  Fe7  1  0.75000000  0.00208012  0.99791988  1
