# generated using pymatgen
data_BaTiO3
_symmetry_space_group_name_H-M   'P 1'
_cell_length_a   5.79788166
_cell_length_b   5.79788162
_cell_length_c   14.14208138
_cell_angle_alpha   90.00000000
_cell_angle_beta   90.00000000
_cell_angle_gamma   119.51118521
_symmetry_Int_Tables_number   1
_chemical_formula_structural   BaTiO3
_chemical_formula_sum   'Ba6 Ti6 O18'
_cell_volume   413.71457395
_cell_formula_units_Z   6
loop_
 _symmetry_equiv_pos_site_id
 _symmetry_equiv_pos_as_xyz
  1  'x, y, z'
loop_
 _atom_site_type_symbol
 _atom_site_label
 _atom_site_symmetry_multiplicity
 _atom_site_fract_x
 _atom_site_fract_y
 _atom_site_fract_z
 _atom_site_occupancy
  Ba  Ba0  1  0.34899573  0.68164727  0.90384434  1
  Ba  Ba1  1  0.68164727  0.34899573  0.09615566  1
  Ba  Ba2  1  0.65100427  0.31835273  0.40384434  1
  Ba  Ba3  1  0.99956765  0.00043235  0.75000000  1
  Ba  Ba4  1  0.00043235  0.99956765  0.25000000  1
  Ba  Ba5  1  0.31835273  0.65100427  0.59615566  1
  Ti  Ti6  1  0.35809505  0.69439670  0.15422905  1
  Ti  Ti7  1  0.69439670  0.35809505  0.84577095  1
  Ti  Ti8  1  0.97064755  0.97064755  0.50000000  1
  Ti  Ti9  1  0.30560330  0.64190495  0.34577095  1
  Ti  Ti10  1  0.02935245  0.02935245  0.00000000  1
  Ti  Ti11  1  0.64190495  0.30560330  0.65422905  1
  O  O12  1  0.16607567  0.83572623  0.41970597  1
  O  O13  1  0.83660323  0.67376490  0.58068481  1
  O  O14  1  0.51873838  0.03163967  0.74617502  1
  O  O15  1  0.83259562  0.66467266  0.91915677  1
  O  O16  1  0.83572623  0.16607567  0.58029403  1
  O  O17  1  0.16339677  0.32623510  0.08068481  1
  O  O18  1  0.66467266  0.83259562  0.08084323  1
  O  O19  1  0.96836033  0.48126162  0.75382498  1
  O  O20  1  0.47983088  0.52016912  0.25000000  1
  O  O21  1  0.16427377  0.83392433  0.08029403  1
  O  O22  1  0.33532734  0.16740438  0.58084323  1
  O  O23  1  0.52016912  0.47983088  0.75000000  1
  O  O24  1  0.67376490  0.83660323  0.41931519  1
  O  O25  1  0.83392433  0.16427377  0.91970597  1
  O  O26  1  0.32623510  0.16339677  0.91931519  1
  O  O27  1  0.48126162  0.96836033  0.24617502  1
  O  O28  1  0.03163967  0.51873838  0.25382498  1
  O  O29  1  0.16740438  0.33532734  0.41915677  1
