# generated using pymatgen
data_Rb2CrCl4
_symmetry_space_group_name_H-M   'P 1'
_cell_length_a   5.07984704
_cell_length_b   5.07984665
_cell_length_c   8.85004502
_cell_angle_alpha   106.16893712
_cell_angle_beta   106.16893137
_cell_angle_gamma   89.98294071
_symmetry_Int_Tables_number   1
_chemical_formula_structural   Rb2CrCl4
_chemical_formula_sum   'Rb2 Cr1 Cl4'
_cell_volume   209.92463002
_cell_formula_units_Z   1
loop_
 _symmetry_equiv_pos_site_id
 _symmetry_equiv_pos_as_xyz
  1  'x, y, z'
loop_
 _atom_site_type_symbol
 _atom_site_label
 _atom_site_symmetry_multiplicity
 _atom_site_fract_x
 _atom_site_fract_y
 _atom_site_fract_z
 _atom_site_occupancy
  Rb  Rb0  1  0.63464301  0.63464301  0.27891826  1
  Rb  Rb1  1  0.36535699  0.36535699  0.72108174  1
  Cr  Cr2  1  0.00000000  -0.00000000  0.00000000  1
  Cl  Cl3  1  0.50000000  -0.00000000  0.00000000  1
  Cl  Cl4  1  0.85520295  0.85520295  0.69909650  1
  Cl  Cl5  1  0.00000000  0.50000000  0.00000000  1
  Cl  Cl6  1  0.14479705  0.14479705  0.30090350  1
