# generated using pymatgen
data_Sc2S3
_symmetry_space_group_name_H-M   'P 1'
_cell_length_a   6.37877368
_cell_length_b   19.17277325
_cell_length_c   12.22120583
_cell_angle_alpha   16.81864501
_cell_angle_beta   29.63046435
_cell_angle_gamma   33.70103100
_symmetry_Int_Tables_number   1
_chemical_formula_structural   Sc2S3
_chemical_formula_sum   'Sc4 S6'
_cell_volume   213.81175766
_cell_formula_units_Z   2
loop_
 _symmetry_equiv_pos_site_id
 _symmetry_equiv_pos_as_xyz
  1  'x, y, z'
loop_
 _atom_site_type_symbol
 _atom_site_label
 _atom_site_symmetry_multiplicity
 _atom_site_fract_x
 _atom_site_fract_y
 _atom_site_fract_z
 _atom_site_occupancy
  Sc  Sc0  1  0.00091844  0.00260324  0.99744558  1
  Sc  Sc1  1  0.00289459  0.33465665  0.99772498  1
  Sc  Sc2  1  0.99874540  0.66769644  0.99872815  1
  Sc  Sc3  1  0.50055054  0.66921281  0.49682505  1
  S  S4  1  0.26415044  0.99377831  0.25742097  1
  S  S5  1  0.26465598  0.34398617  0.23210421  1
  S  S6  1  0.23249573  0.67038980  0.25715924  1
  S  S7  1  0.74172089  0.34432709  0.73429837  1
  S  S8  1  0.76960910  0.66670420  0.73838127  1
  S  S9  1  0.74231589  0.99071229  0.76368518  1
