# generated using pymatgen
data_TmSi2Ni
_symmetry_space_group_name_H-M   'P 1'
_cell_length_a   3.89899475
_cell_length_b   3.94302250
_cell_length_c   8.47621745
_cell_angle_alpha   90.00000000
_cell_angle_beta   103.29684509
_cell_angle_gamma   90.00000000
_symmetry_Int_Tables_number   1
_chemical_formula_structural   TmSi2Ni
_chemical_formula_sum   'Tm2 Si4 Ni2'
_cell_volume   126.81841458
_cell_formula_units_Z   2
loop_
 _symmetry_equiv_pos_site_id
 _symmetry_equiv_pos_as_xyz
  1  'x, y, z'
loop_
 _atom_site_type_symbol
 _atom_site_label
 _atom_site_symmetry_multiplicity
 _atom_site_fract_x
 _atom_site_fract_y
 _atom_site_fract_z
 _atom_site_occupancy
  Tm  Tm0  1  0.60588761  0.25000000  0.21177522  1
  Tm  Tm1  1  0.39411239  0.75000000  0.78822478  1
  Si  Si2  1  0.96092164  0.25000000  0.92184329  1
  Si  Si3  1  0.03907836  0.75000000  0.07815671  1
  Si  Si4  1  0.24908740  0.25000000  0.49817479  1
  Si  Si5  1  0.75091260  0.75000000  0.50182521  1
  Ni  Ni6  1  0.82460190  0.25000000  0.64920381  1
  Ni  Ni7  1  0.17539810  0.75000000  0.35079619  1
