# generated using pymatgen
data_Cs2Mn3S4
_symmetry_space_group_name_H-M   'P 1'
_cell_length_a   6.12711582
_cell_length_b   9.69763779
_cell_length_c   9.69763778
_cell_angle_alpha   74.03957646
_cell_angle_beta   71.58438385
_cell_angle_gamma   71.58438386
_symmetry_Int_Tables_number   1
_chemical_formula_structural   Cs2Mn3S4
_chemical_formula_sum   'Cs4 Mn6 S8'
_cell_volume   508.79822104
_cell_formula_units_Z   2
loop_
 _symmetry_equiv_pos_site_id
 _symmetry_equiv_pos_as_xyz
  1  'x, y, z'
loop_
 _atom_site_type_symbol
 _atom_site_label
 _atom_site_symmetry_multiplicity
 _atom_site_fract_x
 _atom_site_fract_y
 _atom_site_fract_z
 _atom_site_occupancy
  S  S0  1  0.93980627  0.47893628  0.20866244  1
  S  S1  1  0.12740499  0.02106372  0.29133756  1
  S  S2  1  0.56019373  0.29133756  0.02106372  1
  S  S3  1  0.37259501  0.20866244  0.47893628  1
  S  S4  1  0.43980627  0.70866244  0.97893628  1
  S  S5  1  0.62740499  0.79133756  0.52106372  1
  S  S6  1  0.87259501  0.97893628  0.70866244  1
  S  S7  1  0.06019373  0.52106372  0.79133756  1
  Mn  Mn8  1  0.25000000  0.25000000  0.25000000  1
  Mn  Mn9  1  0.75000000  0.75000000  0.75000000  1
  Mn  Mn10  1  0.75000000  0.47512885  0.02487115  1
  Mn  Mn11  1  0.75000000  0.02487115  0.47512885  1
  Mn  Mn12  1  0.25000000  0.97512885  0.52487115  1
  Mn  Mn13  1  0.25000000  0.52487115  0.97512885  1
  Cs  Cs14  1  0.23717087  0.12020140  0.87979860  1
  Cs  Cs15  1  0.73717087  0.37979860  0.62020140  1
  Cs  Cs16  1  0.26282913  0.62020140  0.37979860  1
  Cs  Cs17  1  0.76282913  0.87979860  0.12020140  1
