# generated using pymatgen
data_Cu2P2O7
_symmetry_space_group_name_H-M   'P 1'
_cell_length_a   4.66546711
_cell_length_b   5.43781986
_cell_length_c   5.43781986
_cell_angle_alpha   98.25038576
_cell_angle_beta   103.61165512
_cell_angle_gamma   103.61165523
_symmetry_Int_Tables_number   1
_chemical_formula_structural   Cu2P2O7
_chemical_formula_sum   'Cu2 P2 O7'
_cell_volume   127.39542326
_cell_formula_units_Z   1
loop_
 _symmetry_equiv_pos_site_id
 _symmetry_equiv_pos_as_xyz
  1  'x, y, z'
loop_
 _atom_site_type_symbol
 _atom_site_label
 _atom_site_symmetry_multiplicity
 _atom_site_fract_x
 _atom_site_fract_y
 _atom_site_fract_z
 _atom_site_occupancy
  O  O0  1  0.26897078  0.95664470  0.64757013  1
  O  O1  1  0.73102922  0.35242987  0.04335530  1
  O  O2  1  0.73102922  0.04335530  0.35242987  1
  O  O3  1  0.26897078  0.64757013  0.95664470  1
  O  O4  1  0.00000000  0.00000000  0.00000000  1
  O  O5  1  0.77888830  0.62282153  0.62282153  1
  O  O6  1  0.22111170  0.37717847  0.37717847  1
  P  P7  1  0.90960405  0.19512896  0.19512896  1
  P  P8  1  0.09039595  0.80487104  0.80487104  1
  Cu  Cu9  1  0.50000000  0.31206557  0.68793443  1
  Cu  Cu10  1  0.50000000  0.68793443  0.31206557  1
