# generated using pymatgen
data_Ba3Nb5O15
_symmetry_space_group_name_H-M   'P 1'
_cell_length_a   4.04279970
_cell_length_b   12.82900987
_cell_length_c   12.82900987
_cell_angle_alpha   90.00000000
_cell_angle_beta   90.00000000
_cell_angle_gamma   90.00000000
_symmetry_Int_Tables_number   1
_chemical_formula_structural   Ba3Nb5O15
_chemical_formula_sum   'Ba6 Nb10 O30'
_cell_volume   665.37810116
_cell_formula_units_Z   2
loop_
 _symmetry_equiv_pos_site_id
 _symmetry_equiv_pos_as_xyz
  1  'x, y, z'
loop_
 _atom_site_type_symbol
 _atom_site_label
 _atom_site_symmetry_multiplicity
 _atom_site_fract_x
 _atom_site_fract_y
 _atom_site_fract_z
 _atom_site_occupancy
  O  O0  1  0.50000000  0.43159059  0.36033311  1
  O  O1  1  0.50000000  0.56840941  0.63966689  1
  O  O2  1  0.50000000  0.36033311  0.56840941  1
  O  O3  1  0.50000000  0.63966689  0.43159059  1
  O  O4  1  0.50000000  0.86033311  0.93159059  1
  O  O5  1  0.50000000  0.06840941  0.86033311  1
  O  O6  1  0.50000000  0.93159059  0.13966689  1
  O  O7  1  0.50000000  0.13966689  0.06840941  1
  O  O8  1  0.50000000  0.49299054  0.15674876  1
  O  O9  1  0.50000000  0.50700946  0.84325124  1
  O  O10  1  0.50000000  0.15674876  0.50700946  1
  O  O11  1  0.50000000  0.84325124  0.49299054  1
  O  O12  1  0.50000000  0.65674876  0.99299054  1
  O  O13  1  0.50000000  0.00700946  0.65674876  1
  O  O14  1  0.50000000  0.99299054  0.34325124  1
  O  O15  1  0.50000000  0.34325124  0.00700946  1
  O  O16  1  0.00000000  0.00000000  0.50000000  1
  O  O17  1  0.00000000  0.50000000  0.00000000  1
  O  O18  1  0.50000000  0.28005670  0.78005670  1
  O  O19  1  0.50000000  0.21994330  0.28005670  1
  O  O20  1  0.50000000  0.78005670  0.71994330  1
  O  O21  1  0.50000000  0.71994330  0.21994330  1
  O  O22  1  0.00000000  0.07814467  0.20826031  1
  O  O23  1  0.00000000  0.79173969  0.07814467  1
  O  O24  1  0.00000000  0.20826031  0.92185533  1
  O  O25  1  0.00000000  0.92185533  0.79173969  1
  O  O26  1  0.00000000  0.57814467  0.29173969  1
  O  O27  1  0.00000000  0.42185533  0.70826031  1
  O  O28  1  0.00000000  0.70826031  0.57814467  1
  O  O29  1  0.00000000  0.29173969  0.42185533  1
  Nb  Nb30  1  0.50000000  0.28744623  0.42217995  1
  Nb  Nb31  1  0.50000000  0.71255377  0.57782005  1
  Nb  Nb32  1  0.50000000  0.42217995  0.71255377  1
  Nb  Nb33  1  0.50000000  0.57782005  0.28744623  1
  Nb  Nb34  1  0.50000000  0.92217995  0.78744623  1
  Nb  Nb35  1  0.50000000  0.21255377  0.92217995  1
  Nb  Nb36  1  0.50000000  0.78744623  0.07782005  1
  Nb  Nb37  1  0.50000000  0.07782005  0.21255377  1
  Nb  Nb38  1  0.50000000  0.50000000  0.00000000  1
  Nb  Nb39  1  0.50000000  0.00000000  0.50000000  1
  Ba  Ba40  1  0.00000000  0.83241629  0.33241629  1
  Ba  Ba41  1  0.00000000  0.66758371  0.83241629  1
  Ba  Ba42  1  0.00000000  0.33241629  0.16758371  1
  Ba  Ba43  1  0.00000000  0.16758371  0.66758371  1
  Ba  Ba44  1  0.00000000  0.50000000  0.50000000  1
  Ba  Ba45  1  0.00000000  0.00000000  0.00000000  1
