# generated using pymatgen
data_Ca4VN4
_symmetry_space_group_name_H-M   'P 1'
_cell_length_a   5.94576983
_cell_length_b   6.05613691
_cell_length_c   8.82230135
_cell_angle_alpha   72.88848733
_cell_angle_beta   80.00183391
_cell_angle_gamma   68.15439542
_symmetry_Int_Tables_number   1
_chemical_formula_structural   Ca4VN4
_chemical_formula_sum   'Ca8 V2 N8'
_cell_volume   281.07465789
_cell_formula_units_Z   2
loop_
 _symmetry_equiv_pos_site_id
 _symmetry_equiv_pos_as_xyz
  1  'x, y, z'
loop_
 _atom_site_type_symbol
 _atom_site_label
 _atom_site_symmetry_multiplicity
 _atom_site_fract_x
 _atom_site_fract_y
 _atom_site_fract_z
 _atom_site_occupancy
  Ca  Ca0  1  0.78727132  0.57460355  0.17466097  1
  Ca  Ca1  1  0.21272868  0.42539645  0.82533903  1
  Ca  Ca2  1  0.73885156  0.21904105  0.97229172  1
  Ca  Ca3  1  0.26114844  0.78095895  0.02770828  1
  Ca  Ca4  1  0.73443138  0.47756039  0.57610055  1
  Ca  Ca5  1  0.26556862  0.52243961  0.42389945  1
  Ca  Ca6  1  0.22751287  0.96236197  0.61558125  1
  Ca  Ca7  1  0.77248713  0.03763803  0.38441875  1
  V  V8  1  0.71856450  0.84831812  0.75435524  1
  V  V9  1  0.28143550  0.15168188  0.24564476  1
  N  N10  1  0.95955143  0.71960248  0.61176382  1
  N  N11  1  0.04044857  0.28039752  0.38823618  1
  N  N12  1  0.88207960  0.81948421  0.92211401  1
  N  N13  1  0.11792040  0.18051579  0.07788599  1
  N  N14  1  0.52403528  0.64728999  0.80196247  1
  N  N15  1  0.47596472  0.35271001  0.19803753  1
  N  N16  1  0.46784513  0.83667688  0.35175283  1
  N  N17  1  0.53215487  0.16332312  0.64824717  1
