# generated using pymatgen
data_Th(SiOs)2
_symmetry_space_group_name_H-M   'P 1'
_cell_length_a   4.23360640
_cell_length_b   4.23360640
_cell_length_c   5.74590418
_cell_angle_alpha   111.61710481
_cell_angle_beta   111.61710470
_cell_angle_gamma   90.00000003
_symmetry_Int_Tables_number   1
_chemical_formula_structural   Th(SiOs)2
_chemical_formula_sum   'Th1 Si2 Os2'
_cell_volume   87.90466683
_cell_formula_units_Z   1
loop_
 _symmetry_equiv_pos_site_id
 _symmetry_equiv_pos_as_xyz
  1  'x, y, z'
loop_
 _atom_site_type_symbol
 _atom_site_label
 _atom_site_symmetry_multiplicity
 _atom_site_fract_x
 _atom_site_fract_y
 _atom_site_fract_z
 _atom_site_occupancy
  Si  Si0  1  0.63042333  0.63042333  0.26084665  1
  Si  Si1  1  0.36957667  0.36957667  0.73915335  1
  Os  Os2  1  0.75000000  0.25000000  0.50000000  1
  Os  Os3  1  0.25000000  0.75000000  0.50000000  1
  Th  Th4  1  0.00000000  0.00000000  0.00000000  1
