# generated using pymatgen
data_BaMgF4
_symmetry_space_group_name_H-M   'P 1'
_cell_length_a   4.16516518
_cell_length_b   5.93465462
_cell_length_c   7.71941784
_cell_angle_alpha   90.00000000
_cell_angle_beta   105.65146917
_cell_angle_gamma   90.00000000
_symmetry_Int_Tables_number   1
_chemical_formula_structural   BaMgF4
_chemical_formula_sum   'Ba2 Mg2 F8'
_cell_volume   183.73957520
_cell_formula_units_Z   2
loop_
 _symmetry_equiv_pos_site_id
 _symmetry_equiv_pos_as_xyz
  1  'x, y, z'
loop_
 _atom_site_type_symbol
 _atom_site_label
 _atom_site_symmetry_multiplicity
 _atom_site_fract_x
 _atom_site_fract_y
 _atom_site_fract_z
 _atom_site_occupancy
  F  F0  1  0.57837017  0.79612158  0.15674033  1
  F  F1  1  0.42162983  0.29612158  0.84325967  1
  F  F2  1  0.19574349  0.62052330  0.39148699  1
  F  F3  1  0.80425651  0.12052330  0.60851301  1
  F  F4  1  0.97273225  0.99379702  0.94546450  1
  F  F5  1  0.02726775  0.49379702  0.05453550  1
  F  F6  1  0.83774657  0.57779779  0.67549313  1
  F  F7  1  0.16225343  0.07779779  0.32450687  1
  Mg  Mg8  1  0.08384645  0.81005093  0.16769289  1
  Mg  Mg9  1  0.91615355  0.31005093  0.83230711  1
  Ba  Ba10  1  0.34964546  0.85222938  0.69929091  1
  Ba  Ba11  1  0.65035454  0.35222938  0.30070909  1
