# generated using pymatgen
data_LiFeF5
_symmetry_space_group_name_H-M   'P 1'
_cell_length_a   5.21425342
_cell_length_b   5.21425342
_cell_length_c   7.71948966
_cell_angle_alpha   67.75763179
_cell_angle_beta   112.24236821
_cell_angle_gamma   108.79065207
_symmetry_Int_Tables_number   1
_chemical_formula_structural   LiFeF5
_chemical_formula_sum   'Li2 Fe2 F10'
_cell_volume   175.84793557
_cell_formula_units_Z   2
loop_
 _symmetry_equiv_pos_site_id
 _symmetry_equiv_pos_as_xyz
  1  'x, y, z'
loop_
 _atom_site_type_symbol
 _atom_site_label
 _atom_site_symmetry_multiplicity
 _atom_site_fract_x
 _atom_site_fract_y
 _atom_site_fract_z
 _atom_site_occupancy
  Li  Li0  1  0.49790400  0.49790400  0.75000000  1
  Li  Li1  1  0.50209600  0.50209600  0.25000000  1
  Fe  Fe2  1  0.00000000  0.00000000  0.50000000  1
  Fe  Fe3  1  0.00000000  0.00000000  0.00000000  1
  F  F4  1  0.21275501  0.73545920  0.62664135  1
  F  F5  1  0.73010054  0.69080801  0.95691821  1
  F  F6  1  0.26454080  0.78724499  0.12664135  1
  F  F7  1  0.09579373  0.09579373  0.75000000  1
  F  F8  1  0.69080801  0.73010054  0.54308179  1
  F  F9  1  0.30919199  0.26989946  0.45691821  1
  F  F10  1  0.90420627  0.90420627  0.25000000  1
  F  F11  1  0.73545920  0.21275501  0.87335865  1
  F  F12  1  0.26989946  0.30919199  0.04308179  1
  F  F13  1  0.78724499  0.26454080  0.37335865  1
