# generated using pymatgen
data_ErTaO4
_symmetry_space_group_name_H-M   'P 1'
_cell_length_a   5.08240145
_cell_length_b   5.32201690
_cell_length_c   6.51893145
_cell_angle_alpha   111.79687344
_cell_angle_beta   110.56072991
_cell_angle_gamma   95.42874378
_symmetry_Int_Tables_number   1
_chemical_formula_structural   ErTaO4
_chemical_formula_sum   'Er2 Ta2 O8'
_cell_volume   148.06908778
_cell_formula_units_Z   2
loop_
 _symmetry_equiv_pos_site_id
 _symmetry_equiv_pos_as_xyz
  1  'x, y, z'
loop_
 _atom_site_type_symbol
 _atom_site_label
 _atom_site_symmetry_multiplicity
 _atom_site_fract_x
 _atom_site_fract_y
 _atom_site_fract_z
 _atom_site_occupancy
  O  O0  1  0.00113777  0.78574127  0.06317924  1
  O  O1  1  0.56204147  0.27743797  0.06317924  1
  O  O2  1  0.99886223  0.21425873  0.93682076  1
  O  O3  1  0.43795853  0.72256203  0.93682076  1
  O  O4  1  0.20987442  0.36905493  0.42029314  1
  O  O5  1  0.71041873  0.05123821  0.42029314  1
  O  O6  1  0.79012558  0.63094507  0.57970686  1
  O  O7  1  0.28958127  0.94876179  0.57970686  1
  Er  Er8  1  0.38142059  0.63142059  0.26284118  1
  Er  Er9  1  0.61857941  0.36857941  0.73715882  1
  Ta  Ta10  1  0.85219271  0.10219271  0.20438543  1
  Ta  Ta11  1  0.14780729  0.89780729  0.79561457  1
