# generated using pymatgen
data_Zr3As2
_symmetry_space_group_name_H-M   'P 1'
_cell_length_a   10.63463444
_cell_length_b   3.78946955
_cell_length_c   10.18481169
_cell_angle_alpha   90.00000000
_cell_angle_beta   90.00000000
_cell_angle_gamma   90.00000000
_symmetry_Int_Tables_number   1
_chemical_formula_structural   Zr3As2
_chemical_formula_sum   'Zr12 As8'
_cell_volume   410.44407536
_cell_formula_units_Z   4
loop_
 _symmetry_equiv_pos_site_id
 _symmetry_equiv_pos_as_xyz
  1  'x, y, z'
loop_
 _atom_site_type_symbol
 _atom_site_label
 _atom_site_symmetry_multiplicity
 _atom_site_fract_x
 _atom_site_fract_y
 _atom_site_fract_z
 _atom_site_occupancy
  Zr  Zr0  1  0.21440200  0.24999800  0.20536938  1
  Zr  Zr1  1  0.28559800  0.74999900  0.70536838  1
  Zr  Zr2  1  0.71440200  0.24999800  0.29463162  1
  Zr  Zr3  1  0.78559800  0.74999900  0.79463162  1
  Zr  Zr4  1  0.12388495  0.74999900  0.43265910  1
  Zr  Zr5  1  0.37611505  0.24999800  0.93266010  1
  Zr  Zr6  1  0.62388495  0.74999900  0.06733990  1
  Zr  Zr7  1  0.87611505  0.24999800  0.56733990  1
  Zr  Zr8  1  0.04501606  0.24999800  0.87552321  1
  Zr  Zr9  1  0.45498494  0.74999900  0.37552321  1
  Zr  Zr10  1  0.54501506  0.24999800  0.62447679  1
  Zr  Zr11  1  0.95498494  0.74999900  0.12447679  1
  As  As12  1  0.30516775  0.24999800  0.50093722  1
  As  As13  1  0.19483225  0.74999900  0.00093722  1
  As  As14  1  0.69483125  0.74999900  0.49906378  1
  As  As15  1  0.80516775  0.24999800  0.99906278  1
  As  As16  1  0.97127541  0.24999800  0.31976141  1
  As  As17  1  0.52872459  0.74999900  0.81976141  1
  As  As18  1  0.47127541  0.24999800  0.18023759  1
  As  As19  1  0.02872459  0.74999900  0.68023759  1
