# generated using pymatgen
data_NaMnO2
_symmetry_space_group_name_H-M   'P 1'
_cell_length_a   2.92181425
_cell_length_b   4.85469826
_cell_length_c   6.40939065
_cell_angle_alpha   90.00000000
_cell_angle_beta   90.00000000
_cell_angle_gamma   90.00000000
_symmetry_Int_Tables_number   1
_chemical_formula_structural   NaMnO2
_chemical_formula_sum   'Na2 Mn2 O4'
_cell_volume   90.91417188
_cell_formula_units_Z   2
loop_
 _symmetry_equiv_pos_site_id
 _symmetry_equiv_pos_as_xyz
  1  'x, y, z'
loop_
 _atom_site_type_symbol
 _atom_site_label
 _atom_site_symmetry_multiplicity
 _atom_site_fract_x
 _atom_site_fract_y
 _atom_site_fract_z
 _atom_site_occupancy
  O  O0  1  0.74999914  0.24999905  0.41802997  1
  O  O1  1  0.25000087  0.74999919  0.58197020  1
  O  O2  1  0.74999914  0.24999905  0.82912252  1
  O  O3  1  0.25000087  0.74999919  0.17087765  1
  Na  Na4  1  0.25000087  0.24999905  0.12376156  1
  Na  Na5  1  0.74999914  0.74999919  0.87623703  1
  Mn  Mn6  1  0.25000087  0.24999905  0.62519163  1
  Mn  Mn7  1  0.74999914  0.74999919  0.37480854  1
