# generated using pymatgen
data_LiHf2Ir
_symmetry_space_group_name_H-M   'P 1'
_cell_length_a   4.62771933
_cell_length_b   4.62772631
_cell_length_c   4.62772269
_cell_angle_alpha   60.00005611
_cell_angle_beta   60.00002916
_cell_angle_gamma   60.00002128
_symmetry_Int_Tables_number   1
_chemical_formula_structural   LiHf2Ir
_chemical_formula_sum   'Li1 Hf2 Ir1'
_cell_volume   70.07891284
_cell_formula_units_Z   1
loop_
 _symmetry_equiv_pos_site_id
 _symmetry_equiv_pos_as_xyz
  1  'x, y, z'
loop_
 _atom_site_type_symbol
 _atom_site_label
 _atom_site_symmetry_multiplicity
 _atom_site_fract_x
 _atom_site_fract_y
 _atom_site_fract_z
 _atom_site_occupancy
  Li  Li0  1  0.75000017  0.75000006  0.75000000  1
  Hf  Hf1  1  0.00000050  0.00000025  0.99999954  1
  Hf  Hf2  1  0.49999921  0.49999968  0.50000032  1
  Ir  Ir3  1  0.24999912  0.24999901  0.24999914  1
