# generated using pymatgen
data_LiIn(IO3)4
_symmetry_space_group_name_H-M   'P 1'
_cell_length_a   4.97804879
_cell_length_b   6.59234210
_cell_length_c   8.69573888
_cell_angle_alpha   84.86997632
_cell_angle_beta   89.19318685
_cell_angle_gamma   89.32750094
_symmetry_Int_Tables_number   1
_chemical_formula_structural   LiIn(IO3)4
_chemical_formula_sum   'Li1 In1 I4 O12'
_cell_volume   284.18107379
_cell_formula_units_Z   1
loop_
 _symmetry_equiv_pos_site_id
 _symmetry_equiv_pos_as_xyz
  1  'x, y, z'
loop_
 _atom_site_type_symbol
 _atom_site_label
 _atom_site_symmetry_multiplicity
 _atom_site_fract_x
 _atom_site_fract_y
 _atom_site_fract_z
 _atom_site_occupancy
  Li  Li0  1  0.50000100  0.99999900  0.50000100  1
  In  In1  1  0.50000000  0.50000000  0.49999900  1
  I  I2  1  0.52014814  0.80452182  0.15615946  1
  I  I3  1  0.01048017  0.28252915  0.23897188  1
  I  I4  1  0.98951983  0.71747185  0.76102812  1
  I  I5  1  0.47985186  0.19547818  0.84384054  1
  O  O6  1  0.74438191  0.62363720  0.07084815  1
  O  O7  1  0.71025762  0.04024039  0.10168842  1
  O  O8  1  0.22540237  0.48776885  0.30650047  1
  O  O9  1  0.21762226  0.06541098  0.30568304  1
  O  O10  1  0.64256451  0.76722041  0.36190749  1
  O  O11  1  0.75777234  0.26890441  0.39802419  1
  O  O12  1  0.24222766  0.73109659  0.60197581  1
  O  O13  1  0.35743549  0.23278059  0.63809251  1
  O  O14  1  0.78237774  0.93458802  0.69431696  1
  O  O15  1  0.77459763  0.51223215  0.69349953  1
  O  O16  1  0.28974238  0.95975961  0.89831158  1
  O  O17  1  0.25561809  0.37636180  0.92915185  1
