# generated using pymatgen
data_YbTaO4
_symmetry_space_group_name_H-M   'P 1'
_cell_length_a   5.10378957
_cell_length_b   5.47014465
_cell_length_c   6.53744903
_cell_angle_alpha   112.88222035
_cell_angle_beta   111.01435236
_cell_angle_gamma   94.34397072
_symmetry_Int_Tables_number   1
_chemical_formula_structural   YbTaO4
_chemical_formula_sum   'Yb2 Ta2 O8'
_cell_volume   151.97632884
_cell_formula_units_Z   2
loop_
 _symmetry_equiv_pos_site_id
 _symmetry_equiv_pos_as_xyz
  1  'x, y, z'
loop_
 _atom_site_type_symbol
 _atom_site_label
 _atom_site_symmetry_multiplicity
 _atom_site_fract_x
 _atom_site_fract_y
 _atom_site_fract_z
 _atom_site_occupancy
  Yb  Yb0  1  0.61990609  0.36989109  0.23982100  1
  Yb  Yb1  1  0.38009391  0.63010891  0.76017900  1
  Ta  Ta2  1  0.14733203  0.89728728  0.29455909  1
  Ta  Ta3  1  0.85266797  0.10271272  0.70544091  1
  O  O4  1  0.99737491  0.79418304  0.55653649  1
  O  O5  1  0.79838549  0.62411750  0.07373884  1
  O  O6  1  0.00262509  0.20581696  0.44346351  1
  O  O7  1  0.27540510  0.94959477  0.07371689  1
  O  O8  1  0.72459490  0.05040523  0.92628311  1
  O  O9  1  0.44086627  0.73764065  0.44347312  1
  O  O10  1  0.20161451  0.37588250  0.92626116  1
  O  O11  1  0.55913373  0.26235935  0.55652688  1
