# generated using pymatgen
data_TaTiO4
_symmetry_space_group_name_H-M   'P 1'
_cell_length_a   5.66133486
_cell_length_b   5.66133486
_cell_length_c   5.66133486
_cell_angle_alpha   73.20680164
_cell_angle_beta   106.79319836
_cell_angle_gamma   65.02873361
_symmetry_Int_Tables_number   1
_chemical_formula_structural   TaTiO4
_chemical_formula_sum   'Ta2 Ti2 O8'
_cell_volume   138.70545233
_cell_formula_units_Z   2
loop_
 _symmetry_equiv_pos_site_id
 _symmetry_equiv_pos_as_xyz
  1  'x, y, z'
loop_
 _atom_site_type_symbol
 _atom_site_label
 _atom_site_symmetry_multiplicity
 _atom_site_fract_x
 _atom_site_fract_y
 _atom_site_fract_z
 _atom_site_occupancy
  Ta  Ta0  1  0.75619738  0.74380262  0.50000000  1
  Ta  Ta1  1  0.50619738  0.49380262  0.00000000  1
  Ti  Ti2  1  0.24648840  0.25351160  0.50000000  1
  Ti  Ti3  1  0.99648840  0.00351160  0.00000000  1
  O  O4  1  0.54561426  0.25507250  0.80068676  1
  O  O5  1  0.05501853  0.74627040  0.80128892  1
  O  O6  1  0.99492750  0.30575825  0.69931324  1
  O  O7  1  0.50372960  0.79755932  0.69871108  1
  O  O8  1  0.50372960  0.19498147  0.30128892  1
  O  O9  1  0.99492750  0.70438574  0.30068676  1
  O  O10  1  0.45244068  0.74627040  0.19871108  1
  O  O11  1  0.94424175  0.25507250  0.19931324  1
