# generated using pymatgen
data_Na6Ti2O7
_symmetry_space_group_name_H-M   'P 1'
_cell_length_a   10.11369244
_cell_length_b   5.40604879
_cell_length_c   8.92173347
_cell_angle_alpha   90.00000000
_cell_angle_beta   114.33683125
_cell_angle_gamma   90.00000000
_symmetry_Int_Tables_number   1
_chemical_formula_structural   Na6Ti2O7
_chemical_formula_sum   'Na12 Ti4 O14'
_cell_volume   444.45047338
_cell_formula_units_Z   2
loop_
 _symmetry_equiv_pos_site_id
 _symmetry_equiv_pos_as_xyz
  1  'x, y, z'
loop_
 _atom_site_type_symbol
 _atom_site_label
 _atom_site_symmetry_multiplicity
 _atom_site_fract_x
 _atom_site_fract_y
 _atom_site_fract_z
 _atom_site_occupancy
  Na  Na0  1  0.11990371  0.77513570  0.78589576  1
  Na  Na1  1  0.13460183  0.22111667  0.56303013  1
  Na  Na2  1  0.15448433  0.19664504  0.08788252  1
  Na  Na3  1  0.36539817  0.22111667  0.93696987  1
  Na  Na4  1  0.38009629  0.77513570  0.71410424  1
  Na  Na5  1  0.34551567  0.19664504  0.41211748  1
  Na  Na6  1  0.65448433  0.80335496  0.58788252  1
  Na  Na7  1  0.61990371  0.22486430  0.28589576  1
  Na  Na8  1  0.63460183  0.77888333  0.06303013  1
  Na  Na9  1  0.84551567  0.80335496  0.91211748  1
  Na  Na10  1  0.86539817  0.77888333  0.43696987  1
  Na  Na11  1  0.88009629  0.22486430  0.21410424  1
  Ti  Ti12  1  0.10445688  0.69440429  0.31626075  1
  Ti  Ti13  1  0.39554312  0.69440429  0.18373925  1
  Ti  Ti14  1  0.60445688  0.30559571  0.81626075  1
  Ti  Ti15  1  0.89554312  0.30559571  0.68373925  1
  O  O16  1  0.08264653  0.21039728  0.80979072  1
  O  O17  1  0.14044449  0.77444978  0.52732389  1
  O  O18  1  0.11194897  0.36176820  0.30345865  1
  O  O19  1  0.35955551  0.77444978  0.97267611  1
  O  O20  1  0.25000000  0.82947941  0.25000000  1
  O  O21  1  0.41735347  0.21039728  0.69020928  1
  O  O22  1  0.38805103  0.36176820  0.19654135  1
  O  O23  1  0.61194897  0.63823180  0.80345865  1
  O  O24  1  0.58264653  0.78960272  0.30979072  1
  O  O25  1  0.75000000  0.17052059  0.75000000  1
  O  O26  1  0.64044449  0.22555022  0.02732389  1
  O  O27  1  0.88805103  0.63823180  0.69654135  1
  O  O28  1  0.85955551  0.22555022  0.47267611  1
  O  O29  1  0.91735347  0.78960272  0.19020928  1
