# generated using pymatgen
data_NaCd3
_symmetry_space_group_name_H-M   'P 1'
_cell_length_a   6.47798956
_cell_length_b   6.47798991
_cell_length_c   5.26305538
_cell_angle_alpha   90.00000000
_cell_angle_beta   90.00000000
_cell_angle_gamma   119.99563002
_symmetry_Int_Tables_number   1
_chemical_formula_structural   NaCd3
_chemical_formula_sum   'Na2 Cd6'
_cell_volume   191.27940201
_cell_formula_units_Z   2
loop_
 _symmetry_equiv_pos_site_id
 _symmetry_equiv_pos_as_xyz
  1  'x, y, z'
loop_
 _atom_site_type_symbol
 _atom_site_label
 _atom_site_symmetry_multiplicity
 _atom_site_fract_x
 _atom_site_fract_y
 _atom_site_fract_z
 _atom_site_occupancy
  Na  Na0  1  0.33331414  0.66668286  0.75000000  1
  Na  Na1  1  0.66668486  0.33331514  0.25000100  1
  Cd  Cd2  1  0.16556820  0.33098180  0.25000100  1
  Cd  Cd3  1  0.66901720  0.83443080  0.25000100  1
  Cd  Cd4  1  0.16547762  0.83452238  0.25000100  1
  Cd  Cd5  1  0.83443280  0.66901920  0.75000000  1
  Cd  Cd6  1  0.33098280  0.16556820  0.75000000  1
  Cd  Cd7  1  0.83452138  0.16547862  0.75000000  1
