# generated using pymatgen
data_WO3
_symmetry_space_group_name_H-M   'P 1'
_cell_length_a   7.51676146
_cell_length_b   7.51676122
_cell_length_c   7.71100393
_cell_angle_alpha   90.00000000
_cell_angle_beta   90.00000000
_cell_angle_gamma   120.00000106
_symmetry_Int_Tables_number   1
_chemical_formula_structural   WO3
_chemical_formula_sum   'W6 O18'
_cell_volume   377.31413434
_cell_formula_units_Z   6
loop_
 _symmetry_equiv_pos_site_id
 _symmetry_equiv_pos_as_xyz
  1  'x, y, z'
loop_
 _atom_site_type_symbol
 _atom_site_label
 _atom_site_symmetry_multiplicity
 _atom_site_fract_x
 _atom_site_fract_y
 _atom_site_fract_z
 _atom_site_occupancy
  O  O0  1  0.00000000  0.50066162  0.99486515  1
  O  O1  1  1.00000000  0.49933838  0.49486515  1
  O  O2  1  0.21600580  0.78961389  0.74417014  1
  O  O3  1  0.21038611  0.78399420  0.24417014  1
  O  O4  1  0.21600580  0.42639191  0.24417014  1
  O  O5  1  0.21038611  0.42639191  0.74417014  1
  O  O6  1  0.57360809  0.78399420  0.74417014  1
  O  O7  1  0.57360808  0.78961389  0.24417014  1
  O  O8  1  0.49933838  0.49933838  0.99486515  1
  O  O9  1  0.50066162  0.50066162  0.49486515  1
  O  O10  1  0.42639192  0.21038611  0.74417014  1
  O  O11  1  0.42639191  0.21600580  0.24417014  1
  O  O12  1  0.49933838  0.00000000  0.49486515  1
  O  O13  1  0.78961389  0.57360809  0.24417014  1
  O  O14  1  0.78399420  0.57360809  0.74417014  1
  O  O15  1  0.50066162  0.00000000  0.99486515  1
  O  O16  1  0.78961389  0.21600580  0.74417014  1
  O  O17  1  0.78399420  0.21038611  0.24417014  1
  W  W18  1  0.00000000  0.51656996  0.74879456  1
  W  W19  1  1.00000000  0.48343004  0.24879456  1
  W  W20  1  0.48343004  0.00000000  0.24879456  1
  W  W21  1  0.48343004  0.48343004  0.74879456  1
  W  W22  1  0.51656996  0.51656996  0.24879456  1
  W  W23  1  0.51656996  0.00000000  0.74879456  1
