# generated using pymatgen
data_Mn(HO)2
_symmetry_space_group_name_H-M   'P 1'
_cell_length_a   3.37276221
_cell_length_b   3.37276220
_cell_length_c   4.73042979
_cell_angle_alpha   90.00000000
_cell_angle_beta   90.00000000
_cell_angle_gamma   119.99999997
_symmetry_Int_Tables_number   1
_chemical_formula_structural   Mn(HO)2
_chemical_formula_sum   'Mn1 H2 O2'
_cell_volume   46.60179857
_cell_formula_units_Z   1
loop_
 _symmetry_equiv_pos_site_id
 _symmetry_equiv_pos_as_xyz
  1  'x, y, z'
loop_
 _atom_site_type_symbol
 _atom_site_label
 _atom_site_symmetry_multiplicity
 _atom_site_fract_x
 _atom_site_fract_y
 _atom_site_fract_z
 _atom_site_occupancy
  H  H0  1  0.66666573  0.33333321  0.56417220  1
  H  H1  1  0.33333321  0.66666642  0.43582761  1
  O  O2  1  0.33333321  0.66666642  0.22952662  1
  O  O3  1  0.66666573  0.33333321  0.77047319  1
  Mn  Mn4  1  0.00000000  0.00000000  0.00000000  1
