# generated using pymatgen
data_Ag2S
_symmetry_space_group_name_H-M   'P 1'
_cell_length_a   4.26464048
_cell_length_b   4.26464052
_cell_length_c   8.96929904
_cell_angle_alpha   107.51666845
_cell_angle_beta   107.23930069
_cell_angle_gamma   111.82895163
_symmetry_Int_Tables_number   1
_chemical_formula_structural   Ag2S
_chemical_formula_sum   'Ag4 S2'
_cell_volume   128.13230134
_cell_formula_units_Z   2
loop_
 _symmetry_equiv_pos_site_id
 _symmetry_equiv_pos_as_xyz
  1  'x, y, z'
loop_
 _atom_site_type_symbol
 _atom_site_label
 _atom_site_symmetry_multiplicity
 _atom_site_fract_x
 _atom_site_fract_y
 _atom_site_fract_z
 _atom_site_occupancy
  Ag  Ag0  1  0.03155097  0.58601673  0.30878385  1
  Ag  Ag1  1  0.54414028  0.07585621  0.80999824  1
  Ag  Ag2  1  0.39995525  0.72934585  0.06465055  1
  Ag  Ag3  1  0.68918924  0.44085585  0.56502254  1
  S  S4  1  0.07641734  0.05121785  0.56381760  1
  S  S5  1  0.00874692  0.11670750  0.06272721  1
