# generated using pymatgen
data_KP(HO2)2
_symmetry_space_group_name_H-M   'P 1'
_cell_length_a   6.39529749
_cell_length_b   6.39529749
_cell_length_c   6.39529749
_cell_angle_alpha   107.49424609
_cell_angle_beta   107.49424609
_cell_angle_gamma   113.50192985
_symmetry_Int_Tables_number   1
_chemical_formula_structural   KP(HO2)2
_chemical_formula_sum   'K2 P2 H4 O8'
_cell_volume   200.60113278
_cell_formula_units_Z   2
loop_
 _symmetry_equiv_pos_site_id
 _symmetry_equiv_pos_as_xyz
  1  'x, y, z'
loop_
 _atom_site_type_symbol
 _atom_site_label
 _atom_site_symmetry_multiplicity
 _atom_site_fract_x
 _atom_site_fract_y
 _atom_site_fract_z
 _atom_site_occupancy
  K  K0  1  0.25000000  0.75000000  0.50000000  1
  K  K1  1  0.50000000  0.50000000  -0.00000000  1
  P  P2  1  0.75000000  0.25000000  0.50000000  1
  P  P3  1  -0.00000000  -0.00000000  -0.00000000  1
  H  H4  1  0.87500000  0.26552936  0.89052936  1
  H  H5  1  0.37500000  0.98447064  0.10947064  1
  H  H6  1  0.73447064  0.62500000  0.60947064  1
  H  H7  1  0.01552936  0.12500000  0.39052936  1
  O  O8  1  0.71325698  0.26604480  0.73307203  1
  O  O9  1  0.03674302  0.26981505  0.05278782  1
  O  O10  1  0.53297277  0.98018495  0.26692797  1
  O  O11  1  0.21702723  0.98395520  0.94721218  1
  O  O12  1  0.73395520  0.46702723  0.44721218  1
  O  O13  1  0.01604480  0.96325698  0.23307203  1
  O  O14  1  0.01981505  0.28674302  0.55278782  1
  O  O15  1  0.73018495  0.78297277  0.76692797  1
