# generated using pymatgen
data_Ta
_symmetry_space_group_name_H-M   'P 1'
_cell_length_a   5.34679541
_cell_length_b   10.24759469
_cell_length_c   10.24759469
_cell_angle_alpha   90.00000000
_cell_angle_beta   90.00000000
_cell_angle_gamma   90.00000000
_symmetry_Int_Tables_number   1
_chemical_formula_structural   Ta
_chemical_formula_sum   Ta30
_cell_volume   561.48407934
_cell_formula_units_Z   30
loop_
 _symmetry_equiv_pos_site_id
 _symmetry_equiv_pos_as_xyz
  1  'x, y, z'
loop_
 _atom_site_type_symbol
 _atom_site_label
 _atom_site_symmetry_multiplicity
 _atom_site_fract_x
 _atom_site_fract_y
 _atom_site_fract_z
 _atom_site_occupancy
  Ta  Ta0  1  0.24276588  0.50000000  0.00000000  1
  Ta  Ta1  1  0.75723412  0.00000000  0.50000000  1
  Ta  Ta2  1  0.24333382  0.76132784  0.06737901  1
  Ta  Ta3  1  0.75666618  0.06737901  0.23867216  1
  Ta  Ta4  1  0.75666618  0.93262099  0.76132784  1
  Ta  Ta5  1  0.24333382  0.23867216  0.93262099  1
  Ta  Ta6  1  0.75666618  0.26132784  0.43262099  1
  Ta  Ta7  1  0.75666618  0.73867216  0.56737901  1
  Ta  Ta8  1  0.24333382  0.43262099  0.73867216  1
  Ta  Ta9  1  0.24333382  0.56737901  0.26132784  1
  Ta  Ta10  1  0.25710383  0.03477887  0.12888315  1
  Ta  Ta11  1  0.74289617  0.12888315  0.96522113  1
  Ta  Ta12  1  0.74289617  0.87111685  0.03477887  1
  Ta  Ta13  1  0.25710383  0.96522113  0.87111685  1
  Ta  Ta14  1  0.74289617  0.53477887  0.37111685  1
  Ta  Ta15  1  0.74289617  0.46522113  0.62888315  1
  Ta  Ta16  1  0.25710383  0.37111685  0.46522113  1
  Ta  Ta17  1  0.25710383  0.62888315  0.53477887  1
  Ta  Ta18  1  0.74051431  0.60481656  0.10481656  1
  Ta  Ta19  1  0.25948569  0.10481656  0.39518344  1
  Ta  Ta20  1  0.25948569  0.89518344  0.60481656  1
  Ta  Ta21  1  0.74051431  0.39518344  0.89518344  1
  Ta  Ta22  1  0.00236218  0.81898766  0.31898766  1
  Ta  Ta23  1  0.99763782  0.31898766  0.18101234  1
  Ta  Ta24  1  0.99763782  0.68101234  0.81898766  1
  Ta  Ta25  1  0.00236218  0.18101234  0.68101234  1
  Ta  Ta26  1  0.49927870  0.31871697  0.18128303  1
  Ta  Ta27  1  0.50072130  0.18128303  0.68128303  1
  Ta  Ta28  1  0.50072130  0.81871697  0.31871697  1
  Ta  Ta29  1  0.49927870  0.68128303  0.81871697  1
