# generated using pymatgen
data_TaFeO4
_symmetry_space_group_name_H-M   'P 1'
_cell_length_a   4.68755243
_cell_length_b   5.07204807
_cell_length_c   5.70307142
_cell_angle_alpha   90.00000000
_cell_angle_beta   90.00000000
_cell_angle_gamma   89.91229025
_symmetry_Int_Tables_number   1
_chemical_formula_structural   TaFeO4
_chemical_formula_sum   'Ta2 Fe2 O8'
_cell_volume   135.59316594
_cell_formula_units_Z   2
loop_
 _symmetry_equiv_pos_site_id
 _symmetry_equiv_pos_as_xyz
  1  'x, y, z'
loop_
 _atom_site_type_symbol
 _atom_site_label
 _atom_site_symmetry_multiplicity
 _atom_site_fract_x
 _atom_site_fract_y
 _atom_site_fract_z
 _atom_site_occupancy
  Ta  Ta0  1  0.00000000  0.75000000  0.82522348  1
  Ta  Ta1  1  0.00000000  0.25000000  0.17477652  1
  Fe  Fe2  1  0.50000000  0.75000000  0.33891475  1
  Fe  Fe3  1  0.50000000  0.25000000  0.66108525  1
  O  O4  1  0.26881146  0.91458060  0.61825133  1
  O  O5  1  0.22386431  0.42204871  0.88540018  1
  O  O6  1  0.26881146  0.41458060  0.38174867  1
  O  O7  1  0.22386431  0.92204871  0.11459982  1
  O  O8  1  0.77613569  0.07795129  0.88540018  1
  O  O9  1  0.73118854  0.58541940  0.61825133  1
  O  O10  1  0.77613569  0.57795129  0.11459982  1
  O  O11  1  0.73118854  0.08541940  0.38174867  1
