# generated using pymatgen
data_P2O5
_symmetry_space_group_name_H-M   'P 1'
_cell_length_a   4.94032797
_cell_length_b   7.38709881
_cell_length_c   9.65020642
_cell_angle_alpha   90.00000000
_cell_angle_beta   90.00000000
_cell_angle_gamma   90.00000000
_symmetry_Int_Tables_number   1
_chemical_formula_structural   P2O5
_chemical_formula_sum   'P8 O20'
_cell_volume   352.18130011
_cell_formula_units_Z   4
loop_
 _symmetry_equiv_pos_site_id
 _symmetry_equiv_pos_as_xyz
  1  'x, y, z'
loop_
 _atom_site_type_symbol
 _atom_site_label
 _atom_site_symmetry_multiplicity
 _atom_site_fract_x
 _atom_site_fract_y
 _atom_site_fract_z
 _atom_site_occupancy
  O  O0  1  0.25000000  0.50002576  0.27700268  1
  O  O1  1  0.75000000  0.49997424  0.72299732  1
  O  O2  1  0.75000000  1.00002576  0.22299732  1
  O  O3  1  0.25000000  -0.00002576  0.77700268  1
  O  O4  1  0.25000000  0.83799606  0.36615390  1
  O  O5  1  0.75000000  0.16200394  0.63384610  1
  O  O6  1  0.75000000  0.33799606  0.13384610  1
  O  O7  1  0.25000000  0.66200394  0.86615390  1
  O  O8  1  0.25000000  0.40439407  0.53996500  1
  O  O9  1  0.75000000  0.59560593  0.46003500  1
  O  O10  1  0.75000000  0.90439407  0.96003500  1
  O  O11  1  0.25000000  0.09560593  0.03996500  1
  O  O12  1  0.99874260  0.72371812  0.14618340  1
  O  O13  1  0.49874260  0.27628188  0.85381660  1
  O  O14  1  0.00125740  0.22371812  0.35381660  1
  O  O15  1  0.50125740  0.77628188  0.64618340  1
  O  O16  1  0.00125740  0.27628188  0.85381660  1
  O  O17  1  0.50125740  0.72371812  0.14618340  1
  O  O18  1  0.99874260  0.77628188  0.64618340  1
  O  O19  1  0.49874260  0.22371812  0.35381660  1
  P  P20  1  0.25000000  0.71310387  0.24961588  1
  P  P21  1  0.75000000  0.28689613  0.75038412  1
  P  P22  1  0.75000000  0.21310387  0.25038412  1
  P  P23  1  0.25000000  0.78689613  0.74961588  1
  P  P24  1  0.25000000  0.34924321  0.39450069  1
  P  P25  1  0.75000000  0.65075679  0.60549931  1
  P  P26  1  0.75000000  0.84924321  0.10549931  1
  P  P27  1  0.25000000  0.15075679  0.89450069  1
