# generated using pymatgen
data_WO3
_symmetry_space_group_name_H-M   'P 1'
_cell_length_a   6.59565714
_cell_length_b   6.59565766
_cell_length_c   6.59565725
_cell_angle_alpha   109.47122044
_cell_angle_beta   109.47122333
_cell_angle_gamma   109.47122208
_symmetry_Int_Tables_number   1
_chemical_formula_structural   WO3
_chemical_formula_sum   'W4 O12'
_cell_volume   220.87794080
_cell_formula_units_Z   4
loop_
 _symmetry_equiv_pos_site_id
 _symmetry_equiv_pos_as_xyz
  1  'x, y, z'
loop_
 _atom_site_type_symbol
 _atom_site_label
 _atom_site_symmetry_multiplicity
 _atom_site_fract_x
 _atom_site_fract_y
 _atom_site_fract_z
 _atom_site_occupancy
  W  W0  1  0.00000000  0.50000000  0.00000000  1
  W  W1  1  0.00000000  0.00000000  0.50000000  1
  W  W2  1  0.50000000  0.50000000  0.50000000  1
  W  W3  1  0.50000000  0.00000000  0.00000000  1
  O  O4  1  0.21856721  0.94044257  0.72187537  1
  O  O5  1  0.05955743  0.27812463  0.78143279  1
  O  O6  1  0.21856721  0.49669184  0.27812463  1
  O  O7  1  0.27812463  0.78143279  0.05955743  1
  O  O8  1  0.50330816  0.72187537  0.78143279  1
  O  O9  1  0.27812463  0.21856721  0.49669184  1
  O  O10  1  0.72187537  0.78143279  0.50330816  1
  O  O11  1  0.49669184  0.27812463  0.21856721  1
  O  O12  1  0.72187537  0.21856721  0.94044257  1
  O  O13  1  0.78143279  0.50330816  0.72187537  1
  O  O14  1  0.94044257  0.72187537  0.21856721  1
  O  O15  1  0.78143279  0.05955743  0.27812463  1
