# generated using pymatgen
data_CdCu2SnSe4
_symmetry_space_group_name_H-M   'P 1'
_cell_length_a   5.91377608
_cell_length_b   5.91377608
_cell_length_c   7.15000753
_cell_angle_alpha   114.42805755
_cell_angle_beta   114.42805753
_cell_angle_gamma   89.99999999
_symmetry_Int_Tables_number   1
_chemical_formula_structural   CdCu2SnSe4
_chemical_formula_sum   'Cd1 Cu2 Sn1 Se4'
_cell_volume   202.83058089
_cell_formula_units_Z   1
loop_
 _symmetry_equiv_pos_site_id
 _symmetry_equiv_pos_as_xyz
  1  'x, y, z'
loop_
 _atom_site_type_symbol
 _atom_site_label
 _atom_site_symmetry_multiplicity
 _atom_site_fract_x
 _atom_site_fract_y
 _atom_site_fract_z
 _atom_site_occupancy
  Cu  Cu0  1  0.25000000  0.75000000  0.50000000  1
  Cu  Cu1  1  0.75000000  0.25000000  0.50000000  1
  Se  Se2  1  0.39665806  0.39665806  0.28244634  1
  Se  Se3  1  0.88578827  0.88578827  0.28244634  1
  Se  Se4  1  0.11421173  0.60334194  0.71755366  1
  Se  Se5  1  0.60334194  0.11421173  0.71755366  1
  Cd  Cd6  1  0.00000000  0.00000000  0.00000000  1
  Sn  Sn7  1  0.50000000  0.50000000  0.00000000  1
