# generated using pymatgen
data_Ta
_symmetry_space_group_name_H-M   'P 1'
_cell_length_a   5.34421987
_cell_length_b   10.24957404
_cell_length_c   10.24957404
_cell_angle_alpha   90.00000000
_cell_angle_beta   90.00000000
_cell_angle_gamma   90.00000000
_symmetry_Int_Tables_number   1
_chemical_formula_structural   Ta
_chemical_formula_sum   Ta30
_cell_volume   561.43043437
_cell_formula_units_Z   30
loop_
 _symmetry_equiv_pos_site_id
 _symmetry_equiv_pos_as_xyz
  1  'x, y, z'
loop_
 _atom_site_type_symbol
 _atom_site_label
 _atom_site_symmetry_multiplicity
 _atom_site_fract_x
 _atom_site_fract_y
 _atom_site_fract_z
 _atom_site_occupancy
  Ta  Ta0  1  0.24917695  0.37109892  0.46518838  1
  Ta  Ta1  1  0.75128359  0.93298019  0.76098087  1
  Ta  Ta2  1  0.99886853  0.68132580  0.81832539  1
  Ta  Ta3  1  0.75082305  0.46518838  0.62890108  1
  Ta  Ta4  1  0.75082305  0.53481162  0.37109892  1
  Ta  Ta5  1  0.25122082  0.10486983  0.39511267  1
  Ta  Ta6  1  0.00113147  0.81832539  0.31867420  1
  Ta  Ta7  1  0.49969844  0.18145856  0.68157981  1
  Ta  Ta8  1  0.75128359  0.06701981  0.23901913  1
  Ta  Ta9  1  0.74939521  0.26124112  0.43280903  1
  Ta  Ta10  1  0.74877918  0.39511267  0.89513017  1
  Ta  Ta11  1  0.24849263  0.50000000  0.00000000  1
  Ta  Ta12  1  0.74850946  0.87107264  0.03452117  1
  Ta  Ta13  1  0.24871641  0.76098087  0.06701981  1
  Ta  Ta14  1  0.24917695  0.62890108  0.53481162  1
  Ta  Ta15  1  0.74877918  0.60488733  0.10486983  1
  Ta  Ta16  1  0.50030156  0.68157981  0.81854144  1
  Ta  Ta17  1  0.50030156  0.31842019  0.18145856  1
  Ta  Ta18  1  0.75150737  0.00000000  0.50000000  1
  Ta  Ta19  1  0.49969844  0.81854144  0.31842019  1
  Ta  Ta20  1  0.99886853  0.31867420  0.18167461  1
  Ta  Ta21  1  0.24871641  0.23901913  0.93298019  1
  Ta  Ta22  1  0.00113147  0.18167461  0.68132580  1
  Ta  Ta23  1  0.25060479  0.56719097  0.26124112  1
  Ta  Ta24  1  0.25149054  0.96547883  0.87107264  1
  Ta  Ta25  1  0.74939521  0.73875888  0.56719097  1
  Ta  Ta26  1  0.25149054  0.03452117  0.12892736  1
  Ta  Ta27  1  0.74850946  0.12892736  0.96547883  1
  Ta  Ta28  1  0.25060479  0.43280903  0.73875888  1
  Ta  Ta29  1  0.25122082  0.89513017  0.60488733  1
