# generated using pymatgen
data_MnF3
_symmetry_space_group_name_H-M   'P 1'
_cell_length_a   5.40336152
_cell_length_b   3.87136080
_cell_length_c   5.59539200
_cell_angle_alpha   90.00484518
_cell_angle_beta   90.00196451
_cell_angle_gamma   90.00092158
_symmetry_Int_Tables_number   1
_chemical_formula_structural   MnF3
_chemical_formula_sum   'Mn2 F6'
_cell_volume   117.04643486
_cell_formula_units_Z   2
loop_
 _symmetry_equiv_pos_site_id
 _symmetry_equiv_pos_as_xyz
  1  'x, y, z'
loop_
 _atom_site_type_symbol
 _atom_site_label
 _atom_site_symmetry_multiplicity
 _atom_site_fract_x
 _atom_site_fract_y
 _atom_site_fract_z
 _atom_site_occupancy
  Mn  Mn0  1  0.00026559  0.00729043  0.99672233  1
  Mn  Mn1  1  0.50044985  0.00748565  0.49674265  1
  F  F2  1  0.00014994  0.50730084  0.99617391  1
  F  F3  1  0.21948831  0.00752472  0.68665800  1
  F  F4  1  0.28122376  0.00725258  0.18668489  1
  F  F5  1  0.50062186  0.50745814  0.49631763  1
  F  F6  1  0.71885056  0.00717397  0.80720736  1
  F  F7  1  0.78177414  0.00741367  0.30713822  1
