# generated using pymatgen
data_KAg2SbS4
_symmetry_space_group_name_H-M   'P 1'
_cell_length_a   6.66930408
_cell_length_b   6.66930408
_cell_length_c   6.66930407
_cell_angle_alpha   92.32654051
_cell_angle_beta   118.66598559
_cell_angle_gamma   118.66598559
_symmetry_Int_Tables_number   1
_chemical_formula_structural   KAg2SbS4
_chemical_formula_sum   'K1 Ag2 Sb1 S4'
_cell_volume   213.80074387
_cell_formula_units_Z   1
loop_
 _symmetry_equiv_pos_site_id
 _symmetry_equiv_pos_as_xyz
  1  'x, y, z'
loop_
 _atom_site_type_symbol
 _atom_site_label
 _atom_site_symmetry_multiplicity
 _atom_site_fract_x
 _atom_site_fract_y
 _atom_site_fract_z
 _atom_site_occupancy
  S  S0  1  0.00000000  0.44967833  0.85163288  1
  S  S1  1  0.59804546  0.14836712  0.14836712  1
  S  S2  1  0.40195454  0.55032167  0.55032167  1
  S  S3  1  0.00000000  0.85163288  0.44967833  1
  K  K4  1  0.00000000  0.00000000  0.00000000  1
  Ag  Ag5  1  0.50000000  0.25000000  0.75000000  1
  Ag  Ag6  1  0.50000000  0.75000000  0.25000000  1
  Sb  Sb7  1  0.00000000  0.50000000  0.50000000  1
