# generated using pymatgen
data_LiFeF4
_symmetry_space_group_name_H-M   'P 1'
_cell_length_a   4.70895065
_cell_length_b   5.68728592
_cell_length_c   5.07055109
_cell_angle_alpha   90.00000000
_cell_angle_beta   92.49704087
_cell_angle_gamma   90.00000000
_symmetry_Int_Tables_number   1
_chemical_formula_structural   LiFeF4
_chemical_formula_sum   'Li2 Fe2 F8'
_cell_volume   135.66624155
_cell_formula_units_Z   2
loop_
 _symmetry_equiv_pos_site_id
 _symmetry_equiv_pos_as_xyz
  1  'x, y, z'
loop_
 _atom_site_type_symbol
 _atom_site_label
 _atom_site_symmetry_multiplicity
 _atom_site_fract_x
 _atom_site_fract_y
 _atom_site_fract_z
 _atom_site_occupancy
  Li  Li0  1  0.50000000  0.64170835  0.75000000  1
  Li  Li1  1  0.50000000  0.35829165  0.25000000  1
  Fe  Fe2  1  0.00000000  0.16546614  0.75000000  1
  Fe  Fe3  1  0.00000000  0.83453386  0.25000000  1
  F  F4  1  0.21909385  0.89115926  0.93068046  1
  F  F5  1  0.21909385  0.10884074  0.43068046  1
  F  F6  1  0.26198582  0.37641025  0.91045449  1
  F  F7  1  0.26198582  0.62358975  0.41045449  1
  F  F8  1  0.73801418  0.37641025  0.58954551  1
  F  F9  1  0.73801418  0.62358975  0.08954551  1
  F  F10  1  0.78090615  0.89115926  0.56931954  1
  F  F11  1  0.78090615  0.10884074  0.06931954  1
