# generated using pymatgen
data_GaGeTe
_symmetry_space_group_name_H-M   'P 1'
_cell_length_a   12.41739862
_cell_length_b   12.41739862
_cell_length_c   12.41739862
_cell_angle_alpha   19.12857877
_cell_angle_beta   19.12857876
_cell_angle_gamma   19.12857876
_symmetry_Int_Tables_number   1
_chemical_formula_structural   GaGeTe
_chemical_formula_sum   'Ga2 Ge2 Te2'
_cell_volume   179.70537910
_cell_formula_units_Z   2
loop_
 _symmetry_equiv_pos_site_id
 _symmetry_equiv_pos_as_xyz
  1  'x, y, z'
loop_
 _atom_site_type_symbol
 _atom_site_label
 _atom_site_symmetry_multiplicity
 _atom_site_fract_x
 _atom_site_fract_y
 _atom_site_fract_z
 _atom_site_occupancy
  Ga  Ga0  1  0.25471851  0.25471851  0.25471851  1
  Ga  Ga1  1  0.74528149  0.74528149  0.74528149  1
  Ge  Ge2  1  0.32234464  0.32234464  0.32234464  1
  Ge  Ge3  1  0.67765536  0.67765536  0.67765536  1
  Te  Te4  1  0.11336339  0.11336339  0.11336339  1
  Te  Te5  1  0.88663661  0.88663661  0.88663661  1
