# generated using pymatgen
data_Ag2S
_symmetry_space_group_name_H-M   'P 1'
_cell_length_a   4.26353050
_cell_length_b   4.24145676
_cell_length_c   9.01689627
_cell_angle_alpha   107.58797744
_cell_angle_beta   106.67090814
_cell_angle_gamma   111.61896589
_symmetry_Int_Tables_number   1
_chemical_formula_structural   Ag2S
_chemical_formula_sum   'Ag4 S2'
_cell_volume   129.09184898
_cell_formula_units_Z   2
loop_
 _symmetry_equiv_pos_site_id
 _symmetry_equiv_pos_as_xyz
  1  'x, y, z'
loop_
 _atom_site_type_symbol
 _atom_site_label
 _atom_site_symmetry_multiplicity
 _atom_site_fract_x
 _atom_site_fract_y
 _atom_site_fract_z
 _atom_site_occupancy
  Ag  Ag0  1  0.45987516  0.97582909  0.73928989  1
  Ag  Ag1  1  0.29245521  0.60158482  0.97110175  1
  Ag  Ag2  1  0.62578796  0.35233923  0.50659254  1
  Ag  Ag3  1  0.95265516  0.48303750  0.23819051  1
  S  S4  1  0.00353606  0.94919392  0.49255467  1
  S  S5  1  0.91569045  0.01301544  0.98977064  1
