# generated using pymatgen
data_PbCl2
_symmetry_space_group_name_H-M   'P 1'
_cell_length_a   4.57924101
_cell_length_b   7.78987344
_cell_length_c   9.35574134
_cell_angle_alpha   90.00000000
_cell_angle_beta   90.00000000
_cell_angle_gamma   90.00000000
_symmetry_Int_Tables_number   1
_chemical_formula_structural   PbCl2
_chemical_formula_sum   'Pb4 Cl8'
_cell_volume   333.73527245
_cell_formula_units_Z   4
loop_
 _symmetry_equiv_pos_site_id
 _symmetry_equiv_pos_as_xyz
  1  'x, y, z'
loop_
 _atom_site_type_symbol
 _atom_site_label
 _atom_site_symmetry_multiplicity
 _atom_site_fract_x
 _atom_site_fract_y
 _atom_site_fract_z
 _atom_site_occupancy
  Cl  Cl0  1  0.25000000  0.98849709  0.65446296  1
  Cl  Cl1  1  0.75000000  0.01150291  0.34553704  1
  Cl  Cl2  1  0.25000000  0.48849709  0.84553704  1
  Cl  Cl3  1  0.75000000  0.51150291  0.15446296  1
  Cl  Cl4  1  0.75000000  0.14214422  0.91726035  1
  Cl  Cl5  1  0.25000000  0.85785578  0.08273965  1
  Cl  Cl6  1  0.75000000  0.64214422  0.58273965  1
  Cl  Cl7  1  0.25000000  0.35785578  0.41726035  1
  Pb  Pb8  1  0.25000000  0.76455798  0.41592231  1
  Pb  Pb9  1  0.75000000  0.23544202  0.58407769  1
  Pb  Pb10  1  0.25000000  0.26455798  0.08407769  1
  Pb  Pb11  1  0.75000000  0.73544202  0.91592231  1
