# generated using pymatgen
data_LiEr2Ga
_symmetry_space_group_name_H-M   'P 1'
_cell_length_a   5.05005181
_cell_length_b   5.05007320
_cell_length_c   5.05007444
_cell_angle_alpha   60.00002334
_cell_angle_beta   60.00135207
_cell_angle_gamma   60.00018124
_symmetry_Int_Tables_number   1
_chemical_formula_structural   LiEr2Ga
_chemical_formula_sum   'Li1 Er2 Ga1'
_cell_volume   91.07127114
_cell_formula_units_Z   1
loop_
 _symmetry_equiv_pos_site_id
 _symmetry_equiv_pos_as_xyz
  1  'x, y, z'
loop_
 _atom_site_type_symbol
 _atom_site_label
 _atom_site_symmetry_multiplicity
 _atom_site_fract_x
 _atom_site_fract_y
 _atom_site_fract_z
 _atom_site_occupancy
  Li  Li0  1  0.75000134  0.75000097  0.74999628  1
  Er  Er1  1  0.99999805  0.99999020  0.00000083  1
  Er  Er2  1  0.49999546  0.50000929  0.50000511  1
  Ga  Ga3  1  0.25000515  0.24999954  0.24999778  1
