# generated using pymatgen
data_CsFeCl3
_symmetry_space_group_name_H-M   'P 1'
_cell_length_a   7.50007994
_cell_length_b   7.50007994
_cell_length_c   5.84859703
_cell_angle_alpha   90.00000000
_cell_angle_beta   90.00000000
_cell_angle_gamma   119.99999999
_symmetry_Int_Tables_number   1
_chemical_formula_structural   CsFeCl3
_chemical_formula_sum   'Cs2 Fe2 Cl6'
_cell_volume   284.91421383
_cell_formula_units_Z   2
loop_
 _symmetry_equiv_pos_site_id
 _symmetry_equiv_pos_as_xyz
  1  'x, y, z'
loop_
 _atom_site_type_symbol
 _atom_site_label
 _atom_site_symmetry_multiplicity
 _atom_site_fract_x
 _atom_site_fract_y
 _atom_site_fract_z
 _atom_site_occupancy
  Cl  Cl0  1  0.15458845  0.30917691  0.25000000  1
  Cl  Cl1  1  0.84541155  0.15458845  0.75000000  1
  Cl  Cl2  1  0.30917691  0.15458845  0.75000000  1
  Cl  Cl3  1  0.69082309  0.84541155  0.25000000  1
  Cl  Cl4  1  0.15458845  0.84541155  0.25000000  1
  Cl  Cl5  1  0.84541155  0.69082309  0.75000000  1
  Fe  Fe6  1  0.00000000  0.00000000  0.00000000  1
  Fe  Fe7  1  0.00000000  0.00000000  0.50000000  1
  Cs  Cs8  1  0.33333333  0.66666667  0.75000000  1
  Cs  Cs9  1  0.66666667  0.33333333  0.25000000  1
