# generated using pymatgen
data_LiInRh2
_symmetry_space_group_name_H-M   'P 1'
_cell_length_a   4.42474521
_cell_length_b   4.42473427
_cell_length_c   4.42473614
_cell_angle_alpha   60.00012894
_cell_angle_beta   60.00010959
_cell_angle_gamma   60.00000507
_symmetry_Int_Tables_number   1
_chemical_formula_structural   LiInRh2
_chemical_formula_sum   'Li1 In1 Rh2'
_cell_volume   61.25600098
_cell_formula_units_Z   1
loop_
 _symmetry_equiv_pos_site_id
 _symmetry_equiv_pos_as_xyz
  1  'x, y, z'
loop_
 _atom_site_type_symbol
 _atom_site_label
 _atom_site_symmetry_multiplicity
 _atom_site_fract_x
 _atom_site_fract_y
 _atom_site_fract_z
 _atom_site_occupancy
  Li  Li0  1  0.74999928  0.74999899  0.74999926  1
  In  In1  1  0.24999971  0.25000029  0.24999958  1
  Rh  Rh2  1  0.00000008  0.99999935  0.00000048  1
  Rh  Rh3  1  0.49999994  0.50000037  0.49999969  1
