# generated using pymatgen
data_Mg2P2O7
_symmetry_space_group_name_H-M   'P 1'
_cell_length_a   4.55110027
_cell_length_b   5.31816770
_cell_length_c   5.31816769
_cell_angle_alpha   104.15324963
_cell_angle_beta   98.43967177
_cell_angle_gamma   98.43967179
_symmetry_Int_Tables_number   1
_chemical_formula_structural   Mg2P2O7
_chemical_formula_sum   'Mg2 P2 O7'
_cell_volume   121.20019777
_cell_formula_units_Z   1
loop_
 _symmetry_equiv_pos_site_id
 _symmetry_equiv_pos_as_xyz
  1  'x, y, z'
loop_
 _atom_site_type_symbol
 _atom_site_label
 _atom_site_symmetry_multiplicity
 _atom_site_fract_x
 _atom_site_fract_y
 _atom_site_fract_z
 _atom_site_occupancy
  O  O0  1  0.27982265  0.92689170  0.62322007  1
  O  O1  1  0.72017735  0.37677993  0.07310830  1
  O  O2  1  0.72017735  0.07310830  0.37677993  1
  O  O3  1  0.27982265  0.62322007  0.92689170  1
  O  O4  1  0.00000000  0.00000000  0.00000000  1
  O  O5  1  0.78773131  0.61950012  0.61950012  1
  O  O6  1  0.21226869  0.38049988  0.38049988  1
  Mg  Mg7  1  0.50000000  0.68767346  0.31232654  1
  Mg  Mg8  1  0.50000000  0.31232654  0.68767346  1
  P  P9  1  0.09398406  0.78131692  0.78131692  1
  P  P10  1  0.90601594  0.21868308  0.21868308  1
