# generated using pymatgen
data_SiO2
_symmetry_space_group_name_H-M   'P 1'
_cell_length_a   4.92218639
_cell_length_b   5.12066818
_cell_length_c   8.55743020
_cell_angle_alpha   75.44041507
_cell_angle_beta   73.28497562
_cell_angle_gamma   61.27552414
_symmetry_Int_Tables_number   1
_chemical_formula_structural   SiO2
_chemical_formula_sum   'Si4 O8'
_cell_volume   179.50275980
_cell_formula_units_Z   4
loop_
 _symmetry_equiv_pos_site_id
 _symmetry_equiv_pos_as_xyz
  1  'x, y, z'
loop_
 _atom_site_type_symbol
 _atom_site_label
 _atom_site_symmetry_multiplicity
 _atom_site_fract_x
 _atom_site_fract_y
 _atom_site_fract_z
 _atom_site_occupancy
  Si  Si0  1  0.67375863  0.06221293  0.31315260  1
  Si  Si1  1  0.32624137  0.93778707  0.68684740  1
  Si  Si2  1  0.95087955  0.56220221  0.81314734  1
  Si  Si3  1  0.04912045  0.43779779  0.18685266  1
  O  O4  1  0.82892511  0.28261080  0.30899646  1
  O  O5  1  0.42050373  0.21738851  0.19100620  1
  O  O6  1  0.04465683  0.24998440  0.75002145  1
  O  O7  1  0.95534317  0.75001560  0.24997855  1
  O  O8  1  0.17107489  0.71738920  0.69100354  1
  O  O9  1  0.57949627  0.78261149  0.80899380  1
  O  O10  1  0.50000000  0.00000000  0.50000000  1
  O  O11  1  0.00000000  0.50000000  0.00000000  1
