# generated using pymatgen
data_C
_symmetry_space_group_name_H-M   'P 1'
_cell_length_a   4.55630247
_cell_length_b   4.55630344
_cell_length_c   4.27286829
_cell_angle_alpha   90.00000000
_cell_angle_beta   90.00000000
_cell_angle_gamma   114.40725499
_symmetry_Int_Tables_number   1
_chemical_formula_structural   C
_chemical_formula_sum   C8
_cell_volume   80.77691958
_cell_formula_units_Z   8
loop_
 _symmetry_equiv_pos_site_id
 _symmetry_equiv_pos_as_xyz
  1  'x, y, z'
loop_
 _atom_site_type_symbol
 _atom_site_label
 _atom_site_symmetry_multiplicity
 _atom_site_fract_x
 _atom_site_fract_y
 _atom_site_fract_z
 _atom_site_occupancy
  C  C0  1  -0.00000003  1.00000003  0.33355666  1
  C  C1  1  0.49999997  0.50000003  0.66644334  1
  C  C2  1  1.00000003  -0.00000003  0.66644334  1
  C  C3  1  0.50000003  0.49999997  0.33355666  1
  C  C4  1  0.75000000  0.75000000  0.83354992  1
  C  C5  1  0.25000000  0.25000000  0.83354992  1
  C  C6  1  0.75000000  0.75000000  0.16645008  1
  C  C7  1  0.25000000  0.25000000  0.16645008  1
