# generated using pymatgen
data_Ge4Ir
_symmetry_space_group_name_H-M   'P 1'
_cell_length_a   6.29926399
_cell_length_b   6.29926409
_cell_length_c   7.89416832
_cell_angle_alpha   90.00000000
_cell_angle_beta   90.00000000
_cell_angle_gamma   119.99999945
_symmetry_Int_Tables_number   1
_chemical_formula_structural   Ge4Ir
_chemical_formula_sum   'Ge12 Ir3'
_cell_volume   271.27929103
_cell_formula_units_Z   3
loop_
 _symmetry_equiv_pos_site_id
 _symmetry_equiv_pos_as_xyz
  1  'x, y, z'
loop_
 _atom_site_type_symbol
 _atom_site_label
 _atom_site_symmetry_multiplicity
 _atom_site_fract_x
 _atom_site_fract_y
 _atom_site_fract_z
 _atom_site_occupancy
  Ge  Ge0  1  0.00060237  0.61858460  0.15788755  1
  Ge  Ge1  1  0.00092833  0.07967439  0.15714206  1
  Ge  Ge2  1  0.77910654  0.26566756  0.37734213  1
  Ge  Ge3  1  0.38141540  0.38201777  0.49122155  1
  Ge  Ge4  1  0.22097021  0.48530876  0.93886931  1
  Ge  Ge5  1  0.48656103  0.22089346  0.04400913  1
  Ge  Ge6  1  0.51469124  0.73566145  0.27220231  1
  Ge  Ge7  1  0.61798223  0.99939763  0.82455455  1
  Ge  Ge8  1  0.92032561  0.92125394  0.49047606  1
  Ge  Ge9  1  0.07874606  0.99907167  0.82380906  1
  Ge  Ge10  1  0.26433855  0.77902979  0.60553631  1
  Ge  Ge11  1  0.73433244  0.51343897  0.71067613  1
  Ir  Ir12  1  0.68289011  0.68265159  0.99142495  1
  Ir  Ir13  1  0.99976148  0.31710989  0.65809095  1
  Ir  Ir14  1  0.31734841  0.00023852  0.32475795  1
