# generated using pymatgen
data_Na2CoP2O7
_symmetry_space_group_name_H-M   'P 1'
_cell_length_a   5.14721894
_cell_length_b   7.86985107
_cell_length_c   7.86985107
_cell_angle_alpha   90.00000000
_cell_angle_beta   90.00000000
_cell_angle_gamma   90.00000000
_symmetry_Int_Tables_number   1
_chemical_formula_structural   Na2CoP2O7
_chemical_formula_sum   'Na4 Co2 P4 O14'
_cell_volume   318.79071898
_cell_formula_units_Z   2
loop_
 _symmetry_equiv_pos_site_id
 _symmetry_equiv_pos_as_xyz
  1  'x, y, z'
loop_
 _atom_site_type_symbol
 _atom_site_label
 _atom_site_symmetry_multiplicity
 _atom_site_fract_x
 _atom_site_fract_y
 _atom_site_fract_z
 _atom_site_occupancy
  Na  Na0  1  0.49061338  0.83289404  0.33289404  1
  Na  Na1  1  0.50938662  0.66710596  0.83289404  1
  Na  Na2  1  0.49061338  0.16710596  0.66710596  1
  Na  Na3  1  0.50938662  0.33289404  0.16710596  1
  Co  Co4  1  0.00000000  0.50000000  0.50000000  1
  Co  Co5  1  0.00000000  0.00000000  0.00000000  1
  P  P6  1  0.07155637  0.63850584  0.13850584  1
  P  P7  1  0.92844363  0.86149416  0.63850584  1
  P  P8  1  0.07155637  0.36149416  0.86149416  1
  P  P9  1  0.92844363  0.13850584  0.36149416  1
  O  O10  1  0.81712728  0.00000000  0.50000000  1
  O  O11  1  0.18287272  0.50000000  0.00000000  1
  O  O12  1  0.77897425  0.63971760  0.13971760  1
  O  O13  1  0.22102575  0.86028240  0.63971760  1
  O  O14  1  0.77897425  0.36028240  0.86028240  1
  O  O15  1  0.22102575  0.13971760  0.36028240  1
  O  O16  1  0.79318807  0.30430064  0.41991064  1
  O  O17  1  0.20681193  0.19569936  0.91991064  1
  O  O18  1  0.79318807  0.69569936  0.58008936  1
  O  O19  1  0.20681193  0.80430064  0.08008936  1
  O  O20  1  0.20681193  0.58008936  0.30430064  1
  O  O21  1  0.79318807  0.91991064  0.80430064  1
  O  O22  1  0.20681193  0.41991064  0.69569936  1
  O  O23  1  0.79318807  0.08008936  0.19569936  1
