# generated using pymatgen
data_YCuTe2
_symmetry_space_group_name_H-M   'P 1'
_cell_length_a   8.67427428
_cell_length_b   4.35275113
_cell_length_c   6.92846492
_cell_angle_alpha   89.99999711
_cell_angle_beta   90.52487782
_cell_angle_gamma   120.11916496
_symmetry_Int_Tables_number   1
_chemical_formula_structural   YCuTe2
_chemical_formula_sum   'Y2 Cu2 Te4'
_cell_volume   226.26508183
_cell_formula_units_Z   2
loop_
 _symmetry_equiv_pos_site_id
 _symmetry_equiv_pos_as_xyz
  1  'x, y, z'
loop_
 _atom_site_type_symbol
 _atom_site_label
 _atom_site_symmetry_multiplicity
 _atom_site_fract_x
 _atom_site_fract_y
 _atom_site_fract_z
 _atom_site_occupancy
  Y  Y0  1  0.00000000  0.00000000  0.00000000  1
  Y  Y1  1  0.50000000  0.00000000  0.00000000  1
  Cu  Cu2  1  0.83747873  0.33747873  0.35120405  1
  Cu  Cu3  1  0.16252127  0.66252127  0.64879595  1
  Te  Te4  1  0.33856943  0.33856943  0.73353123  1
  Te  Te5  1  0.82509593  0.32509593  0.73874975  1
  Te  Te6  1  0.17490407  0.67490407  0.26125025  1
  Te  Te7  1  0.66143057  0.66143057  0.26646877  1
