# generated using pymatgen
data_ZrPdF6
_symmetry_space_group_name_H-M   'P 1'
_cell_length_a   5.90583391
_cell_length_b   5.90583391
_cell_length_c   5.90583391
_cell_angle_alpha   57.30451221
_cell_angle_beta   57.30451211
_cell_angle_gamma   57.30451217
_symmetry_Int_Tables_number   1
_chemical_formula_structural   ZrPdF6
_chemical_formula_sum   'Zr1 Pd1 F6'
_cell_volume   136.61713411
_cell_formula_units_Z   1
loop_
 _symmetry_equiv_pos_site_id
 _symmetry_equiv_pos_as_xyz
  1  'x, y, z'
loop_
 _atom_site_type_symbol
 _atom_site_label
 _atom_site_symmetry_multiplicity
 _atom_site_fract_x
 _atom_site_fract_y
 _atom_site_fract_z
 _atom_site_occupancy
  F  F0  1  0.64304917  0.25885022  0.83798388  1
  F  F1  1  0.25885022  0.83798388  0.64304917  1
  F  F2  1  0.16201612  0.35695083  0.74114978  1
  F  F3  1  0.74114978  0.16201612  0.35695083  1
  F  F4  1  0.35695083  0.74114978  0.16201612  1
  F  F5  1  0.83798388  0.64304917  0.25885022  1
  Zr  Zr6  1  0.50000000  0.50000000  0.50000000  1
  Pd  Pd7  1  0.00000000  0.00000000  0.00000000  1
