# generated using pymatgen
data_AcSe3
_symmetry_space_group_name_H-M   'P 1'
_cell_length_a   6.25570031
_cell_length_b   6.25569978
_cell_length_c   6.11789050
_cell_angle_alpha   90.00000000
_cell_angle_beta   90.00000000
_cell_angle_gamma   119.99999215
_symmetry_Int_Tables_number   1
_chemical_formula_structural   AcSe3
_chemical_formula_sum   'Ac2 Se6'
_cell_volume   207.34052744
_cell_formula_units_Z   2
loop_
 _symmetry_equiv_pos_site_id
 _symmetry_equiv_pos_as_xyz
  1  'x, y, z'
loop_
 _atom_site_type_symbol
 _atom_site_label
 _atom_site_symmetry_multiplicity
 _atom_site_fract_x
 _atom_site_fract_y
 _atom_site_fract_z
 _atom_site_occupancy
  Ac  Ac0  1  0.33333400  0.66666800  0.75000100  1
  Ac  Ac1  1  0.66666700  0.33333200  0.25000100  1
  Se  Se2  1  0.17385489  0.34771078  0.25000100  1
  Se  Se3  1  0.65228722  0.82614311  0.25000100  1
  Se  Se4  1  0.17385589  0.82614311  0.25000100  1
  Se  Se5  1  0.82614411  0.65228722  0.75000100  1
  Se  Se6  1  0.34771178  0.17385589  0.75000100  1
  Se  Se7  1  0.82614311  0.17385589  0.75000100  1
