# generated using pymatgen
data_VCrO4
_symmetry_space_group_name_H-M   'P 1'
_cell_length_a   5.07948963
_cell_length_b   5.07948963
_cell_length_c   6.19175109
_cell_angle_alpha   90.00000000
_cell_angle_beta   90.00000000
_cell_angle_gamma   112.49208966
_symmetry_Int_Tables_number   1
_chemical_formula_structural   VCrO4
_chemical_formula_sum   'V2 Cr2 O8'
_cell_volume   147.60253697
_cell_formula_units_Z   2
loop_
 _symmetry_equiv_pos_site_id
 _symmetry_equiv_pos_as_xyz
  1  'x, y, z'
loop_
 _atom_site_type_symbol
 _atom_site_label
 _atom_site_symmetry_multiplicity
 _atom_site_fract_x
 _atom_site_fract_y
 _atom_site_fract_z
 _atom_site_occupancy
  O  O0  1  0.74290132  0.78988785  0.75000000  1
  O  O1  1  0.25709868  0.21011215  0.25000000  1
  O  O2  1  0.78988785  0.74290132  0.25000000  1
  O  O3  1  0.21011215  0.25709868  0.75000000  1
  O  O4  1  0.23489278  0.76510722  0.96776394  1
  O  O5  1  0.76510722  0.23489278  0.46776394  1
  O  O6  1  0.76510722  0.23489278  0.03223606  1
  O  O7  1  0.23489278  0.76510722  0.53223606  1
  V  V8  1  0.64508270  0.35491730  0.25000000  1
  V  V9  1  0.35491730  0.64508270  0.75000000  1
  Cr  Cr10  1  0.00000000  0.00000000  0.50000000  1
  Cr  Cr11  1  0.00000000  0.00000000  0.00000000  1
