# generated using pymatgen
data_MgZn2
_symmetry_space_group_name_H-M   'P 1'
_cell_length_a   5.22825337
_cell_length_b   5.22825424
_cell_length_c   5.24006803
_cell_angle_alpha   119.92543643
_cell_angle_beta   60.07455962
_cell_angle_gamma   119.99997948
_symmetry_Int_Tables_number   1
_chemical_formula_structural   MgZn2
_chemical_formula_sum   'Mg2 Zn4'
_cell_volume   101.39670677
_cell_formula_units_Z   2
loop_
 _symmetry_equiv_pos_site_id
 _symmetry_equiv_pos_as_xyz
  1  'x, y, z'
loop_
 _atom_site_type_symbol
 _atom_site_label
 _atom_site_symmetry_multiplicity
 _atom_site_fract_x
 _atom_site_fract_y
 _atom_site_fract_z
 _atom_site_occupancy
  Mg  Mg0  1  0.87491124  0.45841976  0.37526227  1
  Mg  Mg1  1  0.12508676  0.20824524  0.62473773  1
  Zn  Zn2  1  0.50312871  0.33333400  1.00000000  1
  Zn  Zn3  1  0.49687429  0.83020629  0.00000000  1
  Zn  Zn4  1  0.50000000  0.83333400  0.50000000  1
  Zn  Zn5  1  0.99999800  0.83645971  0.99999900  1
