# generated using pymatgen
data_SnPS3
_symmetry_space_group_name_H-M   'P 1'
_cell_length_a   6.63060734
_cell_length_b   7.73139703
_cell_length_c   9.45361406
_cell_angle_alpha   90.00000000
_cell_angle_beta   91.46633879
_cell_angle_gamma   90.00000000
_symmetry_Int_Tables_number   1
_chemical_formula_structural   SnPS3
_chemical_formula_sum   'Sn4 P4 S12'
_cell_volume   484.47002694
_cell_formula_units_Z   4
loop_
 _symmetry_equiv_pos_site_id
 _symmetry_equiv_pos_as_xyz
  1  'x, y, z'
loop_
 _atom_site_type_symbol
 _atom_site_label
 _atom_site_symmetry_multiplicity
 _atom_site_fract_x
 _atom_site_fract_y
 _atom_site_fract_z
 _atom_site_occupancy
  P  P0  1  0.44351694  0.60410940  0.07118556  1
  P  P1  1  0.05648306  0.10410940  0.42881444  1
  P  P2  1  0.55648306  0.39589060  0.92881444  1
  P  P3  1  0.94351694  0.89589060  0.57118556  1
  S  S4  1  0.40171593  0.49699602  0.26439230  1
  S  S5  1  0.09828407  0.99699602  0.23560770  1
  S  S6  1  0.59828407  0.50300398  0.73560770  1
  S  S7  1  0.90171593  0.00300398  0.76439230  1
  S  S8  1  0.17969576  0.68429647  0.97396729  1
  S  S9  1  0.32030424  0.18429647  0.52603271  1
  S  S10  1  0.82030424  0.31570353  0.02603271  1
  S  S11  1  0.67969576  0.81570353  0.47396729  1
  S  S12  1  0.65210139  0.79649335  0.06357867  1
  S  S13  1  0.84789861  0.29649335  0.43642133  1
  S  S14  1  0.34789861  0.20350665  0.93642133  1
  S  S15  1  0.15210139  0.70350665  0.56357867  1
  Sn  Sn16  1  0.96190621  0.64180500  0.22340096  1
  Sn  Sn17  1  0.53809379  0.14180500  0.27659904  1
  Sn  Sn18  1  0.03809379  0.35819500  0.77659904  1
  Sn  Sn19  1  0.46190621  0.85819500  0.72340096  1
