# generated using pymatgen
data_LiDyS2
_symmetry_space_group_name_H-M   'P 1'
_cell_length_a   7.69313345
_cell_length_b   10.24747565
_cell_length_c   6.77020522
_cell_angle_alpha   29.08813467
_cell_angle_beta   55.37791243
_cell_angle_gamma   41.34595782
_symmetry_Int_Tables_number   1
_chemical_formula_structural   LiDyS2
_chemical_formula_sum   'Li2 Dy2 S4'
_cell_volume   164.86746934
_cell_formula_units_Z   2
loop_
 _symmetry_equiv_pos_site_id
 _symmetry_equiv_pos_as_xyz
  1  'x, y, z'
loop_
 _atom_site_type_symbol
 _atom_site_label
 _atom_site_symmetry_multiplicity
 _atom_site_fract_x
 _atom_site_fract_y
 _atom_site_fract_z
 _atom_site_occupancy
  Dy  Dy0  1  0.25001693  0.50000000  0.00000000  1
  Dy  Dy1  1  0.49998307  0.00000000  0.00000000  1
  Li  Li2  1  0.00000344  0.00000000  0.00000000  1
  Li  Li3  1  0.74999656  0.50000000  0.00000000  1
  S  S4  1  0.00498309  0.50004334  0.48994907  1
  S  S5  1  0.49501885  0.49995666  0.51005093  1
  S  S6  1  0.25498115  0.00004334  0.48994907  1
  S  S7  1  0.74501691  0.99995666  0.51005093  1
