# generated using pymatgen
data_YbCuGe
_symmetry_space_group_name_H-M   'P 1'
_cell_length_a   4.30272476
_cell_length_b   4.30272475
_cell_length_c   7.05644894
_cell_angle_alpha   90.00000000
_cell_angle_beta   90.00000000
_cell_angle_gamma   120.00000005
_symmetry_Int_Tables_number   1
_chemical_formula_structural   YbCuGe
_chemical_formula_sum   'Yb2 Cu2 Ge2'
_cell_volume   113.13681946
_cell_formula_units_Z   2
loop_
 _symmetry_equiv_pos_site_id
 _symmetry_equiv_pos_as_xyz
  1  'x, y, z'
loop_
 _atom_site_type_symbol
 _atom_site_label
 _atom_site_symmetry_multiplicity
 _atom_site_fract_x
 _atom_site_fract_y
 _atom_site_fract_z
 _atom_site_occupancy
  Cu  Cu0  1  0.33333333  0.66666667  0.24590108  1
  Cu  Cu1  1  0.66666667  0.33333333  0.74590108  1
  Ge  Ge2  1  0.66666667  0.33333333  0.24557121  1
  Ge  Ge3  1  0.33333333  0.66666667  0.74557121  1
  Yb  Yb4  1  0.00000000  0.00000000  0.49562771  1
  Yb  Yb5  1  0.00000000  0.00000000  0.99562771  1
