# generated using pymatgen
data_Yb2AgBi
_symmetry_space_group_name_H-M   'P 1'
_cell_length_a   5.37762316
_cell_length_b   5.37761547
_cell_length_c   5.37761402
_cell_angle_alpha   59.99998456
_cell_angle_beta   59.99999904
_cell_angle_gamma   60.00004319
_symmetry_Int_Tables_number   1
_chemical_formula_structural   Yb2AgBi
_chemical_formula_sum   'Yb2 Ag1 Bi1'
_cell_volume   109.96508824
_cell_formula_units_Z   1
loop_
 _symmetry_equiv_pos_site_id
 _symmetry_equiv_pos_as_xyz
  1  'x, y, z'
loop_
 _atom_site_type_symbol
 _atom_site_label
 _atom_site_symmetry_multiplicity
 _atom_site_fract_x
 _atom_site_fract_y
 _atom_site_fract_z
 _atom_site_occupancy
  Yb  Yb0  1  0.00000011  -0.00000008  0.00000015  1
  Yb  Yb1  1  0.49999984  0.50000036  0.50000012  1
  Ag  Ag2  1  0.25000000  0.25000033  0.24999981  1
  Bi  Bi3  1  0.75000106  0.75000040  0.75000092  1
