# generated using pymatgen
data_LaCuTeO
_symmetry_space_group_name_H-M   'P 1'
_cell_length_a   4.18274482
_cell_length_b   4.18290531
_cell_length_c   9.38486980
_cell_angle_alpha   90.00000000
_cell_angle_beta   90.00000000
_cell_angle_gamma   90.00000000
_symmetry_Int_Tables_number   1
_chemical_formula_structural   LaCuTeO
_chemical_formula_sum   'La2 Cu2 Te2 O2'
_cell_volume   164.19792150
_cell_formula_units_Z   2
loop_
 _symmetry_equiv_pos_site_id
 _symmetry_equiv_pos_as_xyz
  1  'x, y, z'
loop_
 _atom_site_type_symbol
 _atom_site_label
 _atom_site_symmetry_multiplicity
 _atom_site_fract_x
 _atom_site_fract_y
 _atom_site_fract_z
 _atom_site_occupancy
  O  O0  1  0.75000000  0.25000000  0.99995014  1
  Te  Te1  1  0.25000000  0.25000000  0.67557818  1
  La  La2  1  0.25000000  0.25000000  0.12625121  1
  La  La3  1  0.75000000  0.75000000  0.87379047  1
  O  O4  1  0.25000000  0.75000000  0.00007272  1
  Cu  Cu5  1  0.75000000  0.25000000  0.50002630  1
  Te  Te6  1  0.75000000  0.75000000  0.32438247  1
  Cu  Cu7  1  0.25000000  0.75000000  0.49994851  1
