# generated using pymatgen
data_Zr2O
_symmetry_space_group_name_H-M   'P 1'
_cell_length_a   5.68282982
_cell_length_b   5.68263017
_cell_length_c   10.52538925
_cell_angle_alpha   89.98944447
_cell_angle_beta   90.02569971
_cell_angle_gamma   119.99491539
_symmetry_Int_Tables_number   1
_chemical_formula_structural   Zr2O
_chemical_formula_sum   'Zr12 O6'
_cell_volume   294.37779366
_cell_formula_units_Z   6
loop_
 _symmetry_equiv_pos_site_id
 _symmetry_equiv_pos_as_xyz
  1  'x, y, z'
loop_
 _atom_site_type_symbol
 _atom_site_label
 _atom_site_symmetry_multiplicity
 _atom_site_fract_x
 _atom_site_fract_y
 _atom_site_fract_z
 _atom_site_occupancy
  Zr  Zr0  1  0.00039915  0.65855980  0.24619222  1
  Zr  Zr1  1  0.99964681  0.66687352  0.74877841  1
  Zr  Zr2  1  0.99970185  0.33246248  0.00132568  1
  Zr  Zr3  1  0.00035198  0.34209543  0.50384018  1
  Zr  Zr4  1  0.33283739  0.33242289  0.74863450  1
  Zr  Zr5  1  0.34176421  0.34205343  0.24602777  1
  Zr  Zr6  1  0.33304076  0.00050964  0.00125843  1
  Zr  Zr7  1  0.34162976  -0.00014455  0.50382447  1
  Zr  Zr8  1  0.66729605  0.66677490  0.00133975  1
  Zr  Zr9  1  0.65804289  0.65826500  0.50395902  1
  Zr  Zr10  1  0.65793700  -0.00003434  0.24612810  1
  Zr  Zr11  1  0.66746959  0.00053914  0.74870524  1
  O  O12  1  0.33325854  0.66668636  0.11779414  1
  O  O13  1  0.33318467  0.66667623  0.63219272  1
  O  O14  1  0.33340821  0.66625943  0.37498868  1
  O  O15  1  0.99998509  0.99998478  0.87500196  1
  O  O16  1  0.66663693  0.33332556  0.87500423  1
  O  O17  1  0.66651013  0.33339130  0.37500551  1
