# generated using pymatgen
data_Cs2MgH4
_symmetry_space_group_name_H-M   'P 1'
_cell_length_a   4.32390871
_cell_length_b   4.32390871
_cell_length_c   8.08599783
_cell_angle_alpha   105.50783448
_cell_angle_beta   105.50783445
_cell_angle_gamma   89.99999995
_symmetry_Int_Tables_number   1
_chemical_formula_structural   Cs2MgH4
_chemical_formula_sum   'Cs2 Mg1 H4'
_cell_volume   139.95349806
_cell_formula_units_Z   1
loop_
 _symmetry_equiv_pos_site_id
 _symmetry_equiv_pos_as_xyz
  1  'x, y, z'
loop_
 _atom_site_type_symbol
 _atom_site_label
 _atom_site_symmetry_multiplicity
 _atom_site_fract_x
 _atom_site_fract_y
 _atom_site_fract_z
 _atom_site_occupancy
  H  H0  1  0.00000000  0.50000000  0.00000000  1
  H  H1  1  0.50000000  0.00000000  0.00000000  1
  H  H2  1  0.86920932  0.86920932  0.73841865  1
  H  H3  1  0.13079068  0.13079068  0.26158135  1
  Mg  Mg4  1  0.00000000  0.00000000  0.00000000  1
  Cs  Cs5  1  0.64480860  0.64480860  0.28961720  1
  Cs  Cs6  1  0.35519140  0.35519140  0.71038280  1
