# generated using pymatgen
data_RbAgO2
_symmetry_space_group_name_H-M   'P 1'
_cell_length_a   5.87076349
_cell_length_b   5.87076376
_cell_length_c   5.94013628
_cell_angle_alpha   101.03545304
_cell_angle_beta   101.03545299
_cell_angle_gamma   105.99521126
_symmetry_Int_Tables_number   1
_chemical_formula_structural   RbAgO2
_chemical_formula_sum   'Rb2 Ag2 O4'
_cell_volume   186.58650923
_cell_formula_units_Z   2
loop_
 _symmetry_equiv_pos_site_id
 _symmetry_equiv_pos_as_xyz
  1  'x, y, z'
loop_
 _atom_site_type_symbol
 _atom_site_label
 _atom_site_symmetry_multiplicity
 _atom_site_fract_x
 _atom_site_fract_y
 _atom_site_fract_z
 _atom_site_occupancy
  Rb  Rb0  1  0.64625664  0.35374336  0.25000000  1
  Rb  Rb1  1  0.35374336  0.64625664  0.75000000  1
  Ag  Ag2  1  -0.00000000  0.00000000  0.00000000  1
  Ag  Ag3  1  -0.00000000  0.00000000  0.50000000  1
  O  O4  1  0.15379819  0.24549448  0.32561427  1
  O  O5  1  0.24549448  0.15379819  0.82561427  1
  O  O6  1  0.84620181  0.75450552  0.67438573  1
  O  O7  1  0.75450552  0.84620181  0.17438573  1
