# generated using pymatgen
data_Sm2ZnAg
_symmetry_space_group_name_H-M   'P 1'
_cell_length_a   5.21112735
_cell_length_b   5.21112912
_cell_length_c   5.21112951
_cell_angle_alpha   59.99998496
_cell_angle_beta   60.00003079
_cell_angle_gamma   60.00002159
_symmetry_Int_Tables_number   1
_chemical_formula_structural   Sm2ZnAg
_chemical_formula_sum   'Sm2 Zn1 Ag1'
_cell_volume   100.06461119
_cell_formula_units_Z   1
loop_
 _symmetry_equiv_pos_site_id
 _symmetry_equiv_pos_as_xyz
  1  'x, y, z'
loop_
 _atom_site_type_symbol
 _atom_site_label
 _atom_site_symmetry_multiplicity
 _atom_site_fract_x
 _atom_site_fract_y
 _atom_site_fract_z
 _atom_site_occupancy
  Sm  Sm0  1  0.00000006  0.00000003  0.99999993  1
  Sm  Sm1  1  0.49999994  0.49999997  0.50000007  1
  Zn  Zn2  1  0.75000004  0.74999999  0.74999998  1
  Ag  Ag3  1  0.24999997  0.25000001  0.25000001  1
