# generated using pymatgen
data_Li2FeP2O7
_symmetry_space_group_name_H-M   'P 1'
_cell_length_a   9.37507061
_cell_length_b   8.18688902
_cell_length_c   9.37512910
_cell_angle_alpha   70.86674571
_cell_angle_beta   148.84984935
_cell_angle_gamma   119.53226839
_symmetry_Int_Tables_number   1
_chemical_formula_structural   Li2FeP2O7
_chemical_formula_sum   'Li4 Fe2 P4 O14'
_cell_volume   316.70584330
_cell_formula_units_Z   2
loop_
 _symmetry_equiv_pos_site_id
 _symmetry_equiv_pos_as_xyz
  1  'x, y, z'
loop_
 _atom_site_type_symbol
 _atom_site_label
 _atom_site_symmetry_multiplicity
 _atom_site_fract_x
 _atom_site_fract_y
 _atom_site_fract_z
 _atom_site_occupancy
  Li  Li0  1  0.49777196  0.32743843  0.05095003  1
  Li  Li1  1  0.50222804  0.67256157  0.94904897  1
  Li  Li2  1  0.72352496  0.17257126  0.67033302  1
  Li  Li3  1  0.27647404  0.82742774  0.32966598  1
  Fe  Fe4  1  0.00000000  0.50000000  -0.00000000  1
  Fe  Fe5  1  0.49999900  -0.00000000  -0.00000000  1
  P  P6  1  0.08175140  0.11019099  0.26656733  1
  P  P7  1  0.84361787  0.61018709  0.52836837  1
  P  P8  1  0.91825160  0.88981101  0.73343667  1
  P  P9  1  0.15638213  0.38981291  0.47163063  1
  O  O10  1  0.17769970  0.54849311  0.33904002  1
  O  O11  1  0.82229930  0.45150689  0.66095898  1
  O  O12  1  0.36818023  0.46559372  0.75705846  1
  O  O13  1  0.79036864  0.95146615  0.12905661  1
  O  O14  1  0.29138428  0.03443034  0.40256112  1
  O  O15  1  0.00117147  0.76156864  0.94177527  1
  O  O16  1  0.20963236  0.04853385  0.87094539  1
  O  O17  1  0.99882953  0.23843036  0.05822673  1
  O  O18  1  0.70861572  0.96556866  0.59743888  1
  O  O19  1  0.81974526  0.26162233  0.26037306  1
  O  O20  1  0.18025574  0.73837667  0.73962694  1
  O  O21  1  0.63182077  0.53440728  0.24294154  1
  O  O22  1  0.72645422  0.75002680  0.47639784  1
  O  O23  1  0.27354478  0.24997320  0.52359916  1
