# generated using pymatgen
data_LiB3O5
_symmetry_space_group_name_H-M   'P 1'
_cell_length_a   5.25846778
_cell_length_b   7.42427595
_cell_length_c   8.51853558
_cell_angle_alpha   90.00000000
_cell_angle_beta   90.00000000
_cell_angle_gamma   90.00000000
_symmetry_Int_Tables_number   1
_chemical_formula_structural   LiB3O5
_chemical_formula_sum   'Li4 B12 O20'
_cell_volume   332.56631982
_cell_formula_units_Z   4
loop_
 _symmetry_equiv_pos_site_id
 _symmetry_equiv_pos_as_xyz
  1  'x, y, z'
loop_
 _atom_site_type_symbol
 _atom_site_label
 _atom_site_symmetry_multiplicity
 _atom_site_fract_x
 _atom_site_fract_y
 _atom_site_fract_z
 _atom_site_occupancy
  Li  Li0  1  0.01378990  0.43107175  0.58049960  1
  Li  Li1  1  0.51378990  0.56892825  0.41950040  1
  Li  Li2  1  0.01378990  0.06892825  0.08049960  1
  Li  Li3  1  0.51378990  0.93107175  0.91950040  1
  B  B4  1  0.64245077  0.16421667  0.49106828  1
  B  B5  1  0.14245077  0.83578333  0.50893172  1
  B  B6  1  0.64245077  0.33578333  0.99106828  1
  B  B7  1  0.14245077  0.66421667  0.00893172  1
  B  B8  1  0.44977300  0.94097865  0.30755958  1
  B  B9  1  0.94977300  0.05902135  0.69244042  1
  B  B10  1  0.44977300  0.55902135  0.80755958  1
  B  B11  1  0.94977300  0.44097865  0.19244042  1
  B  B12  1  0.26883016  0.24698460  0.34084831  1
  B  B13  1  0.76883016  0.75301540  0.65915169  1
  B  B14  1  0.26883016  0.25301540  0.84084831  1
  B  B15  1  0.76883016  0.74698460  0.15915169  1
  O  O16  1  0.64608244  0.00289136  0.41695653  1
  O  O17  1  0.14608244  0.99710864  0.58304347  1
  O  O18  1  0.64608244  0.49710864  0.91695653  1
  O  O19  1  0.14608244  0.50289136  0.08304347  1
  O  O20  1  0.80108956  0.20610642  0.61413019  1
  O  O21  1  0.30108956  0.79389358  0.38586981  1
  O  O22  1  0.80108956  0.29389358  0.11413019  1
  O  O23  1  0.30108956  0.70610642  0.88586981  1
  O  O24  1  0.46842875  0.29732710  0.44153303  1
  O  O25  1  0.96842875  0.70267290  0.55846697  1
  O  O26  1  0.46842875  0.20267290  0.94153303  1
  O  O27  1  0.96842875  0.79732710  0.05846697  1
  O  O28  1  0.27098387  0.08814303  0.25979462  1
  O  O29  1  0.77098387  0.91185697  0.74020538  1
  O  O30  1  0.27098387  0.41185697  0.75979462  1
  O  O31  1  0.77098387  0.58814303  0.24020538  1
  O  O32  1  0.07557156  0.37163764  0.33491159  1
  O  O33  1  0.57557156  0.62836236  0.66508841  1
  O  O34  1  0.07557156  0.12836236  0.83491159  1
  O  O35  1  0.57557156  0.87163764  0.16508841  1
