# generated using pymatgen
data_Ca2AlFeO5
_symmetry_space_group_name_H-M   'P 1'
_cell_length_a   5.43698850
_cell_length_b   5.68636750
_cell_length_c   8.23890915
_cell_angle_alpha   110.22029591
_cell_angle_beta   109.27433778
_cell_angle_gamma   89.99220194
_symmetry_Int_Tables_number   1
_chemical_formula_structural   Ca2AlFeO5
_chemical_formula_sum   'Ca4 Al2 Fe2 O10'
_cell_volume   223.74945280
_cell_formula_units_Z   2
loop_
 _symmetry_equiv_pos_site_id
 _symmetry_equiv_pos_as_xyz
  1  'x, y, z'
loop_
 _atom_site_type_symbol
 _atom_site_label
 _atom_site_symmetry_multiplicity
 _atom_site_fract_x
 _atom_site_fract_y
 _atom_site_fract_z
 _atom_site_occupancy
  Ca  Ca0  1  0.11824153  0.64106712  0.21928708  1
  Ca  Ca1  1  0.39920255  0.92177107  0.78084817  1
  Ca  Ca2  1  0.89870432  0.35890817  0.78067922  1
  Ca  Ca3  1  0.61829562  0.07838501  0.21929347  1
  Al  Al4  1  0.28763056  0.32710228  0.49943513  1
  Al  Al5  1  0.78778380  0.67296309  0.50012554  1
  Fe  Fe6  1  0.49680980  0.49995186  0.00009588  1
  Fe  Fe7  1  0.99692696  0.99989717  0.00010431  1
  O  O8  1  0.61716860  0.39706342  0.50008792  1
  O  O9  1  0.11700601  0.60331937  0.50008647  1
  O  O10  1  0.61279512  0.71721796  0.29339724  1
  O  O11  1  0.32016476  0.28294641  0.70693784  1
  O  O12  1  0.11367947  0.07684525  0.29332372  1
  O  O13  1  0.81955662  0.92363758  0.70696870  1
  O  O14  1  0.23355259  0.73889185  0.97141667  1
  O  O15  1  0.26368941  0.25877732  0.02815734  1
  O  O16  1  0.76351650  0.26925929  0.02824357  1
  O  O17  1  0.73393978  0.73237579  0.97223373  1
