# generated using pymatgen
data_Cu6Sn5
_symmetry_space_group_name_H-M   'P 1'
_cell_length_a   6.67643880
_cell_length_b   6.67643880
_cell_length_c   9.85955746
_cell_angle_alpha   82.66643570
_cell_angle_beta   82.66643570
_cell_angle_gamma   67.64120731
_symmetry_Int_Tables_number   1
_chemical_formula_structural   Cu6Sn5
_chemical_formula_sum   'Cu12 Sn10'
_cell_volume   401.62127449
_cell_formula_units_Z   2
loop_
 _symmetry_equiv_pos_site_id
 _symmetry_equiv_pos_as_xyz
  1  'x, y, z'
loop_
 _atom_site_type_symbol
 _atom_site_label
 _atom_site_symmetry_multiplicity
 _atom_site_fract_x
 _atom_site_fract_y
 _atom_site_fract_z
 _atom_site_occupancy
  Cu  Cu0  1  0.62852072  0.57359963  0.29760554  1
  Cu  Cu1  1  0.42640037  0.37147928  0.20239446  1
  Cu  Cu2  1  0.37147928  0.42640037  0.70239446  1
  Cu  Cu3  1  0.57359963  0.62852072  0.79760554  1
  Cu  Cu4  1  0.80199605  0.81091842  0.88992828  1
  Cu  Cu5  1  0.18908158  0.19800395  0.61007172  1
  Cu  Cu6  1  0.19800395  0.18908158  0.11007172  1
  Cu  Cu7  1  0.81091842  0.80199605  0.38992828  1
  Cu  Cu8  1  -0.00000000  -0.00000000  0.50000000  1
  Cu  Cu9  1  -0.00000000  -0.00000000  0.00000000  1
  Cu  Cu10  1  0.84034423  0.15965577  0.25000000  1
  Cu  Cu11  1  0.15965577  0.84034423  0.75000000  1
  Sn  Sn12  1  0.22829736  0.55361047  0.97044063  1
  Sn  Sn13  1  0.44638953  0.77170264  0.52955937  1
  Sn  Sn14  1  0.77170264  0.44638953  0.02955937  1
  Sn  Sn15  1  0.55361047  0.22829736  0.47044063  1
  Sn  Sn16  1  0.63120012  0.94118431  0.14219216  1
  Sn  Sn17  1  0.05881569  0.36879988  0.35780784  1
  Sn  Sn18  1  0.36879988  0.05881569  0.85780784  1
  Sn  Sn19  1  0.94118431  0.63120012  0.64219216  1
  Sn  Sn20  1  0.20032361  0.79967639  0.25000000  1
  Sn  Sn21  1  0.79967639  0.20032361  0.75000000  1
