# generated using pymatgen
data_DyCoO3
_symmetry_space_group_name_H-M   'P 1'
_cell_length_a   5.23396212
_cell_length_b   5.70056697
_cell_length_c   7.35461962
_cell_angle_alpha   90.00000000
_cell_angle_beta   90.00000000
_cell_angle_gamma   90.00000000
_symmetry_Int_Tables_number   1
_chemical_formula_structural   DyCoO3
_chemical_formula_sum   'Dy4 Co4 O12'
_cell_volume   219.43648767
_cell_formula_units_Z   4
loop_
 _symmetry_equiv_pos_site_id
 _symmetry_equiv_pos_as_xyz
  1  'x, y, z'
loop_
 _atom_site_type_symbol
 _atom_site_label
 _atom_site_symmetry_multiplicity
 _atom_site_fract_x
 _atom_site_fract_y
 _atom_site_fract_z
 _atom_site_occupancy
  Dy  Dy0  1  0.52436366  0.58317472  0.25000000  1
  Dy  Dy1  1  0.97563634  0.08317472  0.25000000  1
  Dy  Dy2  1  0.47563634  0.41682528  0.75000000  1
  Dy  Dy3  1  0.02436366  0.91682528  0.75000000  1
  Co  Co4  1  -0.00000000  0.50000000  -0.00000000  1
  Co  Co5  1  0.50000000  -0.00000000  0.50000000  1
  Co  Co6  1  0.00000000  0.50000000  0.50000000  1
  Co  Co7  1  0.50000000  0.00000000  0.00000000  1
  O  O8  1  0.39013453  0.96950243  0.25000000  1
  O  O9  1  0.10986547  0.46950243  0.25000000  1
  O  O10  1  0.60986547  0.03049757  0.75000000  1
  O  O11  1  0.89013453  0.53049757  0.75000000  1
  O  O12  1  0.80009580  0.81389303  0.05266279  1
  O  O13  1  0.69990420  0.31389303  0.44733721  1
  O  O14  1  0.19990420  0.18610697  0.55266279  1
  O  O15  1  0.30009580  0.68610697  0.94733721  1
  O  O16  1  0.19990420  0.18610697  0.94733721  1
  O  O17  1  0.30009580  0.68610697  0.55266279  1
  O  O18  1  0.80009580  0.81389303  0.44733721  1
  O  O19  1  0.69990420  0.31389303  0.05266279  1
