# generated using pymatgen
data_CuBiO2
_symmetry_space_group_name_H-M   'P 1'
_cell_length_a   3.63533833
_cell_length_b   6.15623091
_cell_length_c   6.69401886
_cell_angle_alpha   116.07077276
_cell_angle_beta   90.00000000
_cell_angle_gamma   90.00000000
_symmetry_Int_Tables_number   1
_chemical_formula_structural   CuBiO2
_chemical_formula_sum   'Cu2 Bi2 O4'
_cell_volume   134.56893091
_cell_formula_units_Z   2
loop_
 _symmetry_equiv_pos_site_id
 _symmetry_equiv_pos_as_xyz
  1  'x, y, z'
loop_
 _atom_site_type_symbol
 _atom_site_label
 _atom_site_symmetry_multiplicity
 _atom_site_fract_x
 _atom_site_fract_y
 _atom_site_fract_z
 _atom_site_occupancy
  Cu  Cu0  1  0.25000000  0.97252188  0.33161749  1
  Cu  Cu1  1  0.75000000  0.02747812  0.66838251  1
  Bi  Bi2  1  0.25000000  0.56785849  0.76462245  1
  Bi  Bi3  1  0.75000000  0.43214151  0.23537755  1
  O  O4  1  0.25000000  0.63969184  0.19585730  1
  O  O5  1  0.75000000  0.70095330  0.58876703  1
  O  O6  1  0.25000000  0.29904670  0.41123297  1
  O  O7  1  0.75000000  0.36030816  0.80414270  1
