# generated using pymatgen
data_TiO2
_symmetry_space_group_name_H-M   'P 1'
_cell_length_a   3.82734875
_cell_length_b   3.82734875
_cell_length_c   5.47203924
_cell_angle_alpha   109.89335806
_cell_angle_beta   109.89335806
_cell_angle_gamma   90.01315593
_symmetry_Int_Tables_number   1
_chemical_formula_structural   TiO2
_chemical_formula_sum   'Ti2 O4'
_cell_volume   70.26401005
_cell_formula_units_Z   2
loop_
 _symmetry_equiv_pos_site_id
 _symmetry_equiv_pos_as_xyz
  1  'x, y, z'
loop_
 _atom_site_type_symbol
 _atom_site_label
 _atom_site_symmetry_multiplicity
 _atom_site_fract_x
 _atom_site_fract_y
 _atom_site_fract_z
 _atom_site_occupancy
  Ti  Ti0  1  0.36589049  0.13410951  0.25000000  1
  Ti  Ti1  1  0.63410951  0.86589049  0.75000000  1
  O  O2  1  0.58875471  0.33122128  0.66714903  1
  O  O3  1  0.41124529  0.66877872  0.33285097  1
  O  O4  1  0.16877872  0.91124529  0.83285097  1
  O  O5  1  0.83122128  0.08875471  0.16714903  1
