# generated using pymatgen
data_DyHO2
_symmetry_space_group_name_H-M   'P 1'
_cell_length_a   5.49722475
_cell_length_b   4.87658702
_cell_length_c   3.51131464
_cell_angle_alpha   90.00000000
_cell_angle_beta   90.00000000
_cell_angle_gamma   90.00000000
_symmetry_Int_Tables_number   1
_chemical_formula_structural   DyHO2
_chemical_formula_sum   'Dy2 H2 O4'
_cell_volume   94.13025143
_cell_formula_units_Z   2
loop_
 _symmetry_equiv_pos_site_id
 _symmetry_equiv_pos_as_xyz
  1  'x, y, z'
loop_
 _atom_site_type_symbol
 _atom_site_label
 _atom_site_symmetry_multiplicity
 _atom_site_fract_x
 _atom_site_fract_y
 _atom_site_fract_z
 _atom_site_occupancy
  Dy  Dy0  1  0.01750117  0.27705699  0.00000000  1
  Dy  Dy1  1  0.51750117  0.72294301  0.50000000  1
  H  H2  1  0.03734483  0.80658131  0.50000000  1
  H  H3  1  0.53734483  0.19341869  0.00000000  1
  O  O4  1  0.14310008  0.97855824  0.50000000  1
  O  O5  1  0.37927792  0.48202146  0.00000000  1
  O  O6  1  0.64310008  0.02144176  0.00000000  1
  O  O7  1  0.87927792  0.51797854  0.50000000  1
