# generated using pymatgen
data_Mn5O8
_symmetry_space_group_name_H-M   'P 1'
_cell_length_a   4.97754092
_cell_length_b   5.86199650
_cell_length_c   6.00567404
_cell_angle_alpha   119.21171849
_cell_angle_beta   106.75881303
_cell_angle_gamma   90.00000002
_symmetry_Int_Tables_number   1
_chemical_formula_structural   Mn5O8
_chemical_formula_sum   'Mn5 O8'
_cell_volume   144.36224519
_cell_formula_units_Z   1
loop_
 _symmetry_equiv_pos_site_id
 _symmetry_equiv_pos_as_xyz
  1  'x, y, z'
loop_
 _atom_site_type_symbol
 _atom_site_label
 _atom_site_symmetry_multiplicity
 _atom_site_fract_x
 _atom_site_fract_y
 _atom_site_fract_z
 _atom_site_occupancy
  O  O0  1  0.07002056  0.39449429  0.78898859  1
  O  O1  1  0.92997944  0.60550571  0.21101141  1
  O  O2  1  0.09075507  0.89675055  0.79350109  1
  O  O3  1  0.90924493  0.10324945  0.20649891  1
  O  O4  1  0.39524162  0.33784952  0.22371128  1
  O  O5  1  0.39524162  0.88586176  0.22371128  1
  O  O6  1  0.60475838  0.66215048  0.77628872  1
  O  O7  1  0.60475838  0.11413824  0.77628872  1
  Mn  Mn8  1  0.34510006  0.27952293  0.55904585  1
  Mn  Mn9  1  0.65489994  0.72047707  0.44095415  1
  Mn  Mn10  1  0.00000000  0.25872078  0.00000000  1
  Mn  Mn11  1  0.00000000  0.74127922  0.00000000  1
  Mn  Mn12  1  0.50000000  0.00000000  0.00000000  1
