# generated using pymatgen
data_Y3Fe5O12
_symmetry_space_group_name_H-M   'P 1'
_cell_length_a   10.87709041
_cell_length_b   10.87709009
_cell_length_c   10.87708999
_cell_angle_alpha   109.47008972
_cell_angle_beta   109.47008910
_cell_angle_gamma   109.47008496
_symmetry_Int_Tables_number   1
_chemical_formula_structural   Y3Fe5O12
_chemical_formula_sum   'Y12 Fe20 O48'
_cell_volume   990.68253449
_cell_formula_units_Z   4
loop_
 _symmetry_equiv_pos_site_id
 _symmetry_equiv_pos_as_xyz
  1  'x, y, z'
loop_
 _atom_site_type_symbol
 _atom_site_label
 _atom_site_symmetry_multiplicity
 _atom_site_fract_x
 _atom_site_fract_y
 _atom_site_fract_z
 _atom_site_occupancy
  Y  Y0  1  0.24992786  0.37496267  0.12492739  1
  Y  Y1  1  0.62504830  0.25002519  0.87500240  1
  Y  Y2  1  0.75007214  0.62503733  0.87507261  1
  Y  Y3  1  0.74997481  0.12499760  0.37495170  1
  Y  Y4  1  0.87507261  0.75007214  0.62503733  1
  Y  Y5  1  0.25002519  0.87500240  0.62504830  1
  Y  Y6  1  0.62503733  0.87507261  0.75007214  1
  Y  Y7  1  0.12499760  0.37495170  0.74997481  1
  Y  Y8  1  0.37495170  0.74997481  0.12499760  1
  Y  Y9  1  0.37496267  0.12492739  0.24992786  1
  Y  Y10  1  0.87500240  0.62504830  0.25002519  1
  Y  Y11  1  0.12492739  0.24992786  0.37496267  1
  Fe  Fe12  1  0.87500177  0.25003546  0.12502881  1
  Fe  Fe13  1  0.25023634  0.62517503  0.37507791  1
  Fe  Fe14  1  0.00000000  0.50000000  0.50000000  1
  Fe  Fe15  1  0.25003546  0.12502881  0.87500177  1
  Fe  Fe16  1  0.50000000  0.00000000  0.00000000  1
  Fe  Fe17  1  0.62517503  0.37507791  0.25023634  1
  Fe  Fe18  1  0.50000000  0.00000000  0.50000000  1
  Fe  Fe19  1  0.37482497  0.62492209  0.74976366  1
  Fe  Fe20  1  0.62492209  0.74976366  0.37482497  1
  Fe  Fe21  1  0.87497119  0.12499823  0.74996454  1
  Fe  Fe22  1  0.00000000  0.50000000  0.00000000  1
  Fe  Fe23  1  0.12502881  0.87500177  0.25003546  1
  Fe  Fe24  1  0.00000000  0.00000000  0.00000000  1
  Fe  Fe25  1  0.74996454  0.87497119  0.12499823  1
  Fe  Fe26  1  0.37507791  0.25023634  0.62517503  1
  Fe  Fe27  1  0.00000000  0.00000000  0.50000000  1
  Fe  Fe28  1  0.12499823  0.74996454  0.87497119  1
  Fe  Fe29  1  0.74976366  0.37482497  0.62492209  1
  Fe  Fe30  1  0.50000000  0.50000000  0.50000000  1
  Fe  Fe31  1  0.50000000  0.50000000  0.00000000  1
  O  O32  1  0.62506670  0.41692244  0.09409026  1
  O  O33  1  0.46856110  0.59368791  0.17689958  1
  O  O34  1  0.90618457  0.03123282  0.32291068  1
  O  O35  1  0.59368791  0.17689958  0.46856110  1
  O  O36  1  0.53106465  0.62522516  0.70812995  1
  O  O37  1  0.08322579  0.87491292  0.40617864  1
  O  O38  1  0.96891421  0.79181178  0.87482955  1
  O  O39  1  0.91677421  0.12508708  0.59382136  1
  O  O40  1  0.58307756  0.90590974  0.37493330  1
  O  O41  1  0.67708932  0.09381543  0.96876718  1
  O  O42  1  0.12517045  0.03108579  0.20818822  1
  O  O43  1  0.96876718  0.67708932  0.09381543  1
  O  O44  1  0.90590974  0.37493330  0.58307756  1
  O  O45  1  0.67711671  0.08336210  0.70824989  1
  O  O46  1  0.09409026  0.62506670  0.41692244  1
  O  O47  1  0.82310042  0.53143890  0.40631209  1
  O  O48  1  0.82294349  0.79184658  0.41674942  1
  O  O49  1  0.70824989  0.67711671  0.08336210  1
  O  O50  1  0.62522516  0.70812995  0.53106465  1
  O  O51  1  0.32288329  0.91663790  0.29175011  1
  O  O52  1  0.09381543  0.96876718  0.67708932  1
  O  O53  1  0.12508708  0.59382136  0.91677421  1
  O  O54  1  0.87491292  0.40617864  0.08322579  1
  O  O55  1  0.40631209  0.82310042  0.53143890  1
  O  O56  1  0.87482955  0.96891421  0.79181178  1
  O  O57  1  0.29187005  0.46893535  0.37477484  1
  O  O58  1  0.29175011  0.32288329  0.91663790  1
  O  O59  1  0.79181178  0.87482955  0.96891421  1
  O  O60  1  0.17705651  0.20815342  0.58325058  1
  O  O61  1  0.03123282  0.32291068  0.90618457  1
  O  O62  1  0.58325058  0.17705651  0.20815342  1
  O  O63  1  0.32291068  0.90618457  0.03123282  1
  O  O64  1  0.53143890  0.40631209  0.82310042  1
  O  O65  1  0.37477484  0.29187005  0.46893535  1
  O  O66  1  0.03108579  0.20818822  0.12517045  1
  O  O67  1  0.20818822  0.12517045  0.03108579  1
  O  O68  1  0.41692244  0.09409026  0.62506670  1
  O  O69  1  0.79184658  0.41674942  0.82294349  1
  O  O70  1  0.20815342  0.58325058  0.17705651  1
  O  O71  1  0.17689958  0.46856110  0.59368791  1
  O  O72  1  0.46893535  0.37477484  0.29187005  1
  O  O73  1  0.40617864  0.08322579  0.87491292  1
  O  O74  1  0.37493330  0.58307756  0.90590974  1
  O  O75  1  0.91663790  0.29175011  0.32288329  1
  O  O76  1  0.41674942  0.82294349  0.79184658  1
  O  O77  1  0.08336210  0.70824989  0.67711671  1
  O  O78  1  0.70812995  0.53106465  0.62522516  1
  O  O79  1  0.59382136  0.91677421  0.12508708  1
