# generated using pymatgen
data_BaTiO3
_symmetry_space_group_name_H-M   'P 1'
_cell_length_a   5.78755773
_cell_length_b   5.78755773
_cell_length_c   14.09708545
_cell_angle_alpha   90.00000000
_cell_angle_beta   90.00000000
_cell_angle_gamma   120.00000004
_symmetry_Int_Tables_number   1
_chemical_formula_structural   BaTiO3
_chemical_formula_sum   'Ba6 Ti6 O18'
_cell_volume   408.93156640
_cell_formula_units_Z   6
loop_
 _symmetry_equiv_pos_site_id
 _symmetry_equiv_pos_as_xyz
  1  'x, y, z'
loop_
 _atom_site_type_symbol
 _atom_site_label
 _atom_site_symmetry_multiplicity
 _atom_site_fract_x
 _atom_site_fract_y
 _atom_site_fract_z
 _atom_site_occupancy
  O  O0  1  0.83472164  0.16527836  0.41943080  1
  O  O1  1  0.83472164  0.66944328  0.41943080  1
  O  O2  1  0.33055672  0.16527836  0.41943080  1
  O  O3  1  0.66944328  0.83472164  0.91943080  1
  O  O4  1  0.16527836  0.33055672  0.58056920  1
  O  O5  1  0.16527836  0.83472164  0.91943080  1
  O  O6  1  0.16527836  0.33055672  0.91943080  1
  O  O7  1  0.83472164  0.16527836  0.08056920  1
  O  O8  1  0.33055672  0.16527836  0.08056920  1
  O  O9  1  0.66944328  0.83472164  0.58056920  1
  O  O10  1  0.16527836  0.83472164  0.58056920  1
  O  O11  1  0.83472164  0.66944328  0.08056920  1
  O  O12  1  0.51792434  0.03584868  0.25000000  1
  O  O13  1  0.48207566  0.51792434  0.75000000  1
  O  O14  1  0.03584868  0.51792434  0.75000000  1
  O  O15  1  0.96415132  0.48207566  0.25000000  1
  O  O16  1  0.51792434  0.48207566  0.25000000  1
  O  O17  1  0.48207566  0.96415132  0.75000000  1
  Ti  Ti18  1  0.33333333  0.66666667  0.65387337  1
  Ti  Ti19  1  0.66666667  0.33333333  0.15387337  1
  Ti  Ti20  1  0.66666667  0.33333333  0.34612663  1
  Ti  Ti21  1  0.33333333  0.66666667  0.84612663  1
  Ti  Ti22  1  0.00000000  0.00000000  0.50000000  1
  Ti  Ti23  1  0.00000000  0.00000000  0.00000000  1
  Ba  Ba24  1  0.33333333  0.66666667  0.40332719  1
  Ba  Ba25  1  0.66666667  0.33333333  0.90332719  1
  Ba  Ba26  1  0.66666667  0.33333333  0.59667281  1
  Ba  Ba27  1  0.33333333  0.66666667  0.09667281  1
  Ba  Ba28  1  0.00000000  0.00000000  0.75000000  1
  Ba  Ba29  1  0.00000000  0.00000000  0.25000000  1
