# generated using pymatgen
data_Li6MnS4
_symmetry_space_group_name_H-M   'P 1'
_cell_length_a   8.04704300
_cell_length_b   8.04718183
_cell_length_c   5.80386019
_cell_angle_alpha   89.99915505
_cell_angle_beta   90.00126723
_cell_angle_gamma   89.99971997
_symmetry_Int_Tables_number   1
_chemical_formula_structural   Li6MnS4
_chemical_formula_sum   'Li12 Mn2 S8'
_cell_volume   375.83487611
_cell_formula_units_Z   2
loop_
 _symmetry_equiv_pos_site_id
 _symmetry_equiv_pos_as_xyz
  1  'x, y, z'
loop_
 _atom_site_type_symbol
 _atom_site_label
 _atom_site_symmetry_multiplicity
 _atom_site_fract_x
 _atom_site_fract_y
 _atom_site_fract_z
 _atom_site_occupancy
  Li  Li0  1  0.02433237  0.52432216  0.75000586  1
  Li  Li1  1  0.02434285  0.97568811  0.75004394  1
  Li  Li2  1  0.25000838  0.25000410  0.71234342  1
  Li  Li3  1  0.25001650  0.25001337  0.21233447  1
  Li  Li4  1  0.47568773  0.52433081  0.75000196  1
  Li  Li5  1  0.47568661  0.97570397  0.74998467  1
  Li  Li6  1  0.52432648  0.02434436  0.24998796  1
  Li  Li7  1  0.52432050  0.47569009  0.24999345  1
  Li  Li8  1  0.74999939  0.75001010  0.28768542  1
  Li  Li9  1  0.75001093  0.75001549  0.78767336  1
  Li  Li10  1  0.97569288  0.02433210  0.25001336  1
  Li  Li11  1  0.97568957  0.47567346  0.25000570  1
  Mn  Mn12  1  0.25000921  0.75000473  0.25002137  1
  Mn  Mn13  1  0.75000505  0.25001143  0.74997148  1
  S  S14  1  0.00691845  0.24998866  0.96569983  1
  S  S15  1  0.25000446  0.00692330  0.46569766  1
  S  S16  1  0.25000619  0.49308836  0.46568916  1
  S  S17  1  0.49309967  0.25001634  0.96568714  1
  S  S18  1  0.50691303  0.75002305  0.03427595  1
  S  S19  1  0.75001902  0.99310070  0.53427924  1
  S  S20  1  0.75000744  0.50691951  0.53428826  1
  S  S21  1  0.99308431  0.74997478  0.03431833  1
