# generated using pymatgen
data_LaGe2
_symmetry_space_group_name_H-M   'P 1'
_cell_length_a   4.31142221
_cell_length_b   4.33054729
_cell_length_c   8.41484867
_cell_angle_alpha   104.91085153
_cell_angle_beta   104.84348297
_cell_angle_gamma   89.99999998
_symmetry_Int_Tables_number   1
_chemical_formula_structural   LaGe2
_chemical_formula_sum   'La2 Ge4'
_cell_volume   146.38942501
_cell_formula_units_Z   2
loop_
 _symmetry_equiv_pos_site_id
 _symmetry_equiv_pos_as_xyz
  1  'x, y, z'
loop_
 _atom_site_type_symbol
 _atom_site_label
 _atom_site_symmetry_multiplicity
 _atom_site_fract_x
 _atom_site_fract_y
 _atom_site_fract_z
 _atom_site_occupancy
  Ge  Ge0  1  0.54287557  0.79287557  0.58575113  1
  Ge  Ge1  1  0.45712443  0.20712443  0.41424887  1
  Ge  Ge2  1  0.70631761  0.95631761  0.91263523  1
  Ge  Ge3  1  0.29368239  0.04368239  0.08736477  1
  La  La4  1  0.12521464  0.37521464  0.75042929  1
  La  La5  1  0.87478536  0.62478536  0.24957071  1
