# generated using pymatgen
data_TmMg3
_symmetry_space_group_name_H-M   'P 1'
_cell_length_a   6.62749743
_cell_length_b   6.62749826
_cell_length_c   5.17302397
_cell_angle_alpha   90.00000000
_cell_angle_beta   90.00000000
_cell_angle_gamma   120.00000092
_symmetry_Int_Tables_number   1
_chemical_formula_structural   TmMg3
_chemical_formula_sum   'Tm2 Mg6'
_cell_volume   196.77698795
_cell_formula_units_Z   2
loop_
 _symmetry_equiv_pos_site_id
 _symmetry_equiv_pos_as_xyz
  1  'x, y, z'
loop_
 _atom_site_type_symbol
 _atom_site_label
 _atom_site_symmetry_multiplicity
 _atom_site_fract_x
 _atom_site_fract_y
 _atom_site_fract_z
 _atom_site_occupancy
  Tm  Tm0  1  0.66666700  0.33333200  0.25000000  1
  Tm  Tm1  1  0.33333300  0.66666700  0.75000100  1
  Mg  Mg2  1  0.16391265  0.32782529  0.25000000  1
  Mg  Mg3  1  0.16391265  0.83608835  0.25000000  1
  Mg  Mg4  1  0.67217571  0.83608835  0.25000000  1
  Mg  Mg5  1  0.32782529  0.16391265  0.75000100  1
  Mg  Mg6  1  0.83608635  0.16391265  0.75000100  1
  Mg  Mg7  1  0.83608835  0.67217571  0.75000100  1
