# generated using pymatgen
data_CsTmO2
_symmetry_space_group_name_H-M   'P 1'
_cell_length_a   3.50569236
_cell_length_b   3.50568806
_cell_length_c   13.69877277
_cell_angle_alpha   89.99750421
_cell_angle_beta   90.00165489
_cell_angle_gamma   119.99996565
_symmetry_Int_Tables_number   1
_chemical_formula_structural   CsTmO2
_chemical_formula_sum   'Cs2 Tm2 O4'
_cell_volume   145.80066834
_cell_formula_units_Z   2
loop_
 _symmetry_equiv_pos_site_id
 _symmetry_equiv_pos_as_xyz
  1  'x, y, z'
loop_
 _atom_site_type_symbol
 _atom_site_label
 _atom_site_symmetry_multiplicity
 _atom_site_fract_x
 _atom_site_fract_y
 _atom_site_fract_z
 _atom_site_occupancy
  Cs  Cs0  1  0.33332374  0.66661785  0.75000161  1
  Cs  Cs1  1  0.66668793  0.33330621  0.25000235  1
  Tm  Tm2  1  0.99997760  0.99996704  0.00000009  1
  Tm  Tm3  1  0.99999632  0.00005325  0.50000076  1
  O  O4  1  0.33333928  0.66673166  0.41902648  1
  O  O5  1  0.33332563  0.66661974  0.08097176  1
  O  O6  1  0.66668413  0.33337389  0.58097088  1
  O  O7  1  0.66666537  0.33333036  0.91902507  1
