# generated using pymatgen
data_TmCoSi2
_symmetry_space_group_name_H-M   'P 1'
_cell_length_a   3.97709149
_cell_length_b   3.95941452
_cell_length_c   8.32721548
_cell_angle_alpha   103.75315658
_cell_angle_beta   90.00000000
_cell_angle_gamma   90.00000000
_symmetry_Int_Tables_number   1
_chemical_formula_structural   TmCoSi2
_chemical_formula_sum   'Tm2 Co2 Si4'
_cell_volume   127.36869500
_cell_formula_units_Z   2
loop_
 _symmetry_equiv_pos_site_id
 _symmetry_equiv_pos_as_xyz
  1  'x, y, z'
loop_
 _atom_site_type_symbol
 _atom_site_label
 _atom_site_symmetry_multiplicity
 _atom_site_fract_x
 _atom_site_fract_y
 _atom_site_fract_z
 _atom_site_occupancy
  Tm  Tm0  1  0.25000000  0.39318914  0.78637829  1
  Tm  Tm1  1  0.75000000  0.60681086  0.21362171  1
  Co  Co2  1  0.25000000  0.17832148  0.35664296  1
  Co  Co3  1  0.75000000  0.82167852  0.64335704  1
  Si  Si4  1  0.25000000  0.04188983  0.08377966  1
  Si  Si5  1  0.75000000  0.95811017  0.91622034  1
  Si  Si6  1  0.25000000  0.75081881  0.50163762  1
  Si  Si7  1  0.75000000  0.24918119  0.49836238  1
