# generated using pymatgen
data_Ge(Te2As)2
_symmetry_space_group_name_H-M   'P 1'
_cell_length_a   13.99396844
_cell_length_b   13.99396844
_cell_length_c   13.99396844
_cell_angle_alpha   16.95947183
_cell_angle_beta   16.95947181
_cell_angle_gamma   16.95947181
_symmetry_Int_Tables_number   1
_chemical_formula_structural   Ge(Te2As)2
_chemical_formula_sum   'Ge1 Te4 As2'
_cell_volume   203.40928267
_cell_formula_units_Z   1
loop_
 _symmetry_equiv_pos_site_id
 _symmetry_equiv_pos_as_xyz
  1  'x, y, z'
loop_
 _atom_site_type_symbol
 _atom_site_label
 _atom_site_symmetry_multiplicity
 _atom_site_fract_x
 _atom_site_fract_y
 _atom_site_fract_z
 _atom_site_occupancy
  Ge  Ge0  1  0.00000000  0.00000000  0.00000000  1
  As  As1  1  0.42119031  0.42119031  0.42119031  1
  As  As2  1  0.57880969  0.57880969  0.57880969  1
  Te  Te3  1  0.87432447  0.87432447  0.87432447  1
  Te  Te4  1  0.70940691  0.70940691  0.70940691  1
  Te  Te5  1  0.12567553  0.12567553  0.12567553  1
  Te  Te6  1  0.29059309  0.29059309  0.29059309  1
