# generated using pymatgen
data_ScSi3Ni2
_symmetry_space_group_name_H-M   'P 1'
_cell_length_a   3.79038612
_cell_length_b   3.79038613
_cell_length_c   12.19802212
_cell_angle_alpha   98.93819079
_cell_angle_beta   98.93819081
_cell_angle_gamma   90.00000002
_symmetry_Int_Tables_number   1
_chemical_formula_structural   ScSi3Ni2
_chemical_formula_sum   'Sc2 Si6 Ni4'
_cell_volume   170.96655269
_cell_formula_units_Z   2
loop_
 _symmetry_equiv_pos_site_id
 _symmetry_equiv_pos_as_xyz
  1  'x, y, z'
loop_
 _atom_site_type_symbol
 _atom_site_label
 _atom_site_symmetry_multiplicity
 _atom_site_fract_x
 _atom_site_fract_y
 _atom_site_fract_z
 _atom_site_occupancy
  Si  Si0  1  0.95029888  0.45029888  0.90059775  1
  Si  Si1  1  0.45029888  0.95029888  0.90059775  1
  Si  Si2  1  0.04970112  0.54970112  0.09940225  1
  Si  Si3  1  0.30606145  0.30606145  0.61212290  1
  Si  Si4  1  0.69393855  0.69393855  0.38787710  1
  Si  Si5  1  0.54970112  0.04970112  0.09940225  1
  Sc  Sc6  1  0.85041714  0.85041714  0.70083428  1
  Sc  Sc7  1  0.14958286  0.14958286  0.29916572  1
  Ni  Ni8  1  0.75000000  0.25000000  0.50000000  1
  Ni  Ni9  1  0.25000000  0.75000000  0.50000000  1
  Ni  Ni10  1  0.40022691  0.40022691  0.80045383  1
  Ni  Ni11  1  0.59977309  0.59977309  0.19954617  1
