# generated using pymatgen
data_TaSe2
_symmetry_space_group_name_H-M   'P 1'
_cell_length_a   3.48796023
_cell_length_b   3.48796024
_cell_length_c   27.24807671
_cell_angle_alpha   90.00000000
_cell_angle_beta   90.00000000
_cell_angle_gamma   120.00000004
_symmetry_Int_Tables_number   1
_chemical_formula_structural   TaSe2
_chemical_formula_sum   'Ta4 Se8'
_cell_volume   287.08436066
_cell_formula_units_Z   4
loop_
 _symmetry_equiv_pos_site_id
 _symmetry_equiv_pos_as_xyz
  1  'x, y, z'
loop_
 _atom_site_type_symbol
 _atom_site_label
 _atom_site_symmetry_multiplicity
 _atom_site_fract_x
 _atom_site_fract_y
 _atom_site_fract_z
 _atom_site_occupancy
  Se  Se0  1  0.33333333  0.66666667  0.06101427  1
  Se  Se1  1  0.66666667  0.33333333  0.56101427  1
  Se  Se2  1  0.66666667  0.33333333  0.93898573  1
  Se  Se3  1  0.33333333  0.66666667  0.43898573  1
  Se  Se4  1  0.33333333  0.66666667  0.68863970  1
  Se  Se5  1  0.66666667  0.33333333  0.18863970  1
  Se  Se6  1  0.66666667  0.33333333  0.31136030  1
  Se  Se7  1  0.33333333  0.66666667  0.81136030  1
  Ta  Ta8  1  0.00000000  0.00000000  0.00000000  1
  Ta  Ta9  1  0.00000000  0.00000000  0.50000000  1
  Ta  Ta10  1  0.00000000  0.00000000  0.25000000  1
  Ta  Ta11  1  0.00000000  0.00000000  0.75000000  1
