# generated using pymatgen
data_Ta2Se3
_symmetry_space_group_name_H-M   'P 1'
_cell_length_a   3.42736404
_cell_length_b   6.62862810
_cell_length_c   9.31089211
_cell_angle_alpha   104.39559387
_cell_angle_beta   90.00000000
_cell_angle_gamma   90.00000000
_symmetry_Int_Tables_number   1
_chemical_formula_structural   Ta2Se3
_chemical_formula_sum   'Ta4 Se6'
_cell_volume   204.88995727
_cell_formula_units_Z   2
loop_
 _symmetry_equiv_pos_site_id
 _symmetry_equiv_pos_as_xyz
  1  'x, y, z'
loop_
 _atom_site_type_symbol
 _atom_site_label
 _atom_site_symmetry_multiplicity
 _atom_site_fract_x
 _atom_site_fract_y
 _atom_site_fract_z
 _atom_site_occupancy
  Se  Se0  1  0.25000000  0.72780911  0.51308645  1
  Se  Se1  1  0.75000000  0.27219089  0.48691355  1
  Se  Se2  1  0.25000000  0.97225737  0.15726889  1
  Se  Se3  1  0.75000000  0.02774263  0.84273111  1
  Se  Se4  1  0.75000000  0.47650999  0.20562206  1
  Se  Se5  1  0.25000000  0.52349001  0.79437794  1
  Ta  Ta6  1  0.25000000  0.11366519  0.63494329  1
  Ta  Ta7  1  0.75000000  0.88633481  0.36505671  1
  Ta  Ta8  1  0.25000000  0.32180255  0.00079999  1
  Ta  Ta9  1  0.75000000  0.67819745  0.99920001  1
