# generated using pymatgen
data_NbSe2
_symmetry_space_group_name_H-M   'P 1'
_cell_length_a   3.49999803
_cell_length_b   3.49768524
_cell_length_c   37.79511457
_cell_angle_alpha   90.00000000
_cell_angle_beta   90.00000000
_cell_angle_gamma   120.02186597
_symmetry_Int_Tables_number   1
_chemical_formula_structural   NbSe2
_chemical_formula_sum   'Nb4 Se8'
_cell_volume   400.60751241
_cell_formula_units_Z   4
loop_
 _symmetry_equiv_pos_site_id
 _symmetry_equiv_pos_as_xyz
  1  'x, y, z'
loop_
 _atom_site_type_symbol
 _atom_site_label
 _atom_site_symmetry_multiplicity
 _atom_site_fract_x
 _atom_site_fract_y
 _atom_site_fract_z
 _atom_site_occupancy
  Nb  Nb0  1  0.24134221  0.00109109  0.41449051  1
  Nb  Nb1  1  0.24025111  0.99890891  0.58550949  1
  Nb  Nb2  1  0.75865779  0.99890891  0.91449051  1
  Nb  Nb3  1  0.75974889  0.00109109  0.08550949  1
  Se  Se4  1  0.09292754  0.66838150  0.13039010  1
  Se  Se5  1  0.42454604  0.33161850  0.86960990  1
  Se  Se6  1  0.90651414  0.33214096  0.54108134  1
  Se  Se7  1  0.42562681  0.33214096  0.95891866  1
  Se  Se8  1  0.57545396  0.66838150  0.36960990  1
  Se  Se9  1  0.09348586  0.66785904  0.04108134  1
  Se  Se10  1  0.90707246  0.33161850  0.63039010  1
  Se  Se11  1  0.57437319  0.66785904  0.45891866  1
