# generated using pymatgen
data_GdAlO3
_symmetry_space_group_name_H-M   'P 1'
_cell_length_a   5.28457078
_cell_length_b   5.37112566
_cell_length_c   7.51058523
_cell_angle_alpha   90.00000000
_cell_angle_beta   90.00000000
_cell_angle_gamma   90.00000000
_symmetry_Int_Tables_number   1
_chemical_formula_structural   GdAlO3
_chemical_formula_sum   'Gd4 Al4 O12'
_cell_volume   213.18115505
_cell_formula_units_Z   4
loop_
 _symmetry_equiv_pos_site_id
 _symmetry_equiv_pos_as_xyz
  1  'x, y, z'
loop_
 _atom_site_type_symbol
 _atom_site_label
 _atom_site_symmetry_multiplicity
 _atom_site_fract_x
 _atom_site_fract_y
 _atom_site_fract_z
 _atom_site_occupancy
  O  O0  1  0.71290349  0.28759219  0.45898631  1
  O  O1  1  0.21290349  0.21240781  0.54101369  1
  O  O2  1  0.78709651  0.78759219  0.04101369  1
  O  O3  1  0.28709651  0.71240781  0.95898631  1
  O  O4  1  0.28709651  0.71240781  0.54101369  1
  O  O5  1  0.78709651  0.78759219  0.45898631  1
  O  O6  1  0.21290349  0.21240781  0.95898631  1
  O  O7  1  0.71290349  0.28759219  0.04101369  1
  O  O8  1  0.07718078  0.48259371  0.25000000  1
  O  O9  1  0.57718078  0.01740629  0.75000000  1
  O  O10  1  0.42281922  0.98259371  0.25000000  1
  O  O11  1  0.92281922  0.51740629  0.75000000  1
  Al  Al12  1  0.50000000  0.00000000  0.50000000  1
  Al  Al13  1  0.00000000  0.50000000  0.50000000  1
  Al  Al14  1  0.00000000  0.50000000  0.00000000  1
  Al  Al15  1  0.50000000  0.00000000  0.00000000  1
  Gd  Gd16  1  0.01007121  0.95642659  0.75000000  1
  Gd  Gd17  1  0.51007121  0.54357341  0.25000000  1
  Gd  Gd18  1  0.48992879  0.45642659  0.75000000  1
  Gd  Gd19  1  0.98992879  0.04357341  0.25000000  1
