# generated using pymatgen
data_Ho2O3
_symmetry_space_group_name_H-M   'P 1'
_cell_length_a   9.18903598
_cell_length_b   9.18903598
_cell_length_c   9.18903598
_cell_angle_alpha   109.47122062
_cell_angle_beta   109.47122061
_cell_angle_gamma   109.47122064
_symmetry_Int_Tables_number   1
_chemical_formula_structural   Ho2O3
_chemical_formula_sum   'Ho16 O24'
_cell_volume   597.29374340
_cell_formula_units_Z   8
loop_
 _symmetry_equiv_pos_site_id
 _symmetry_equiv_pos_as_xyz
  1  'x, y, z'
loop_
 _atom_site_type_symbol
 _atom_site_label
 _atom_site_symmetry_multiplicity
 _atom_site_fract_x
 _atom_site_fract_y
 _atom_site_fract_z
 _atom_site_occupancy
  O  O0  1  0.72927957  0.26051499  0.77198902  1
  O  O1  1  0.98852598  0.95729056  0.72801098  1
  O  O2  1  0.51147402  0.23948501  0.96876458  1
  O  O3  1  0.54270944  0.53123542  0.77072043  1
  O  O4  1  0.53123542  0.77072043  0.54270944  1
  O  O5  1  0.77198902  0.72927957  0.26051499  1
  O  O6  1  0.95729056  0.72801098  0.98852598  1
  O  O7  1  0.96876458  0.51147402  0.23948501  1
  O  O8  1  0.26051499  0.77198902  0.72927957  1
  O  O9  1  0.72801098  0.98852598  0.95729056  1
  O  O10  1  0.23948501  0.96876458  0.51147402  1
  O  O11  1  0.77072043  0.54270944  0.53123542  1
  O  O12  1  0.04271489  0.27192815  0.01144137  1
  O  O13  1  0.76048678  0.03127352  0.48855863  1
  O  O14  1  0.73951322  0.22807185  0.27078675  1
  O  O15  1  0.46872648  0.22921325  0.45728511  1
  O  O16  1  0.45728511  0.46872648  0.22921325  1
  O  O17  1  0.22807185  0.27078675  0.73951322  1
  O  O18  1  0.48855863  0.76048678  0.03127352  1
  O  O19  1  0.27192815  0.01144137  0.04271489  1
  O  O20  1  0.27078675  0.73951322  0.22807185  1
  O  O21  1  0.03127352  0.48855863  0.76048678  1
  O  O22  1  0.01144137  0.04271489  0.27192815  1
  O  O23  1  0.22921325  0.45728511  0.46872648  1
  Ho  Ho24  1  0.75000000  0.78267269  0.03267269  1
  Ho  Ho25  1  0.46732731  0.25000000  0.71732731  1
  Ho  Ho26  1  0.71732731  0.46732731  0.25000000  1
  Ho  Ho27  1  0.03267269  0.75000000  0.78267269  1
  Ho  Ho28  1  0.78267269  0.03267269  0.75000000  1
  Ho  Ho29  1  0.25000000  0.71732731  0.46732731  1
  Ho  Ho30  1  0.75000000  0.28271539  0.53271539  1
  Ho  Ho31  1  0.96728461  0.25000000  0.21728461  1
  Ho  Ho32  1  0.21728461  0.96728461  0.25000000  1
  Ho  Ho33  1  0.53271539  0.75000000  0.28271539  1
  Ho  Ho34  1  0.28271539  0.53271539  0.75000000  1
  Ho  Ho35  1  0.25000000  0.21728461  0.96728461  1
  Ho  Ho36  1  0.00006088  0.50000000  0.00000000  1
  Ho  Ho37  1  0.50000000  0.00000000  0.00006088  1
  Ho  Ho38  1  0.00000000  0.00006088  0.50000000  1
  Ho  Ho39  1  0.49993912  0.49993912  0.49993912  1
