# generated using pymatgen
data_AlPO4
_symmetry_space_group_name_H-M   'P 1'
_cell_length_a   5.05495885
_cell_length_b   5.05495885
_cell_length_c   11.16436602
_cell_angle_alpha   90.00000000
_cell_angle_beta   90.00000000
_cell_angle_gamma   119.99999995
_symmetry_Int_Tables_number   1
_chemical_formula_structural   AlPO4
_chemical_formula_sum   'Al3 P3 O12'
_cell_volume   247.05858353
_cell_formula_units_Z   3
loop_
 _symmetry_equiv_pos_site_id
 _symmetry_equiv_pos_as_xyz
  1  'x, y, z'
loop_
 _atom_site_type_symbol
 _atom_site_label
 _atom_site_symmetry_multiplicity
 _atom_site_fract_x
 _atom_site_fract_y
 _atom_site_fract_z
 _atom_site_occupancy
  O  O0  1  0.17095481  0.75351511  0.22186660  1
  O  O1  1  0.24648489  0.41743970  0.88853327  1
  O  O2  1  0.58256030  0.82904519  0.55519994  1
  O  O3  1  0.41743970  0.24648489  0.11146673  1
  O  O4  1  0.82904519  0.58256030  0.44480006  1
  O  O5  1  0.75351511  0.17095481  0.77813340  1
  O  O6  1  0.71988144  0.13753190  0.26486526  1
  O  O7  1  0.86246810  0.58234954  0.93153192  1
  O  O8  1  0.41765046  0.28011856  0.59819859  1
  O  O9  1  0.58234954  0.86246810  0.06846808  1
  O  O10  1  0.28011856  0.41765046  0.40180141  1
  O  O11  1  0.13753190  0.71988144  0.73513474  1
  Al  Al12  1  0.47298588  0.00000000  0.66666667  1
  Al  Al13  1  0.00000000  0.47298588  0.33333333  1
  Al  Al14  1  0.52701412  0.52701412  0.00000000  1
  P  P15  1  0.47350281  0.00000000  0.16666667  1
  P  P16  1  1.00000000  0.47350281  0.83333333  1
  P  P17  1  0.52649719  0.52649719  0.50000000  1
