# generated using pymatgen
data_BiBr3
_symmetry_space_group_name_H-M   'P 1'
_cell_length_a   7.42147862
_cell_length_b   12.72940593
_cell_length_c   7.53137956
_cell_angle_alpha   90.00000000
_cell_angle_beta   108.63703226
_cell_angle_gamma   90.00000000
_symmetry_Int_Tables_number   1
_chemical_formula_structural   BiBr3
_chemical_formula_sum   'Bi4 Br12'
_cell_volume   674.18762136
_cell_formula_units_Z   4
loop_
 _symmetry_equiv_pos_site_id
 _symmetry_equiv_pos_as_xyz
  1  'x, y, z'
loop_
 _atom_site_type_symbol
 _atom_site_label
 _atom_site_symmetry_multiplicity
 _atom_site_fract_x
 _atom_site_fract_y
 _atom_site_fract_z
 _atom_site_occupancy
  Bi  Bi0  1  0.48047800  0.33278017  0.99111521  1
  Bi  Bi1  1  0.01952200  0.83278017  0.00888479  1
  Bi  Bi2  1  0.98047800  0.16721983  0.99111521  1
  Bi  Bi3  1  0.51952200  0.66721983  0.00888479  1
  Br  Br4  1  0.21691616  0.18439676  0.75090665  1
  Br  Br5  1  0.28645291  0.50787731  0.76392993  1
  Br  Br6  1  0.22901559  0.32742759  0.21778399  1
  Br  Br7  1  0.27098441  0.82742759  0.78221601  1
  Br  Br8  1  0.21354709  0.00787731  0.23607007  1
  Br  Br9  1  0.71691616  0.31560324  0.75090665  1
  Br  Br10  1  0.28308384  0.68439676  0.24909335  1
  Br  Br11  1  0.78645291  0.99212269  0.76392993  1
  Br  Br12  1  0.72901559  0.17257241  0.21778399  1
  Br  Br13  1  0.77098441  0.67257241  0.78221601  1
  Br  Br14  1  0.71354709  0.49212269  0.23607007  1
  Br  Br15  1  0.78308384  0.81560324  0.24909335  1
