# generated using pymatgen
data_SrCaTl2
_symmetry_space_group_name_H-M   'P 1'
_cell_length_a   5.67258038
_cell_length_b   5.67253598
_cell_length_c   5.67258974
_cell_angle_alpha   60.00033396
_cell_angle_beta   59.99999019
_cell_angle_gamma   60.00024077
_symmetry_Int_Tables_number   1
_chemical_formula_structural   SrCaTl2
_chemical_formula_sum   'Sr1 Ca1 Tl2'
_cell_volume   129.07024911
_cell_formula_units_Z   1
loop_
 _symmetry_equiv_pos_site_id
 _symmetry_equiv_pos_as_xyz
  1  'x, y, z'
loop_
 _atom_site_type_symbol
 _atom_site_label
 _atom_site_symmetry_multiplicity
 _atom_site_fract_x
 _atom_site_fract_y
 _atom_site_fract_z
 _atom_site_occupancy
  Sr  Sr0  1  0.75000010  0.74999993  0.74999931  1
  Ca  Ca1  1  0.24999925  0.24999914  0.25000050  1
  Tl  Tl2  1  0.99999996  0.99999973  0.99999956  1
  Tl  Tl3  1  0.49999969  0.50000020  0.49999964  1
