# generated using pymatgen
data_RbCuBr3
_symmetry_space_group_name_H-M   'P 1'
_cell_length_a   5.17966308
_cell_length_b   5.18819472
_cell_length_c   5.19182966
_cell_angle_alpha   90.07442037
_cell_angle_beta   90.01273217
_cell_angle_gamma   90.05079779
_symmetry_Int_Tables_number   1
_chemical_formula_structural   RbCuBr3
_chemical_formula_sum   'Rb1 Cu1 Br3'
_cell_volume   139.52038469
_cell_formula_units_Z   1
loop_
 _symmetry_equiv_pos_site_id
 _symmetry_equiv_pos_as_xyz
  1  'x, y, z'
loop_
 _atom_site_type_symbol
 _atom_site_label
 _atom_site_symmetry_multiplicity
 _atom_site_fract_x
 _atom_site_fract_y
 _atom_site_fract_z
 _atom_site_occupancy
  Rb  Rb0  1  0.99453842  0.99010010  0.98568910  1
  Cu  Cu1  1  0.49344362  0.48944454  0.48552084  1
  Br  Br2  1  0.49622549  0.49286432  0.98587595  1
  Br  Br3  1  0.49216305  0.98976522  0.48782007  1
  Br  Br4  1  0.99362843  0.48782782  0.48509404  1
