# generated using pymatgen
data_Ti2VTe4
_symmetry_space_group_name_H-M   'P 1'
_cell_length_a   3.85680255
_cell_length_b   6.94237670
_cell_length_c   7.45394663
_cell_angle_alpha   116.76821271
_cell_angle_beta   104.99345817
_cell_angle_gamma   90.00000000
_symmetry_Int_Tables_number   1
_chemical_formula_structural   Ti2VTe4
_chemical_formula_sum   'Ti2 V1 Te4'
_cell_volume   170.54947371
_cell_formula_units_Z   1
loop_
 _symmetry_equiv_pos_site_id
 _symmetry_equiv_pos_as_xyz
  1  'x, y, z'
loop_
 _atom_site_type_symbol
 _atom_site_label
 _atom_site_symmetry_multiplicity
 _atom_site_fract_x
 _atom_site_fract_y
 _atom_site_fract_z
 _atom_site_occupancy
  Ti  Ti0  1  0.25155012  0.29534550  0.50310024  1
  Ti  Ti1  1  0.74844988  0.70465450  0.49689976  1
  V  V2  1  0.00000000  -0.00000000  0.00000000  1
  Te  Te3  1  0.10742418  0.44649076  0.21484836  1
  Te  Te4  1  0.89257582  0.55350924  0.78515164  1
  Te  Te5  1  0.36621979  0.03269907  0.73243958  1
  Te  Te6  1  0.63378021  0.96730093  0.26756042  1
