# generated using pymatgen
data_Ga2CoRu
_symmetry_space_group_name_H-M   'P 1'
_cell_length_a   4.19257801
_cell_length_b   4.19204442
_cell_length_c   4.19234905
_cell_angle_alpha   60.06260842
_cell_angle_beta   60.05417863
_cell_angle_gamma   60.05044994
_symmetry_Int_Tables_number   1
_chemical_formula_structural   Ga2CoRu
_chemical_formula_sum   'Ga2 Co1 Ru1'
_cell_volume   52.16723479
_cell_formula_units_Z   1
loop_
 _symmetry_equiv_pos_site_id
 _symmetry_equiv_pos_as_xyz
  1  'x, y, z'
loop_
 _atom_site_type_symbol
 _atom_site_label
 _atom_site_symmetry_multiplicity
 _atom_site_fract_x
 _atom_site_fract_y
 _atom_site_fract_z
 _atom_site_occupancy
  Ga  Ga0  1  0.99992158  0.00001411  0.99996326  1
  Ga  Ga1  1  0.50006227  0.49999519  0.50003186  1
  Co  Co2  1  0.24996398  0.24998549  0.25001370  1
  Ru  Ru3  1  0.75005217  0.75000522  0.74999119  1
