# generated using pymatgen
data_Ba3Zr2S7
_symmetry_space_group_name_H-M   'P 1'
_cell_length_a   5.04089258
_cell_length_b   5.04089258
_cell_length_c   13.40700315
_cell_angle_alpha   100.83578355
_cell_angle_beta   100.83578351
_cell_angle_gamma   89.99999996
_symmetry_Int_Tables_number   1
_chemical_formula_structural   Ba3Zr2S7
_chemical_formula_sum   'Ba3 Zr2 S7'
_cell_volume   328.41901281
_cell_formula_units_Z   1
loop_
 _symmetry_equiv_pos_site_id
 _symmetry_equiv_pos_as_xyz
  1  'x, y, z'
loop_
 _atom_site_type_symbol
 _atom_site_label
 _atom_site_symmetry_multiplicity
 _atom_site_fract_x
 _atom_site_fract_y
 _atom_site_fract_z
 _atom_site_occupancy
  S  S0  1  0.50000000  0.50000000  0.00000000  1
  S  S1  1  0.69822122  0.69822122  0.39644245  1
  S  S2  1  0.30177878  0.30177878  0.60355755  1
  S  S3  1  0.59624564  0.09624564  0.19249128  1
  S  S4  1  0.09624564  0.59624564  0.19249128  1
  S  S5  1  0.90375436  0.40375436  0.80750872  1
  S  S6  1  0.40375436  0.90375436  0.80750872  1
  Zr  Zr7  1  0.60032450  0.60032450  0.20064900  1
  Zr  Zr8  1  0.39967550  0.39967550  0.79935100  1
  Ba  Ba9  1  0.81907745  0.81907745  0.63815489  1
  Ba  Ba10  1  0.18092255  0.18092255  0.36184511  1
  Ba  Ba11  1  0.00000000  0.00000000  0.00000000  1
