# generated using pymatgen
data_Mn2CrO4
_symmetry_space_group_name_H-M   'P 1'
_cell_length_a   6.01407071
_cell_length_b   6.01407071
_cell_length_c   6.12982349
_cell_angle_alpha   118.61028861
_cell_angle_beta   118.61028861
_cell_angle_gamma   90.69182203
_symmetry_Int_Tables_number   1
_chemical_formula_structural   Mn2CrO4
_chemical_formula_sum   'Mn4 Cr2 O8'
_cell_volume   162.27637702
_cell_formula_units_Z   2
loop_
 _symmetry_equiv_pos_site_id
 _symmetry_equiv_pos_as_xyz
  1  'x, y, z'
loop_
 _atom_site_type_symbol
 _atom_site_label
 _atom_site_symmetry_multiplicity
 _atom_site_fract_x
 _atom_site_fract_y
 _atom_site_fract_z
 _atom_site_occupancy
  Cr  Cr0  1  0.62500000  0.37500000  0.75000000  1
  Cr  Cr1  1  0.62500000  0.37500000  0.25000000  1
  Mn  Mn2  1  0.12500000  0.37500000  0.75000000  1
  Mn  Mn3  1  0.00235707  0.99764293  0.00000000  1
  Mn  Mn4  1  0.24764293  0.75235707  0.50000000  1
  Mn  Mn5  1  0.62500000  0.87500000  0.25000000  1
  O  O6  1  0.39142584  0.16852896  0.79377747  1
  O  O7  1  0.37115260  0.59349016  0.75338722  1
  O  O8  1  0.40650984  0.62884740  0.24661278  1
  O  O9  1  0.41852896  0.14142584  0.29377747  1
  O  O10  1  0.87884740  0.15650984  0.74661278  1
  O  O11  1  0.85857416  0.58147104  0.70622253  1
  O  O12  1  0.83147104  0.60857416  0.20622253  1
  O  O13  1  0.84349016  0.12115260  0.25338722  1
