# generated using pymatgen
data_BaHo2NiO5
_symmetry_space_group_name_H-M   'P 1'
_cell_length_a   3.78935828
_cell_length_b   5.78512228
_cell_length_c   6.65924058
_cell_angle_alpha   115.74508675
_cell_angle_beta   106.53008698
_cell_angle_gamma   90.00000005
_symmetry_Int_Tables_number   1
_chemical_formula_structural   BaHo2NiO5
_chemical_formula_sum   'Ba1 Ho2 Ni1 O5'
_cell_volume   124.76001377
_cell_formula_units_Z   1
loop_
 _symmetry_equiv_pos_site_id
 _symmetry_equiv_pos_as_xyz
  1  'x, y, z'
loop_
 _atom_site_type_symbol
 _atom_site_label
 _atom_site_symmetry_multiplicity
 _atom_site_fract_x
 _atom_site_fract_y
 _atom_site_fract_z
 _atom_site_occupancy
  O  O0  1  0.50000088  1.00000000  0.00000039  1
  O  O1  1  0.15053681  0.91058678  0.30107454  1
  O  O2  1  0.84946339  0.08941202  0.69892467  1
  O  O3  1  0.84946186  0.60951142  0.69892459  1
  O  O4  1  0.15053833  0.39048739  0.30107463  1
  Ni  Ni5  1  0.00000000  0.00000000  0.00000000  1
  Ba  Ba6  1  0.49999895  0.50000016  0.00000012  1
  Ho  Ho7  1  0.29660252  0.79660311  0.59320528  1
  Ho  Ho8  1  0.70339808  0.20339764  0.40679473  1
