# generated using pymatgen
data_HfO2
_symmetry_space_group_name_H-M   'P 1'
_cell_length_a   10.16892500
_cell_length_b   5.18420378
_cell_length_c   5.29677235
_cell_angle_alpha   90.00000000
_cell_angle_beta   90.00000000
_cell_angle_gamma   90.00000000
_symmetry_Int_Tables_number   1
_chemical_formula_structural   HfO2
_chemical_formula_sum   'Hf8 O16'
_cell_volume   279.23407640
_cell_formula_units_Z   8
loop_
 _symmetry_equiv_pos_site_id
 _symmetry_equiv_pos_as_xyz
  1  'x, y, z'
loop_
 _atom_site_type_symbol
 _atom_site_label
 _atom_site_symmetry_multiplicity
 _atom_site_fract_x
 _atom_site_fract_y
 _atom_site_fract_z
 _atom_site_occupancy
  Hf  Hf0  1  0.13794631  0.95873732  0.34278907  1
  Hf  Hf1  1  0.13794631  0.54126268  0.84278907  1
  Hf  Hf2  1  0.36205369  0.45873732  0.34278907  1
  Hf  Hf3  1  0.36205369  0.04126268  0.84278907  1
  Hf  Hf4  1  0.63794631  0.95873732  0.15721093  1
  Hf  Hf5  1  0.63794631  0.54126268  0.65721093  1
  Hf  Hf6  1  0.86205369  0.45873732  0.15721093  1
  Hf  Hf7  1  0.86205369  0.04126268  0.65721093  1
  O  O8  1  0.03355929  0.83242559  0.66749952  1
  O  O9  1  0.03355929  0.66757441  0.16749952  1
  O  O10  1  0.22433322  0.24891307  0.08730397  1
  O  O11  1  0.22433322  0.25108693  0.58730397  1
  O  O12  1  0.27566678  0.74891307  0.08730397  1
  O  O13  1  0.27566678  0.75108693  0.58730397  1
  O  O14  1  0.46644071  0.16757441  0.16749952  1
  O  O15  1  0.46644071  0.33242559  0.66749952  1
  O  O16  1  0.53355929  0.66757441  0.33250048  1
  O  O17  1  0.53355929  0.83242559  0.83250048  1
  O  O18  1  0.72433322  0.24891307  0.41269603  1
  O  O19  1  0.72433322  0.25108693  0.91269603  1
  O  O20  1  0.77566678  0.74891307  0.41269603  1
  O  O21  1  0.77566678  0.75108693  0.91269603  1
  O  O22  1  0.96644071  0.16757441  0.33250048  1
  O  O23  1  0.96644071  0.33242559  0.83250048  1
