# generated using pymatgen
data_Ca2MnO4
_symmetry_space_group_name_H-M   'P 1'
_cell_length_a   5.24892623
_cell_length_b   5.24892623
_cell_length_c   12.79494145
_cell_angle_alpha   101.83636243
_cell_angle_beta   101.83636243
_cell_angle_gamma   89.99999998
_symmetry_Int_Tables_number   1
_chemical_formula_structural   Ca2MnO4
_chemical_formula_sum   'Ca8 Mn4 O16'
_cell_volume   337.35901910
_cell_formula_units_Z   4
loop_
 _symmetry_equiv_pos_site_id
 _symmetry_equiv_pos_as_xyz
  1  'x, y, z'
loop_
 _atom_site_type_symbol
 _atom_site_label
 _atom_site_symmetry_multiplicity
 _atom_site_fract_x
 _atom_site_fract_y
 _atom_site_fract_z
 _atom_site_occupancy
  O  O0  1  0.92965924  0.07034076  0.75000000  1
  O  O1  1  0.17965924  0.42965924  0.25000000  1
  O  O2  1  0.57034076  0.82034076  0.25000000  1
  O  O3  1  0.32034076  0.67965924  0.75000000  1
  O  O4  1  0.07034076  0.92965924  0.25000000  1
  O  O5  1  0.82034076  0.57034076  0.75000000  1
  O  O6  1  0.42965924  0.17965924  0.75000000  1
  O  O7  1  0.67965924  0.32034076  0.25000000  1
  O  O8  1  0.45558572  0.20558572  0.41117144  1
  O  O9  1  0.70558572  0.95558572  0.91117144  1
  O  O10  1  0.04441428  0.29441428  0.58882856  1
  O  O11  1  0.79441428  0.54441428  0.08882856  1
  O  O12  1  0.20558572  0.45558572  0.91117144  1
  O  O13  1  0.95558572  0.70558572  0.41117144  1
  O  O14  1  0.29441428  0.04441428  0.08882856  1
  O  O15  1  0.54441428  0.79441428  0.58882856  1
  Ca  Ca16  1  0.30012773  0.55012773  0.10025547  1
  Ca  Ca17  1  0.05012773  0.80012773  0.60025547  1
  Ca  Ca18  1  0.19987227  0.94987227  0.89974453  1
  Ca  Ca19  1  0.44987227  0.69987227  0.39974453  1
  Ca  Ca20  1  0.55012773  0.30012773  0.60025547  1
  Ca  Ca21  1  0.80012773  0.05012773  0.10025547  1
  Ca  Ca22  1  0.94987227  0.19987227  0.39974453  1
  Ca  Ca23  1  0.69987227  0.44987227  0.89974453  1
  Mn  Mn24  1  0.12500000  0.37500000  0.75000000  1
  Mn  Mn25  1  0.87500000  0.62500000  0.25000000  1
  Mn  Mn26  1  0.37500000  0.12500000  0.25000000  1
  Mn  Mn27  1  0.62500000  0.87500000  0.75000000  1
