# generated using pymatgen
data_Sr2NiWO6
_symmetry_space_group_name_H-M   'P 1'
_cell_length_a   5.66000080
_cell_length_b   5.66000080
_cell_length_c   5.66000080
_cell_angle_alpha   59.99999999
_cell_angle_beta   60.00000001
_cell_angle_gamma   60.00000002
_symmetry_Int_Tables_number   1
_chemical_formula_structural   Sr2NiWO6
_chemical_formula_sum   'Sr2 Ni1 W1 O6'
_cell_volume   128.21371377
_cell_formula_units_Z   1
loop_
 _symmetry_equiv_pos_site_id
 _symmetry_equiv_pos_as_xyz
  1  'x, y, z'
loop_
 _atom_site_type_symbol
 _atom_site_label
 _atom_site_symmetry_multiplicity
 _atom_site_fract_x
 _atom_site_fract_y
 _atom_site_fract_z
 _atom_site_occupancy
  O  O0  1  0.24285913  0.75713982  0.75713996  1
  O  O1  1  0.24285913  0.75713982  0.24285959  1
  O  O2  1  0.75713964  0.24285955  0.75713984  1
  O  O3  1  0.24285901  0.24285955  0.75714086  1
  O  O4  1  0.75713964  0.24285955  0.24285947  1
  O  O5  1  0.75713976  0.75713982  0.24286035  1
  Ni  Ni6  1  0.49999902  0.50000078  0.50000024  1
  Sr  Sr7  1  0.75000131  0.74999899  0.74999917  1
  Sr  Sr8  1  0.24999951  0.25000039  0.24999923  1
  W  W9  1  0.00000000  0.00000000  0.00000000  1
