# generated using pymatgen
data_ZrO2
_symmetry_space_group_name_H-M   'P 1'
_cell_length_a   10.34123972
_cell_length_b   5.28844784
_cell_length_c   5.37288289
_cell_angle_alpha   90.00000000
_cell_angle_beta   90.00000000
_cell_angle_gamma   90.00000000
_symmetry_Int_Tables_number   1
_chemical_formula_structural   ZrO2
_chemical_formula_sum   'Zr8 O16'
_cell_volume   293.83816652
_cell_formula_units_Z   8
loop_
 _symmetry_equiv_pos_site_id
 _symmetry_equiv_pos_as_xyz
  1  'x, y, z'
loop_
 _atom_site_type_symbol
 _atom_site_label
 _atom_site_symmetry_multiplicity
 _atom_site_fract_x
 _atom_site_fract_y
 _atom_site_fract_z
 _atom_site_occupancy
  Zr  Zr0  1  0.13819708  0.54134798  0.84074056  1
  Zr  Zr1  1  0.13819708  0.95865202  0.34074056  1
  Zr  Zr2  1  0.36180292  0.45865202  0.34074056  1
  Zr  Zr3  1  0.36180292  0.04134798  0.84074056  1
  Zr  Zr4  1  0.63819708  0.95865202  0.15925944  1
  Zr  Zr5  1  0.63819708  0.54134798  0.65925944  1
  Zr  Zr6  1  0.86180292  0.45865202  0.15925944  1
  Zr  Zr7  1  0.86180292  0.04134798  0.65925944  1
  O  O8  1  0.03380343  0.83536638  0.67021321  1
  O  O9  1  0.03380343  0.66463362  0.17021321  1
  O  O10  1  0.22535371  0.25070343  0.08661886  1
  O  O11  1  0.22535371  0.24929657  0.58661886  1
  O  O12  1  0.27464629  0.75070343  0.08661886  1
  O  O13  1  0.27464629  0.74929657  0.58661886  1
  O  O14  1  0.46619657  0.16463362  0.17021321  1
  O  O15  1  0.46619657  0.33536638  0.67021321  1
  O  O16  1  0.53380343  0.66463362  0.32978679  1
  O  O17  1  0.53380343  0.83536638  0.82978679  1
  O  O18  1  0.72535371  0.25070343  0.41338114  1
  O  O19  1  0.72535371  0.24929657  0.91338114  1
  O  O20  1  0.77464629  0.75070343  0.41338114  1
  O  O21  1  0.77464629  0.74929657  0.91338114  1
  O  O22  1  0.96619657  0.16463362  0.32978679  1
  O  O23  1  0.96619657  0.33536638  0.82978679  1
