# generated using pymatgen
data_HfZrZn2
_symmetry_space_group_name_H-M   'P 1'
_cell_length_a   4.70174272
_cell_length_b   4.70174148
_cell_length_c   4.70174270
_cell_angle_alpha   59.99991264
_cell_angle_beta   60.00009169
_cell_angle_gamma   60.00004065
_symmetry_Int_Tables_number   1
_chemical_formula_structural   HfZrZn2
_chemical_formula_sum   'Hf1 Zr1 Zn2'
_cell_volume   73.49564669
_cell_formula_units_Z   1
loop_
 _symmetry_equiv_pos_site_id
 _symmetry_equiv_pos_as_xyz
  1  'x, y, z'
loop_
 _atom_site_type_symbol
 _atom_site_label
 _atom_site_symmetry_multiplicity
 _atom_site_fract_x
 _atom_site_fract_y
 _atom_site_fract_z
 _atom_site_occupancy
  Hf  Hf0  1  0.25000054  0.25000049  0.25000077  1
  Zr  Zr1  1  0.75000042  0.75000018  0.74999982  1
  Zn  Zn2  1  0.99999989  0.00000021  0.00000013  1
  Zn  Zn3  1  0.49999915  0.49999912  0.49999929  1
