# generated using pymatgen
data_Mn3(CoO4)2
_symmetry_space_group_name_H-M   'P 1'
_cell_length_a   5.02403743
_cell_length_b   5.87248225
_cell_length_c   9.39618681
_cell_angle_alpha   90.00000000
_cell_angle_beta   90.00000000
_cell_angle_gamma   90.00000000
_symmetry_Int_Tables_number   1
_chemical_formula_structural   Mn3(CoO4)2
_chemical_formula_sum   'Mn6 Co4 O16'
_cell_volume   277.22106121
_cell_formula_units_Z   2
loop_
 _symmetry_equiv_pos_site_id
 _symmetry_equiv_pos_as_xyz
  1  'x, y, z'
loop_
 _atom_site_type_symbol
 _atom_site_label
 _atom_site_symmetry_multiplicity
 _atom_site_fract_x
 _atom_site_fract_y
 _atom_site_fract_z
 _atom_site_occupancy
  Mn  Mn0  1  0.16271173  0.75874225  0.99946827  1
  Mn  Mn1  1  0.83728827  0.74125775  0.49946827  1
  Mn  Mn2  1  0.83728827  0.25874225  0.49946827  1
  Mn  Mn3  1  0.16271173  0.24125775  0.99946827  1
  Mn  Mn4  1  0.67241405  0.50000000  0.00123517  1
  Mn  Mn5  1  0.32758595  0.00000000  0.50123517  1
  Co  Co6  1  0.67227642  0.00000000  0.78606418  1
  Co  Co7  1  0.32772358  0.50000000  0.28606418  1
  Co  Co8  1  0.33642333  0.50000000  0.68023982  1
  Co  Co9  1  0.66357667  0.00000000  0.18023982  1
  O  O10  1  0.83892233  0.25935999  0.89513707  1
  O  O11  1  0.16107767  0.24064001  0.39513707  1
  O  O12  1  0.16107767  0.75935999  0.39513707  1
  O  O13  1  0.83892233  0.74064001  0.89513707  1
  O  O14  1  0.52122273  0.21994479  0.62230449  1
  O  O15  1  0.47877727  0.28005521  0.12230449  1
  O  O16  1  0.47877727  0.71994479  0.12230449  1
  O  O17  1  0.52122273  0.78005521  0.62230449  1
  O  O18  1  0.31692860  0.00000000  0.89426574  1
  O  O19  1  0.68307140  0.50000000  0.39426574  1
  O  O20  1  0.33766683  0.50000000  0.89204955  1
  O  O21  1  0.66233317  0.00000000  0.39204955  1
  O  O22  1  0.99552744  0.00000000  0.60680442  1
  O  O23  1  0.00447256  0.50000000  0.10680442  1
  O  O24  1  0.96771027  0.50000000  0.61362146  1
  O  O25  1  0.03228973  0.00000000  0.11362146  1
