# generated using pymatgen
data_Cu2SiS3
_symmetry_space_group_name_H-M   'P 1'
_cell_length_a   6.08059720
_cell_length_b   6.35415046
_cell_length_c   6.35415047
_cell_angle_alpha   119.59888400
_cell_angle_beta   90.00000000
_cell_angle_gamma   90.00000000
_symmetry_Int_Tables_number   1
_chemical_formula_structural   Cu2SiS3
_chemical_formula_sum   'Si2 Cu4 S6'
_cell_volume   213.46814855
_cell_formula_units_Z   2
loop_
 _symmetry_equiv_pos_site_id
 _symmetry_equiv_pos_as_xyz
  1  'x, y, z'
loop_
 _atom_site_type_symbol
 _atom_site_label
 _atom_site_symmetry_multiplicity
 _atom_site_fract_x
 _atom_site_fract_y
 _atom_site_fract_z
 _atom_site_occupancy
  Si  Si0  1  0.98931166  0.33155758  0.33155758  1
  Si  Si1  1  0.48931166  0.66844242  0.66844242  1
  S  S2  1  0.39444429  0.66027927  0.98406274  1
  S  S3  1  0.89444429  0.33972073  0.01593726  1
  S  S4  1  0.86165246  0.65582697  0.65582697  1
  S  S5  1  0.36165246  0.34417303  0.34417303  1
  S  S6  1  0.39444429  0.98406274  0.66027927  1
  S  S7  1  0.89444429  0.01593726  0.33972073  1
  Cu  Cu8  1  0.01957364  0.67646644  0.99836041  1
  Cu  Cu9  1  0.51957364  0.32353356  0.00163959  1
  Cu  Cu10  1  0.51957364  0.00163959  0.32353356  1
  Cu  Cu11  1  0.01957364  0.99836041  0.67646644  1
