# generated using pymatgen
data_Dy(BC)2
_symmetry_space_group_name_H-M   'P 1'
_cell_length_a   3.57096329
_cell_length_b   5.35165047
_cell_length_c   5.35165047
_cell_angle_alpha   90.00000000
_cell_angle_beta   90.00000000
_cell_angle_gamma   90.00000000
_symmetry_Int_Tables_number   1
_chemical_formula_structural   Dy(BC)2
_chemical_formula_sum   'Dy2 B4 C4'
_cell_volume   102.27296981
_cell_formula_units_Z   2
loop_
 _symmetry_equiv_pos_site_id
 _symmetry_equiv_pos_as_xyz
  1  'x, y, z'
loop_
 _atom_site_type_symbol
 _atom_site_label
 _atom_site_symmetry_multiplicity
 _atom_site_fract_x
 _atom_site_fract_y
 _atom_site_fract_z
 _atom_site_occupancy
  B  B0  1  0.50000000  0.63680044  0.13680044  1
  B  B1  1  0.50000000  0.86319956  0.63680044  1
  B  B2  1  0.50000000  0.36319956  0.86319956  1
  B  B3  1  0.50000000  0.13680044  0.36319956  1
  C  C4  1  0.50000000  0.66178908  0.83821092  1
  C  C5  1  0.50000000  0.83821092  0.33821092  1
  C  C6  1  0.50000000  0.16178908  0.66178908  1
  C  C7  1  0.50000000  0.33821092  0.16178908  1
  Dy  Dy8  1  0.00000000  0.50000000  0.50000000  1
  Dy  Dy9  1  0.00000000  0.00000000  0.00000000  1
