# generated using pymatgen
data_LiCoS2
_symmetry_space_group_name_H-M   'P 1'
_cell_length_a   3.42139324
_cell_length_b   3.42608469
_cell_length_c   5.67328903
_cell_angle_alpha   89.99021803
_cell_angle_beta   90.13716571
_cell_angle_gamma   59.99603638
_symmetry_Int_Tables_number   1
_chemical_formula_structural   LiCoS2
_chemical_formula_sum   'Li1 Co1 S2'
_cell_volume   57.59005530
_cell_formula_units_Z   1
loop_
 _symmetry_equiv_pos_site_id
 _symmetry_equiv_pos_as_xyz
  1  'x, y, z'
loop_
 _atom_site_type_symbol
 _atom_site_label
 _atom_site_symmetry_multiplicity
 _atom_site_fract_x
 _atom_site_fract_y
 _atom_site_fract_z
 _atom_site_occupancy
  Li  Li0  1  0.98632902  0.51731582  0.00055546  1
  Co  Co1  1  0.99399711  0.50631166  0.49947888  1
  S  S2  1  0.66198068  0.17244355  0.70206003  1
  S  S3  1  0.32535118  0.84124097  0.29680162  1
