# generated using pymatgen
data_MgPb2WO6
_symmetry_space_group_name_H-M   'P 1'
_cell_length_a   5.71474396
_cell_length_b   5.71474396
_cell_length_c   5.71474396
_cell_angle_alpha   60.00000002
_cell_angle_beta   60.00000002
_cell_angle_gamma   60.00000005
_symmetry_Int_Tables_number   1
_chemical_formula_structural   MgPb2WO6
_chemical_formula_sum   'Mg1 Pb2 W1 O6'
_cell_volume   131.97003595
_cell_formula_units_Z   1
loop_
 _symmetry_equiv_pos_site_id
 _symmetry_equiv_pos_as_xyz
  1  'x, y, z'
loop_
 _atom_site_type_symbol
 _atom_site_label
 _atom_site_symmetry_multiplicity
 _atom_site_fract_x
 _atom_site_fract_y
 _atom_site_fract_z
 _atom_site_occupancy
  O  O0  1  0.24169737  0.75830258  0.75830377  1
  O  O1  1  0.24169737  0.75830258  0.24169771  1
  O  O2  1  0.75830222  0.24169807  0.75830360  1
  O  O3  1  0.24169618  0.24169807  0.75830359  1
  O  O4  1  0.75830222  0.24169807  0.24169754  1
  O  O5  1  0.75830340  0.75830258  0.24169772  1
  Mg  Mg6  1  0.50000116  0.49999925  0.50000050  1
  W  W7  1  0.00000000  0.00000000  0.00000000  1
  Pb  Pb8  1  0.75000037  0.74999996  0.75000003  1
  Pb  Pb9  1  0.24999921  0.25000070  0.24999952  1
