# generated using pymatgen
data_VBr2O
_symmetry_space_group_name_H-M   'P 1'
_cell_length_a   3.71586157
_cell_length_b   3.65497859
_cell_length_c   7.60287547
_cell_angle_alpha   104.17206601
_cell_angle_beta   104.33662540
_cell_angle_gamma   89.98647187
_symmetry_Int_Tables_number   1
_chemical_formula_structural   VBr2O
_chemical_formula_sum   'V1 Br2 O1'
_cell_volume   96.79652594
_cell_formula_units_Z   1
loop_
 _symmetry_equiv_pos_site_id
 _symmetry_equiv_pos_as_xyz
  1  'x, y, z'
loop_
 _atom_site_type_symbol
 _atom_site_label
 _atom_site_symmetry_multiplicity
 _atom_site_fract_x
 _atom_site_fract_y
 _atom_site_fract_z
 _atom_site_occupancy
  O  O0  1  0.99999937  0.50000019  0.99999965  1
  V  V1  1  0.00000059  0.00000010  0.00000024  1
  Br  Br2  1  0.37223641  0.87138151  0.74792654  1
  Br  Br3  1  0.62776429  0.12861732  0.25207405  1
