# generated using pymatgen
data_Li2TiO3
_symmetry_space_group_name_H-M   'P 1'
_cell_length_a   5.75736196
_cell_length_b   8.94809625
_cell_length_c   5.21886300
_cell_angle_alpha   28.97207553
_cell_angle_beta   54.95048538
_cell_angle_gamma   59.84004029
_symmetry_Int_Tables_number   1
_chemical_formula_structural   Li2TiO3
_chemical_formula_sum   'Li4 Ti2 O6'
_cell_volume   106.61558994
_cell_formula_units_Z   2
loop_
 _symmetry_equiv_pos_site_id
 _symmetry_equiv_pos_as_xyz
  1  'x, y, z'
loop_
 _atom_site_type_symbol
 _atom_site_label
 _atom_site_symmetry_multiplicity
 _atom_site_fract_x
 _atom_site_fract_y
 _atom_site_fract_z
 _atom_site_occupancy
  Li  Li0  1  1.00000000  0.00470426  0.99294361  1
  Li  Li1  1  1.00000000  0.65593044  0.01610484  1
  Li  Li2  1  0.50000000  0.32862874  0.00705639  1
  Li  Li3  1  0.50000000  0.67740356  0.98389516  1
  O  O4  1  0.26213011  0.01922736  0.43071910  1
  O  O5  1  0.23786989  0.31410564  0.56928090  1
  O  O6  1  0.73786989  0.01922736  0.51159881  1
  O  O7  1  0.25000000  0.66666700  0.50000000  1
  O  O8  1  0.76213011  0.31410564  0.48840119  1
  O  O9  1  0.75000000  0.66666700  0.50000000  1
  Ti  Ti10  1  0.00000000  0.34494434  0.98258299  1
  Ti  Ti11  1  0.50000000  0.98838866  0.01741701  1
