# generated using pymatgen
data_Y4Al2O9
_symmetry_space_group_name_H-M   'P 1'
_cell_length_a   7.43685916
_cell_length_b   10.56075760
_cell_length_c   11.26096086
_cell_angle_alpha   90.00000000
_cell_angle_beta   108.47961786
_cell_angle_gamma   90.00000000
_symmetry_Int_Tables_number   1
_chemical_formula_structural   Y4Al2O9
_chemical_formula_sum   'Y16 Al8 O36'
_cell_volume   838.81913060
_cell_formula_units_Z   4
loop_
 _symmetry_equiv_pos_site_id
 _symmetry_equiv_pos_as_xyz
  1  'x, y, z'
loop_
 _atom_site_type_symbol
 _atom_site_label
 _atom_site_symmetry_multiplicity
 _atom_site_fract_x
 _atom_site_fract_y
 _atom_site_fract_z
 _atom_site_occupancy
  O  O0  1  0.56454050  0.49191134  0.89214082  1
  O  O1  1  0.43545950  0.99191134  0.60785918  1
  O  O2  1  0.43545950  0.50808866  0.10785918  1
  O  O3  1  0.56454050  0.00808866  0.39214082  1
  O  O4  1  0.07738587  0.50572447  0.89324452  1
  O  O5  1  0.92261413  0.00572447  0.60675548  1
  O  O6  1  0.92261413  0.49427553  0.10675548  1
  O  O7  1  0.07738587  0.99427553  0.39324452  1
  O  O8  1  0.69509287  0.48303899  0.65953614  1
  O  O9  1  0.30490713  0.98303899  0.84046386  1
  O  O10  1  0.30490713  0.51696101  0.34046386  1
  O  O11  1  0.69509287  0.01696101  0.15953614  1
  O  O12  1  0.63755668  0.27001395  0.46254202  1
  O  O13  1  0.36244332  0.77001395  0.03745798  1
  O  O14  1  0.21206409  0.48377732  0.65389222  1
  O  O15  1  0.36244332  0.72998605  0.53745798  1
  O  O16  1  0.43357397  0.26050549  0.61644307  1
  O  O17  1  0.56642603  0.76050549  0.88355693  1
  O  O18  1  0.56642603  0.73949451  0.38355693  1
  O  O19  1  0.43357397  0.23949451  0.11644307  1
  O  O20  1  0.07365690  0.26662097  0.48125147  1
  O  O21  1  0.92634310  0.76662097  0.01874853  1
  O  O22  1  0.92634310  0.73337903  0.51874853  1
  O  O23  1  0.07365690  0.23337903  0.98125147  1
  O  O24  1  0.79012567  0.23826159  0.74743917  1
  O  O25  1  0.20987433  0.73826159  0.75256083  1
  O  O26  1  0.20987433  0.76173841  0.25256083  1
  O  O27  1  0.79012567  0.26173841  0.24743917  1
  O  O28  1  0.23059201  0.23969640  0.76867751  1
  O  O29  1  0.76940799  0.73969640  0.73132249  1
  O  O30  1  0.76940799  0.76030360  0.23132249  1
  O  O31  1  0.23059201  0.26030360  0.26867751  1
  O  O32  1  0.21206409  0.01622268  0.15389222  1
  O  O33  1  0.78793591  0.51622268  0.34610778  1
  O  O34  1  0.78793591  0.98377732  0.84610778  1
  O  O35  1  0.63755668  0.22998605  0.96254202  1
  Al  Al36  1  0.65390642  0.32332310  0.61410273  1
  Al  Al37  1  0.34609358  0.82332310  0.88589727  1
  Al  Al38  1  0.34609358  0.67667690  0.38589727  1
  Al  Al39  1  0.65390642  0.17667690  0.11410273  1
  Al  Al40  1  0.21751638  0.32105902  0.62798942  1
  Al  Al41  1  0.78248362  0.82105902  0.87201058  1
  Al  Al42  1  0.78248362  0.67894098  0.37201058  1
  Al  Al43  1  0.21751638  0.17894098  0.12798942  1
  Y  Y44  1  0.83861801  0.37801487  0.91697150  1
  Y  Y45  1  0.16138199  0.87801487  0.58302850  1
  Y  Y46  1  0.16138199  0.62198513  0.08302850  1
  Y  Y47  1  0.83861801  0.12198513  0.41697150  1
  Y  Y48  1  0.33982598  0.37296242  0.93851189  1
  Y  Y49  1  0.66017402  0.87296242  0.56148811  1
  Y  Y50  1  0.66017402  0.62703758  0.06148811  1
  Y  Y51  1  0.33982598  0.12703758  0.43851189  1
  Y  Y52  1  0.02273054  0.40392756  0.30556115  1
  Y  Y53  1  0.97726946  0.90392756  0.19443885  1
  Y  Y54  1  0.97726946  0.59607244  0.69443885  1
  Y  Y55  1  0.02273054  0.09607244  0.80556115  1
  Y  Y56  1  0.52326350  0.39029801  0.28532591  1
  Y  Y57  1  0.47673650  0.89029801  0.21467409  1
  Y  Y58  1  0.47673650  0.60970199  0.71467409  1
  Y  Y59  1  0.52326350  0.10970199  0.78532591  1
