# generated using pymatgen
data_MoW3(SeS3)2
_symmetry_space_group_name_H-M   'P 1'
_cell_length_a   3.21989940
_cell_length_b   3.21987025
_cell_length_c   36.40680361
_cell_angle_alpha   90.00005017
_cell_angle_beta   90.00000000
_cell_angle_gamma   120.00029946
_symmetry_Int_Tables_number   1
_chemical_formula_structural   MoW3(SeS3)2
_chemical_formula_sum   'Mo1 W3 Se2 S6'
_cell_volume   326.88315951
_cell_formula_units_Z   1
loop_
 _symmetry_equiv_pos_site_id
 _symmetry_equiv_pos_as_xyz
  1  'x, y, z'
loop_
 _atom_site_type_symbol
 _atom_site_label
 _atom_site_symmetry_multiplicity
 _atom_site_fract_x
 _atom_site_fract_y
 _atom_site_fract_z
 _atom_site_occupancy
  Mo  Mo0  1  0.66668784  0.33337569  0.28178662  1
  W  W1  1  0.33331213  0.66662427  0.09390533  1
  W  W2  1  0.33331037  0.66662074  0.46966806  1
  W  W3  1  0.66669064  0.33338128  0.65754202  1
  Se  Se4  1  0.33335241  0.66670583  0.32878577  1
  Se  Se5  1  0.33335334  0.66670769  0.23480606  1
  S  S6  1  0.33335546  0.66671192  0.70049088  1
  S  S7  1  0.66664577  0.33329054  0.05096544  1
  S  S8  1  0.66664453  0.33328807  0.42673588  1
  S  S9  1  0.66664619  0.33329138  0.13685858  1
  S  S10  1  0.66664204  0.33328307  0.51260983  1
  S  S11  1  0.33335926  0.66671953  0.61459351  1
