# generated using pymatgen
data_SnSe
_symmetry_space_group_name_H-M   'P 1'
_cell_length_a   4.28947948
_cell_length_b   4.30099671
_cell_length_c   6.37749769
_cell_angle_alpha   90.00000000
_cell_angle_beta   109.65148821
_cell_angle_gamma   90.00000000
_symmetry_Int_Tables_number   1
_chemical_formula_structural   SnSe
_chemical_formula_sum   'Sn2 Se2'
_cell_volume   110.80573450
_cell_formula_units_Z   2
loop_
 _symmetry_equiv_pos_site_id
 _symmetry_equiv_pos_as_xyz
  1  'x, y, z'
loop_
 _atom_site_type_symbol
 _atom_site_label
 _atom_site_symmetry_multiplicity
 _atom_site_fract_x
 _atom_site_fract_y
 _atom_site_fract_z
 _atom_site_occupancy
  Se  Se0  1  0.35541267  0.75000000  0.71082534  1
  Se  Se1  1  0.64458733  0.25000000  0.28917466  1
  Sn  Sn2  1  0.12719374  0.75000000  0.25438748  1
  Sn  Sn3  1  0.87280626  0.25000000  0.74561252  1
