# generated using pymatgen
data_ReF7
_symmetry_space_group_name_H-M   'P 1'
_cell_length_a   5.20897637
_cell_length_b   5.16972160
_cell_length_c   9.29688497
_cell_angle_alpha   86.58156624
_cell_angle_beta   90.86084632
_cell_angle_gamma   65.74018219
_symmetry_Int_Tables_number   1
_chemical_formula_structural   ReF7
_chemical_formula_sum   'Re2 F14'
_cell_volume   227.62586224
_cell_formula_units_Z   2
loop_
 _symmetry_equiv_pos_site_id
 _symmetry_equiv_pos_as_xyz
  1  'x, y, z'
loop_
 _atom_site_type_symbol
 _atom_site_label
 _atom_site_symmetry_multiplicity
 _atom_site_fract_x
 _atom_site_fract_y
 _atom_site_fract_z
 _atom_site_occupancy
  Re  Re0  1  0.86834379  0.86080560  0.75072283  1
  Re  Re1  1  0.13165621  0.13919440  0.24927717  1
  F  F2  1  0.58635469  0.17203612  0.65233492  1
  F  F3  1  0.41364531  0.82796388  0.34766508  1
  F  F4  1  0.15462475  0.57575940  0.86306165  1
  F  F5  1  0.84537525  0.42424060  0.13693835  1
  F  F6  1  0.72964790  0.05898762  0.91723075  1
  F  F7  1  0.27035210  0.94101238  0.08276925  1
  F  F8  1  0.14520425  0.77613393  0.61060119  1
  F  F9  1  0.85479575  0.22386607  0.38939881  1
  F  F10  1  0.64097174  0.69720281  0.84016323  1
  F  F11  1  0.35902826  0.30279719  0.15983677  1
  F  F12  1  0.77365048  0.66136579  0.61073643  1
  F  F13  1  0.22634952  0.33863421  0.38926357  1
  F  F14  1  0.05536135  0.10406034  0.77323555  1
  F  F15  1  0.94463865  0.89593966  0.22676445  1
