# generated using pymatgen
data_BW
_symmetry_space_group_name_H-M   'P 1'
_cell_length_a   3.10984888
_cell_length_b   3.18286259
_cell_length_c   4.55085584
_cell_angle_alpha   110.46891839
_cell_angle_beta   90.00000000
_cell_angle_gamma   90.00000000
_symmetry_Int_Tables_number   1
_chemical_formula_structural   BW
_chemical_formula_sum   'B2 W2'
_cell_volume   42.20130605
_cell_formula_units_Z   2
loop_
 _symmetry_equiv_pos_site_id
 _symmetry_equiv_pos_as_xyz
  1  'x, y, z'
loop_
 _atom_site_type_symbol
 _atom_site_label
 _atom_site_symmetry_multiplicity
 _atom_site_fract_x
 _atom_site_fract_y
 _atom_site_fract_z
 _atom_site_occupancy
  B  B0  1  0.75000000  0.43939950  0.87879901  1
  B  B1  1  0.25000000  0.56060050  0.12120099  1
  W  W2  1  0.75000000  0.14471114  0.28942228  1
  W  W3  1  0.25000000  0.85528886  0.71057772  1
