# generated using pymatgen
data_Pr2ZnAg
_symmetry_space_group_name_H-M   'P 1'
_cell_length_a   5.31872732
_cell_length_b   5.31872623
_cell_length_c   5.31872668
_cell_angle_alpha   60.00002665
_cell_angle_beta   60.00005339
_cell_angle_gamma   59.99997907
_symmetry_Int_Tables_number   1
_chemical_formula_structural   Pr2ZnAg
_chemical_formula_sum   'Pr2 Zn1 Ag1'
_cell_volume   106.39181841
_cell_formula_units_Z   1
loop_
 _symmetry_equiv_pos_site_id
 _symmetry_equiv_pos_as_xyz
  1  'x, y, z'
loop_
 _atom_site_type_symbol
 _atom_site_label
 _atom_site_symmetry_multiplicity
 _atom_site_fract_x
 _atom_site_fract_y
 _atom_site_fract_z
 _atom_site_occupancy
  Pr  Pr0  1  0.00000002  0.99999991  0.00000010  1
  Pr  Pr1  1  0.49999994  0.50000011  0.49999991  1
  Zn  Zn2  1  0.75000001  0.75000000  0.74999995  1
  Ag  Ag3  1  0.25000003  0.24999998  0.25000005  1
