# generated using pymatgen
data_ErAgS2
_symmetry_space_group_name_H-M   'P 1'
_cell_length_a   7.61614365
_cell_length_b   10.45353681
_cell_length_c   7.15908108
_cell_angle_alpha   28.51500307
_cell_angle_beta   57.86310798
_cell_angle_gamma   43.22500375
_symmetry_Int_Tables_number   1
_chemical_formula_structural   ErAgS2
_chemical_formula_sum   'Er2 Ag2 S4'
_cell_volume   175.82443909
_cell_formula_units_Z   2
loop_
 _symmetry_equiv_pos_site_id
 _symmetry_equiv_pos_as_xyz
  1  'x, y, z'
loop_
 _atom_site_type_symbol
 _atom_site_label
 _atom_site_symmetry_multiplicity
 _atom_site_fract_x
 _atom_site_fract_y
 _atom_site_fract_z
 _atom_site_occupancy
  Ag  Ag0  1  0.49999988  0.49998942  0.50003472  1
  Ag  Ag1  1  0.75000012  0.00001058  0.49996528  1
  Er  Er2  1  0.24997745  0.00001070  0.49999462  1
  Er  Er3  1  0.00002255  0.49998930  0.50000538  1
  S  S4  1  0.02531132  0.99997431  0.94939134  1
  S  S5  1  0.22468868  0.50002569  0.05060866  1
  S  S6  1  0.77529450  0.50002743  0.94934553  1
  S  S7  1  0.47470550  0.99997257  0.05065447  1
