# generated using pymatgen
data_ThSiO4
_symmetry_space_group_name_H-M   'P 1'
_cell_length_a   6.00126332
_cell_length_b   6.00126332
_cell_length_c   6.00126332
_cell_angle_alpha   106.30192959
_cell_angle_beta   106.30192965
_cell_angle_gamma   116.01471301
_symmetry_Int_Tables_number   1
_chemical_formula_structural   ThSiO4
_chemical_formula_sum   'Th2 Si2 O8'
_cell_volume   164.73623933
_cell_formula_units_Z   2
loop_
 _symmetry_equiv_pos_site_id
 _symmetry_equiv_pos_as_xyz
  1  'x, y, z'
loop_
 _atom_site_type_symbol
 _atom_site_label
 _atom_site_symmetry_multiplicity
 _atom_site_fract_x
 _atom_site_fract_y
 _atom_site_fract_z
 _atom_site_occupancy
  O  O0  1  0.13504257  0.70856607  0.42647649  1
  O  O1  1  0.70856607  0.78208958  0.57352351  1
  O  O2  1  0.70856607  0.13504257  0.92647649  1
  O  O3  1  0.78208958  0.70856607  0.07352351  1
  O  O4  1  0.29143393  0.86495743  0.07352351  1
  O  O5  1  0.21791042  0.29143393  0.92647649  1
  O  O6  1  0.86495743  0.29143393  0.57352351  1
  O  O7  1  0.29143393  0.21791042  0.42647649  1
  Si  Si8  1  0.12500000  0.87500000  0.25000000  1
  Si  Si9  1  0.87500000  0.12500000  0.75000000  1
  Th  Th10  1  0.62500000  0.37500000  0.25000000  1
  Th  Th11  1  0.37500000  0.62500000  0.75000000  1
