# generated using pymatgen
data_LiFeF4
_symmetry_space_group_name_H-M   'P 1'
_cell_length_a   4.71738677
_cell_length_b   5.65353876
_cell_length_c   4.74483799
_cell_angle_alpha   92.85083550
_cell_angle_beta   86.73939567
_cell_angle_gamma   146.83256595
_symmetry_Int_Tables_number   1
_chemical_formula_structural   LiFeF4
_chemical_formula_sum   'Li1 Fe1 F4'
_cell_volume   69.11831694
_cell_formula_units_Z   1
loop_
 _symmetry_equiv_pos_site_id
 _symmetry_equiv_pos_as_xyz
  1  'x, y, z'
loop_
 _atom_site_type_symbol
 _atom_site_label
 _atom_site_symmetry_multiplicity
 _atom_site_fract_x
 _atom_site_fract_y
 _atom_site_fract_z
 _atom_site_occupancy
  Li  Li0  1  0.50196182  0.49699799  0.00293286  1
  Fe  Fe1  1  0.50648290  0.99974982  0.50411819  1
  F  F2  1  0.21305231  0.99910330  0.79682326  1
  F  F3  1  0.19755534  0.50257278  0.69115290  1
  F  F4  1  0.79944252  0.99913456  0.21257094  1
  F  F5  1  0.81577310  0.49665556  0.31743485  1
