# generated using pymatgen
data_HfAlFe2
_symmetry_space_group_name_H-M   'P 1'
_cell_length_a   4.26091424
_cell_length_b   4.26092186
_cell_length_c   4.26090108
_cell_angle_alpha   59.99956791
_cell_angle_beta   59.99965228
_cell_angle_gamma   59.99963730
_symmetry_Int_Tables_number   1
_chemical_formula_structural   HfAlFe2
_chemical_formula_sum   'Hf1 Al1 Fe2'
_cell_volume   54.70021922
_cell_formula_units_Z   1
loop_
 _symmetry_equiv_pos_site_id
 _symmetry_equiv_pos_as_xyz
  1  'x, y, z'
loop_
 _atom_site_type_symbol
 _atom_site_label
 _atom_site_symmetry_multiplicity
 _atom_site_fract_x
 _atom_site_fract_y
 _atom_site_fract_z
 _atom_site_occupancy
  Hf  Hf0  1  0.75000036  0.75000076  0.74999954  1
  Al  Al1  1  0.24999980  0.25000076  0.25000066  1
  Fe  Fe2  1  0.50000203  0.49999945  0.50000095  1
  Fe  Fe3  1  -0.00000018  0.00000103  0.00000085  1
