# generated using pymatgen
data_Li3MnO3
_symmetry_space_group_name_H-M   'P 1'
_cell_length_a   9.12796439
_cell_length_b   9.12796439
_cell_length_c   3.53037944
_cell_angle_alpha   90.00000000
_cell_angle_beta   90.00000000
_cell_angle_gamma   90.00000000
_symmetry_Int_Tables_number   1
_chemical_formula_structural   Li3MnO3
_chemical_formula_sum   'Li12 Mn4 O12'
_cell_volume   294.15027552
_cell_formula_units_Z   4
loop_
 _symmetry_equiv_pos_site_id
 _symmetry_equiv_pos_as_xyz
  1  'x, y, z'
loop_
 _atom_site_type_symbol
 _atom_site_label
 _atom_site_symmetry_multiplicity
 _atom_site_fract_x
 _atom_site_fract_y
 _atom_site_fract_z
 _atom_site_occupancy
  Li  Li0  1  0.09358757  0.35427233  0.50000000  1
  Li  Li1  1  0.14572767  0.59358757  0.00000000  1
  Li  Li2  1  0.17367320  0.17367320  0.00000000  1
  Li  Li3  1  0.32632680  0.67367320  0.50000000  1
  Li  Li4  1  0.35427233  0.09358757  0.50000000  1
  Li  Li5  1  0.40641243  0.85427233  0.00000000  1
  Li  Li6  1  0.59358757  0.14572767  0.00000000  1
  Li  Li7  1  0.64572767  0.90641243  0.50000000  1
  Li  Li8  1  0.67367320  0.32632680  0.50000000  1
  Li  Li9  1  0.82632680  0.82632680  0.00000000  1
  Li  Li10  1  0.85427233  0.40641243  0.00000000  1
  Li  Li11  1  0.90641243  0.64572767  0.50000000  1
  Mn  Mn12  1  0.11474830  0.88525170  0.50000000  1
  Mn  Mn13  1  0.38525170  0.38525170  0.00000000  1
  Mn  Mn14  1  0.61474830  0.61474830  0.00000000  1
  Mn  Mn15  1  0.88525170  0.11474830  0.50000000  1
  O  O16  1  0.10169172  0.10169172  0.50000000  1
  O  O17  1  0.11294521  0.67903858  0.50000000  1
  O  O18  1  0.17903858  0.38705479  0.00000000  1
  O  O19  1  0.32096142  0.88705479  0.50000000  1
  O  O20  1  0.38705479  0.17903858  0.00000000  1
  O  O21  1  0.39830828  0.60169172  0.00000000  1
  O  O22  1  0.60169172  0.39830828  0.00000000  1
  O  O23  1  0.61294521  0.82096142  0.00000000  1
  O  O24  1  0.67903858  0.11294521  0.50000000  1
  O  O25  1  0.82096142  0.61294521  0.00000000  1
  O  O26  1  0.88705479  0.32096142  0.50000000  1
  O  O27  1  0.89830828  0.89830828  0.50000000  1
