# generated using pymatgen
data_Cu2SnSe3
_symmetry_space_group_name_H-M   'P 1'
_cell_length_a   7.09560384
_cell_length_b   7.05473202
_cell_length_c   7.05473202
_cell_angle_alpha   119.98053927
_cell_angle_beta   99.68984869
_cell_angle_gamma   99.68984867
_symmetry_Int_Tables_number   1
_chemical_formula_structural   Cu2SnSe3
_chemical_formula_sum   'Cu4 Sn2 Se6'
_cell_volume   288.04881078
_cell_formula_units_Z   2
loop_
 _symmetry_equiv_pos_site_id
 _symmetry_equiv_pos_as_xyz
  1  'x, y, z'
loop_
 _atom_site_type_symbol
 _atom_site_label
 _atom_site_symmetry_multiplicity
 _atom_site_fract_x
 _atom_site_fract_y
 _atom_site_fract_z
 _atom_site_occupancy
  Cu  Cu0  1  0.38035264  0.38148477  0.88750775  1
  Cu  Cu1  1  0.88035264  0.88750775  0.38148477  1
  Cu  Cu2  1  0.88040370  0.20222328  0.03776737  1
  Cu  Cu3  1  0.38040370  0.03776737  0.20222328  1
  Se  Se4  1  0.99518132  0.58430414  0.39668772  1
  Se  Se5  1  0.51853777  0.75975088  0.23631506  1
  Se  Se6  1  0.01825727  0.94919002  0.11746441  1
  Se  Se7  1  0.49518132  0.39668772  0.58430414  1
  Se  Se8  1  0.51825727  0.11746441  0.94919002  1
  Se  Se9  1  0.01853777  0.23631506  0.75975088  1
  Sn  Sn10  1  0.89726730  0.55162424  0.73368035  1
  Sn  Sn11  1  0.39726730  0.73368035  0.55162424  1
