# generated using pymatgen
data_Sc2TcAg
_symmetry_space_group_name_H-M   'P 1'
_cell_length_a   4.70119029
_cell_length_b   4.70116298
_cell_length_c   4.70119637
_cell_angle_alpha   60.00014081
_cell_angle_beta   59.99979635
_cell_angle_gamma   60.00018703
_symmetry_Int_Tables_number   1
_chemical_formula_structural   Sc2TcAg
_chemical_formula_sum   'Sc2 Tc1 Ag1'
_cell_volume   73.46947550
_cell_formula_units_Z   1
loop_
 _symmetry_equiv_pos_site_id
 _symmetry_equiv_pos_as_xyz
  1  'x, y, z'
loop_
 _atom_site_type_symbol
 _atom_site_label
 _atom_site_symmetry_multiplicity
 _atom_site_fract_x
 _atom_site_fract_y
 _atom_site_fract_z
 _atom_site_occupancy
  Sc  Sc0  1  0.99999981  0.00000059  0.99999993  1
  Sc  Sc1  1  0.49999984  0.49999985  0.50000029  1
  Tc  Tc2  1  0.75000043  0.74999948  0.75000010  1
  Ag  Ag3  1  0.24999992  0.25000008  0.24999968  1
