# generated using pymatgen
data_Fe(HO)2
_symmetry_space_group_name_H-M   'P 1'
_cell_length_a   3.31057015
_cell_length_b   3.30172091
_cell_length_c   4.64823655
_cell_angle_alpha   89.99999933
_cell_angle_beta   85.39175752
_cell_angle_gamma   119.91160859
_symmetry_Int_Tables_number   1
_chemical_formula_structural   Fe(HO)2
_chemical_formula_sum   'Fe1 H2 O2'
_cell_volume   43.85049705
_cell_formula_units_Z   1
loop_
 _symmetry_equiv_pos_site_id
 _symmetry_equiv_pos_as_xyz
  1  'x, y, z'
loop_
 _atom_site_type_symbol
 _atom_site_label
 _atom_site_symmetry_multiplicity
 _atom_site_fract_x
 _atom_site_fract_y
 _atom_site_fract_z
 _atom_site_occupancy
  Fe  Fe0  1  0.00000000  0.96884157  0.00000000  1
  H  H1  1  0.41146404  0.58050852  0.57300003  1
  H  H2  1  0.58853596  0.16904448  0.42699997  1
  O  O3  1  0.38268396  0.65273670  0.77564613  1
  O  O4  1  0.61731604  0.27005274  0.22435387  1
