# generated using pymatgen
data_Sr(GaTe2)2
_symmetry_space_group_name_H-M   'P 1'
_cell_length_a   6.83406851
_cell_length_b   6.83406874
_cell_length_c   6.83406880
_cell_angle_alpha   104.12518456
_cell_angle_beta   104.12517615
_cell_angle_gamma   120.79163772
_symmetry_Int_Tables_number   1
_chemical_formula_structural   Sr(GaTe2)2
_chemical_formula_sum   'Sr1 Ga2 Te4'
_cell_volume   238.39533174
_cell_formula_units_Z   1
loop_
 _symmetry_equiv_pos_site_id
 _symmetry_equiv_pos_as_xyz
  1  'x, y, z'
loop_
 _atom_site_type_symbol
 _atom_site_label
 _atom_site_symmetry_multiplicity
 _atom_site_fract_x
 _atom_site_fract_y
 _atom_site_fract_z
 _atom_site_occupancy
  Ga  Ga0  1  0.25000000  0.75000000  0.50000000  1
  Ga  Ga1  1  0.75000000  0.25000000  0.50000000  1
  Sr  Sr2  1  0.75000000  0.75000000  0.00000000  1
  Te  Te3  1  0.17447827  0.32552173  0.50000000  1
  Te  Te4  1  0.32552173  0.82552173  0.15104346  1
  Te  Te5  1  0.67447827  0.17447827  0.84895654  1
  Te  Te6  1  0.82552173  0.67447827  0.50000000  1
