# generated using pymatgen
data_DyAlO3
_symmetry_space_group_name_H-M   'P 1'
_cell_length_a   5.21945835
_cell_length_b   5.37573764
_cell_length_c   7.44872473
_cell_angle_alpha   90.00000000
_cell_angle_beta   90.00000000
_cell_angle_gamma   90.00000000
_symmetry_Int_Tables_number   1
_chemical_formula_structural   DyAlO3
_chemical_formula_sum   'Dy4 Al4 O12'
_cell_volume   208.99958632
_cell_formula_units_Z   4
loop_
 _symmetry_equiv_pos_site_id
 _symmetry_equiv_pos_as_xyz
  1  'x, y, z'
loop_
 _atom_site_type_symbol
 _atom_site_label
 _atom_site_symmetry_multiplicity
 _atom_site_fract_x
 _atom_site_fract_y
 _atom_site_fract_z
 _atom_site_occupancy
  Dy  Dy0  1  0.01336946  0.94611932  0.75000000  1
  Dy  Dy1  1  0.48663054  0.44611932  0.75000000  1
  Dy  Dy2  1  0.51336946  0.55388068  0.25000000  1
  Dy  Dy3  1  0.98663054  0.05388068  0.25000000  1
  Al  Al4  1  0.00000000  0.50000000  0.00000000  1
  Al  Al5  1  0.00000000  0.50000000  0.50000000  1
  Al  Al6  1  0.50000000  0.00000000  0.00000000  1
  Al  Al7  1  0.50000000  0.00000000  0.50000000  1
  O  O8  1  0.08755630  0.47702756  0.25000000  1
  O  O9  1  0.20679411  0.20670369  0.54624470  1
  O  O10  1  0.20679411  0.20670369  0.95375530  1
  O  O11  1  0.29320589  0.70670369  0.54624470  1
  O  O12  1  0.29320589  0.70670369  0.95375530  1
  O  O13  1  0.41244370  0.97702756  0.25000000  1
  O  O14  1  0.58755630  0.02297244  0.75000000  1
  O  O15  1  0.70679411  0.29329631  0.04624470  1
  O  O16  1  0.70679411  0.29329631  0.45375530  1
  O  O17  1  0.79320589  0.79329631  0.04624470  1
  O  O18  1  0.79320589  0.79329631  0.45375530  1
  O  O19  1  0.91244370  0.52297244  0.75000000  1
