# generated using pymatgen
data_TaTe4
_symmetry_space_group_name_H-M   'P 1'
_cell_length_a   6.62074532
_cell_length_b   6.62074532
_cell_length_c   6.93790196
_cell_angle_alpha   90.00000000
_cell_angle_beta   90.00000000
_cell_angle_gamma   90.00000000
_symmetry_Int_Tables_number   1
_chemical_formula_structural   TaTe4
_chemical_formula_sum   'Ta2 Te8'
_cell_volume   304.11785798
_cell_formula_units_Z   2
loop_
 _symmetry_equiv_pos_site_id
 _symmetry_equiv_pos_as_xyz
  1  'x, y, z'
loop_
 _atom_site_type_symbol
 _atom_site_label
 _atom_site_symmetry_multiplicity
 _atom_site_fract_x
 _atom_site_fract_y
 _atom_site_fract_z
 _atom_site_occupancy
  Ta  Ta0  1  -0.00000000  -0.00000000  0.74767491  1
  Ta  Ta1  1  -0.00000000  0.00000000  0.24767491  1
  Te  Te2  1  0.32176648  0.14088973  0.49758127  1
  Te  Te3  1  0.67823352  0.85911027  0.49758127  1
  Te  Te4  1  0.32176648  0.85911027  0.99758127  1
  Te  Te5  1  0.67823352  0.14088973  0.99758127  1
  Te  Te6  1  0.14088973  0.67823352  0.49758127  1
  Te  Te7  1  0.85911027  0.32176648  0.49758127  1
  Te  Te8  1  0.85911027  0.67823352  0.99758127  1
  Te  Te9  1  0.14088973  0.32176648  0.99758127  1
