# generated using pymatgen
data_EuI2
_symmetry_space_group_name_H-M   'P 1'
_cell_length_a   7.81652455
_cell_length_b   8.02929358
_cell_length_c   8.23768540
_cell_angle_alpha   90.00000000
_cell_angle_beta   90.00000000
_cell_angle_gamma   99.22592574
_symmetry_Int_Tables_number   1
_chemical_formula_structural   EuI2
_chemical_formula_sum   'Eu4 I8'
_cell_volume   510.31868374
_cell_formula_units_Z   4
loop_
 _symmetry_equiv_pos_site_id
 _symmetry_equiv_pos_as_xyz
  1  'x, y, z'
loop_
 _atom_site_type_symbol
 _atom_site_label
 _atom_site_symmetry_multiplicity
 _atom_site_fract_x
 _atom_site_fract_y
 _atom_site_fract_z
 _atom_site_occupancy
  I  I0  1  0.07047181  0.50474253  0.76936557  1
  I  I1  1  0.92952819  0.99525747  0.26936557  1
  I  I2  1  0.92952819  0.49525747  0.23063443  1
  I  I3  1  0.07047181  0.00474253  0.73063443  1
  I  I4  1  0.59419275  0.79220213  0.88909654  1
  I  I5  1  0.40580725  0.70779787  0.38909654  1
  I  I6  1  0.40580725  0.20779787  0.11090346  1
  I  I7  1  0.59419275  0.29220213  0.61090346  1
  Eu  Eu8  1  0.78459297  0.18987424  0.94564598  1
  Eu  Eu9  1  0.21540703  0.31012576  0.44564598  1
  Eu  Eu10  1  0.21540703  0.81012576  0.05435402  1
  Eu  Eu11  1  0.78459297  0.68987424  0.55435402  1
