# generated using pymatgen
data_Ho(GeRu)2
_symmetry_space_group_name_H-M   'P 1'
_cell_length_a   4.27009250
_cell_length_b   4.27009250
_cell_length_c   5.77104653
_cell_angle_alpha   111.71304224
_cell_angle_beta   111.71304230
_cell_angle_gamma   89.99999998
_symmetry_Int_Tables_number   1
_chemical_formula_structural   Ho(GeRu)2
_chemical_formula_sum   'Ho1 Ge2 Ru2'
_cell_volume   89.67589924
_cell_formula_units_Z   1
loop_
 _symmetry_equiv_pos_site_id
 _symmetry_equiv_pos_as_xyz
  1  'x, y, z'
loop_
 _atom_site_type_symbol
 _atom_site_label
 _atom_site_symmetry_multiplicity
 _atom_site_fract_x
 _atom_site_fract_y
 _atom_site_fract_z
 _atom_site_occupancy
  Ge  Ge0  1  0.63005704  0.63005704  0.26011408  1
  Ge  Ge1  1  0.36994296  0.36994296  0.73988592  1
  Ru  Ru2  1  0.75000000  0.25000000  0.50000000  1
  Ru  Ru3  1  0.25000000  0.75000000  0.50000000  1
  Ho  Ho4  1  0.00000000  0.00000000  0.00000000  1
