# generated using pymatgen
data_LiFePd2
_symmetry_space_group_name_H-M   'P 1'
_cell_length_a   4.26795247
_cell_length_b   4.26793376
_cell_length_c   4.26793859
_cell_angle_alpha   59.99962167
_cell_angle_beta   60.00001381
_cell_angle_gamma   60.00003612
_symmetry_Int_Tables_number   1
_chemical_formula_structural   LiFePd2
_chemical_formula_sum   'Li1 Fe1 Pd2'
_cell_volume   54.97172064
_cell_formula_units_Z   1
loop_
 _symmetry_equiv_pos_site_id
 _symmetry_equiv_pos_as_xyz
  1  'x, y, z'
loop_
 _atom_site_type_symbol
 _atom_site_label
 _atom_site_symmetry_multiplicity
 _atom_site_fract_x
 _atom_site_fract_y
 _atom_site_fract_z
 _atom_site_occupancy
  Li  Li0  1  0.74999884  0.75000697  0.74999481  1
  Fe  Fe1  1  0.25000027  0.24999503  0.25001490  1
  Pd  Pd2  1  -0.00000037  0.00000017  0.99999262  1
  Pd  Pd3  1  0.50000125  0.49999782  0.49999767  1
