# generated using pymatgen
data_NaNbO3
_symmetry_space_group_name_H-M   'P 1'
_cell_length_a   5.59754172
_cell_length_b   5.68743204
_cell_length_c   15.68108600
_cell_angle_alpha   90.00000000
_cell_angle_beta   90.00000000
_cell_angle_gamma   90.00000000
_symmetry_Int_Tables_number   1
_chemical_formula_structural   NaNbO3
_chemical_formula_sum   'Na8 Nb8 O24'
_cell_volume   499.21737928
_cell_formula_units_Z   8
loop_
 _symmetry_equiv_pos_site_id
 _symmetry_equiv_pos_as_xyz
  1  'x, y, z'
loop_
 _atom_site_type_symbol
 _atom_site_label
 _atom_site_symmetry_multiplicity
 _atom_site_fract_x
 _atom_site_fract_y
 _atom_site_fract_z
 _atom_site_occupancy
  O  O0  1  0.04036294  0.04481676  0.39179066  1
  O  O1  1  0.04036294  0.45518324  0.60820934  1
  O  O2  1  0.95963706  0.54481676  0.10820934  1
  O  O3  1  0.95963706  0.95518324  0.89179066  1
  O  O4  1  0.95963706  0.95518324  0.60820934  1
  O  O5  1  0.95963706  0.54481676  0.39179066  1
  O  O6  1  0.04036294  0.45518324  0.89179066  1
  O  O7  1  0.04036294  0.04481676  0.10820934  1
  O  O8  1  0.45798046  0.46752907  0.35759105  1
  O  O9  1  0.45798046  0.03247093  0.64240895  1
  O  O10  1  0.54201954  0.96752907  0.14240895  1
  O  O11  1  0.54201954  0.53247093  0.85759105  1
  O  O12  1  0.54201954  0.53247093  0.64240895  1
  O  O13  1  0.54201954  0.96752907  0.35759105  1
  O  O14  1  0.45798046  0.03247093  0.85759105  1
  O  O15  1  0.45798046  0.46752907  0.14240895  1
  O  O16  1  0.68366165  0.25000000  0.00000000  1
  O  O17  1  0.31633835  0.75000000  0.50000000  1
  O  O18  1  0.31633835  0.75000000  0.00000000  1
  O  O19  1  0.68366165  0.25000000  0.50000000  1
  O  O20  1  0.18358208  0.77556087  0.25000000  1
  O  O21  1  0.18358208  0.72443913  0.75000000  1
  O  O22  1  0.81641792  0.27556087  0.25000000  1
  O  O23  1  0.81641792  0.22443913  0.75000000  1
  Na  Na24  1  0.25856546  0.25000000  0.00000000  1
  Na  Na25  1  0.74143454  0.75000000  0.50000000  1
  Na  Na26  1  0.74143454  0.75000000  0.00000000  1
  Na  Na27  1  0.25856546  0.25000000  0.50000000  1
  Na  Na28  1  0.25924926  0.20287226  0.25000000  1
  Na  Na29  1  0.25924926  0.29712774  0.75000000  1
  Na  Na30  1  0.74075074  0.70287226  0.25000000  1
  Na  Na31  1  0.74075074  0.79712774  0.75000000  1
  Nb  Nb32  1  0.24353254  0.72199552  0.12519603  1
  Nb  Nb33  1  0.24353254  0.77800448  0.87480397  1
  Nb  Nb34  1  0.75646746  0.22199552  0.37480397  1
  Nb  Nb35  1  0.75646746  0.27800448  0.62519603  1
  Nb  Nb36  1  0.75646746  0.27800448  0.87480397  1
  Nb  Nb37  1  0.75646746  0.22199552  0.12519603  1
  Nb  Nb38  1  0.24353254  0.77800448  0.62519603  1
  Nb  Nb39  1  0.24353254  0.72199552  0.37480397  1
