# generated using pymatgen
data_MgGeP2
_symmetry_space_group_name_H-M   'P 1'
_cell_length_a   8.18744484
_cell_length_b   10.61792294
_cell_length_c   6.76100235
_cell_angle_alpha   29.52036667
_cell_angle_beta   52.73262294
_cell_angle_gamma   39.54632943
_symmetry_Int_Tables_number   1
_chemical_formula_structural   MgGeP2
_chemical_formula_sum   'Mg2 Ge2 P4'
_cell_volume   180.33417229
_cell_formula_units_Z   2
loop_
 _symmetry_equiv_pos_site_id
 _symmetry_equiv_pos_as_xyz
  1  'x, y, z'
loop_
 _atom_site_type_symbol
 _atom_site_label
 _atom_site_symmetry_multiplicity
 _atom_site_fract_x
 _atom_site_fract_y
 _atom_site_fract_z
 _atom_site_occupancy
  Ge  Ge0  1  0.50001572  -0.00002023  1.00000952  1
  Ge  Ge1  1  0.25000491  0.49998544  0.00003220  1
  Mg  Mg2  1  0.99999396  0.00001159  0.00000400  1
  Mg  Mg3  1  0.74999628  0.50001347  0.99997999  1
  P  P4  1  0.15348424  0.97151397  0.27848049  1
  P  P5  1  0.59651318  0.02849022  0.22150467  1
  P  P6  1  0.37499193  0.47154011  0.27845493  1
  P  P7  1  0.87499979  0.52846545  0.22153420  1
