# generated using pymatgen
data_Zn(SbO2)2
_symmetry_space_group_name_H-M   'P 1'
_cell_length_a   6.08141099
_cell_length_b   8.66893248
_cell_length_c   8.66893248
_cell_angle_alpha   90.00000000
_cell_angle_beta   90.00000000
_cell_angle_gamma   90.00000000
_symmetry_Int_Tables_number   1
_chemical_formula_structural   Zn(SbO2)2
_chemical_formula_sum   'Zn4 Sb8 O16'
_cell_volume   457.02040973
_cell_formula_units_Z   4
loop_
 _symmetry_equiv_pos_site_id
 _symmetry_equiv_pos_as_xyz
  1  'x, y, z'
loop_
 _atom_site_type_symbol
 _atom_site_label
 _atom_site_symmetry_multiplicity
 _atom_site_fract_x
 _atom_site_fract_y
 _atom_site_fract_z
 _atom_site_occupancy
  O  O0  1  0.50000000  0.86165071  0.40596977  1
  O  O1  1  0.50000000  0.13834929  0.59403023  1
  O  O2  1  0.00000000  0.40596977  0.13834929  1
  O  O3  1  0.00000000  0.59403023  0.86165071  1
  O  O4  1  0.00000000  0.90596977  0.36165071  1
  O  O5  1  0.50000000  0.63834929  0.90596977  1
  O  O6  1  0.50000000  0.36165071  0.09403023  1
  O  O7  1  0.00000000  0.09403023  0.63834929  1
  O  O8  1  0.75000000  0.68138118  0.18138118  1
  O  O9  1  0.25000000  0.81861882  0.68138118  1
  O  O10  1  0.25000000  0.18138118  0.31861882  1
  O  O11  1  0.75000000  0.31861882  0.81861882  1
  O  O12  1  0.25000000  0.68138118  0.18138118  1
  O  O13  1  0.75000000  0.81861882  0.68138118  1
  O  O14  1  0.75000000  0.18138118  0.31861882  1
  O  O15  1  0.25000000  0.31861882  0.81861882  1
  Zn  Zn16  1  0.25000000  0.00000000  0.50000000  1
  Zn  Zn17  1  0.75000000  0.50000000  0.00000000  1
  Zn  Zn18  1  0.75000000  0.00000000  0.50000000  1
  Zn  Zn19  1  0.25000000  0.50000000  0.00000000  1
  Sb  Sb20  1  0.00000000  0.82029485  0.83587069  1
  Sb  Sb21  1  0.50000000  0.16412931  0.82029485  1
  Sb  Sb22  1  0.50000000  0.83587069  0.17970515  1
  Sb  Sb23  1  0.00000000  0.17970515  0.16412931  1
  Sb  Sb24  1  0.00000000  0.67970515  0.33587069  1
  Sb  Sb25  1  0.00000000  0.32029485  0.66412931  1
  Sb  Sb26  1  0.50000000  0.66412931  0.67970515  1
  Sb  Sb27  1  0.50000000  0.33587069  0.32029485  1
