# generated using pymatgen
data_Zn(GaO2)2
_symmetry_space_group_name_H-M   'P 1'
_cell_length_a   5.98141723
_cell_length_b   5.98141723
_cell_length_c   5.98141723
_cell_angle_alpha   59.99999996
_cell_angle_beta   59.99999995
_cell_angle_gamma   60.00000001
_symmetry_Int_Tables_number   1
_chemical_formula_structural   Zn(GaO2)2
_chemical_formula_sum   'Zn2 Ga4 O8'
_cell_volume   151.32033513
_cell_formula_units_Z   2
loop_
 _symmetry_equiv_pos_site_id
 _symmetry_equiv_pos_as_xyz
  1  'x, y, z'
loop_
 _atom_site_type_symbol
 _atom_site_label
 _atom_site_symmetry_multiplicity
 _atom_site_fract_x
 _atom_site_fract_y
 _atom_site_fract_z
 _atom_site_occupancy
  O  O0  1  0.73828122  0.73828122  0.73828122  1
  O  O1  1  0.26171878  0.26171878  0.71484365  1
  O  O2  1  0.26171878  0.71484365  0.26171878  1
  O  O3  1  0.71484365  0.26171878  0.26171878  1
  O  O4  1  0.73828122  0.28515635  0.73828122  1
  O  O5  1  0.28515635  0.73828122  0.73828122  1
  O  O6  1  0.26171878  0.26171878  0.26171878  1
  O  O7  1  0.73828122  0.73828122  0.28515635  1
  Zn  Zn8  1  0.12500000  0.12500000  0.12500000  1
  Zn  Zn9  1  0.87500000  0.87500000  0.87500000  1
  Ga  Ga10  1  0.50000000  0.50000000  0.00000000  1
  Ga  Ga11  1  0.50000000  0.50000000  0.50000000  1
  Ga  Ga12  1  0.00000000  0.50000000  0.50000000  1
  Ga  Ga13  1  0.50000000  0.00000000  0.50000000  1
