# generated using pymatgen
data_Na(WO3)2
_symmetry_space_group_name_H-M   'P 1'
_cell_length_a   7.81708856
_cell_length_b   5.52794263
_cell_length_c   5.52816010
_cell_angle_alpha   60.00691196
_cell_angle_beta   45.01691923
_cell_angle_gamma   45.00634156
_symmetry_Int_Tables_number   1
_chemical_formula_structural   Na(WO3)2
_chemical_formula_sum   'Na1 W2 O6'
_cell_volume   119.49106666
_cell_formula_units_Z   1
loop_
 _symmetry_equiv_pos_site_id
 _symmetry_equiv_pos_as_xyz
  1  'x, y, z'
loop_
 _atom_site_type_symbol
 _atom_site_label
 _atom_site_symmetry_multiplicity
 _atom_site_fract_x
 _atom_site_fract_y
 _atom_site_fract_z
 _atom_site_occupancy
  Na  Na0  1  0.50779325  0.99317198  0.99120344  1
  W  W1  1  0.25466528  0.49788073  0.49736862  1
  W  W2  1  0.75463444  0.49792179  0.49737182  1
  O  O3  1  0.00679975  0.49394989  0.99757136  1
  O  O4  1  0.50367737  0.50327568  0.99760171  1
  O  O5  1  0.00652458  0.99811408  0.49947230  1
  O  O6  1  0.50619585  0.49077005  0.50161911  1
  O  O7  1  0.50326457  0.99809078  0.49127219  1
  O  O8  1  0.00031391  0.50530601  0.49883645  1
