# generated using pymatgen
data_TiAl2O5
_symmetry_space_group_name_H-M   'P 1'
_cell_length_a   3.61944440
_cell_length_b   5.06213842
_cell_length_c   9.77663716
_cell_angle_alpha   90.00000000
_cell_angle_beta   90.00000000
_cell_angle_gamma   110.94683510
_symmetry_Int_Tables_number   1
_chemical_formula_structural   TiAl2O5
_chemical_formula_sum   'Ti2 Al4 O10'
_cell_volume   167.29063814
_cell_formula_units_Z   2
loop_
 _symmetry_equiv_pos_site_id
 _symmetry_equiv_pos_as_xyz
  1  'x, y, z'
loop_
 _atom_site_type_symbol
 _atom_site_label
 _atom_site_symmetry_multiplicity
 _atom_site_fract_x
 _atom_site_fract_y
 _atom_site_fract_z
 _atom_site_occupancy
  O  O0  1  0.31191936  0.62383871  0.56651616  1
  O  O1  1  0.68808064  0.37616129  0.43348384  1
  O  O2  1  0.68808064  0.37616129  0.06651616  1
  O  O3  1  0.31191936  0.62383871  0.93348384  1
  O  O4  1  0.04398495  0.08796989  0.61698747  1
  O  O5  1  0.95601505  0.91203011  0.38301253  1
  O  O6  1  0.76344512  0.52689024  0.75000000  1
  O  O7  1  0.23655488  0.47310976  0.25000000  1
  O  O8  1  0.04398495  0.08796989  0.88301253  1
  O  O9  1  0.95601505  0.91203011  0.11698747  1
  Al  Al10  1  0.14076351  0.28152701  0.44436798  1
  Al  Al11  1  0.85923649  0.71847299  0.55563202  1
  Al  Al12  1  0.14076351  0.28152701  0.05563202  1
  Al  Al13  1  0.85923649  0.71847299  0.94436798  1
  Ti  Ti14  1  0.18274496  0.36548991  0.75000000  1
  Ti  Ti15  1  0.81725504  0.63451009  0.25000000  1
