# generated using pymatgen
data_NbGaO4
_symmetry_space_group_name_H-M   'P 1'
_cell_length_a   3.84317151
_cell_length_b   6.63458382
_cell_length_c   6.72708443
_cell_angle_alpha   107.16138931
_cell_angle_beta   90.00000000
_cell_angle_gamma   106.83590745
_symmetry_Int_Tables_number   1
_chemical_formula_structural   NbGaO4
_chemical_formula_sum   'Nb2 Ga2 O8'
_cell_volume   156.17835463
_cell_formula_units_Z   2
loop_
 _symmetry_equiv_pos_site_id
 _symmetry_equiv_pos_as_xyz
  1  'x, y, z'
loop_
 _atom_site_type_symbol
 _atom_site_label
 _atom_site_symmetry_multiplicity
 _atom_site_fract_x
 _atom_site_fract_y
 _atom_site_fract_z
 _atom_site_occupancy
  O  O0  1  0.86137499  0.72664830  0.48320884  1
  O  O1  1  0.13472668  0.27335170  0.51679116  1
  O  O2  1  0.94405230  0.89169219  0.13513255  1
  O  O3  1  0.05236011  0.10830781  0.86486745  1
  O  O4  1  0.25632386  0.51656527  0.14490350  1
  O  O5  1  0.73975859  0.48343473  0.85509650  1
  O  O6  1  0.35913297  0.72200729  0.79585727  1
  O  O7  1  0.63712569  0.27799271  0.20414273  1
  Ga  Ga8  1  0.19510029  0.39425261  0.81608024  1
  Ga  Ga9  1  0.80084768  0.60574739  0.18391976  1
  Nb  Nb10  1  0.10149615  0.20667547  0.23303758  1
  Nb  Nb11  1  0.89482068  0.79332453  0.76696242  1
