# generated using pymatgen
data_LaSi
_symmetry_space_group_name_H-M   'P 1'
_cell_length_a   4.00704315
_cell_length_b   6.05213530
_cell_length_c   8.45546334
_cell_angle_alpha   90.00000000
_cell_angle_beta   90.00000000
_cell_angle_gamma   90.00000000
_symmetry_Int_Tables_number   1
_chemical_formula_structural   LaSi
_chemical_formula_sum   'La4 Si4'
_cell_volume   205.05485603
_cell_formula_units_Z   4
loop_
 _symmetry_equiv_pos_site_id
 _symmetry_equiv_pos_as_xyz
  1  'x, y, z'
loop_
 _atom_site_type_symbol
 _atom_site_label
 _atom_site_symmetry_multiplicity
 _atom_site_fract_x
 _atom_site_fract_y
 _atom_site_fract_z
 _atom_site_occupancy
  Si  Si0  1  0.25000000  0.88324860  0.53332642  1
  Si  Si1  1  0.75000000  0.11675140  0.46667358  1
  Si  Si2  1  0.75000000  0.38324860  0.96667358  1
  Si  Si3  1  0.25000000  0.61675140  0.03332642  1
  La  La4  1  0.25000000  0.38679990  0.67972589  1
  La  La5  1  0.75000000  0.61320010  0.32027411  1
  La  La6  1  0.75000000  0.88679990  0.82027411  1
  La  La7  1  0.25000000  0.11320010  0.17972589  1
