# generated using pymatgen
data_CaCO3
_symmetry_space_group_name_H-M   'P 1'
_cell_length_a   4.54339549
_cell_length_b   6.66148824
_cell_length_c   8.53194496
_cell_angle_alpha   90.00000000
_cell_angle_beta   90.00000000
_cell_angle_gamma   90.00000000
_symmetry_Int_Tables_number   1
_chemical_formula_structural   CaCO3
_chemical_formula_sum   'Ca4 C4 O12'
_cell_volume   258.22593182
_cell_formula_units_Z   4
loop_
 _symmetry_equiv_pos_site_id
 _symmetry_equiv_pos_as_xyz
  1  'x, y, z'
loop_
 _atom_site_type_symbol
 _atom_site_label
 _atom_site_symmetry_multiplicity
 _atom_site_fract_x
 _atom_site_fract_y
 _atom_site_fract_z
 _atom_site_occupancy
  Ca  Ca0  1  0.50000000  0.50000000  0.00000000  1
  Ca  Ca1  1  0.00000000  0.00000000  0.00000000  1
  Ca  Ca2  1  0.00000000  0.00000000  0.50000000  1
  Ca  Ca3  1  0.50000000  0.50000000  0.50000000  1
  C  C4  1  0.02748261  0.63556849  0.25000000  1
  C  C5  1  0.52748261  0.86443151  0.75000000  1
  C  C6  1  0.47251739  0.13556849  0.25000000  1
  C  C7  1  0.97251739  0.36443151  0.75000000  1
  O  O8  1  0.21899119  0.04745381  0.25000000  1
  O  O9  1  0.09733932  0.31984004  0.61706016  1
  O  O10  1  0.28100881  0.54745381  0.25000000  1
  O  O11  1  0.90266068  0.68015996  0.38293984  1
  O  O12  1  0.40266068  0.81984004  0.61706016  1
  O  O13  1  0.78100881  0.95254619  0.75000000  1
  O  O14  1  0.59733932  0.18015996  0.38293984  1
  O  O15  1  0.59733932  0.18015996  0.11706016  1
  O  O16  1  0.40266068  0.81984004  0.88293984  1
  O  O17  1  0.90266068  0.68015996  0.11706016  1
  O  O18  1  0.09733932  0.31984004  0.88293984  1
  O  O19  1  0.71899119  0.45254619  0.75000000  1
