# generated using pymatgen
data_LaGe
_symmetry_space_group_name_H-M   'P 1'
_cell_length_a   4.14114141
_cell_length_b   6.12078636
_cell_length_c   8.53301813
_cell_angle_alpha   90.00000000
_cell_angle_beta   90.00000000
_cell_angle_gamma   90.00000000
_symmetry_Int_Tables_number   1
_chemical_formula_structural   LaGe
_chemical_formula_sum   'La4 Ge4'
_cell_volume   216.28676771
_cell_formula_units_Z   4
loop_
 _symmetry_equiv_pos_site_id
 _symmetry_equiv_pos_as_xyz
  1  'x, y, z'
loop_
 _atom_site_type_symbol
 _atom_site_label
 _atom_site_symmetry_multiplicity
 _atom_site_fract_x
 _atom_site_fract_y
 _atom_site_fract_z
 _atom_site_occupancy
  Ge  Ge0  1  0.25000000  0.63331865  0.03718243  1
  Ge  Ge1  1  0.75000000  0.36668135  0.96281757  1
  Ge  Ge2  1  0.75000000  0.13331865  0.46281757  1
  Ge  Ge3  1  0.25000000  0.86668135  0.53718243  1
  La  La4  1  0.25000000  0.11754990  0.18145038  1
  La  La5  1  0.75000000  0.88245010  0.81854962  1
  La  La6  1  0.75000000  0.61754990  0.31854962  1
  La  La7  1  0.25000000  0.38245010  0.68145038  1
