# generated using pymatgen
data_Zn2GeSe4
_symmetry_space_group_name_H-M   'P 1'
_cell_length_a   8.16649142
_cell_length_b   10.59328318
_cell_length_c   6.74697543
_cell_angle_alpha   29.51772744
_cell_angle_beta   52.75701898
_cell_angle_gamma   39.56412405
_symmetry_Int_Tables_number   1
_chemical_formula_structural   Zn2GeSe4
_chemical_formula_sum   'Zn2 Ge1 Se4'
_cell_volume   179.11513605
_cell_formula_units_Z   1
loop_
 _symmetry_equiv_pos_site_id
 _symmetry_equiv_pos_as_xyz
  1  'x, y, z'
loop_
 _atom_site_type_symbol
 _atom_site_label
 _atom_site_symmetry_multiplicity
 _atom_site_fract_x
 _atom_site_fract_y
 _atom_site_fract_z
 _atom_site_occupancy
  Ge  Ge0  1  0.25000957  0.49999755  0.99998575  1
  Se  Se1  1  0.38518416  0.50000316  0.23340551  1
  Se  Se2  1  0.11480402  0.00375576  0.26288043  1
  Se  Se3  1  0.88140402  0.50000316  0.23340551  1
  Se  Se4  1  0.61860575  0.99619079  0.27040692  1
  Zn  Zn5  1  0.00000090  0.00002479  0.99995794  1
  Zn  Zn6  1  0.49999158  0.00002479  0.99995794  1
