# generated using pymatgen
data_TiNiO3
_symmetry_space_group_name_H-M   'P 1'
_cell_length_a   5.07517961
_cell_length_b   5.50930415
_cell_length_c   5.07517928
_cell_angle_alpha   117.42588097
_cell_angle_beta   59.99999783
_cell_angle_gamma   117.42588162
_symmetry_Int_Tables_number   1
_chemical_formula_structural   TiNiO3
_chemical_formula_sum   'Ti2 Ni2 O6'
_cell_volume   104.07079951
_cell_formula_units_Z   2
loop_
 _symmetry_equiv_pos_site_id
 _symmetry_equiv_pos_as_xyz
  1  'x, y, z'
loop_
 _atom_site_type_symbol
 _atom_site_label
 _atom_site_symmetry_multiplicity
 _atom_site_fract_x
 _atom_site_fract_y
 _atom_site_fract_z
 _atom_site_occupancy
  Ti  Ti0  1  0.14642528  0.43927483  0.14642528  1
  Ti  Ti1  1  0.64634343  0.93903128  0.64634343  1
  Ni  Ni2  1  0.35427942  0.06283727  0.35427942  1
  Ni  Ni3  1  0.85430230  0.56290791  0.85430230  1
  O  O4  1  0.05087746  0.26060507  0.43186612  1
  O  O5  1  0.55089352  0.76064550  0.27792852  1
  O  O6  1  0.27792852  0.76064550  0.93182346  1
  O  O7  1  0.77786049  0.26060507  0.05087746  1
  O  O8  1  0.43186612  0.26060507  0.77786049  1
  O  O9  1  0.93182346  0.76064550  0.55089352  1
