# generated using pymatgen
data_Na5OsN4
_symmetry_space_group_name_H-M   'P 1'
_cell_length_a   7.74286648
_cell_length_b   7.30470476
_cell_length_c   5.75477410
_cell_angle_alpha   90.00000000
_cell_angle_beta   90.00000000
_cell_angle_gamma   90.00000000
_symmetry_Int_Tables_number   1
_chemical_formula_structural   Na5OsN4
_chemical_formula_sum   'Na10 Os2 N8'
_cell_volume   325.48630340
_cell_formula_units_Z   2
loop_
 _symmetry_equiv_pos_site_id
 _symmetry_equiv_pos_as_xyz
  1  'x, y, z'
loop_
 _atom_site_type_symbol
 _atom_site_label
 _atom_site_symmetry_multiplicity
 _atom_site_fract_x
 _atom_site_fract_y
 _atom_site_fract_z
 _atom_site_occupancy
  Na  Na0  1  0.56046536  0.48747635  0.23780867  1
  Na  Na1  1  0.93953464  0.48747635  0.23780867  1
  Na  Na2  1  0.56046536  0.01252365  0.23780867  1
  Na  Na3  1  0.93953464  0.01252365  0.23780867  1
  Na  Na4  1  0.43953464  0.51252365  0.76219133  1
  Na  Na5  1  0.06046536  0.51252365  0.76219133  1
  Na  Na6  1  0.43953464  0.98747635  0.76219133  1
  Na  Na7  1  0.06046536  0.98747635  0.76219133  1
  Na  Na8  1  0.75000000  0.75000000  0.66661572  1
  Na  Na9  1  0.25000000  0.25000000  0.33338428  1
  Os  Os10  1  0.75000000  0.25000000  0.71345045  1
  Os  Os11  1  0.25000000  0.75000000  0.28654955  1
  N  N12  1  0.75000000  0.04130673  0.89390808  1
  N  N13  1  0.75000000  0.45869327  0.89390808  1
  N  N14  1  0.25000000  0.95869327  0.10609192  1
  N  N15  1  0.25000000  0.54130673  0.10609192  1
  N  N16  1  0.44812360  0.75000000  0.46543269  1
  N  N17  1  0.05187640  0.75000000  0.46543269  1
  N  N18  1  0.55187640  0.25000000  0.53456731  1
  N  N19  1  0.94812360  0.25000000  0.53456731  1
