# generated using pymatgen
data_Ti7Al2O15
_symmetry_space_group_name_H-M   'P 1'
_cell_length_a   2.98974215
_cell_length_b   9.22200901
_cell_length_c   9.54596675
_cell_angle_alpha   98.34624078
_cell_angle_beta   90.00000000
_cell_angle_gamma   99.32870440
_symmetry_Int_Tables_number   1
_chemical_formula_structural   Ti7Al2O15
_chemical_formula_sum   'Ti7 Al2 O15'
_cell_volume   256.88979562
_cell_formula_units_Z   1
loop_
 _symmetry_equiv_pos_site_id
 _symmetry_equiv_pos_as_xyz
  1  'x, y, z'
loop_
 _atom_site_type_symbol
 _atom_site_label
 _atom_site_symmetry_multiplicity
 _atom_site_fract_x
 _atom_site_fract_y
 _atom_site_fract_z
 _atom_site_occupancy
  O  O0  1  0.22666216  0.45332433  0.60356134  1
  O  O1  1  0.77333784  0.54667567  0.39643866  1
  O  O2  1  0.60729671  0.21459343  0.69448508  1
  O  O3  1  0.39270329  0.78540657  0.30551492  1
  O  O4  1  0.19945187  0.39890373  0.90740530  1
  O  O5  1  0.80054813  0.60109627  0.09259470  1
  O  O6  1  0.42569251  0.85138501  0.99149097  1
  O  O7  1  0.00828261  0.01656523  0.21403756  1
  O  O8  1  0.99171739  0.98343477  0.78596244  1
  O  O9  1  0.18684425  0.37368850  0.18471852  1
  O  O10  1  0.81315575  0.62631150  0.81528148  1
  O  O11  1  0.62006280  0.24012560  0.39403055  1
  O  O12  1  0.37993720  0.75987440  0.60596945  1
  O  O13  1  0.00000000  0.00000000  0.50000000  1
  O  O14  1  0.57430749  0.14861499  0.00850903  1
  Al  Al15  1  0.84220523  0.68441046  0.27694515  1
  Al  Al16  1  0.15779477  0.31558954  0.72305485  1
  Ti  Ti17  1  0.49051500  0.98103001  0.64877488  1
  Ti  Ti18  1  0.50948500  0.01896999  0.35122512  1
  Ti  Ti19  1  0.81082682  0.62165364  0.61634215  1
  Ti  Ti20  1  0.18917318  0.37834636  0.38365785  1
  Ti  Ti21  1  0.32197263  0.64394526  0.95356146  1
  Ti  Ti22  1  0.67802737  0.35605474  0.04643854  1
  Ti  Ti23  1  0.00000000  0.00000000  0.00000000  1
