# generated using pymatgen
data_K2SnBr6
_symmetry_space_group_name_H-M   'P 1'
_cell_length_a   7.64675186
_cell_length_b   7.64675213
_cell_length_c   7.64675165
_cell_angle_alpha   59.99999732
_cell_angle_beta   59.99999613
_cell_angle_gamma   59.99999853
_symmetry_Int_Tables_number   1
_chemical_formula_structural   K2SnBr6
_chemical_formula_sum   'K2 Sn1 Br6'
_cell_volume   316.16658727
_cell_formula_units_Z   1
loop_
 _symmetry_equiv_pos_site_id
 _symmetry_equiv_pos_as_xyz
  1  'x, y, z'
loop_
 _atom_site_type_symbol
 _atom_site_label
 _atom_site_symmetry_multiplicity
 _atom_site_fract_x
 _atom_site_fract_y
 _atom_site_fract_z
 _atom_site_occupancy
  K  K0  1  0.25000000  0.25000000  0.25000000  1
  K  K1  1  0.75000000  0.75000000  0.75000000  1
  Sn  Sn2  1  0.00000000  0.00000000  0.00000000  1
  Br  Br3  1  0.75505476  0.24494524  0.24494524  1
  Br  Br4  1  0.24494524  0.75505476  0.75505476  1
  Br  Br5  1  0.24494524  0.24494524  0.75505476  1
  Br  Br6  1  0.75505476  0.24494524  0.75505476  1
  Br  Br7  1  0.75505476  0.75505476  0.24494524  1
  Br  Br8  1  0.24494524  0.75505476  0.24494524  1
