# generated using pymatgen
data_CaSnO3
_symmetry_space_group_name_H-M   'P 1'
_cell_length_a   5.58310961
_cell_length_b   5.75621941
_cell_length_c   8.00135614
_cell_angle_alpha   90.00000000
_cell_angle_beta   90.00000000
_cell_angle_gamma   90.00000000
_symmetry_Int_Tables_number   1
_chemical_formula_structural   CaSnO3
_chemical_formula_sum   'Ca4 Sn4 O12'
_cell_volume   257.14441433
_cell_formula_units_Z   4
loop_
 _symmetry_equiv_pos_site_id
 _symmetry_equiv_pos_as_xyz
  1  'x, y, z'
loop_
 _atom_site_type_symbol
 _atom_site_label
 _atom_site_symmetry_multiplicity
 _atom_site_fract_x
 _atom_site_fract_y
 _atom_site_fract_z
 _atom_site_occupancy
  O  O0  1  0.69688787  0.29950236  0.44383381  1
  O  O1  1  0.19688787  0.20049764  0.55616619  1
  O  O2  1  0.80311213  0.79950236  0.05616619  1
  O  O3  1  0.30311213  0.70049764  0.94383381  1
  O  O4  1  0.30311213  0.70049764  0.55616619  1
  O  O5  1  0.80311213  0.79950236  0.44383381  1
  O  O6  1  0.19688787  0.20049764  0.94383381  1
  O  O7  1  0.69688787  0.29950236  0.05616619  1
  O  O8  1  0.10690798  0.45794905  0.25000000  1
  O  O9  1  0.60690798  0.04205095  0.75000000  1
  O  O10  1  0.39309202  0.95794905  0.25000000  1
  O  O11  1  0.89309202  0.54205095  0.75000000  1
  Ca  Ca12  1  0.98567334  0.05349189  0.25000000  1
  Ca  Ca13  1  0.48567334  0.44650811  0.75000000  1
  Ca  Ca14  1  0.51432666  0.55349189  0.25000000  1
  Ca  Ca15  1  0.01432666  0.94650811  0.75000000  1
  Sn  Sn16  1  0.00000000  0.50000000  0.50000000  1
  Sn  Sn17  1  0.50000000  0.00000000  0.50000000  1
  Sn  Sn18  1  0.50000000  0.00000000  0.00000000  1
  Sn  Sn19  1  0.00000000  0.50000000  0.00000000  1
