# generated using pymatgen
data_Ca(HoSe2)2
_symmetry_space_group_name_H-M   'P 1'
_cell_length_a   7.24501487
_cell_length_b   14.61788648
_cell_length_c   14.02011013
_cell_angle_alpha   16.44204796
_cell_angle_beta   28.46045239
_cell_angle_gamma   32.52095303
_symmetry_Int_Tables_number   1
_chemical_formula_structural   Ca(HoSe2)2
_chemical_formula_sum   'Ca1 Ho2 Se4'
_cell_volume   200.28191507
_cell_formula_units_Z   1
loop_
 _symmetry_equiv_pos_site_id
 _symmetry_equiv_pos_as_xyz
  1  'x, y, z'
loop_
 _atom_site_type_symbol
 _atom_site_label
 _atom_site_symmetry_multiplicity
 _atom_site_fract_x
 _atom_site_fract_y
 _atom_site_fract_z
 _atom_site_occupancy
  Ca  Ca0  1  0.50000000  0.50000000  0.50000000  1
  Ho  Ho1  1  0.00000000  0.00000000  0.00000000  1
  Ho  Ho2  1  0.00000000  0.50000000  0.00000000  1
  Se  Se3  1  0.25230926  0.50000000  0.25859592  1
  Se  Se4  1  0.75662922  0.00000000  0.74161754  1
  Se  Se5  1  0.24337078  0.00000000  0.25838246  1
  Se  Se6  1  0.74769074  0.50000000  0.74140408  1
