# generated using pymatgen
data_Tm2CuAu
_symmetry_space_group_name_H-M   'P 1'
_cell_length_a   4.93192568
_cell_length_b   4.93192561
_cell_length_c   4.93192079
_cell_angle_alpha   59.99986844
_cell_angle_beta   59.99998615
_cell_angle_gamma   59.99974209
_symmetry_Int_Tables_number   1
_chemical_formula_structural   Tm2CuAu
_chemical_formula_sum   'Tm2 Cu1 Au1'
_cell_volume   84.82674701
_cell_formula_units_Z   1
loop_
 _symmetry_equiv_pos_site_id
 _symmetry_equiv_pos_as_xyz
  1  'x, y, z'
loop_
 _atom_site_type_symbol
 _atom_site_label
 _atom_site_symmetry_multiplicity
 _atom_site_fract_x
 _atom_site_fract_y
 _atom_site_fract_z
 _atom_site_occupancy
  Tm  Tm0  1  0.50000011  0.50000005  0.49999997  1
  Tm  Tm1  1  0.00000059  -0.00000040  0.00000038  1
  Cu  Cu2  1  0.75000053  0.75000084  0.75000095  1
  Au  Au3  1  0.25000077  0.25000151  0.25000071  1
