# generated using pymatgen
data_SrZnPb
_symmetry_space_group_name_H-M   'P 1'
_cell_length_a   4.79910680
_cell_length_b   4.79889461
_cell_length_c   9.08267833
_cell_angle_alpha   90.00000000
_cell_angle_beta   90.00000000
_cell_angle_gamma   120.00146266
_symmetry_Int_Tables_number   1
_chemical_formula_structural   SrZnPb
_chemical_formula_sum   'Sr2 Zn2 Pb2'
_cell_volume   181.15060619
_cell_formula_units_Z   2
loop_
 _symmetry_equiv_pos_site_id
 _symmetry_equiv_pos_as_xyz
  1  'x, y, z'
loop_
 _atom_site_type_symbol
 _atom_site_label
 _atom_site_symmetry_multiplicity
 _atom_site_fract_x
 _atom_site_fract_y
 _atom_site_fract_z
 _atom_site_occupancy
  Sr  Sr0  1  0.00000000  0.00000000  0.50000000  1
  Sr  Sr1  1  0.00000000  0.00000000  -0.00000000  1
  Zn  Zn2  1  0.33331967  0.66663935  0.75000000  1
  Zn  Zn3  1  0.66668033  0.33336065  0.25000000  1
  Pb  Pb4  1  0.33332680  0.66665359  0.25000000  1
  Pb  Pb5  1  0.66667320  0.33334641  0.75000000  1
