# generated using pymatgen
data_GeSe2
_symmetry_space_group_name_H-M   'P 1'
_cell_length_a   6.07063307
_cell_length_b   6.07063307
_cell_length_c   6.45829149
_cell_angle_alpha   118.03348778
_cell_angle_beta   118.03348777
_cell_angle_gamma   90.00000002
_symmetry_Int_Tables_number   1
_chemical_formula_structural   GeSe2
_chemical_formula_sum   'Ge2 Se4'
_cell_volume   177.82369795
_cell_formula_units_Z   2
loop_
 _symmetry_equiv_pos_site_id
 _symmetry_equiv_pos_as_xyz
  1  'x, y, z'
loop_
 _atom_site_type_symbol
 _atom_site_label
 _atom_site_symmetry_multiplicity
 _atom_site_fract_x
 _atom_site_fract_y
 _atom_site_fract_z
 _atom_site_occupancy
  Ge  Ge0  1  0.00000000  0.00000000  0.00000000  1
  Ge  Ge1  1  0.25000000  0.75000000  0.50000000  1
  Se  Se2  1  0.35892052  0.37500000  0.25000000  1
  Se  Se3  1  0.12500000  0.64107948  0.75000000  1
  Se  Se4  1  0.62500000  0.10892052  0.75000000  1
  Se  Se5  1  0.89107948  0.87500000  0.25000000  1
