# generated using pymatgen
data_MnSiRh
_symmetry_space_group_name_H-M   'P 1'
_cell_length_a   3.82477516
_cell_length_b   5.99352703
_cell_length_c   7.24787711
_cell_angle_alpha   90.00000000
_cell_angle_beta   90.00000000
_cell_angle_gamma   90.00000000
_symmetry_Int_Tables_number   1
_chemical_formula_structural   MnSiRh
_chemical_formula_sum   'Mn4 Si4 Rh4'
_cell_volume   166.14956156
_cell_formula_units_Z   4
loop_
 _symmetry_equiv_pos_site_id
 _symmetry_equiv_pos_as_xyz
  1  'x, y, z'
loop_
 _atom_site_type_symbol
 _atom_site_label
 _atom_site_symmetry_multiplicity
 _atom_site_fract_x
 _atom_site_fract_y
 _atom_site_fract_z
 _atom_site_occupancy
  Mn  Mn0  1  0.75000000  0.47147125  0.68109572  1
  Mn  Mn1  1  0.75000000  0.97147125  0.81890428  1
  Mn  Mn2  1  0.25000000  0.52852875  0.31890428  1
  Mn  Mn3  1  0.25000000  0.02852875  0.18109572  1
  Si  Si4  1  0.75000000  0.73523826  0.12153682  1
  Si  Si5  1  0.75000000  0.23523826  0.37846318  1
  Si  Si6  1  0.25000000  0.26476174  0.87846318  1
  Si  Si7  1  0.25000000  0.76476174  0.62153682  1
  Rh  Rh8  1  0.75000000  0.33795873  0.06467315  1
  Rh  Rh9  1  0.75000000  0.83795873  0.43532685  1
  Rh  Rh10  1  0.25000000  0.66204127  0.93532685  1
  Rh  Rh11  1  0.25000000  0.16204127  0.56467315  1
