# generated using pymatgen
data_Co7Mo6
_symmetry_space_group_name_H-M   'P 1'
_cell_length_a   8.94153904
_cell_length_b   8.94153888
_cell_length_c   8.94153859
_cell_angle_alpha   30.80521314
_cell_angle_beta   30.80521486
_cell_angle_gamma   30.80521366
_symmetry_Int_Tables_number   1
_chemical_formula_structural   Co7Mo6
_chemical_formula_sum   'Co7 Mo6'
_cell_volume   166.27760325
_cell_formula_units_Z   1
loop_
 _symmetry_equiv_pos_site_id
 _symmetry_equiv_pos_as_xyz
  1  'x, y, z'
loop_
 _atom_site_type_symbol
 _atom_site_label
 _atom_site_symmetry_multiplicity
 _atom_site_fract_x
 _atom_site_fract_y
 _atom_site_fract_z
 _atom_site_occupancy
  Co  Co0  1  0.08994561  0.08994561  0.58905759  1
  Co  Co1  1  0.91005439  0.41094241  0.91005439  1
  Co  Co2  1  0.00000000  0.00000000  0.00000000  1
  Co  Co3  1  0.08994561  0.58905759  0.08994561  1
  Co  Co4  1  0.91005439  0.91005439  0.41094241  1
  Co  Co5  1  0.41094241  0.91005439  0.91005439  1
  Co  Co6  1  0.58905759  0.08994561  0.08994561  1
  Mo  Mo7  1  0.83428994  0.83428994  0.83428994  1
  Mo  Mo8  1  0.65268860  0.65268860  0.65268860  1
  Mo  Mo9  1  0.45034139  0.45034139  0.45034139  1
  Mo  Mo10  1  0.54965861  0.54965861  0.54965861  1
  Mo  Mo11  1  0.16571006  0.16571006  0.16571006  1
  Mo  Mo12  1  0.34731140  0.34731140  0.34731140  1
