# generated using pymatgen
data_VO2F
_symmetry_space_group_name_H-M   'P 1'
_cell_length_a   5.21394374
_cell_length_b   5.22700810
_cell_length_c   5.21394448
_cell_angle_alpha   117.57679591
_cell_angle_beta   57.94290789
_cell_angle_gamma   117.57679491
_symmetry_Int_Tables_number   1
_chemical_formula_structural   VO2F
_chemical_formula_sum   'V2 O4 F2'
_cell_volume   102.18812821
_cell_formula_units_Z   2
loop_
 _symmetry_equiv_pos_site_id
 _symmetry_equiv_pos_as_xyz
  1  'x, y, z'
loop_
 _atom_site_type_symbol
 _atom_site_label
 _atom_site_symmetry_multiplicity
 _atom_site_fract_x
 _atom_site_fract_y
 _atom_site_fract_z
 _atom_site_occupancy
  V  V0  1  0.73766809  0.19050005  0.76656403  1
  V  V1  1  0.26656403  0.69050005  0.23766809  1
  O  O2  1  0.04113252  0.38681417  0.86280374  1
  O  O3  1  0.46284639  0.39704200  0.04388290  1
  O  O4  1  0.36280374  0.88681417  0.54113252  1
  O  O5  1  0.54388390  0.89704200  0.96284639  1
  F  F6  1  0.87405929  0.38929178  0.45347405  1
  F  F7  1  0.95347405  0.88929178  0.37405929  1
