# generated using pymatgen
data_LiFePO4
_symmetry_space_group_name_H-M   'P 1'
_cell_length_a   10.33047762
_cell_length_b   6.86097889
_cell_length_c   5.12852251
_cell_angle_alpha   90.00570175
_cell_angle_beta   90.00245180
_cell_angle_gamma   89.99117966
_symmetry_Int_Tables_number   1
_chemical_formula_structural   LiFePO4
_chemical_formula_sum   'Li4 Fe4 P4 O16'
_cell_volume   363.49525201
_cell_formula_units_Z   4
loop_
 _symmetry_equiv_pos_site_id
 _symmetry_equiv_pos_as_xyz
  1  'x, y, z'
loop_
 _atom_site_type_symbol
 _atom_site_label
 _atom_site_symmetry_multiplicity
 _atom_site_fract_x
 _atom_site_fract_y
 _atom_site_fract_z
 _atom_site_occupancy
  Li  Li0  1  0.14759195  0.50140991  0.24440329  1
  Li  Li1  1  0.35253142  0.00145170  0.74427965  1
  Li  Li2  1  0.64747988  0.99858593  0.24441214  1
  Li  Li3  1  0.85254769  0.49858338  0.74435111  1
  Fe  Fe4  1  0.16193048  0.00165306  0.24591407  1
  Fe  Fe5  1  0.33799726  0.50169266  0.74626319  1
  Fe  Fe6  1  0.66189329  0.49836263  0.24595059  1
  Fe  Fe7  1  0.83797652  0.99836972  0.74615181  1
  P  P8  1  0.09707001  0.75534966  0.74963226  1
  P  P9  1  0.40294405  0.25541894  0.24947880  1
  P  P10  1  0.59710291  0.74455529  0.74958657  1
  P  P11  1  0.90291359  0.24464294  0.24943992  1
  O  O12  1  0.05125539  0.24343014  0.19962217  1
  O  O13  1  0.12687034  0.75064475  0.04768747  1
  O  O14  1  0.15448674  0.56925399  0.62226819  1
  O  O15  1  0.16273987  0.94148161  0.63653123  1
  O  O16  1  0.33718527  0.44164072  0.13659346  1
  O  O17  1  0.34544205  0.06949491  0.12200303  1
  O  O18  1  0.37325890  0.25090106  0.54753803  1
  O  O19  1  0.44878517  0.74332903  0.69951730  1
  O  O20  1  0.55118238  0.25660476  0.19955767  1
  O  O21  1  0.62678104  0.74930515  0.04760778  1
  O  O22  1  0.65443215  0.93073722  0.62232711  1
  O  O23  1  0.66275891  0.55844515  0.63654166  1
  O  O24  1  0.83723954  0.05834524  0.13653556  1
  O  O25  1  0.84547983  0.43055306  0.12213918  1
  O  O26  1  0.87329359  0.24911054  0.54749804  1
  O  O27  1  0.94882978  0.75664684  0.69956875  1
