# generated using pymatgen
data_LiAgF2
_symmetry_space_group_name_H-M   'P 1'
_cell_length_a   3.04466245
_cell_length_b   3.04449116
_cell_length_c   11.60233563
_cell_angle_alpha   90.00030237
_cell_angle_beta   90.00002806
_cell_angle_gamma   59.99656325
_symmetry_Int_Tables_number   1
_chemical_formula_structural   LiAgF2
_chemical_formula_sum   'Li2 Ag2 F4'
_cell_volume   93.13542132
_cell_formula_units_Z   2
loop_
 _symmetry_equiv_pos_site_id
 _symmetry_equiv_pos_as_xyz
  1  'x, y, z'
loop_
 _atom_site_type_symbol
 _atom_site_label
 _atom_site_symmetry_multiplicity
 _atom_site_fract_x
 _atom_site_fract_y
 _atom_site_fract_z
 _atom_site_occupancy
  Li  Li0  1  0.00000056  0.00004698  0.00000095  1
  Li  Li1  1  0.99999779  0.00001917  0.50000044  1
  Ag  Ag2  1  0.66657683  0.66671466  0.25000005  1
  Ag  Ag3  1  0.33343025  0.33334718  0.75000045  1
  F  F4  1  0.33335436  0.33333452  0.09562954  1
  F  F5  1  0.66663941  0.66667077  0.59562584  1
  F  F6  1  0.66661966  0.66669248  0.90437518  1
  F  F7  1  0.33338114  0.33337423  0.40436656  1
