# generated using pymatgen
data_Ba3MnN3
_symmetry_space_group_name_H-M   'P 1'
_cell_length_a   8.28678614
_cell_length_b   8.28678614
_cell_length_c   5.53418002
_cell_angle_alpha   90.00000000
_cell_angle_beta   90.00000000
_cell_angle_gamma   120.00000003
_symmetry_Int_Tables_number   1
_chemical_formula_structural   Ba3MnN3
_chemical_formula_sum   'Ba6 Mn2 N6'
_cell_volume   329.12144083
_cell_formula_units_Z   2
loop_
 _symmetry_equiv_pos_site_id
 _symmetry_equiv_pos_as_xyz
  1  'x, y, z'
loop_
 _atom_site_type_symbol
 _atom_site_label
 _atom_site_symmetry_multiplicity
 _atom_site_fract_x
 _atom_site_fract_y
 _atom_site_fract_z
 _atom_site_occupancy
  N  N0  1  0.86624109  0.54926649  0.75000000  1
  N  N1  1  0.31697460  0.86624109  0.25000000  1
  N  N2  1  0.54926649  0.68302540  0.25000000  1
  N  N3  1  0.45073351  0.31697460  0.75000000  1
  N  N4  1  0.68302540  0.13375891  0.75000000  1
  N  N5  1  0.13375891  0.45073351  0.25000000  1
  Mn  Mn6  1  0.33333333  0.66666667  0.25000000  1
  Mn  Mn7  1  0.66666667  0.33333333  0.75000000  1
  Ba  Ba8  1  0.63670487  0.71833916  0.75000000  1
  Ba  Ba9  1  0.91836570  0.63670487  0.25000000  1
  Ba  Ba10  1  0.71833916  0.08163430  0.25000000  1
  Ba  Ba11  1  0.28166084  0.91836570  0.75000000  1
  Ba  Ba12  1  0.08163430  0.36329513  0.75000000  1
  Ba  Ba13  1  0.36329513  0.28166084  0.25000000  1
