# generated using pymatgen
data_LiTbSe2
_symmetry_space_group_name_H-M   'P 1'
_cell_length_a   8.08737993
_cell_length_b   10.73357124
_cell_length_c   7.05853592
_cell_angle_alpha   29.15320106
_cell_angle_beta   55.04873838
_cell_angle_gamma   41.10849641
_symmetry_Int_Tables_number   1
_chemical_formula_structural   LiTbSe2
_chemical_formula_sum   'Li2 Tb2 Se4'
_cell_volume   189.19153185
_cell_formula_units_Z   2
loop_
 _symmetry_equiv_pos_site_id
 _symmetry_equiv_pos_as_xyz
  1  'x, y, z'
loop_
 _atom_site_type_symbol
 _atom_site_label
 _atom_site_symmetry_multiplicity
 _atom_site_fract_x
 _atom_site_fract_y
 _atom_site_fract_z
 _atom_site_occupancy
  Li  Li0  1  0.50000197  0.00000000  0.00000000  1
  Li  Li1  1  0.24999803  0.50000000  0.00000000  1
  Se  Se2  1  0.24807110  0.99999860  0.50385849  1
  Se  Se3  1  0.99807322  0.49999860  0.50385849  1
  Se  Se4  1  0.75192678  0.00000140  0.49614151  1
  Se  Se5  1  0.50192890  0.50000140  0.49614151  1
  Tb  Tb6  1  -0.00000938  0.00000000  0.00000000  1
  Tb  Tb7  1  0.75000938  0.50000000  0.00000000  1
