# generated using pymatgen
data_LiVF4
_symmetry_space_group_name_H-M   'P 1'
_cell_length_a   4.71582202
_cell_length_b   5.64658195
_cell_length_c   5.21942143
_cell_angle_alpha   90.00000000
_cell_angle_beta   93.59223605
_cell_angle_gamma   90.00000000
_symmetry_Int_Tables_number   1
_chemical_formula_structural   LiVF4
_chemical_formula_sum   'Li2 V2 F8'
_cell_volume   138.71111948
_cell_formula_units_Z   2
loop_
 _symmetry_equiv_pos_site_id
 _symmetry_equiv_pos_as_xyz
  1  'x, y, z'
loop_
 _atom_site_type_symbol
 _atom_site_label
 _atom_site_symmetry_multiplicity
 _atom_site_fract_x
 _atom_site_fract_y
 _atom_site_fract_z
 _atom_site_occupancy
  Li  Li0  1  0.50000000  0.63488001  0.75000000  1
  Li  Li1  1  0.50000000  0.36511999  0.25000000  1
  V  V2  1  0.00000000  0.15542887  0.75000000  1
  V  V3  1  0.00000000  0.84457113  0.25000000  1
  F  F4  1  0.21757566  0.88572025  0.92319161  1
  F  F5  1  0.21757566  0.11427975  0.42319161  1
  F  F6  1  0.26376246  0.37218640  0.91197616  1
  F  F7  1  0.26376246  0.62781360  0.41197616  1
  F  F8  1  0.73623754  0.37218640  0.58802384  1
  F  F9  1  0.73623754  0.62781360  0.08802384  1
  F  F10  1  0.78242434  0.88572025  0.57680839  1
  F  F11  1  0.78242434  0.11427975  0.07680839  1
