# generated using pymatgen
data_DyPO4
_symmetry_space_group_name_H-M   'P 1'
_cell_length_a   5.78217082
_cell_length_b   5.78217082
_cell_length_c   5.78217082
_cell_angle_alpha   105.90113408
_cell_angle_beta   105.90113408
_cell_angle_gamma   116.87486795
_symmetry_Int_Tables_number   1
_chemical_formula_structural   DyPO4
_chemical_formula_sum   'Dy2 P2 O8'
_cell_volume   146.92998173
_cell_formula_units_Z   2
loop_
 _symmetry_equiv_pos_site_id
 _symmetry_equiv_pos_as_xyz
  1  'x, y, z'
loop_
 _atom_site_type_symbol
 _atom_site_label
 _atom_site_symmetry_multiplicity
 _atom_site_fract_x
 _atom_site_fract_y
 _atom_site_fract_z
 _atom_site_occupancy
  Dy  Dy0  1  0.37500000  0.62500000  0.25000000  1
  Dy  Dy1  1  0.62500000  0.37500000  0.75000000  1
  P  P2  1  0.87500000  0.12500000  0.25000000  1
  P  P3  1  0.12500000  0.87500000  0.75000000  1
  O  O4  1  0.71458083  0.13876807  0.42418724  1
  O  O5  1  0.71458083  0.79039359  0.07581276  1
  O  O6  1  0.13876807  0.71458083  0.92418724  1
  O  O7  1  0.79039359  0.71458083  0.57581276  1
  O  O8  1  0.28541917  0.86123193  0.57581276  1
  O  O9  1  0.28541917  0.20960641  0.92418724  1
  O  O10  1  0.86123193  0.28541917  0.07581276  1
  O  O11  1  0.20960641  0.28541917  0.42418724  1
