# generated using pymatgen
data_VSnO4
_symmetry_space_group_name_H-M   'P 1'
_cell_length_a   3.15105953
_cell_length_b   5.62870819
_cell_length_c   5.62849092
_cell_angle_alpha   108.45270781
_cell_angle_beta   55.95466061
_cell_angle_gamma   124.04312305
_symmetry_Int_Tables_number   1
_chemical_formula_structural   VSnO4
_chemical_formula_sum   'V1 Sn1 O4'
_cell_volume   68.54071465
_cell_formula_units_Z   1
loop_
 _symmetry_equiv_pos_site_id
 _symmetry_equiv_pos_as_xyz
  1  'x, y, z'
loop_
 _atom_site_type_symbol
 _atom_site_label
 _atom_site_symmetry_multiplicity
 _atom_site_fract_x
 _atom_site_fract_y
 _atom_site_fract_z
 _atom_site_occupancy
  V  V0  1  0.50081580  0.50083728  0.49916117  1
  Sn  Sn1  1  0.00099812  0.00086022  0.99914662  1
  O  O2  1  0.50362981  0.20915729  0.20469668  1
  O  O3  1  0.37252693  0.68688325  0.31310651  1
  O  O4  1  0.50361679  0.79529502  0.79084896  1
  O  O5  1  0.62895855  0.31511394  0.68489307  1
