# generated using pymatgen
data_Zr3N2
_symmetry_space_group_name_H-M   'P 1'
_cell_length_a   5.68011690
_cell_length_b   5.68011123
_cell_length_c   6.19962473
_cell_angle_alpha   117.24679598
_cell_angle_beta   62.75309874
_cell_angle_gamma   120.00192422
_symmetry_Int_Tables_number   1
_chemical_formula_structural   Zr3N2
_chemical_formula_sum   'Zr6 N4'
_cell_volume   147.03776514
_cell_formula_units_Z   2
loop_
 _symmetry_equiv_pos_site_id
 _symmetry_equiv_pos_as_xyz
  1  'x, y, z'
loop_
 _atom_site_type_symbol
 _atom_site_label
 _atom_site_symmetry_multiplicity
 _atom_site_fract_x
 _atom_site_fract_y
 _atom_site_fract_z
 _atom_site_occupancy
  Zr  Zr0  1  0.57536253  0.74990543  0.24996628  1
  Zr  Zr1  1  0.92456878  0.42456989  0.24999999  1
  Zr  Zr2  1  0.24990471  0.07536228  0.25003327  1
  Zr  Zr3  1  0.75009643  0.92464093  0.74996674  1
  Zr  Zr4  1  0.07543060  0.57543184  0.75000031  1
  Zr  Zr5  1  0.42463752  0.25009693  0.75003492  1
  N  N6  1  0.66120903  0.33863251  0.01626897  1
  N  N7  1  0.83863154  0.16120665  0.48373069  1
  N  N8  1  0.16136815  0.83879494  0.51626988  1
  N  N9  1  0.33879371  0.66136860  0.98373095  1
