# generated using pymatgen
data_Y2Mo2O7
_symmetry_space_group_name_H-M   'P 1'
_cell_length_a   7.37051308
_cell_length_b   7.37051308
_cell_length_c   7.37051309
_cell_angle_alpha   60.00000001
_cell_angle_beta   60.00000001
_cell_angle_gamma   59.99999998
_symmetry_Int_Tables_number   1
_chemical_formula_structural   Y2Mo2O7
_chemical_formula_sum   'Y4 Mo4 O14'
_cell_volume   283.12496573
_cell_formula_units_Z   2
loop_
 _symmetry_equiv_pos_site_id
 _symmetry_equiv_pos_as_xyz
  1  'x, y, z'
loop_
 _atom_site_type_symbol
 _atom_site_label
 _atom_site_symmetry_multiplicity
 _atom_site_fract_x
 _atom_site_fract_y
 _atom_site_fract_z
 _atom_site_occupancy
  O  O0  1  0.62499983  0.62499994  0.62499959  1
  O  O1  1  0.37499927  0.37499997  0.37500007  1
  O  O2  1  0.33806812  0.91193189  0.91193305  1
  O  O3  1  0.08806756  0.66193192  0.66193353  1
  O  O4  1  0.91193312  0.33806800  0.91193250  1
  O  O5  1  0.91193288  0.91193189  0.33806709  1
  O  O6  1  0.33806678  0.33806800  0.91193209  1
  O  O7  1  0.33806812  0.91193189  0.33806726  1
  O  O8  1  0.91193312  0.33806800  0.33806671  1
  O  O9  1  0.66193232  0.66193192  0.08806757  1
  O  O10  1  0.08806779  0.08806802  0.66193178  1
  O  O11  1  0.08806756  0.66193192  0.08806774  1
  O  O12  1  0.66193256  0.08806802  0.66193298  1
  O  O13  1  0.66193256  0.08806802  0.08806718  1
  Y  Y14  1  0.49999955  0.49999996  0.49999983  1
  Y  Y15  1  0.49999955  0.49999996  0.00000004  1
  Y  Y16  1  0.00000029  0.49999996  0.49999956  1
  Y  Y17  1  0.49999926  0.00000000  0.50000006  1
  Mo  Mo18  1  0.00000000  0.00000000  0.00000000  1
  Mo  Mo19  1  0.00000000  0.00000000  0.49999979  1
  Mo  Mo20  1  0.49999926  0.00000000  0.00000027  1
  Mo  Mo21  1  0.00000029  0.49999996  0.99999977  1
