# generated using pymatgen
data_MgSiO3
_symmetry_space_group_name_H-M   'P 1'
_cell_length_a   5.38317259
_cell_length_b   6.66372657
_cell_length_c   6.66372657
_cell_angle_alpha   83.81813841
_cell_angle_beta   74.86477886
_cell_angle_gamma   74.86477886
_symmetry_Int_Tables_number   1
_chemical_formula_structural   MgSiO3
_chemical_formula_sum   'Mg4 Si4 O12'
_cell_volume   222.54484652
_cell_formula_units_Z   4
loop_
 _symmetry_equiv_pos_site_id
 _symmetry_equiv_pos_as_xyz
  1  'x, y, z'
loop_
 _atom_site_type_symbol
 _atom_site_label
 _atom_site_symmetry_multiplicity
 _atom_site_fract_x
 _atom_site_fract_y
 _atom_site_fract_z
 _atom_site_occupancy
  Mg  Mg0  1  0.75000000  0.09739595  0.90260405  1
  Mg  Mg1  1  0.25000000  0.90260405  0.09739595  1
  Mg  Mg2  1  0.75000000  0.74332455  0.25667545  1
  Mg  Mg3  1  0.25000000  0.25667545  0.74332455  1
  Si  Si4  1  0.77267400  0.61424094  0.79594361  1
  Si  Si5  1  0.72732600  0.20405639  0.38575906  1
  Si  Si6  1  0.22732600  0.38575906  0.20405639  1
  Si  Si7  1  0.27267400  0.79594361  0.61424094  1
  O  O8  1  0.65400926  0.78799503  0.97374813  1
  O  O9  1  0.84599074  0.02625187  0.21200497  1
  O  O10  1  0.34599074  0.21200497  0.02625187  1
  O  O11  1  0.15400926  0.97374813  0.78799503  1
  O  O12  1  0.86100864  0.37354500  0.87229234  1
  O  O13  1  0.63899136  0.12770766  0.62645500  1
  O  O14  1  0.13899136  0.62645500  0.12770766  1
  O  O15  1  0.36100864  0.87229234  0.37354500  1
  O  O16  1  0.55480275  0.63994019  0.65370292  1
  O  O17  1  0.94519725  0.34629708  0.36005981  1
  O  O18  1  0.44519725  0.36005981  0.34629708  1
  O  O19  1  0.05480275  0.65370292  0.63994019  1
