# generated using pymatgen
data_Ga3PO7
_symmetry_space_group_name_H-M   'P 1'
_cell_length_a   5.15268483
_cell_length_b   5.15268482
_cell_length_c   5.15268483
_cell_angle_alpha   102.03470244
_cell_angle_beta   102.03470234
_cell_angle_gamma   102.03470255
_symmetry_Int_Tables_number   1
_chemical_formula_structural   Ga3PO7
_chemical_formula_sum   'Ga3 P1 O7'
_cell_volume   126.23508936
_cell_formula_units_Z   1
loop_
 _symmetry_equiv_pos_site_id
 _symmetry_equiv_pos_as_xyz
  1  'x, y, z'
loop_
 _atom_site_type_symbol
 _atom_site_label
 _atom_site_symmetry_multiplicity
 _atom_site_fract_x
 _atom_site_fract_y
 _atom_site_fract_z
 _atom_site_occupancy
  O  O0  1  0.29017505  0.97131861  0.29017505  1
  O  O1  1  0.73438437  0.73438437  0.35605411  1
  O  O2  1  0.73438437  0.35605411  0.73438437  1
  O  O3  1  0.29017505  0.29017505  0.97131861  1
  O  O4  1  0.97131861  0.29017505  0.29017505  1
  O  O5  1  0.89087872  0.89087872  0.89087872  1
  O  O6  1  0.35605411  0.73438437  0.73438437  1
  P  P7  1  0.12506033  0.12506033  0.12506033  1
  Ga  Ga8  1  0.58291196  0.97327880  0.58291196  1
  Ga  Ga9  1  0.58291196  0.58291196  0.97327880  1
  Ga  Ga10  1  0.97327880  0.58291196  0.58291196  1
