# generated using pymatgen
data_CaAl2SiO6
_symmetry_space_group_name_H-M   'P 1'
_cell_length_a   9.74980642
_cell_length_b   8.75132774
_cell_length_c   5.33435022
_cell_angle_alpha   90.00000000
_cell_angle_beta   106.46645654
_cell_angle_gamma   90.00000000
_symmetry_Int_Tables_number   1
_chemical_formula_structural   CaAl2SiO6
_chemical_formula_sum   'Ca4 Al8 Si4 O24'
_cell_volume   436.47931189
_cell_formula_units_Z   4
loop_
 _symmetry_equiv_pos_site_id
 _symmetry_equiv_pos_as_xyz
  1  'x, y, z'
loop_
 _atom_site_type_symbol
 _atom_site_label
 _atom_site_symmetry_multiplicity
 _atom_site_fract_x
 _atom_site_fract_y
 _atom_site_fract_z
 _atom_site_occupancy
  Ca  Ca0  1  -0.00000000  0.31325426  0.25000000  1
  Ca  Ca1  1  0.50000000  0.80798382  0.25000000  1
  Ca  Ca2  1  -0.00000000  0.69201618  0.75000000  1
  Ca  Ca3  1  0.50000000  0.18674574  0.75000000  1
  Al  Al4  1  0.78369477  0.59627926  0.20975425  1
  Al  Al5  1  0.21630523  0.59627926  0.29024575  1
  Al  Al6  1  0.71630523  0.90372074  0.79024575  1
  Al  Al7  1  0.28369477  0.90372074  0.70975425  1
  Al  Al8  1  -0.00000000  0.90281364  0.25000000  1
  Al  Al9  1  0.50000000  0.41082131  0.25000000  1
  Al  Al10  1  -0.00000000  0.08917869  0.75000000  1
  Al  Al11  1  0.50000000  0.59718636  0.75000000  1
  Si  Si12  1  0.29216345  0.09788532  0.21585480  1
  Si  Si13  1  0.70783655  0.09788532  0.28414520  1
  Si  Si14  1  0.20783655  0.40211468  0.78414520  1
  Si  Si15  1  0.79216345  0.40211468  0.71585480  1
  O  O16  1  0.11420615  0.09236199  0.12680117  1
  O  O17  1  0.36782104  0.26267353  0.31208524  1
  O  O18  1  0.35420529  0.02522616  0.98639735  1
  O  O19  1  0.59594110  0.57294178  0.11355802  1
  O  O20  1  0.86687361  0.76971441  0.31273428  1
  O  O21  1  0.85558987  0.51314354  0.97309797  1
  O  O22  1  0.88579385  0.09236199  0.37319883  1
  O  O23  1  0.63217896  0.26267353  0.18791476  1
  O  O24  1  0.64579471  0.02522616  0.51360265  1
  O  O25  1  0.40405890  0.57294178  0.38644198  1
  O  O26  1  0.13312639  0.76971441  0.18726572  1
  O  O27  1  0.14441013  0.51314354  0.52690203  1
  O  O28  1  0.90405890  0.92705822  0.88644198  1
  O  O29  1  0.63312639  0.73028559  0.68726572  1
  O  O30  1  0.64441013  0.98685646  0.02690203  1
  O  O31  1  0.38579385  0.40763801  0.87319883  1
  O  O32  1  0.13217896  0.23732647  0.68791476  1
  O  O33  1  0.14579471  0.47477384  0.01360265  1
  O  O34  1  0.09594110  0.92705822  0.61355802  1
  O  O35  1  0.36687361  0.73028559  0.81273428  1
  O  O36  1  0.35558987  0.98685646  0.47309797  1
  O  O37  1  0.61420615  0.40763801  0.62680117  1
  O  O38  1  0.86782104  0.23732647  0.81208524  1
  O  O39  1  0.85420529  0.47477384  0.48639735  1
