# generated using pymatgen
data_SrCu2O3
_symmetry_space_group_name_H-M   'P 1'
_cell_length_a   3.56335091
_cell_length_b   3.97483383
_cell_length_c   11.57233226
_cell_angle_alpha   90.00000000
_cell_angle_beta   90.00000000
_cell_angle_gamma   90.00000000
_symmetry_Int_Tables_number   1
_chemical_formula_structural   SrCu2O3
_chemical_formula_sum   'Sr2 Cu4 O6'
_cell_volume   163.90736351
_cell_formula_units_Z   2
loop_
 _symmetry_equiv_pos_site_id
 _symmetry_equiv_pos_as_xyz
  1  'x, y, z'
loop_
 _atom_site_type_symbol
 _atom_site_label
 _atom_site_symmetry_multiplicity
 _atom_site_fract_x
 _atom_site_fract_y
 _atom_site_fract_z
 _atom_site_occupancy
  O  O0  1  0.96766835  0.25000000  0.75000000  1
  O  O1  1  0.03233165  0.75000000  0.25000000  1
  O  O2  1  0.99109729  0.75000000  0.57977382  1
  O  O3  1  0.99109729  0.75000000  0.92022618  1
  O  O4  1  0.00890271  0.25000000  0.07977382  1
  O  O5  1  0.00890271  0.25000000  0.42022618  1
  Cu  Cu6  1  0.01243990  0.75000000  0.08498748  1
  Cu  Cu7  1  0.98756010  0.25000000  0.91501252  1
  Cu  Cu8  1  0.01243990  0.75000000  0.41501252  1
  Cu  Cu9  1  0.98756010  0.25000000  0.58498748  1
  Sr  Sr10  1  0.48314204  0.75000000  0.75000000  1
  Sr  Sr11  1  0.51685796  0.25000000  0.25000000  1
