# generated using pymatgen
data_LiHoSe2
_symmetry_space_group_name_H-M   'P 1'
_cell_length_a   8.02061766
_cell_length_b   10.66284841
_cell_length_c   7.02738722
_cell_angle_alpha   29.12673101
_cell_angle_beta   55.20314150
_cell_angle_gamma   41.21850202
_symmetry_Int_Tables_number   1
_chemical_formula_structural   LiHoSe2
_chemical_formula_sum   'Li2 Ho2 Se4'
_cell_volume   185.63118952
_cell_formula_units_Z   2
loop_
 _symmetry_equiv_pos_site_id
 _symmetry_equiv_pos_as_xyz
  1  'x, y, z'
loop_
 _atom_site_type_symbol
 _atom_site_label
 _atom_site_symmetry_multiplicity
 _atom_site_fract_x
 _atom_site_fract_y
 _atom_site_fract_z
 _atom_site_occupancy
  Ho  Ho0  1  0.25001478  0.50000000  0.00000000  1
  Ho  Ho1  1  0.49998518  0.00000000  0.00000000  1
  Li  Li2  1  1.00000166  0.00000000  0.00000000  1
  Li  Li3  1  0.74999834  0.50000000  0.00000000  1
  Se  Se4  1  0.25351060  0.00013548  0.49272135  1
  Se  Se5  1  0.74650291  0.99986452  0.50727865  1
  Se  Se6  1  0.49648946  0.49986449  0.50727863  1
  Se  Se7  1  0.00349707  0.50013551  0.49272137  1
