# generated using pymatgen
data_MgSiO3
_symmetry_space_group_name_H-M   'P 1'
_cell_length_a   5.12991459
_cell_length_b   8.95256247
_cell_length_c   18.53411045
_cell_angle_alpha   90.00000000
_cell_angle_beta   90.00000000
_cell_angle_gamma   90.00000000
_symmetry_Int_Tables_number   1
_chemical_formula_structural   MgSiO3
_chemical_formula_sum   'Mg16 Si16 O48'
_cell_volume   851.19534787
_cell_formula_units_Z   16
loop_
 _symmetry_equiv_pos_site_id
 _symmetry_equiv_pos_as_xyz
  1  'x, y, z'
loop_
 _atom_site_type_symbol
 _atom_site_label
 _atom_site_symmetry_multiplicity
 _atom_site_fract_x
 _atom_site_fract_y
 _atom_site_fract_z
 _atom_site_occupancy
  Mg  Mg0  1  0.10101401  0.59668696  0.87552029  1
  Mg  Mg1  1  0.89898599  0.40331304  0.37552029  1
  Mg  Mg2  1  0.39898599  0.59668696  0.37552029  1
  Mg  Mg3  1  0.60101401  0.40331304  0.87552029  1
  Mg  Mg4  1  0.10207319  0.23076927  0.87640636  1
  Mg  Mg5  1  0.89792681  0.76923073  0.37640636  1
  Mg  Mg6  1  0.39792681  0.23076927  0.37640636  1
  Mg  Mg7  1  0.60207319  0.76923073  0.87640636  1
  Mg  Mg8  1  0.80621316  0.90211776  0.12572282  1
  Mg  Mg9  1  0.19378684  0.09788224  0.62572282  1
  Mg  Mg10  1  0.69378684  0.90211776  0.62572282  1
  Mg  Mg11  1  0.30621316  0.09788224  0.12572282  1
  Mg  Mg12  1  0.30435352  0.73487941  0.12092571  1
  Mg  Mg13  1  0.69564648  0.26512059  0.62092571  1
  Mg  Mg14  1  0.19564648  0.73487941  0.62092571  1
  Mg  Mg15  1  0.80435352  0.26512059  0.12092571  1
  Si  Si16  1  0.97208709  0.40978043  0.72857179  1
  Si  Si17  1  0.02791291  0.59021957  0.22857179  1
  Si  Si18  1  0.52791291  0.40978043  0.22857179  1
  Si  Si19  1  0.47208709  0.59021957  0.72857179  1
  Si  Si20  1  0.03209722  0.90878108  0.77279060  1
  Si  Si21  1  0.96790278  0.09121892  0.27279060  1
  Si  Si22  1  0.46790278  0.90878108  0.27279060  1
  Si  Si23  1  0.53209722  0.09121892  0.77279060  1
  Si  Si24  1  0.24362839  0.41148048  0.52551506  1
  Si  Si25  1  0.75637161  0.58851952  0.02551506  1
  Si  Si26  1  0.25637161  0.41148048  0.02551506  1
  Si  Si27  1  0.74362839  0.58851952  0.52551506  1
  Si  Si28  1  0.85263703  0.08896289  0.47464035  1
  Si  Si29  1  0.14736297  0.91103711  0.97464035  1
  Si  Si30  1  0.64736297  0.08896289  0.97464035  1
  Si  Si31  1  0.35263703  0.91103711  0.47464035  1
  O  O32  1  0.95340080  0.41018950  0.81655685  1
  O  O33  1  0.04659920  0.58981050  0.31655685  1
  O  O34  1  0.54659920  0.41018950  0.31655685  1
  O  O35  1  0.45340080  0.58981050  0.81655685  1
  O  O36  1  0.01279849  0.25542225  0.68666226  1
  O  O37  1  0.98720151  0.74457775  0.18666226  1
  O  O38  1  0.48720151  0.25542225  0.18666226  1
  O  O39  1  0.51279849  0.74457775  0.68666226  1
  O  O40  1  0.17626413  0.53994712  0.69802574  1
  O  O41  1  0.82373587  0.46005288  0.19802574  1
  O  O42  1  0.32373587  0.53994712  0.19802574  1
  O  O43  1  0.67626413  0.46005288  0.69802574  1
  O  O44  1  0.03080513  0.90833044  0.68439053  1
  O  O45  1  0.96919487  0.09166956  0.18439053  1
  O  O46  1  0.46919487  0.90833044  0.18439053  1
  O  O47  1  0.53080513  0.09166956  0.68439053  1
  O  O48  1  0.92533529  0.76098185  0.81267236  1
  O  O49  1  0.07466471  0.23901815  0.31267236  1
  O  O50  1  0.57466471  0.76098185  0.31267236  1
  O  O51  1  0.42533529  0.23901815  0.81267236  1
  O  O52  1  0.83622527  0.04971761  0.80089717  1
  O  O53  1  0.16377473  0.95028239  0.30089717  1
  O  O54  1  0.66377473  0.04971761  0.30089717  1
  O  O55  1  0.33622527  0.95028239  0.80089717  1
  O  O56  1  0.23912466  0.40867350  0.43724745  1
  O  O57  1  0.76087534  0.59132650  0.93724745  1
  O  O58  1  0.26087534  0.40867350  0.93724745  1
  O  O59  1  0.73912466  0.59132650  0.43724745  1
  O  O60  1  0.36099061  0.26767418  0.56591682  1
  O  O61  1  0.63900939  0.73232582  0.06591682  1
  O  O62  1  0.13900939  0.26767418  0.06591682  1
  O  O63  1  0.86099061  0.73232582  0.56591682  1
  O  O64  1  0.93285180  0.44334120  0.55240283  1
  O  O65  1  0.06714820  0.55665880  0.05240283  1
  O  O66  1  0.56714820  0.44334120  0.05240283  1
  O  O67  1  0.43285180  0.55665880  0.55240283  1
  O  O68  1  0.85699701  0.09026288  0.56288517  1
  O  O69  1  0.14300299  0.90973712  0.06288517  1
  O  O70  1  0.64300299  0.09026288  0.06288517  1
  O  O71  1  0.35699701  0.90973712  0.56288517  1
  O  O72  1  0.73375979  0.23211609  0.43432618  1
  O  O73  1  0.26624021  0.76788391  0.93432618  1
  O  O74  1  0.76624021  0.23211609  0.93432618  1
  O  O75  1  0.23375979  0.76788391  0.43432618  1
  O  O76  1  0.16453799  0.05728782  0.44792366  1
  O  O77  1  0.83546201  0.94271218  0.94792366  1
  O  O78  1  0.33546201  0.05728782  0.94792366  1
  O  O79  1  0.66453799  0.94271218  0.44792366  1
