# generated using pymatgen
data_V2CdO6
_symmetry_space_group_name_H-M   'P 1'
_cell_length_a   3.61384815
_cell_length_b   5.11471428
_cell_length_c   7.08481306
_cell_angle_alpha   110.95169870
_cell_angle_beta   90.01389845
_cell_angle_gamma   110.67036994
_symmetry_Int_Tables_number   1
_chemical_formula_structural   V2CdO6
_chemical_formula_sum   'V2 Cd1 O6'
_cell_volume   113.21843289
_cell_formula_units_Z   1
loop_
 _symmetry_equiv_pos_site_id
 _symmetry_equiv_pos_as_xyz
  1  'x, y, z'
loop_
 _atom_site_type_symbol
 _atom_site_label
 _atom_site_symmetry_multiplicity
 _atom_site_fract_x
 _atom_site_fract_y
 _atom_site_fract_z
 _atom_site_occupancy
  Cd  Cd0  1  0.00000000  0.00000000  0.00000000  1
  V  V1  1  0.18701054  0.37350332  0.63757054  1
  V  V2  1  0.81298946  0.62649668  0.36242946  1
  O  O3  1  0.03038635  0.06029744  0.69777975  1
  O  O4  1  0.96961365  0.93970256  0.30222025  1
  O  O5  1  0.33492443  0.66968465  0.87023629  1
  O  O6  1  0.66507557  0.33031535  0.12976371  1
  O  O7  1  0.30351760  0.60725831  0.43569379  1
  O  O8  1  0.69648240  0.39274169  0.56430621  1
