# generated using pymatgen
data_Fe8N3
_symmetry_space_group_name_H-M   'P 1'
_cell_length_a   4.68417109
_cell_length_b   18.73329975
_cell_length_c   10.31023497
_cell_angle_alpha   24.69066366
_cell_angle_beta   117.03611100
_cell_angle_gamma   120.00635400
_symmetry_Int_Tables_number   1
_chemical_formula_structural   Fe8N3
_chemical_formula_sum   'Fe24 N9'
_cell_volume   327.26730643
_cell_formula_units_Z   3
loop_
 _symmetry_equiv_pos_site_id
 _symmetry_equiv_pos_as_xyz
  1  'x, y, z'
loop_
 _atom_site_type_symbol
 _atom_site_label
 _atom_site_symmetry_multiplicity
 _atom_site_fract_x
 _atom_site_fract_y
 _atom_site_fract_z
 _atom_site_occupancy
  Fe  Fe0  1  0.00535895  0.91561332  0.50177630  1
  Fe  Fe1  1  0.99859824  0.66638250  0.49989639  1
  Fe  Fe2  1  0.33403066  0.83466872  0.50271572  1
  Fe  Fe3  1  0.99768828  0.83116033  0.99874813  1
  Fe  Fe4  1  0.99943224  0.41949783  0.49759575  1
  Fe  Fe5  1  0.32445017  0.57991572  0.50123333  1
  Fe  Fe6  1  0.66690148  0.74952516  0.50219067  1
  Fe  Fe7  1  0.32880774  0.74890431  0.00259388  1
  Fe  Fe8  1  0.66671052  0.91629120  0.00007222  1
  Fe  Fe9  1  0.99916071  0.58079239  0.00214515  1
  Fe  Fe10  1  0.99683932  0.16920028  0.49773963  1
  Fe  Fe11  1  0.32829606  0.33293182  0.49786339  1
  Fe  Fe12  1  0.67198714  0.50149707  0.49739686  1
  Fe  Fe13  1  0.32774044  0.50029478  0.00110476  1
  Fe  Fe14  1  0.99530819  0.33051961  0.00513104  1
  Fe  Fe15  1  0.67375536  0.66709546  0.00240780  1
  Fe  Fe16  1  0.33704945  0.08563850  0.49490244  1
  Fe  Fe17  1  0.67563700  0.25138923  0.49891172  1
  Fe  Fe18  1  0.33357730  0.24702663  0.00099195  1
  Fe  Fe19  1  0.01006707  0.08738343  0.99727748  1
  Fe  Fe20  1  0.67543148  0.41693043  0.00228303  1
  Fe  Fe21  1  0.65652226  0.99801980  0.49901152  1
  Fe  Fe22  1  0.33558986  0.00172490  0.99779036  1
  Fe  Fe23  1  0.66064541  0.16739058  0.99821575  1
  N  N24  1  0.00735544  0.87867397  0.25000684  1
  N  N25  1  0.66067427  0.95832829  0.74964538  1
  N  N26  1  0.32608135  0.78803965  0.25000700  1
  N  N27  1  0.66803972  0.70809895  0.75100876  1
  N  N28  1  0.33266514  0.54133244  0.25000045  1
  N  N29  1  0.67192865  0.45797535  0.75035014  1
  N  N30  1  0.34028911  0.29514818  0.24999701  1
  N  N31  1  0.99367050  0.12183634  0.24999791  1
  N  N32  1  0.66637745  0.20910783  0.74899122  1
