# generated using pymatgen
data_MgCd
_symmetry_space_group_name_H-M   'P 1'
_cell_length_a   3.26038959
_cell_length_b   8.19328632
_cell_length_c   4.97684015
_cell_angle_alpha   90.00000000
_cell_angle_beta   90.00000000
_cell_angle_gamma   78.52343656
_symmetry_Int_Tables_number   1
_chemical_formula_structural   MgCd
_chemical_formula_sum   'Mg3 Cd3'
_cell_volume   130.28971464
_cell_formula_units_Z   3
loop_
 _symmetry_equiv_pos_site_id
 _symmetry_equiv_pos_as_xyz
  1  'x, y, z'
loop_
 _atom_site_type_symbol
 _atom_site_label
 _atom_site_symmetry_multiplicity
 _atom_site_fract_x
 _atom_site_fract_y
 _atom_site_fract_z
 _atom_site_occupancy
  Mg  Mg0  1  0.99484123  0.01031954  0.00000000  1
  Mg  Mg1  1  0.66510994  0.66978213  0.00000000  1
  Mg  Mg2  1  0.78252049  0.43496201  0.50000000  1
  Cd  Cd3  1  0.33009515  0.33981169  0.00000000  1
  Cd  Cd4  1  0.44611215  0.10777669  0.50000000  1
  Cd  Cd5  1  0.11466003  0.77068094  0.50000000  1
