# generated using pymatgen
data_LiNi4O5
_symmetry_space_group_name_H-M   'P 1'
_cell_length_a   14.72816243
_cell_length_b   7.79384205
_cell_length_c   5.10172596
_cell_angle_alpha   29.20524440
_cell_angle_beta   29.99908704
_cell_angle_gamma   19.10364878
_symmetry_Int_Tables_number   1
_chemical_formula_structural   LiNi4O5
_chemical_formula_sum   'Li1 Ni4 O5'
_cell_volume   90.34884294
_cell_formula_units_Z   1
loop_
 _symmetry_equiv_pos_site_id
 _symmetry_equiv_pos_as_xyz
  1  'x, y, z'
loop_
 _atom_site_type_symbol
 _atom_site_label
 _atom_site_symmetry_multiplicity
 _atom_site_fract_x
 _atom_site_fract_y
 _atom_site_fract_z
 _atom_site_occupancy
  Li  Li0  1  0.79842209  0.99708407  0.00704499  1
  Ni  Ni1  1  0.99376331  0.00516525  0.00592428  1
  Ni  Ni2  1  0.19702949  0.99647282  0.01565790  1
  Ni  Ni3  1  0.40083518  0.99616425  0.99768220  1
  Ni  Ni4  1  0.60438431  0.98706873  0.00737534  1
  O  O5  1  0.21032123  0.48237731  0.49177680  1
  O  O6  1  0.38767949  0.51023858  0.52133556  1
  O  O7  1  0.59344213  0.51020346  0.49272073  1
  O  O8  1  0.79896640  0.49622657  0.50688212  1
  O  O9  1  0.00457737  0.48230895  0.52065308  1
