# generated using pymatgen
data_NiBiO3
_symmetry_space_group_name_H-M   'P 1'
_cell_length_a   5.82176052
_cell_length_b   5.82175951
_cell_length_c   5.82178936
_cell_angle_alpha   56.50307660
_cell_angle_beta   56.50349013
_cell_angle_gamma   56.50388898
_symmetry_Int_Tables_number   1
_chemical_formula_structural   NiBiO3
_chemical_formula_sum   'Ni2 Bi2 O6'
_cell_volume   128.24863010
_cell_formula_units_Z   2
loop_
 _symmetry_equiv_pos_site_id
 _symmetry_equiv_pos_as_xyz
  1  'x, y, z'
loop_
 _atom_site_type_symbol
 _atom_site_label
 _atom_site_symmetry_multiplicity
 _atom_site_fract_x
 _atom_site_fract_y
 _atom_site_fract_z
 _atom_site_occupancy
  Ni  Ni0  1  0.00555654  0.00553943  0.00555405  1
  Ni  Ni1  1  0.50849567  0.50850595  0.50851868  1
  Bi  Bi2  1  0.30290372  0.30290360  0.30289666  1
  Bi  Bi3  1  0.79089857  0.79090072  0.79090161  1
  O  O4  1  0.22663589  0.89231967  0.61189044  1
  O  O5  1  0.89231911  0.61189026  0.22663007  1
  O  O6  1  0.61189635  0.22663268  0.89231833  1
  O  O7  1  0.14754856  0.35467305  0.71607230  1
  O  O8  1  0.71607451  0.14755415  0.35466793  1
  O  O9  1  0.35467008  0.71608248  0.14754592  1
