# generated using pymatgen
data_B13C2
_symmetry_space_group_name_H-M   'P 1'
_cell_length_a   5.19592777
_cell_length_b   5.19592777
_cell_length_c   5.19592778
_cell_angle_alpha   65.99279849
_cell_angle_beta   65.99279845
_cell_angle_gamma   65.99279846
_symmetry_Int_Tables_number   1
_chemical_formula_structural   B13C2
_chemical_formula_sum   'B13 C2'
_cell_volume   112.05619122
_cell_formula_units_Z   1
loop_
 _symmetry_equiv_pos_site_id
 _symmetry_equiv_pos_as_xyz
  1  'x, y, z'
loop_
 _atom_site_type_symbol
 _atom_site_label
 _atom_site_symmetry_multiplicity
 _atom_site_fract_x
 _atom_site_fract_y
 _atom_site_fract_z
 _atom_site_occupancy
  B  B0  1  0.50000000  0.50000000  0.50000000  1
  B  B1  1  0.80350222  0.31845184  0.80350222  1
  B  B2  1  0.80350222  0.80350222  0.31845184  1
  B  B3  1  0.31845184  0.80350222  0.80350222  1
  B  B4  1  0.68154816  0.19649778  0.19649778  1
  B  B5  1  0.19649778  0.68154816  0.19649778  1
  B  B6  1  0.19649778  0.19649778  0.68154816  1
  B  B7  1  0.00787365  0.32357582  0.00787365  1
  B  B8  1  0.00787365  0.00787365  0.32357582  1
  B  B9  1  0.32357582  0.00787365  0.00787365  1
  B  B10  1  0.67642418  0.99212635  0.99212635  1
  B  B11  1  0.99212635  0.67642418  0.99212635  1
  B  B12  1  0.99212635  0.99212635  0.67642418  1
  C  C13  1  0.61907908  0.61907908  0.61907908  1
  C  C14  1  0.38092092  0.38092092  0.38092092  1
