# generated using pymatgen
data_H3N
_symmetry_space_group_name_H-M   'P 1'
_cell_length_a   3.40289196
_cell_length_b   5.88989489
_cell_length_c   5.64856243
_cell_angle_alpha   90.00000000
_cell_angle_beta   90.00000000
_cell_angle_gamma   90.00000000
_symmetry_Int_Tables_number   1
_chemical_formula_structural   H3N
_chemical_formula_sum   'H12 N4'
_cell_volume   113.21230646
_cell_formula_units_Z   4
loop_
 _symmetry_equiv_pos_site_id
 _symmetry_equiv_pos_as_xyz
  1  'x, y, z'
loop_
 _atom_site_type_symbol
 _atom_site_label
 _atom_site_symmetry_multiplicity
 _atom_site_fract_x
 _atom_site_fract_y
 _atom_site_fract_z
 _atom_site_occupancy
  H  H0  1  0.62775773  0.69461892  0.26584137  1
  H  H1  1  0.87224227  0.30538108  0.76584137  1
  H  H2  1  0.12775773  0.80538108  0.73415863  1
  H  H3  1  0.37224227  0.19461892  0.23415863  1
  H  H4  1  0.02047008  0.83306436  0.17948240  1
  H  H5  1  0.47952992  0.16693564  0.67948240  1
  H  H6  1  0.52047008  0.66693564  0.82051760  1
  H  H7  1  0.97952992  0.33306436  0.32051760  1
  H  H8  1  0.77134687  0.92370928  0.40955612  1
  H  H9  1  0.72865313  0.07629072  0.90955612  1
  H  H10  1  0.27134687  0.57629072  0.59044388  1
  H  H11  1  0.22865313  0.42370928  0.09044388  1
  N  N12  1  0.73988521  0.85479092  0.24360861  1
  N  N13  1  0.76011479  0.14520908  0.74360861  1
  N  N14  1  0.23988521  0.64520908  0.75639139  1
  N  N15  1  0.26011479  0.35479092  0.25639139  1
