# generated using pymatgen
data_Cs2MnCl4
_symmetry_space_group_name_H-M   'P 1'
_cell_length_a   5.22515740
_cell_length_b   5.22515740
_cell_length_c   9.30479874
_cell_angle_alpha   106.30661747
_cell_angle_beta   106.30661747
_cell_angle_gamma   90.00000000
_symmetry_Int_Tables_number   1
_chemical_formula_structural   Cs2MnCl4
_chemical_formula_sum   'Cs2 Mn1 Cl4'
_cell_volume   233.15586131
_cell_formula_units_Z   1
loop_
 _symmetry_equiv_pos_site_id
 _symmetry_equiv_pos_as_xyz
  1  'x, y, z'
loop_
 _atom_site_type_symbol
 _atom_site_label
 _atom_site_symmetry_multiplicity
 _atom_site_fract_x
 _atom_site_fract_y
 _atom_site_fract_z
 _atom_site_occupancy
  Cs  Cs0  1  0.35647686  0.35647686  0.71295372  1
  Cs  Cs1  1  0.64352314  0.64352314  0.28704628  1
  Mn  Mn2  1  0.00000000  0.00000000  0.00000000  1
  Cl  Cl3  1  0.14718890  0.14718890  0.29437780  1
  Cl  Cl4  1  0.85281110  0.85281110  0.70562220  1
  Cl  Cl5  1  0.00000000  0.50000000  0.00000000  1
  Cl  Cl6  1  0.50000000  0.00000000  0.00000000  1
