# generated using pymatgen
data_Nb2CS2
_symmetry_space_group_name_H-M   'P 1'
_cell_length_a   9.71685925
_cell_length_b   9.71685925
_cell_length_c   9.71685925
_cell_angle_alpha   19.45208788
_cell_angle_beta   19.45208786
_cell_angle_gamma   19.45208789
_symmetry_Int_Tables_number   1
_chemical_formula_structural   Nb2CS2
_chemical_formula_sum   'Nb2 C1 S2'
_cell_volume   88.96016826
_cell_formula_units_Z   1
loop_
 _symmetry_equiv_pos_site_id
 _symmetry_equiv_pos_as_xyz
  1  'x, y, z'
loop_
 _atom_site_type_symbol
 _atom_site_label
 _atom_site_symmetry_multiplicity
 _atom_site_fract_x
 _atom_site_fract_y
 _atom_site_fract_z
 _atom_site_occupancy
  C  C0  1  0.00000000  0.00000000  0.00000000  1
  S  S1  1  0.76658897  0.76658897  0.76658897  1
  S  S2  1  0.23341103  0.23341103  0.23341103  1
  Nb  Nb3  1  0.62475590  0.62475590  0.62475590  1
  Nb  Nb4  1  0.37524410  0.37524410  0.37524410  1
