# generated using pymatgen
data_Be22W
_symmetry_space_group_name_H-M   'P 1'
_cell_length_a   8.17719854
_cell_length_b   8.17719855
_cell_length_c   8.17719855
_cell_angle_alpha   60.00000004
_cell_angle_beta   60.00000001
_cell_angle_gamma   60.00000003
_symmetry_Int_Tables_number   1
_chemical_formula_structural   Be22W
_chemical_formula_sum   'Be44 W2'
_cell_volume   386.63274318
_cell_formula_units_Z   2
loop_
 _symmetry_equiv_pos_site_id
 _symmetry_equiv_pos_as_xyz
  1  'x, y, z'
loop_
 _atom_site_type_symbol
 _atom_site_label
 _atom_site_symmetry_multiplicity
 _atom_site_fract_x
 _atom_site_fract_y
 _atom_site_fract_z
 _atom_site_occupancy
  Be  Be0  1  0.00000000  0.00000000  0.00000000  1
  Be  Be1  1  0.00000000  0.00000000  0.50000000  1
  Be  Be2  1  0.50000000  0.00000000  0.00000000  1
  Be  Be3  1  0.00000000  0.50000000  0.00000000  1
  Be  Be4  1  0.50000000  0.50000000  0.50000000  1
  Be  Be5  1  0.50000000  0.50000000  0.00000000  1
  Be  Be6  1  0.00000000  0.50000000  0.50000000  1
  Be  Be7  1  0.50000000  0.00000000  0.50000000  1
  Be  Be8  1  0.74002438  0.00997562  0.00997562  1
  Be  Be9  1  0.99002438  0.99002438  0.25997562  1
  Be  Be10  1  0.25997562  0.25997562  0.99002438  1
  Be  Be11  1  0.99002438  0.25997562  0.25997562  1
  Be  Be12  1  0.99002438  0.25997562  0.99002438  1
  Be  Be13  1  0.25997562  0.99002438  0.25997562  1
  Be  Be14  1  0.00997562  0.74002438  0.00997562  1
  Be  Be15  1  0.00997562  0.00997562  0.74002438  1
  Be  Be16  1  0.74002438  0.74002438  0.00997562  1
  Be  Be17  1  0.74002438  0.00997562  0.74002438  1
  Be  Be18  1  0.25997562  0.99002438  0.99002438  1
  Be  Be19  1  0.00997562  0.74002438  0.74002438  1
  Be  Be20  1  0.17582521  0.17582521  0.70467176  1
  Be  Be21  1  0.82417479  0.29532824  0.55632219  1
  Be  Be22  1  0.55632219  0.82417479  0.82417479  1
  Be  Be23  1  0.82417479  0.55632219  0.82417479  1
  Be  Be24  1  0.29532824  0.82417479  0.55632219  1
  Be  Be25  1  0.29532824  0.55632219  0.82417479  1
  Be  Be26  1  0.55632219  0.29532824  0.82417479  1
  Be  Be27  1  0.70467176  0.17582521  0.17582521  1
  Be  Be28  1  0.17582521  0.70467176  0.17582521  1
  Be  Be29  1  0.44367781  0.17582521  0.70467176  1
  Be  Be30  1  0.17582521  0.44367781  0.70467176  1
  Be  Be31  1  0.44367781  0.17582521  0.17582521  1
  Be  Be32  1  0.70467176  0.17582521  0.44367781  1
  Be  Be33  1  0.17582521  0.70467176  0.44367781  1
  Be  Be34  1  0.17582521  0.44367781  0.17582521  1
  Be  Be35  1  0.55632219  0.82417479  0.29532824  1
  Be  Be36  1  0.82417479  0.55632219  0.29532824  1
  Be  Be37  1  0.82417479  0.82417479  0.55632219  1
  Be  Be38  1  0.82417479  0.82417479  0.29532824  1
  Be  Be39  1  0.29532824  0.82417479  0.82417479  1
  Be  Be40  1  0.82417479  0.29532824  0.82417479  1
  Be  Be41  1  0.70467176  0.44367781  0.17582521  1
  Be  Be42  1  0.44367781  0.70467176  0.17582521  1
  Be  Be43  1  0.17582521  0.17582521  0.44367781  1
  W  W44  1  0.37500000  0.37500000  0.37500000  1
  W  W45  1  0.62500000  0.62500000  0.62500000  1
