# generated using pymatgen
data_Tl(Cu3S2)2
_symmetry_space_group_name_H-M   'P 1'
_cell_length_a   3.92580089
_cell_length_b   3.92580029
_cell_length_c   12.37206934
_cell_angle_alpha   99.12888304
_cell_angle_beta   99.12888163
_cell_angle_gamma   89.99999527
_symmetry_Int_Tables_number   1
_chemical_formula_structural   Tl(Cu3S2)2
_chemical_formula_sum   'Tl1 Cu6 S4'
_cell_volume   185.81558301
_cell_formula_units_Z   1
loop_
 _symmetry_equiv_pos_site_id
 _symmetry_equiv_pos_as_xyz
  1  'x, y, z'
loop_
 _atom_site_type_symbol
 _atom_site_label
 _atom_site_symmetry_multiplicity
 _atom_site_fract_x
 _atom_site_fract_y
 _atom_site_fract_z
 _atom_site_occupancy
  Tl  Tl0  1  0.00000000  0.00000000  0.00000000  1
  Cu  Cu1  1  0.25000000  0.75000000  0.50000000  1
  Cu  Cu2  1  0.37069199  0.87069199  0.74138397  1
  Cu  Cu3  1  0.62930801  0.12930801  0.25861603  1
  Cu  Cu4  1  0.12930801  0.62930801  0.25861603  1
  Cu  Cu5  1  0.87069199  0.37069199  0.74138397  1
  Cu  Cu6  1  0.75000000  0.25000000  0.50000000  1
  S  S7  1  0.41903035  0.41903035  0.83806070  1
  S  S8  1  0.19446706  0.19446706  0.38893411  1
  S  S9  1  0.80553294  0.80553294  0.61106589  1
  S  S10  1  0.58096965  0.58096965  0.16193930  1
