# generated using pymatgen
data_SiO2
_symmetry_space_group_name_H-M   'P 1'
_cell_length_a   4.76111764
_cell_length_b   5.32048283
_cell_length_c   7.79439482
_cell_angle_alpha   82.14569219
_cell_angle_beta   72.21661329
_cell_angle_gamma   63.42090853
_symmetry_Int_Tables_number   1
_chemical_formula_structural   SiO2
_chemical_formula_sum   'Si4 O8'
_cell_volume   168.13979272
_cell_formula_units_Z   4
loop_
 _symmetry_equiv_pos_site_id
 _symmetry_equiv_pos_as_xyz
  1  'x, y, z'
loop_
 _atom_site_type_symbol
 _atom_site_label
 _atom_site_symmetry_multiplicity
 _atom_site_fract_x
 _atom_site_fract_y
 _atom_site_fract_z
 _atom_site_occupancy
  Si  Si0  1  0.06186733  0.25000000  0.87626535  1
  Si  Si1  1  0.31186733  0.75000000  0.37626535  1
  Si  Si2  1  0.93813267  0.75000000  0.12373465  1
  Si  Si3  1  0.68813267  0.25000000  0.62373465  1
  O  O4  1  0.00000000  0.00000000  0.50000000  1
  O  O5  1  0.00000000  0.50000000  0.00000000  1
  O  O6  1  0.00000000  0.00000000  0.00000000  1
  O  O7  1  0.50000000  0.50000000  0.50000000  1
  O  O8  1  0.43877450  0.12245100  0.75000000  1
  O  O9  1  0.81122550  0.37754900  0.75000000  1
  O  O10  1  0.18877450  0.62245100  0.25000000  1
  O  O11  1  0.56122550  0.87754900  0.25000000  1
