# generated using pymatgen
data_Na8CoO6
_symmetry_space_group_name_H-M   'P 1'
_cell_length_a   6.36223117
_cell_length_b   6.36206957
_cell_length_c   12.70995171
_cell_angle_alpha   89.99997782
_cell_angle_beta   89.99980388
_cell_angle_gamma   120.00122179
_symmetry_Int_Tables_number   1
_chemical_formula_structural   Na8CoO6
_chemical_formula_sum   'Na16 Co2 O12'
_cell_volume   445.53009376
_cell_formula_units_Z   2
loop_
 _symmetry_equiv_pos_site_id
 _symmetry_equiv_pos_as_xyz
  1  'x, y, z'
loop_
 _atom_site_type_symbol
 _atom_site_label
 _atom_site_symmetry_multiplicity
 _atom_site_fract_x
 _atom_site_fract_y
 _atom_site_fract_z
 _atom_site_occupancy
  Na  Na0  1  0.99996529  0.70301155  0.76993049  1
  Na  Na1  1  0.00000503  0.61454693  0.12390210  1
  Na  Na2  1  0.99997936  0.38546255  0.62389700  1
  Na  Na3  1  0.00001597  0.29698296  0.26992765  1
  Na  Na4  1  0.33332164  0.66665980  0.41246560  1
  Na  Na5  1  0.33330530  0.66661994  0.91246587  1
  Na  Na6  1  0.29697249  0.29691425  0.76992135  1
  Na  Na7  1  0.38546586  0.38548976  0.12390679  1
  Na  Na8  1  0.61452966  0.61451233  0.62390555  1
  Na  Na9  1  0.29700159  0.00006767  0.26994755  1
  Na  Na10  1  0.70299602  0.70307741  0.26992611  1
  Na  Na11  1  0.38544898  0.99993258  0.62391961  1
  Na  Na12  1  0.66664724  0.33333504  0.91246173  1
  Na  Na13  1  0.66668226  0.33339159  0.41246921  1
  Na  Na14  1  0.61454560  0.00006858  0.12391992  1
  Na  Na15  1  0.70299330  0.99993669  0.76994837  1
  Co  Co16  1  0.00000034  0.99999725  0.99696876  1
  Co  Co17  1  0.99998764  -0.00000572  0.49696987  1
  O  O18  1  0.99998982  0.72852366  0.95206818  1
  O  O19  1  0.99999721  0.27146852  0.45206904  1
  O  O20  1  0.33333942  0.66669469  0.22123246  1
  O  O21  1  0.99999930  0.00001545  0.14353630  1
  O  O22  1  0.99998864  0.99998407  0.64353538  1
  O  O23  1  0.33331925  0.66664568  0.72123531  1
  O  O24  1  0.27147803  0.27147391  0.95206328  1
  O  O25  1  0.27148048  0.00001975  0.45207011  1
  O  O26  1  0.72852072  0.72853477  0.45206262  1
  O  O27  1  0.66664156  0.33330386  0.72123482  1
  O  O28  1  0.66666465  0.33334770  0.22123262  1
  O  O29  1  0.72851535  0.99998678  0.95206634  1
