# generated using pymatgen
data_CaAl2O4
_symmetry_space_group_name_H-M   'P 1'
_cell_length_a   3.80716438
_cell_length_b   5.61105301
_cell_length_c   7.11233832
_cell_angle_alpha   101.12264357
_cell_angle_beta   90.00000000
_cell_angle_gamma   90.00000000
_symmetry_Int_Tables_number   1
_chemical_formula_structural   CaAl2O4
_chemical_formula_sum   'Ca2 Al4 O8'
_cell_volume   149.08132726
_cell_formula_units_Z   2
loop_
 _symmetry_equiv_pos_site_id
 _symmetry_equiv_pos_as_xyz
  1  'x, y, z'
loop_
 _atom_site_type_symbol
 _atom_site_label
 _atom_site_symmetry_multiplicity
 _atom_site_fract_x
 _atom_site_fract_y
 _atom_site_fract_z
 _atom_site_occupancy
  Ca  Ca0  1  0.75000000  0.26830745  0.57199127  1
  Ca  Ca1  1  0.25000000  0.73169255  0.42800873  1
  Al  Al2  1  0.75000000  0.15272840  0.12900867  1
  Al  Al3  1  0.25000000  0.84727160  0.87099133  1
  Al  Al4  1  0.75000000  0.65505672  0.11244820  1
  Al  Al5  1  0.25000000  0.34494328  0.88755180  1
  O  O6  1  0.25000000  0.05859199  0.69261060  1
  O  O7  1  0.25000000  0.14125470  0.07116283  1
  O  O8  1  0.25000000  0.54430774  0.69672859  1
  O  O9  1  0.75000000  0.35730397  0.92550493  1
  O  O10  1  0.75000000  0.45569226  0.30327141  1
  O  O11  1  0.75000000  0.85874530  0.92883717  1
  O  O12  1  0.25000000  0.64269603  0.07449507  1
  O  O13  1  0.75000000  0.94140801  0.30738940  1
