# generated using pymatgen
data_Ca2H3Br
_symmetry_space_group_name_H-M   'P 1'
_cell_length_a   3.90359217
_cell_length_b   3.90360627
_cell_length_c   6.92727979
_cell_angle_alpha   89.99999999
_cell_angle_beta   90.00107158
_cell_angle_gamma   120.00011390
_symmetry_Int_Tables_number   1
_chemical_formula_structural   Ca2H3Br
_chemical_formula_sum   'Ca2 H3 Br1'
_cell_volume   91.41623001
_cell_formula_units_Z   1
loop_
 _symmetry_equiv_pos_site_id
 _symmetry_equiv_pos_as_xyz
  1  'x, y, z'
loop_
 _atom_site_type_symbol
 _atom_site_label
 _atom_site_symmetry_multiplicity
 _atom_site_fract_x
 _atom_site_fract_y
 _atom_site_fract_z
 _atom_site_occupancy
  Ca  Ca0  1  0.66665695  0.33332847  0.18399647  1
  Ca  Ca1  1  0.33334305  0.66667153  0.81600353  1
  H  H2  1  0.66667608  0.33333804  0.85422487  1
  H  H3  1  0.33332392  0.66666196  0.14577513  1
  H  H4  1  0.00000000  0.00000000  0.00000000  1
  Br  Br5  1  0.00000000  0.00000000  0.50000000  1
