# generated using pymatgen
data_PrTm3
_symmetry_space_group_name_H-M   'P 1'
_cell_length_a   7.21856023
_cell_length_b   7.21376393
_cell_length_c   5.67112362
_cell_angle_alpha   90.00000000
_cell_angle_beta   90.00000000
_cell_angle_gamma   119.99999972
_symmetry_Int_Tables_number   1
_chemical_formula_structural   PrTm3
_chemical_formula_sum   'Pr2 Tm6'
_cell_volume   255.74800671
_cell_formula_units_Z   2
loop_
 _symmetry_equiv_pos_site_id
 _symmetry_equiv_pos_as_xyz
  1  'x, y, z'
loop_
 _atom_site_type_symbol
 _atom_site_label
 _atom_site_symmetry_multiplicity
 _atom_site_fract_x
 _atom_site_fract_y
 _atom_site_fract_z
 _atom_site_occupancy
  Pr  Pr0  1  0.66668263  0.33334863  0.25000000  1
  Pr  Pr1  1  0.33331542  0.66664842  0.75000000  1
  Tm  Tm2  1  0.16443742  0.83556055  0.25000000  1
  Tm  Tm3  1  0.83555904  0.67111371  0.75000000  1
  Tm  Tm4  1  0.32886946  0.16443491  0.75000000  1
  Tm  Tm5  1  0.67113248  0.83556473  0.25000000  1
  Tm  Tm6  1  0.16444260  0.32888621  0.25000000  1
  Tm  Tm7  1  0.83556195  0.16443882  0.75000000  1
