# generated using pymatgen
data_CeCdAsO
_symmetry_space_group_name_H-M   'P 1'
_cell_length_a   4.16320073
_cell_length_b   4.16320073
_cell_length_c   9.25481801
_cell_angle_alpha   90.00000000
_cell_angle_beta   90.00000000
_cell_angle_gamma   90.00000000
_symmetry_Int_Tables_number   1
_chemical_formula_structural   CeCdAsO
_chemical_formula_sum   'Ce2 Cd2 As2 O2'
_cell_volume   160.40672985
_cell_formula_units_Z   2
loop_
 _symmetry_equiv_pos_site_id
 _symmetry_equiv_pos_as_xyz
  1  'x, y, z'
loop_
 _atom_site_type_symbol
 _atom_site_label
 _atom_site_symmetry_multiplicity
 _atom_site_fract_x
 _atom_site_fract_y
 _atom_site_fract_z
 _atom_site_occupancy
  O  O0  1  0.75000000  0.25000000  0.00000000  1
  O  O1  1  0.25000000  0.75000000  0.00000000  1
  As  As2  1  0.25000000  0.25000000  0.70376027  1
  As  As3  1  0.75000000  0.75000000  0.29623973  1
  Cd  Cd4  1  0.75000000  0.25000000  0.50000000  1
  Cd  Cd5  1  0.25000000  0.75000000  0.50000000  1
  Ce  Ce6  1  0.75000000  0.75000000  0.87479023  1
  Ce  Ce7  1  0.25000000  0.25000000  0.12520977  1
