# generated using pymatgen
data_TbTiGe
_symmetry_space_group_name_H-M   'P 1'
_cell_length_a   4.06486608
_cell_length_b   4.06486607
_cell_length_c   8.28394700
_cell_angle_alpha   104.20228057
_cell_angle_beta   104.20228055
_cell_angle_gamma   89.99999998
_symmetry_Int_Tables_number   1
_chemical_formula_structural   TbTiGe
_chemical_formula_sum   'Tb2 Ti2 Ge2'
_cell_volume   128.37340117
_cell_formula_units_Z   2
loop_
 _symmetry_equiv_pos_site_id
 _symmetry_equiv_pos_as_xyz
  1  'x, y, z'
loop_
 _atom_site_type_symbol
 _atom_site_label
 _atom_site_symmetry_multiplicity
 _atom_site_fract_x
 _atom_site_fract_y
 _atom_site_fract_z
 _atom_site_occupancy
  Ti  Ti0  1  0.00000000  0.50000000  0.00000000  1
  Ti  Ti1  1  0.50000000  0.00000000  0.00000000  1
  Ge  Ge2  1  0.12182011  0.12182011  0.24364021  1
  Ge  Ge3  1  0.87817989  0.87817989  0.75635979  1
  Tb  Tb4  1  0.67414568  0.67414568  0.34829136  1
  Tb  Tb5  1  0.32585432  0.32585432  0.65170864  1
