# generated using pymatgen
data_Ca2Cu(ClO)2
_symmetry_space_group_name_H-M   'P 1'
_cell_length_a   3.88024558
_cell_length_b   3.88024558
_cell_length_c   8.12907204
_cell_angle_alpha   103.80774512
_cell_angle_beta   103.80774509
_cell_angle_gamma   89.99999999
_symmetry_Int_Tables_number   1
_chemical_formula_structural   Ca2Cu(ClO)2
_chemical_formula_sum   'Ca2 Cu1 Cl2 O2'
_cell_volume   115.21139802
_cell_formula_units_Z   1
loop_
 _symmetry_equiv_pos_site_id
 _symmetry_equiv_pos_as_xyz
  1  'x, y, z'
loop_
 _atom_site_type_symbol
 _atom_site_label
 _atom_site_symmetry_multiplicity
 _atom_site_fract_x
 _atom_site_fract_y
 _atom_site_fract_z
 _atom_site_occupancy
  O  O0  1  0.50000000  0.00000000  0.00000000  1
  O  O1  1  0.00000000  0.50000000  0.00000000  1
  Cl  Cl2  1  0.18237651  0.18237651  0.36475303  1
  Cl  Cl3  1  0.81762349  0.81762349  0.63524697  1
  Ca  Ca4  1  0.39635331  0.39635331  0.79270663  1
  Ca  Ca5  1  0.60364669  0.60364669  0.20729337  1
  Cu  Cu6  1  0.00000000  0.00000000  0.00000000  1
