# generated using pymatgen
data_Sn2Mo
_symmetry_space_group_name_H-M   'P 1'
_cell_length_a   5.54385446
_cell_length_b   5.54385446
_cell_length_c   14.34192853
_cell_angle_alpha   90.00000000
_cell_angle_beta   90.00000000
_cell_angle_gamma   119.99999999
_symmetry_Int_Tables_number   1
_chemical_formula_structural   Sn2Mo
_chemical_formula_sum   'Sn12 Mo6'
_cell_volume   381.73486464
_cell_formula_units_Z   6
loop_
 _symmetry_equiv_pos_site_id
 _symmetry_equiv_pos_as_xyz
  1  'x, y, z'
loop_
 _atom_site_type_symbol
 _atom_site_label
 _atom_site_symmetry_multiplicity
 _atom_site_fract_x
 _atom_site_fract_y
 _atom_site_fract_z
 _atom_site_occupancy
  Mo  Mo0  1  0.00000000  0.00000000  0.00000000  1
  Mo  Mo1  1  0.00000000  0.00000000  0.33333333  1
  Mo  Mo2  1  0.00000000  0.00000000  0.66666667  1
  Mo  Mo3  1  0.50000000  0.00000000  0.00000000  1
  Mo  Mo4  1  0.50000000  0.50000000  0.33333333  1
  Mo  Mo5  1  0.00000000  0.50000000  0.66666667  1
  Sn  Sn6  1  0.50000000  0.00000000  0.39679167  1
  Sn  Sn7  1  0.50000000  0.50000000  0.73012500  1
  Sn  Sn8  1  0.00000000  0.50000000  0.06345833  1
  Sn  Sn9  1  0.50000000  0.00000000  0.60320833  1
  Sn  Sn10  1  0.50000000  0.50000000  0.93654167  1
  Sn  Sn11  1  0.00000000  0.50000000  0.26987500  1
  Sn  Sn12  1  0.16771334  0.33542668  0.50000000  1
  Sn  Sn13  1  0.83228666  0.16771334  0.83333333  1
  Sn  Sn14  1  0.33542668  0.16771334  0.16666667  1
  Sn  Sn15  1  0.66457332  0.83228666  0.16666667  1
  Sn  Sn16  1  0.16771334  0.83228666  0.83333333  1
  Sn  Sn17  1  0.83228666  0.66457332  0.50000000  1
