# generated using pymatgen
data_SrTcN3
_symmetry_space_group_name_H-M   'P 1'
_cell_length_a   4.21746149
_cell_length_b   5.71963558
_cell_length_c   6.69554461
_cell_angle_alpha   90.00000000
_cell_angle_beta   108.35751659
_cell_angle_gamma   90.00000000
_symmetry_Int_Tables_number   1
_chemical_formula_structural   SrTcN3
_chemical_formula_sum   'Sr2 Tc2 N6'
_cell_volume   153.29283257
_cell_formula_units_Z   2
loop_
 _symmetry_equiv_pos_site_id
 _symmetry_equiv_pos_as_xyz
  1  'x, y, z'
loop_
 _atom_site_type_symbol
 _atom_site_label
 _atom_site_symmetry_multiplicity
 _atom_site_fract_x
 _atom_site_fract_y
 _atom_site_fract_z
 _atom_site_occupancy
  Sr  Sr0  1  0.63122859  0.00000000  0.26245718  1
  Sr  Sr1  1  0.36877141  0.50000000  0.73754282  1
  Tc  Tc2  1  0.09474927  0.50000000  0.18949854  1
  Tc  Tc3  1  0.90525073  0.00000000  0.81050146  1
  N  N4  1  0.15355654  0.00434571  0.60821642  1
  N  N5  1  0.04415284  0.25000000  0.00000000  1
  N  N6  1  0.54534012  0.49565429  0.39178358  1
  N  N7  1  0.45465988  0.99565429  0.60821642  1
  N  N8  1  0.95584716  0.75000000  -0.00000000  1
  N  N9  1  0.84644346  0.50434571  0.39178358  1
