# generated using pymatgen
data_YAlO3
_symmetry_space_group_name_H-M   'P 1'
_cell_length_a   5.22651579
_cell_length_b   5.38720550
_cell_length_c   7.45329932
_cell_angle_alpha   90.00000000
_cell_angle_beta   90.00000000
_cell_angle_gamma   90.00000000
_symmetry_Int_Tables_number   1
_chemical_formula_structural   YAlO3
_chemical_formula_sum   'Y4 Al4 O12'
_cell_volume   209.85744053
_cell_formula_units_Z   4
loop_
 _symmetry_equiv_pos_site_id
 _symmetry_equiv_pos_as_xyz
  1  'x, y, z'
loop_
 _atom_site_type_symbol
 _atom_site_label
 _atom_site_symmetry_multiplicity
 _atom_site_fract_x
 _atom_site_fract_y
 _atom_site_fract_z
 _atom_site_occupancy
  O  O0  1  0.70600867  0.29388747  0.45477438  1
  O  O1  1  0.20600867  0.20611253  0.54522562  1
  O  O2  1  0.79399133  0.79388747  0.04522562  1
  O  O3  1  0.29399133  0.70611253  0.95477438  1
  O  O4  1  0.29399133  0.70611253  0.54522562  1
  O  O5  1  0.79399133  0.79388747  0.45477438  1
  O  O6  1  0.20600867  0.20611253  0.95477438  1
  O  O7  1  0.70600867  0.29388747  0.04522562  1
  O  O8  1  0.08577862  0.47703875  0.25000000  1
  O  O9  1  0.58577862  0.02296125  0.75000000  1
  O  O10  1  0.41422138  0.97703875  0.25000000  1
  O  O11  1  0.91422138  0.52296125  0.75000000  1
  Al  Al12  1  0.00000000  0.50000000  0.00000000  1
  Al  Al13  1  0.50000000  0.00000000  0.00000000  1
  Al  Al14  1  0.50000000  0.00000000  0.50000000  1
  Al  Al15  1  0.00000000  0.50000000  0.50000000  1
  Y  Y16  1  0.01284566  0.94582212  0.75000000  1
  Y  Y17  1  0.51284566  0.55417788  0.25000000  1
  Y  Y18  1  0.48715434  0.44582212  0.75000000  1
  Y  Y19  1  0.98715434  0.05417788  0.25000000  1
