# generated using pymatgen
data_TePdI2
_symmetry_space_group_name_H-M   'P 1'
_cell_length_a   4.43912613
_cell_length_b   7.25226816
_cell_length_c   9.28707004
_cell_angle_alpha   68.31694716
_cell_angle_beta   80.75704468
_cell_angle_gamma   82.76227548
_symmetry_Int_Tables_number   1
_chemical_formula_structural   TePdI2
_chemical_formula_sum   'Te2 Pd2 I4'
_cell_volume   273.49768307
_cell_formula_units_Z   2
loop_
 _symmetry_equiv_pos_site_id
 _symmetry_equiv_pos_as_xyz
  1  'x, y, z'
loop_
 _atom_site_type_symbol
 _atom_site_label
 _atom_site_symmetry_multiplicity
 _atom_site_fract_x
 _atom_site_fract_y
 _atom_site_fract_z
 _atom_site_occupancy
  Te  Te0  1  0.16202447  0.50486274  0.14978648  1
  Te  Te1  1  0.83797553  0.49513726  0.85021352  1
  Pd  Pd2  1  0.26396497  0.25149609  0.00400551  1
  Pd  Pd3  1  0.73603503  0.74850391  0.99599449  1
  I  I4  1  0.35666561  0.03333173  0.81151128  1
  I  I5  1  0.19936268  0.70551832  0.57203488  1
  I  I6  1  0.64333439  0.96666827  0.18848872  1
  I  I7  1  0.80063732  0.29448168  0.42796512  1
