# generated using pymatgen
data_HfFe2Sn
_symmetry_space_group_name_H-M   'P 1'
_cell_length_a   4.39343092
_cell_length_b   4.39344877
_cell_length_c   4.39345292
_cell_angle_alpha   59.99992669
_cell_angle_beta   60.00000799
_cell_angle_gamma   60.00011026
_symmetry_Int_Tables_number   1
_chemical_formula_structural   HfFe2Sn
_chemical_formula_sum   'Hf1 Fe2 Sn1'
_cell_volume   59.96536697
_cell_formula_units_Z   1
loop_
 _symmetry_equiv_pos_site_id
 _symmetry_equiv_pos_as_xyz
  1  'x, y, z'
loop_
 _atom_site_type_symbol
 _atom_site_label
 _atom_site_symmetry_multiplicity
 _atom_site_fract_x
 _atom_site_fract_y
 _atom_site_fract_z
 _atom_site_occupancy
  Hf  Hf0  1  0.24999136  0.25000759  0.25000435  1
  Fe  Fe1  1  0.00000219  0.99999743  0.99999869  1
  Fe  Fe2  1  0.50000187  0.49999729  0.49999795  1
  Sn  Sn3  1  0.75000358  0.74999669  0.74999801  1
