# generated using pymatgen
data_LiMg2
_symmetry_space_group_name_H-M   'P 1'
_cell_length_a   3.13766180
_cell_length_b   8.29394768
_cell_length_c   5.06611442
_cell_angle_alpha   90.00000000
_cell_angle_beta   90.00000000
_cell_angle_gamma   79.09660071
_symmetry_Int_Tables_number   1
_chemical_formula_structural   LiMg2
_chemical_formula_sum   'Li2 Mg4'
_cell_volume   129.45853292
_cell_formula_units_Z   2
loop_
 _symmetry_equiv_pos_site_id
 _symmetry_equiv_pos_as_xyz
  1  'x, y, z'
loop_
 _atom_site_type_symbol
 _atom_site_label
 _atom_site_symmetry_multiplicity
 _atom_site_fract_x
 _atom_site_fract_y
 _atom_site_fract_z
 _atom_site_occupancy
  Li  Li0  1  0.33314493  0.33370814  0.00000000  1
  Li  Li1  1  0.11129707  0.77740386  0.49999900  1
  Mg  Mg2  1  0.99988948  0.00022305  0.00000000  1
  Mg  Mg3  1  0.66698095  0.66604009  0.00000000  1
  Mg  Mg4  1  0.44455552  0.11088795  0.49999900  1
  Mg  Mg5  1  0.77746505  0.44507191  0.49999900  1
