# generated using pymatgen
data_SeO3
_symmetry_space_group_name_H-M   'P 1'
_cell_length_a   5.55221848
_cell_length_b   10.09495780
_cell_length_c   10.09495780
_cell_angle_alpha   90.00000000
_cell_angle_beta   90.00000000
_cell_angle_gamma   90.00000000
_symmetry_Int_Tables_number   1
_chemical_formula_structural   SeO3
_chemical_formula_sum   'Se8 O24'
_cell_volume   565.81644130
_cell_formula_units_Z   8
loop_
 _symmetry_equiv_pos_site_id
 _symmetry_equiv_pos_as_xyz
  1  'x, y, z'
loop_
 _atom_site_type_symbol
 _atom_site_label
 _atom_site_symmetry_multiplicity
 _atom_site_fract_x
 _atom_site_fract_y
 _atom_site_fract_z
 _atom_site_occupancy
  O  O0  1  0.80586626  0.59453474  0.74034742  1
  O  O1  1  0.80586626  0.40546526  0.25965258  1
  O  O2  1  0.19413374  0.25965258  0.59453474  1
  O  O3  1  0.19413374  0.74034742  0.40546526  1
  O  O4  1  0.30586626  0.75965258  0.90546526  1
  O  O5  1  0.69413374  0.90546526  0.24034742  1
  O  O6  1  0.69413374  0.09453474  0.75965258  1
  O  O7  1  0.30586626  0.24034742  0.09453474  1
  O  O8  1  0.84593422  0.11719906  0.10136618  1
  O  O9  1  0.15406578  0.10136618  0.88280094  1
  O  O10  1  0.15406578  0.89863382  0.11719906  1
  O  O11  1  0.84593422  0.88280094  0.89863382  1
  O  O12  1  0.65406578  0.61719906  0.39863382  1
  O  O13  1  0.65406578  0.38280094  0.60136618  1
  O  O14  1  0.34593422  0.39863382  0.38280094  1
  O  O15  1  0.34593422  0.60136618  0.61719906  1
  O  O16  1  0.89542887  0.33551500  0.94715950  1
  O  O17  1  0.10457113  0.94715950  0.66448500  1
  O  O18  1  0.10457113  0.05284050  0.33551500  1
  O  O19  1  0.89542887  0.66448500  0.05284050  1
  O  O20  1  0.60457113  0.83551500  0.55284050  1
  O  O21  1  0.60457113  0.16448500  0.44715950  1
  O  O22  1  0.39542887  0.55284050  0.16448500  1
  O  O23  1  0.39542887  0.44715950  0.83551500  1
  Se  Se24  1  0.56083416  0.51089587  0.72119871  1
  Se  Se25  1  0.56083416  0.48910413  0.27880129  1
  Se  Se26  1  0.43916584  0.27880129  0.51089587  1
  Se  Se27  1  0.43916584  0.72119871  0.48910413  1
  Se  Se28  1  0.06083416  0.77880129  0.98910413  1
  Se  Se29  1  0.93916584  0.98910413  0.22119871  1
  Se  Se30  1  0.93916584  0.01089587  0.77880129  1
  Se  Se31  1  0.06083416  0.22119871  0.01089587  1
