# generated using pymatgen
data_YGe3
_symmetry_space_group_name_H-M   'P 1'
_cell_length_a   3.94230207
_cell_length_b   4.05342499
_cell_length_c   10.70880124
_cell_angle_alpha   100.90940989
_cell_angle_beta   90.00000000
_cell_angle_gamma   90.00000000
_symmetry_Int_Tables_number   1
_chemical_formula_structural   YGe3
_chemical_formula_sum   'Y2 Ge6'
_cell_volume   168.03214970
_cell_formula_units_Z   2
loop_
 _symmetry_equiv_pos_site_id
 _symmetry_equiv_pos_as_xyz
  1  'x, y, z'
loop_
 _atom_site_type_symbol
 _atom_site_label
 _atom_site_symmetry_multiplicity
 _atom_site_fract_x
 _atom_site_fract_y
 _atom_site_fract_z
 _atom_site_occupancy
  Ge  Ge0  1  0.25000000  0.18941507  0.37883015  1
  Ge  Ge1  1  0.75000000  0.81058493  0.62116985  1
  Ge  Ge2  1  0.75000000  0.03923559  0.07847119  1
  Ge  Ge3  1  0.25000000  0.96076441  0.92152881  1
  Ge  Ge4  1  0.75000000  0.69133401  0.38266802  1
  Ge  Ge5  1  0.25000000  0.30866599  0.61733198  1
  Y  Y6  1  0.25000000  0.58238858  0.16477716  1
  Y  Y7  1  0.75000000  0.41761142  0.83522284  1
