# generated using pymatgen
data_SmTmTl2
_symmetry_space_group_name_H-M   'P 1'
_cell_length_a   5.39590211
_cell_length_b   5.39589681
_cell_length_c   5.39589617
_cell_angle_alpha   60.00009233
_cell_angle_beta   60.00008483
_cell_angle_gamma   60.00004859
_symmetry_Int_Tables_number   1
_chemical_formula_structural   SmTmTl2
_chemical_formula_sum   'Sm1 Tm1 Tl2'
_cell_volume   111.09052659
_cell_formula_units_Z   1
loop_
 _symmetry_equiv_pos_site_id
 _symmetry_equiv_pos_as_xyz
  1  'x, y, z'
loop_
 _atom_site_type_symbol
 _atom_site_label
 _atom_site_symmetry_multiplicity
 _atom_site_fract_x
 _atom_site_fract_y
 _atom_site_fract_z
 _atom_site_occupancy
  Sm  Sm0  1  0.24999978  0.25000011  0.25000004  1
  Tm  Tm1  1  0.75000064  0.74999943  0.74999983  1
  Tl  Tl2  1  0.99999958  0.99999975  0.00000048  1
  Tl  Tl3  1  0.49999900  0.49999971  0.49999866  1
