# generated using pymatgen
data_TiNbS4
_symmetry_space_group_name_H-M   'P 1'
_cell_length_a   3.38541265
_cell_length_b   6.78671269
_cell_length_c   7.00096836
_cell_angle_alpha   61.21741220
_cell_angle_beta   103.99172415
_cell_angle_gamma   119.92259200
_symmetry_Int_Tables_number   1
_chemical_formula_structural   TiNbS4
_chemical_formula_sum   'Ti1 Nb1 S4'
_cell_volume   122.18720747
_cell_formula_units_Z   1
loop_
 _symmetry_equiv_pos_site_id
 _symmetry_equiv_pos_as_xyz
  1  'x, y, z'
loop_
 _atom_site_type_symbol
 _atom_site_label
 _atom_site_symmetry_multiplicity
 _atom_site_fract_x
 _atom_site_fract_y
 _atom_site_fract_z
 _atom_site_occupancy
  Nb  Nb0  1  0.00000000  0.50000000  0.00000000  1
  S  S1  1  0.67230486  0.79527417  0.75406139  1
  S  S2  1  0.33818299  0.71820208  0.23996182  1
  S  S3  1  0.66181701  0.28179792  0.76003818  1
  S  S4  1  0.32769514  0.20472583  0.24593861  1
  Ti  Ti5  1  0.00000000  0.00000000  0.00000000  1
