# generated using pymatgen
data_LiMnO2
_symmetry_space_group_name_H-M   'P 1'
_cell_length_a   3.17312813
_cell_length_b   3.17311708
_cell_length_c   5.17156847
_cell_angle_alpha   94.47296929
_cell_angle_beta   85.52933579
_cell_angle_gamma   125.67893223
_symmetry_Int_Tables_number   1
_chemical_formula_structural   LiMnO2
_chemical_formula_sum   'Li1 Mn1 O2'
_cell_volume   42.13445788
_cell_formula_units_Z   1
loop_
 _symmetry_equiv_pos_site_id
 _symmetry_equiv_pos_as_xyz
  1  'x, y, z'
loop_
 _atom_site_type_symbol
 _atom_site_label
 _atom_site_symmetry_multiplicity
 _atom_site_fract_x
 _atom_site_fract_y
 _atom_site_fract_z
 _atom_site_occupancy
  Li  Li0  1  0.66500881  0.33500556  0.41477365  1
  Mn  Mn1  1  0.98918991  0.01077022  0.97667094  1
  O  O2  1  0.36025515  0.63974203  0.21516840  1
  O  O3  1  0.65214212  0.34778119  0.78478601  1
