# generated using pymatgen
data_LiFeO2
_symmetry_space_group_name_H-M   'P 1'
_cell_length_a   4.13875013
_cell_length_b   6.12498935
_cell_length_c   2.97727732
_cell_angle_alpha   90.00002851
_cell_angle_beta   90.00004661
_cell_angle_gamma   89.99987915
_symmetry_Int_Tables_number   1
_chemical_formula_structural   LiFeO2
_chemical_formula_sum   'Li2 Fe2 O4'
_cell_volume   75.47338600
_cell_formula_units_Z   2
loop_
 _symmetry_equiv_pos_site_id
 _symmetry_equiv_pos_as_xyz
  1  'x, y, z'
loop_
 _atom_site_type_symbol
 _atom_site_label
 _atom_site_symmetry_multiplicity
 _atom_site_fract_x
 _atom_site_fract_y
 _atom_site_fract_z
 _atom_site_occupancy
  Li  Li0  1  0.25000150  0.10565000  0.25000055  1
  Li  Li1  1  0.74999917  0.89439618  0.75000030  1
  Fe  Fe2  1  0.24999733  0.64353622  0.24999605  1
  Fe  Fe3  1  0.75000149  0.35645533  0.75000329  1
  O  O4  1  0.25000070  0.39844356  0.75000052  1
  O  O5  1  0.24999915  0.85755359  0.74999789  1
  O  O6  1  0.75000105  0.14242210  0.25000125  1
  O  O7  1  0.74999960  0.60154302  0.25000016  1
