# generated using pymatgen
data_Ba3In2O5F2
_symmetry_space_group_name_H-M   'P 1'
_cell_length_a   4.24865473
_cell_length_b   4.24865474
_cell_length_c   11.97830887
_cell_angle_alpha   100.21531780
_cell_angle_beta   100.21531778
_cell_angle_gamma   90.00000003
_symmetry_Int_Tables_number   1
_chemical_formula_structural   Ba3In2O5F2
_chemical_formula_sum   'Ba3 In2 O5 F2'
_cell_volume   209.31015928
_cell_formula_units_Z   1
loop_
 _symmetry_equiv_pos_site_id
 _symmetry_equiv_pos_as_xyz
  1  'x, y, z'
loop_
 _atom_site_type_symbol
 _atom_site_label
 _atom_site_symmetry_multiplicity
 _atom_site_fract_x
 _atom_site_fract_y
 _atom_site_fract_z
 _atom_site_occupancy
  O  O0  1  0.10369488  0.60369488  0.20738976  1
  O  O1  1  0.60369488  0.10369488  0.20738976  1
  O  O2  1  0.00000000  0.00000000  0.00000000  1
  O  O3  1  0.89630512  0.39630512  0.79261024  1
  O  O4  1  0.39630512  0.89630512  0.79261024  1
  F  F5  1  0.20509360  0.20509360  0.41018719  1
  F  F6  1  0.79490640  0.79490640  0.58981281  1
  In  In7  1  0.90892160  0.90892160  0.81784321  1
  In  In8  1  0.09107840  0.09107840  0.18215679  1
  Ba  Ba9  1  0.50000000  0.50000000  0.00000000  1
  Ba  Ba10  1  0.67615242  0.67615242  0.35230484  1
  Ba  Ba11  1  0.32384758  0.32384758  0.64769516  1
