# generated using pymatgen
data_LiAlH4
_symmetry_space_group_name_H-M   'P 1'
_cell_length_a   4.57575578
_cell_length_b   4.57575578
_cell_length_c   6.04741820
_cell_angle_alpha   112.22984914
_cell_angle_beta   112.22984904
_cell_angle_gamma   90.00000000
_symmetry_Int_Tables_number   1
_chemical_formula_structural   LiAlH4
_chemical_formula_sum   'Li2 Al2 H8'
_cell_volume   106.97115782
_cell_formula_units_Z   2
loop_
 _symmetry_equiv_pos_site_id
 _symmetry_equiv_pos_as_xyz
  1  'x, y, z'
loop_
 _atom_site_type_symbol
 _atom_site_label
 _atom_site_symmetry_multiplicity
 _atom_site_fract_x
 _atom_site_fract_y
 _atom_site_fract_z
 _atom_site_occupancy
  Li  Li0  1  0.62500000  0.87500000  0.25000000  1
  Li  Li1  1  0.37500000  0.12500000  0.75000000  1
  Al  Al2  1  0.12500000  0.37500000  0.25000000  1
  Al  Al3  1  0.87500000  0.62500000  0.75000000  1
  H  H4  1  0.38264730  0.20544205  0.41805713  1
  H  H5  1  0.03540983  0.71261509  0.41805713  1
  H  H6  1  0.70544205  0.53540983  0.91805713  1
  H  H7  1  0.21261509  0.88264730  0.91805713  1
  H  H8  1  0.61735270  0.79455795  0.58194287  1
  H  H9  1  0.96459017  0.28738491  0.58194287  1
  H  H10  1  0.29455795  0.46459017  0.08194287  1
  H  H11  1  0.78738491  0.11735270  0.08194287  1
