# generated using pymatgen
data_YCuO3
_symmetry_space_group_name_H-M   'P 1'
_cell_length_a   5.26202774
_cell_length_b   5.66638964
_cell_length_c   7.49422876
_cell_angle_alpha   89.90118911
_cell_angle_beta   89.98301102
_cell_angle_gamma   89.98354935
_symmetry_Int_Tables_number   1
_chemical_formula_structural   YCuO3
_chemical_formula_sum   'Y4 Cu4 O12'
_cell_volume   223.45281544
_cell_formula_units_Z   4
loop_
 _symmetry_equiv_pos_site_id
 _symmetry_equiv_pos_as_xyz
  1  'x, y, z'
loop_
 _atom_site_type_symbol
 _atom_site_label
 _atom_site_symmetry_multiplicity
 _atom_site_fract_x
 _atom_site_fract_y
 _atom_site_fract_z
 _atom_site_occupancy
  Y  Y0  1  0.02023803  0.92433716  0.75036981  1
  Y  Y1  1  0.52045559  0.57550326  0.24955927  1
  Y  Y2  1  0.47955887  0.42484626  0.75048097  1
  Y  Y3  1  0.97967519  0.07526119  0.24964825  1
  Cu  Cu4  1  -0.00000331  0.50010638  0.50000227  1
  Cu  Cu5  1  0.50014280  -0.00015416  0.49990401  1
  Cu  Cu6  1  0.50002406  -0.00003308  0.00003357  1
  Cu  Cu7  1  0.00008349  0.50015993  -0.00019246  1
  O  O8  1  0.69898352  0.30529997  0.44848690  1
  O  O9  1  0.19868293  0.19495828  0.55147738  1
  O  O10  1  0.80091958  0.80544684  0.05197323  1
  O  O11  1  0.30140481  0.69499488  0.94806930  1
  O  O12  1  0.30098658  0.69463947  0.55152934  1
  O  O13  1  0.80122376  0.80517534  0.44850449  1
  O  O14  1  0.19907666  0.19461405  0.94805475  1
  O  O15  1  0.69851516  0.30485021  0.05192646  1
  O  O16  1  0.10321289  0.46882118  0.25066922  1
  O  O17  1  0.60304358  0.03100431  0.74984115  1
  O  O18  1  0.39695681  0.96902382  0.25018552  1
  O  O19  1  0.89681901  0.53114471  0.74947657  1
