# generated using pymatgen
data_BaEr2CoO5
_symmetry_space_group_name_H-M   'P 1'
_cell_length_a   3.76780726
_cell_length_b   5.79234180
_cell_length_c   6.70253164
_cell_angle_alpha   115.62635738
_cell_angle_beta   106.32343022
_cell_angle_gamma   89.99847258
_symmetry_Int_Tables_number   1
_chemical_formula_structural   BaEr2CoO5
_chemical_formula_sum   'Ba1 Er2 Co1 O5'
_cell_volume   125.31890448
_cell_formula_units_Z   1
loop_
 _symmetry_equiv_pos_site_id
 _symmetry_equiv_pos_as_xyz
  1  'x, y, z'
loop_
 _atom_site_type_symbol
 _atom_site_label
 _atom_site_symmetry_multiplicity
 _atom_site_fract_x
 _atom_site_fract_y
 _atom_site_fract_z
 _atom_site_occupancy
  O  O0  1  0.34767916  0.58865415  0.69541783  1
  O  O1  1  0.65232046  0.41134622  0.30458256  1
  O  O2  1  0.65228893  0.89312917  0.30449856  1
  O  O3  1  0.34771143  0.10687032  0.69550032  1
  O  O4  1  0.00000042  0.49999957  1.00000046  1
  Co  Co5  1  0.50000051  0.49999964  0.00000012  1
  Ba  Ba6  1  1.00000001  0.99999924  -0.00000066  1
  Er  Er7  1  0.79637107  0.29641543  0.59273677  1
  Er  Er8  1  0.20362562  0.70358493  0.40726344  1
