# generated using pymatgen
data_Mg17Al12
_symmetry_space_group_name_H-M   'P 1'
_cell_length_a   9.12148564
_cell_length_b   9.12148564
_cell_length_c   9.12148564
_cell_angle_alpha   109.47122063
_cell_angle_beta   109.47122063
_cell_angle_gamma   109.47122063
_symmetry_Int_Tables_number   1
_chemical_formula_structural   Mg17Al12
_chemical_formula_sum   'Mg17 Al12'
_cell_volume   584.21788157
_cell_formula_units_Z   1
loop_
 _symmetry_equiv_pos_site_id
 _symmetry_equiv_pos_as_xyz
  1  'x, y, z'
loop_
 _atom_site_type_symbol
 _atom_site_label
 _atom_site_symmetry_multiplicity
 _atom_site_fract_x
 _atom_site_fract_y
 _atom_site_fract_z
 _atom_site_occupancy
  Mg  Mg0  1  0.00000000  0.00000000  0.00000000  1
  Mg  Mg1  1  0.65580148  0.00000000  0.00000000  1
  Mg  Mg2  1  0.00000000  0.65580148  -0.00000000  1
  Mg  Mg3  1  0.00000000  0.00000000  0.65580148  1
  Mg  Mg4  1  0.34419852  0.34419852  0.34419852  1
  Mg  Mg5  1  0.39700240  0.68369198  -0.00000000  1
  Mg  Mg6  1  0.71331042  0.31630802  0.31630802  1
  Mg  Mg7  1  0.39700240  0.00000000  0.68369198  1
  Mg  Mg8  1  0.68369198  0.39700240  -0.00000000  1
  Mg  Mg9  1  -0.00000000  0.39700240  0.68369198  1
  Mg  Mg10  1  0.31630802  0.71331042  0.31630802  1
  Mg  Mg11  1  0.31630802  0.31630802  0.71331042  1
  Mg  Mg12  1  0.00000000  0.68369198  0.39700240  1
  Mg  Mg13  1  0.68369198  0.00000000  0.39700240  1
  Mg  Mg14  1  0.60299760  0.60299760  0.28668958  1
  Mg  Mg15  1  0.28668958  0.60299760  0.60299760  1
  Mg  Mg16  1  0.60299760  0.28668958  0.60299760  1
  Al  Al17  1  0.36644476  0.18518193  0.00000000  1
  Al  Al18  1  0.18126283  0.81481807  0.81481807  1
  Al  Al19  1  0.36644476  0.00000000  0.18518193  1
  Al  Al20  1  0.18518193  0.36644476  0.00000000  1
  Al  Al21  1  0.00000000  0.36644476  0.18518193  1
  Al  Al22  1  0.81481807  0.18126283  0.81481807  1
  Al  Al23  1  0.81481807  0.81481807  0.18126283  1
  Al  Al24  1  0.00000000  0.18518193  0.36644476  1
  Al  Al25  1  0.18518193  0.00000000  0.36644476  1
  Al  Al26  1  0.63355524  0.63355524  0.81873717  1
  Al  Al27  1  0.81873717  0.63355524  0.63355524  1
  Al  Al28  1  0.63355524  0.81873717  0.63355524  1
