# generated using pymatgen
data_Li2FeNiO4
_symmetry_space_group_name_H-M   'P 1'
_cell_length_a   5.13406328
_cell_length_b   5.13406372
_cell_length_c   5.13406362
_cell_angle_alpha   132.98720285
_cell_angle_beta   132.98720538
_cell_angle_gamma   68.67425014
_symmetry_Int_Tables_number   1
_chemical_formula_structural   Li2FeNiO4
_chemical_formula_sum   'Li2 Fe1 Ni1 O4'
_cell_volume   71.10591594
_cell_formula_units_Z   1
loop_
 _symmetry_equiv_pos_site_id
 _symmetry_equiv_pos_as_xyz
  1  'x, y, z'
loop_
 _atom_site_type_symbol
 _atom_site_label
 _atom_site_symmetry_multiplicity
 _atom_site_fract_x
 _atom_site_fract_y
 _atom_site_fract_z
 _atom_site_occupancy
  Li  Li0  1  0.25000000  0.75000000  0.50000000  1
  Li  Li1  1  0.50000000  0.50000000  0.00000000  1
  Fe  Fe2  1  0.75000000  0.25000000  0.50000000  1
  Ni  Ni3  1  0.00000000  0.00000000  0.00000000  1
  O  O4  1  0.51872953  0.01872953  0.50000000  1
  O  O5  1  0.23393644  0.23393644  1.00000000  1
  O  O6  1  0.98127047  0.48127047  0.50000000  1
  O  O7  1  0.76606356  0.76606356  0.00000000  1
