# generated using pymatgen
data_NaV2O4
_symmetry_space_group_name_H-M   'P 1'
_cell_length_a   2.92111850
_cell_length_b   9.30709693
_cell_length_c   10.88121638
_cell_angle_alpha   90.00000000
_cell_angle_beta   90.00000000
_cell_angle_gamma   90.00000000
_symmetry_Int_Tables_number   1
_chemical_formula_structural   NaV2O4
_chemical_formula_sum   'Na4 V8 O16'
_cell_volume   295.82907718
_cell_formula_units_Z   4
loop_
 _symmetry_equiv_pos_site_id
 _symmetry_equiv_pos_as_xyz
  1  'x, y, z'
loop_
 _atom_site_type_symbol
 _atom_site_label
 _atom_site_symmetry_multiplicity
 _atom_site_fract_x
 _atom_site_fract_y
 _atom_site_fract_z
 _atom_site_occupancy
  Na  Na0  1  0.75000000  0.25701674  0.84749277  1
  Na  Na1  1  0.75000000  0.75701674  0.65250723  1
  Na  Na2  1  0.25000000  0.24298326  0.34749277  1
  Na  Na3  1  0.25000000  0.74298326  0.15250723  1
  V  V4  1  0.25000000  0.56420172  0.38776657  1
  V  V5  1  0.25000000  0.08124202  0.60381555  1
  V  V6  1  0.75000000  0.91875798  0.39618445  1
  V  V7  1  0.75000000  0.41875798  0.10381555  1
  V  V8  1  0.25000000  0.06420172  0.11223343  1
  V  V9  1  0.75000000  0.93579828  0.88776657  1
  V  V10  1  0.75000000  0.43579828  0.61223343  1
  V  V11  1  0.25000000  0.58124202  0.89618445  1
  O  O12  1  0.25000000  0.47767532  0.21881355  1
  O  O13  1  0.75000000  0.42274884  0.42939823  1
  O  O14  1  0.25000000  0.57725116  0.57060177  1
  O  O15  1  0.25000000  0.97767532  0.28118645  1
  O  O16  1  0.75000000  0.11260908  0.47956900  1
  O  O17  1  0.75000000  0.70785446  0.35124597  1
  O  O18  1  0.25000000  0.88739092  0.52043100  1
  O  O19  1  0.25000000  0.29214554  0.64875403  1
  O  O20  1  0.25000000  0.79214554  0.85124597  1
  O  O21  1  0.75000000  0.20785446  0.14875403  1
  O  O22  1  0.25000000  0.07725116  0.92939823  1
  O  O23  1  0.75000000  0.02232468  0.71881355  1
  O  O24  1  0.75000000  0.52232468  0.78118645  1
  O  O25  1  0.25000000  0.38739092  0.97956900  1
  O  O26  1  0.75000000  0.92274884  0.07060177  1
  O  O27  1  0.75000000  0.61260908  0.02043100  1
