# generated using pymatgen
data_LuGaO3
_symmetry_space_group_name_H-M   'P 1'
_cell_length_a   3.45788392
_cell_length_b   3.45793961
_cell_length_c   11.70532283
_cell_angle_alpha   90.00025844
_cell_angle_beta   89.99932638
_cell_angle_gamma   120.00266108
_symmetry_Int_Tables_number   1
_chemical_formula_structural   LuGaO3
_chemical_formula_sum   'Lu2 Ga2 O6'
_cell_volume   121.20769621
_cell_formula_units_Z   2
loop_
 _symmetry_equiv_pos_site_id
 _symmetry_equiv_pos_as_xyz
  1  'x, y, z'
loop_
 _atom_site_type_symbol
 _atom_site_label
 _atom_site_symmetry_multiplicity
 _atom_site_fract_x
 _atom_site_fract_y
 _atom_site_fract_z
 _atom_site_occupancy
  Lu  Lu0  1  -0.00001691  0.00005328  -0.00001650  1
  Lu  Lu1  1  0.00000121  0.00002663  0.50001267  1
  Ga  Ga2  1  0.33328087  0.66668585  0.24999633  1
  Ga  Ga3  1  0.66669720  0.33339886  0.75000377  1
  O  O4  1  0.33330784  0.66669096  0.08559671  1
  O  O5  1  0.00000749  0.00000120  0.24998846  1
  O  O6  1  0.33335909  0.66664600  0.41443742  1
  O  O7  1  -0.00011554  -0.00000050  0.75000748  1
  O  O8  1  0.66673273  0.33341128  0.91438981  1
  O  O9  1  0.66674503  0.33328744  0.58558385  1
