# generated using pymatgen
data_HoHO2
_symmetry_space_group_name_H-M   'P 1'
_cell_length_a   5.46391342
_cell_length_b   4.84852460
_cell_length_c   3.48573993
_cell_angle_alpha   90.00000000
_cell_angle_beta   90.00000000
_cell_angle_gamma   90.00000000
_symmetry_Int_Tables_number   1
_chemical_formula_structural   HoHO2
_chemical_formula_sum   'Ho2 H2 O4'
_cell_volume   92.34393859
_cell_formula_units_Z   2
loop_
 _symmetry_equiv_pos_site_id
 _symmetry_equiv_pos_as_xyz
  1  'x, y, z'
loop_
 _atom_site_type_symbol
 _atom_site_label
 _atom_site_symmetry_multiplicity
 _atom_site_fract_x
 _atom_site_fract_y
 _atom_site_fract_z
 _atom_site_occupancy
  Ho  Ho0  1  0.01746756  0.27684316  0.00000000  1
  Ho  Ho1  1  0.51746756  0.72315684  0.50000000  1
  H  H2  1  0.03736347  0.80650023  0.50000000  1
  H  H3  1  0.53736347  0.19349977  0.00000000  1
  O  O4  1  0.14354946  0.97867101  0.50000000  1
  O  O5  1  0.37884351  0.48230558  0.00000000  1
  O  O6  1  0.64354946  0.02132899  0.00000000  1
  O  O7  1  0.87884351  0.51769442  0.50000000  1
