# generated using pymatgen
data_Sr3Hf2O7
_symmetry_space_group_name_H-M   'P 1'
_cell_length_a   4.13178742
_cell_length_b   10.91467090
_cell_length_c   4.13178742
_cell_angle_alpha   79.08941669
_cell_angle_beta   90.00000000
_cell_angle_gamma   100.91058331
_symmetry_Int_Tables_number   1
_chemical_formula_structural   Sr3Hf2O7
_chemical_formula_sum   'Sr3 Hf2 O7'
_cell_volume   179.53210369
_cell_formula_units_Z   1
loop_
 _symmetry_equiv_pos_site_id
 _symmetry_equiv_pos_as_xyz
  1  'x, y, z'
loop_
 _atom_site_type_symbol
 _atom_site_label
 _atom_site_symmetry_multiplicity
 _atom_site_fract_x
 _atom_site_fract_y
 _atom_site_fract_z
 _atom_site_occupancy
  Sr  Sr0  1  0.50000000  0.00000000  0.50000000  1
  Sr  Sr1  1  0.68651612  0.37303224  0.31348388  1
  Sr  Sr2  1  0.31348388  0.62696776  0.68651612  1
  Hf  Hf3  1  0.90057326  0.80114652  0.09942674  1
  Hf  Hf4  1  0.09942674  0.19885348  0.90057326  1
  O  O5  1  0.00000000  0.00000000  0.00000000  1
  O  O6  1  0.09767798  0.19535496  0.40232202  1
  O  O7  1  0.40232202  0.80464504  0.09767798  1
  O  O8  1  0.80176401  0.60352901  0.19823599  1
  O  O9  1  0.19823599  0.39647099  0.80176401  1
  O  O10  1  0.59767798  0.19535496  0.90232202  1
  O  O11  1  0.90232202  0.80464504  0.59767798  1
