# generated using pymatgen
data_Mn(CuCl2)2
_symmetry_space_group_name_H-M   'P 1'
_cell_length_a   3.84713150
_cell_length_b   7.52963908
_cell_length_c   7.52963864
_cell_angle_alpha   60.23394902
_cell_angle_beta   59.27408556
_cell_angle_gamma   59.27408414
_symmetry_Int_Tables_number   1
_chemical_formula_structural   Mn(CuCl2)2
_chemical_formula_sum   'Mn1 Cu2 Cl4'
_cell_volume   152.77824786
_cell_formula_units_Z   1
loop_
 _symmetry_equiv_pos_site_id
 _symmetry_equiv_pos_as_xyz
  1  'x, y, z'
loop_
 _atom_site_type_symbol
 _atom_site_label
 _atom_site_symmetry_multiplicity
 _atom_site_fract_x
 _atom_site_fract_y
 _atom_site_fract_z
 _atom_site_occupancy
  Mn  Mn0  1  0.50000000  0.77797356  0.72202644  1
  Cu  Cu1  1  0.34238987  0.16182107  0.99578906  1
  Cu  Cu2  1  0.65761013  0.50421094  0.33817893  1
  Cl  Cl3  1  0.02478447  0.98161221  0.99360332  1
  Cl  Cl4  1  1.00000000  0.51551539  0.98448461  1
  Cl  Cl5  1  0.00000000  0.98247017  0.51752983  1
  Cl  Cl6  1  0.97521553  0.50639668  0.51838779  1
