# generated using pymatgen
data_Ba2UCoO6
_symmetry_space_group_name_H-M   'P 1'
_cell_length_a   5.97377145
_cell_length_b   5.97377144
_cell_length_c   5.97377144
_cell_angle_alpha   60.00000003
_cell_angle_beta   60.00000003
_cell_angle_gamma   59.99999998
_symmetry_Int_Tables_number   1
_chemical_formula_structural   Ba2UCoO6
_chemical_formula_sum   'Ba2 U1 Co1 O6'
_cell_volume   150.74079790
_cell_formula_units_Z   1
loop_
 _symmetry_equiv_pos_site_id
 _symmetry_equiv_pos_as_xyz
  1  'x, y, z'
loop_
 _atom_site_type_symbol
 _atom_site_label
 _atom_site_symmetry_multiplicity
 _atom_site_fract_x
 _atom_site_fract_y
 _atom_site_fract_z
 _atom_site_occupancy
  O  O0  1  0.24836971  0.75162955  0.75163012  1
  O  O1  1  0.24836971  0.75162955  0.24837046  1
  O  O2  1  0.75163118  0.24836924  0.75162954  1
  O  O3  1  0.24837011  0.24836924  0.75163109  1
  O  O4  1  0.75163118  0.24836924  0.24836988  1
  O  O5  1  0.75163079  0.75162955  0.24837060  1
  Co  Co6  1  0.49999947  0.49999939  0.50000134  1
  Ba  Ba7  1  0.25000037  0.25000074  0.24999983  1
  Ba  Ba8  1  0.74999984  0.75000013  0.74999947  1
  U  U9  1  0.00000000  0.00000000  0.00000000  1
