# generated using pymatgen
data_VOF
_symmetry_space_group_name_H-M   'P 1'
_cell_length_a   3.87333907
_cell_length_b   3.16723750
_cell_length_c   6.27526569
_cell_angle_alpha   89.96596259
_cell_angle_beta   90.00032146
_cell_angle_gamma   90.00003200
_symmetry_Int_Tables_number   1
_chemical_formula_structural   VOF
_chemical_formula_sum   'V2 O2 F2'
_cell_volume   76.98359502
_cell_formula_units_Z   2
loop_
 _symmetry_equiv_pos_site_id
 _symmetry_equiv_pos_as_xyz
  1  'x, y, z'
loop_
 _atom_site_type_symbol
 _atom_site_label
 _atom_site_symmetry_multiplicity
 _atom_site_fract_x
 _atom_site_fract_y
 _atom_site_fract_z
 _atom_site_occupancy
  V  V0  1  0.25000099  0.24989173  0.15193956  1
  V  V1  1  0.74999918  0.75011452  0.84804624  1
  O  O2  1  0.25000048  0.75001390  0.93423654  1
  O  O3  1  0.75000002  0.24998735  0.06576353  1
  F  F4  1  0.25000112  0.74994081  0.35185199  1
  F  F5  1  0.74999821  0.25005168  0.64816215  1
