# generated using pymatgen
data_LiSi
_symmetry_space_group_name_H-M   'P 1'
_cell_length_a   5.74794274
_cell_length_b   7.20555752
_cell_length_c   7.20555752
_cell_angle_alpha   80.84619982
_cell_angle_beta   66.49339261
_cell_angle_gamma   66.49339257
_symmetry_Int_Tables_number   1
_chemical_formula_structural   LiSi
_chemical_formula_sum   'Li8 Si8'
_cell_volume   250.95717891
_cell_formula_units_Z   8
loop_
 _symmetry_equiv_pos_site_id
 _symmetry_equiv_pos_as_xyz
  1  'x, y, z'
loop_
 _atom_site_type_symbol
 _atom_site_label
 _atom_site_symmetry_multiplicity
 _atom_site_fract_x
 _atom_site_fract_y
 _atom_site_fract_z
 _atom_site_occupancy
  Li  Li0  1  0.13518259  0.80476857  0.03349519  1
  Li  Li1  1  0.16867778  0.46650481  0.80476857  1
  Li  Li2  1  0.43995116  0.03349519  0.69523143  1
  Li  Li3  1  0.97344636  0.69523143  0.46650481  1
  Li  Li4  1  0.86481741  0.19523143  0.96650481  1
  Li  Li5  1  0.83132222  0.53349519  0.19523143  1
  Li  Li6  1  0.56004884  0.96650481  0.30476857  1
  Li  Li7  1  0.02655364  0.30476857  0.53349519  1
  Si  Si8  1  0.70543442  0.84200105  0.93651940  1
  Si  Si9  1  0.64195382  0.56348060  0.84200105  1
  Si  Si10  1  0.04743546  0.93651940  0.65799895  1
  Si  Si11  1  0.48395486  0.65799895  0.56348060  1
  Si  Si12  1  0.29456558  0.15799895  0.06348060  1
  Si  Si13  1  0.35804618  0.43651940  0.15799895  1
  Si  Si14  1  0.95256454  0.06348060  0.34200105  1
  Si  Si15  1  0.51604514  0.34200105  0.43651940  1
