# generated using pymatgen
data_Er5Si4
_symmetry_space_group_name_H-M   'P 1'
_cell_length_a   7.35802888
_cell_length_b   7.63305053
_cell_length_c   14.41857179
_cell_angle_alpha   90.00000000
_cell_angle_beta   90.00000000
_cell_angle_gamma   90.00000000
_symmetry_Int_Tables_number   1
_chemical_formula_structural   Er5Si4
_chemical_formula_sum   'Er20 Si16'
_cell_volume   809.80763973
_cell_formula_units_Z   4
loop_
 _symmetry_equiv_pos_site_id
 _symmetry_equiv_pos_as_xyz
  1  'x, y, z'
loop_
 _atom_site_type_symbol
 _atom_site_label
 _atom_site_symmetry_multiplicity
 _atom_site_fract_x
 _atom_site_fract_y
 _atom_site_fract_z
 _atom_site_occupancy
  Er  Er0  1  0.02924418  0.81719773  0.40176831  1
  Er  Er1  1  0.52924418  0.68280227  0.40176831  1
  Er  Er2  1  0.31629535  0.82100946  0.87697897  1
  Er  Er3  1  0.81629535  0.67899054  0.87697897  1
  Er  Er4  1  0.85320290  0.51248303  0.25000000  1
  Er  Er5  1  0.47075582  0.31719773  0.90176831  1
  Er  Er6  1  0.02924418  0.81719773  0.09823169  1
  Er  Er7  1  0.47075582  0.31719773  0.59823169  1
  Er  Er8  1  0.64679710  0.01248303  0.75000000  1
  Er  Er9  1  0.52924418  0.68280227  0.09823169  1
  Er  Er10  1  0.68370465  0.17899054  0.12302103  1
  Er  Er11  1  0.18370465  0.32100946  0.37697897  1
  Er  Er12  1  0.18370465  0.32100946  0.12302103  1
  Er  Er13  1  0.81629535  0.67899054  0.62302103  1
  Er  Er14  1  0.31629535  0.82100946  0.62302103  1
  Er  Er15  1  0.35320290  0.98751697  0.25000000  1
  Er  Er16  1  0.68370465  0.17899054  0.37697897  1
  Er  Er17  1  0.14679710  0.48751697  0.75000000  1
  Er  Er18  1  0.97075582  0.18280227  0.90176831  1
  Er  Er19  1  0.97075582  0.18280227  0.59823169  1
  Si  Si20  1  0.64627223  0.97187804  0.54061747  1
  Si  Si21  1  0.23413508  0.62879788  0.25000000  1
  Si  Si22  1  0.35372777  0.02812196  0.45938253  1
  Si  Si23  1  0.01886675  0.89620341  0.75000000  1
  Si  Si24  1  0.73413508  0.87120212  0.25000000  1
  Si  Si25  1  0.26586492  0.12879788  0.75000000  1
  Si  Si26  1  0.85372777  0.47187804  0.45938253  1
  Si  Si27  1  0.48113325  0.39620341  0.25000000  1
  Si  Si28  1  0.14627223  0.52812196  0.54061747  1
  Si  Si29  1  0.14627223  0.52812196  0.95938253  1
  Si  Si30  1  0.98113325  0.10379659  0.25000000  1
  Si  Si31  1  0.76586492  0.37120212  0.75000000  1
  Si  Si32  1  0.35372777  0.02812196  0.04061747  1
  Si  Si33  1  0.85372777  0.47187804  0.04061747  1
  Si  Si34  1  0.64627223  0.97187804  0.95938253  1
  Si  Si35  1  0.51886675  0.60379659  0.75000000  1
