# generated using pymatgen
data_TiCoSi
_symmetry_space_group_name_H-M   'P 1'
_cell_length_a   3.71075058
_cell_length_b   6.02121045
_cell_length_c   6.02539304
_cell_angle_alpha   119.97704192
_cell_angle_beta   90.00000000
_cell_angle_gamma   90.00000000
_symmetry_Int_Tables_number   1
_chemical_formula_structural   TiCoSi
_chemical_formula_sum   'Ti3 Co3 Si3'
_cell_volume   116.61703819
_cell_formula_units_Z   3
loop_
 _symmetry_equiv_pos_site_id
 _symmetry_equiv_pos_as_xyz
  1  'x, y, z'
loop_
 _atom_site_type_symbol
 _atom_site_label
 _atom_site_symmetry_multiplicity
 _atom_site_fract_x
 _atom_site_fract_y
 _atom_site_fract_z
 _atom_site_occupancy
  Ti  Ti0  1  0.50000000  0.43561601  0.00000000  1
  Ti  Ti1  1  0.50000000  0.56432176  0.56432946  1
  Ti  Ti2  1  0.50000000  0.99999230  0.43567054  1
  Co  Co3  1  0.00000000  0.24282456  0.24285586  1
  Co  Co4  1  0.00000000  0.99996870  0.75714414  1
  Co  Co5  1  0.00000000  0.75713240  1.00000000  1
  Si  Si6  1  0.50000000  0.00025246  0.00000000  1
  Si  Si7  1  0.00000000  0.33322973  0.66666766  1
  Si  Si8  1  0.00000000  0.66656207  0.33333234  1
