# generated using pymatgen
data_CdGeO3
_symmetry_space_group_name_H-M   'P 1'
_cell_length_a   5.90404306
_cell_length_b   5.90404306
_cell_length_c   5.90404306
_cell_angle_alpha   52.19537113
_cell_angle_beta   52.19537123
_cell_angle_gamma   52.19537116
_symmetry_Int_Tables_number   1
_chemical_formula_structural   CdGeO3
_chemical_formula_sum   'Cd2 Ge2 O6'
_cell_volume   118.83628971
_cell_formula_units_Z   2
loop_
 _symmetry_equiv_pos_site_id
 _symmetry_equiv_pos_as_xyz
  1  'x, y, z'
loop_
 _atom_site_type_symbol
 _atom_site_label
 _atom_site_symmetry_multiplicity
 _atom_site_fract_x
 _atom_site_fract_y
 _atom_site_fract_z
 _atom_site_occupancy
  O  O0  1  0.03495335  0.81224536  0.43968778  1
  O  O1  1  0.81224536  0.43968778  0.03495335  1
  O  O2  1  0.43968778  0.03495335  0.81224536  1
  O  O3  1  0.96504665  0.18775464  0.56031222  1
  O  O4  1  0.56031222  0.96504665  0.18775464  1
  O  O5  1  0.18775464  0.56031222  0.96504665  1
  Ge  Ge6  1  0.84046773  0.84046773  0.84046773  1
  Ge  Ge7  1  0.15953227  0.15953227  0.15953227  1
  Cd  Cd8  1  0.63257160  0.63257160  0.63257160  1
  Cd  Cd9  1  0.36742840  0.36742840  0.36742840  1
