# generated using pymatgen
data_Ca5Si3
_symmetry_space_group_name_H-M   'P 1'
_cell_length_a   7.64316048
_cell_length_b   7.64312066
_cell_length_c   9.15784540
_cell_angle_alpha   114.66383745
_cell_angle_beta   114.66432033
_cell_angle_gamma   90.00000000
_symmetry_Int_Tables_number   1
_chemical_formula_structural   Ca5Si3
_chemical_formula_sum   'Ca10 Si6'
_cell_volume   431.88631186
_cell_formula_units_Z   2
loop_
 _symmetry_equiv_pos_site_id
 _symmetry_equiv_pos_as_xyz
  1  'x, y, z'
loop_
 _atom_site_type_symbol
 _atom_site_label
 _atom_site_symmetry_multiplicity
 _atom_site_fract_x
 _atom_site_fract_y
 _atom_site_fract_z
 _atom_site_occupancy
  Si  Si0  1  0.61267832  0.11268179  0.00001666  1
  Si  Si1  1  0.88733834  0.61268179  0.00001666  1
  Si  Si2  1  0.11266166  0.38731821  0.99998334  1
  Si  Si3  1  0.38732168  0.88731821  0.99998334  1
  Si  Si4  1  0.74999767  0.75000000  0.50000000  1
  Si  Si5  1  0.25000233  0.25000000  0.50000000  1
  Ca  Ca6  1  0.18005555  0.03991410  0.71996925  1
  Ca  Ca7  1  0.03991370  0.53991410  0.71996925  1
  Ca  Ca8  1  0.68005637  0.18005908  0.71997085  1
  Ca  Ca9  1  0.96008630  0.46008590  0.28003075  1
  Ca  Ca10  1  0.53991448  0.68005908  0.71997085  1
  Ca  Ca11  1  0.81994445  0.96008590  0.28003075  1
  Ca  Ca12  1  0.46008552  0.31994092  0.28002915  1
  Ca  Ca13  1  0.31994363  0.81994092  0.28002915  1
  Ca  Ca14  1  0.50000000  0.50000000  0.00000000  1
  Ca  Ca15  1  0.00000000  0.00000000  0.00000000  1
