# generated using pymatgen
data_V3S4
_symmetry_space_group_name_H-M   'P 1'
_cell_length_a   3.24801464
_cell_length_b   5.86339993
_cell_length_c   6.51628786
_cell_angle_alpha   114.49366079
_cell_angle_beta   104.43152464
_cell_angle_gamma   89.99999994
_symmetry_Int_Tables_number   1
_chemical_formula_structural   V3S4
_chemical_formula_sum   'V3 S4'
_cell_volume   108.61315544
_cell_formula_units_Z   1
loop_
 _symmetry_equiv_pos_site_id
 _symmetry_equiv_pos_as_xyz
  1  'x, y, z'
loop_
 _atom_site_type_symbol
 _atom_site_label
 _atom_site_symmetry_multiplicity
 _atom_site_fract_x
 _atom_site_fract_y
 _atom_site_fract_z
 _atom_site_occupancy
  S  S0  1  0.35928301  0.01907623  0.71856601  1
  S  S1  1  0.64071699  0.98092377  0.28143399  1
  S  S2  1  0.89049973  0.55078688  0.78099946  1
  S  S3  1  0.10950027  0.44921312  0.21900054  1
  V  V4  1  0.00000000  0.00000000  0.00000000  1
  V  V5  1  0.25786941  0.31882714  0.51573883  1
  V  V6  1  0.74213059  0.68117286  0.48426117  1
