# generated using pymatgen
data_H3N
_symmetry_space_group_name_H-M   'P 1'
_cell_length_a   5.33741134
_cell_length_b   5.33741134
_cell_length_c   5.33741134
_cell_angle_alpha   90.00000000
_cell_angle_beta   90.00000000
_cell_angle_gamma   90.00000000
_symmetry_Int_Tables_number   1
_chemical_formula_structural   H3N
_chemical_formula_sum   'H12 N4'
_cell_volume   152.05195976
_cell_formula_units_Z   4
loop_
 _symmetry_equiv_pos_site_id
 _symmetry_equiv_pos_as_xyz
  1  'x, y, z'
loop_
 _atom_site_type_symbol
 _atom_site_label
 _atom_site_symmetry_multiplicity
 _atom_site_fract_x
 _atom_site_fract_y
 _atom_site_fract_z
 _atom_site_occupancy
  H  H0  1  0.02640289  0.50496639  0.29724089  1
  H  H1  1  0.99503361  0.70275911  0.52640289  1
  H  H2  1  0.20275911  0.97359711  0.00496639  1
  H  H3  1  0.29724089  0.02640289  0.50496639  1
  H  H4  1  0.50496639  0.29724089  0.02640289  1
  H  H5  1  0.47359711  0.49503361  0.79724089  1
  H  H6  1  0.52640289  0.99503361  0.70275911  1
  H  H7  1  0.49503361  0.79724089  0.47359711  1
  H  H8  1  0.70275911  0.52640289  0.99503361  1
  H  H9  1  0.79724089  0.47359711  0.49503361  1
  H  H10  1  0.00496639  0.20275911  0.97359711  1
  H  H11  1  0.97359711  0.00496639  0.20275911  1
  N  N12  1  0.10472515  0.10472515  0.10472515  1
  N  N13  1  0.39527485  0.89527485  0.60472515  1
  N  N14  1  0.60472515  0.39527485  0.89527485  1
  N  N15  1  0.89527485  0.60472515  0.39527485  1
