# generated using pymatgen
data_Sm3Y
_symmetry_space_group_name_H-M   'P 1'
_cell_length_a   7.34524710
_cell_length_b   7.34524760
_cell_length_c   5.81886645
_cell_angle_alpha   90.00000000
_cell_angle_beta   90.00000000
_cell_angle_gamma   120.00000227
_symmetry_Int_Tables_number   1
_chemical_formula_structural   Sm3Y
_chemical_formula_sum   'Sm6 Y2'
_cell_volume   271.88287996
_cell_formula_units_Z   2
loop_
 _symmetry_equiv_pos_site_id
 _symmetry_equiv_pos_as_xyz
  1  'x, y, z'
loop_
 _atom_site_type_symbol
 _atom_site_label
 _atom_site_symmetry_multiplicity
 _atom_site_fract_x
 _atom_site_fract_y
 _atom_site_fract_z
 _atom_site_occupancy
  Sm  Sm0  1  0.16659183  0.33318365  0.25000100  1
  Sm  Sm1  1  0.66681535  0.83340717  0.25000100  1
  Sm  Sm2  1  0.16659183  0.83340717  0.25000100  1
  Sm  Sm3  1  0.83340717  0.66681535  0.75000100  1
  Sm  Sm4  1  0.33318365  0.16659183  0.75000100  1
  Sm  Sm5  1  0.83340817  0.16659183  0.75000100  1
  Y  Y6  1  0.33333400  0.66666700  0.75000100  1
  Y  Y7  1  0.66666600  0.33333400  0.25000100  1
