# generated using pymatgen
data_LuP5
_symmetry_space_group_name_H-M   'P 1'
_cell_length_a   4.90548075
_cell_length_b   5.29574049
_cell_length_c   9.32544212
_cell_angle_alpha   90.00000000
_cell_angle_beta   90.00000000
_cell_angle_gamma   102.42788767
_symmetry_Int_Tables_number   1
_chemical_formula_structural   LuP5
_chemical_formula_sum   'Lu2 P10'
_cell_volume   236.58109239
_cell_formula_units_Z   2
loop_
 _symmetry_equiv_pos_site_id
 _symmetry_equiv_pos_as_xyz
  1  'x, y, z'
loop_
 _atom_site_type_symbol
 _atom_site_label
 _atom_site_symmetry_multiplicity
 _atom_site_fract_x
 _atom_site_fract_y
 _atom_site_fract_z
 _atom_site_occupancy
  P  P0  1  0.26918262  0.88989452  0.25000000  1
  P  P1  1  0.73081738  0.11010548  0.75000000  1
  P  P2  1  0.61697720  0.95757638  0.40619507  1
  P  P3  1  0.38302280  0.04242362  0.90619507  1
  P  P4  1  0.38302280  0.04242362  0.59380493  1
  P  P5  1  0.61697720  0.95757638  0.09380493  1
  P  P6  1  0.71787244  0.59432718  0.47181808  1
  P  P7  1  0.28212756  0.40567282  0.97181808  1
  P  P8  1  0.28212756  0.40567282  0.52818192  1
  P  P9  1  0.71787244  0.59432718  0.02818192  1
  Lu  Lu10  1  0.00182364  0.34692175  0.25000000  1
  Lu  Lu11  1  0.99817636  0.65307825  0.75000000  1
