# generated using pymatgen
data_Nb5Se4
_symmetry_space_group_name_H-M   'P 1'
_cell_length_a   3.45225146
_cell_length_b   7.29205719
_cell_length_c   7.29205719
_cell_angle_alpha   86.78785694
_cell_angle_beta   76.30737204
_cell_angle_gamma   76.30737214
_symmetry_Int_Tables_number   1
_chemical_formula_structural   Nb5Se4
_chemical_formula_sum   'Nb5 Se4'
_cell_volume   173.28433985
_cell_formula_units_Z   1
loop_
 _symmetry_equiv_pos_site_id
 _symmetry_equiv_pos_as_xyz
  1  'x, y, z'
loop_
 _atom_site_type_symbol
 _atom_site_label
 _atom_site_symmetry_multiplicity
 _atom_site_fract_x
 _atom_site_fract_y
 _atom_site_fract_z
 _atom_site_occupancy
  Se  Se0  1  0.94117411  0.77779015  0.33986162  1
  Se  Se1  1  0.28103573  0.66013838  0.77779015  1
  Se  Se2  1  0.71896427  0.33986162  0.22220985  1
  Se  Se3  1  0.05882589  0.22220985  0.66013838  1
  Nb  Nb4  1  0.69665991  0.92808106  0.67859912  1
  Nb  Nb5  1  0.37525903  0.32140088  0.92808106  1
  Nb  Nb6  1  0.62474097  0.67859912  0.07191894  1
  Nb  Nb7  1  0.30334009  0.07191894  0.32140088  1
  Nb  Nb8  1  0.00000000  0.00000000  0.00000000  1
