# generated using pymatgen
data_LiNd2HO3
_symmetry_space_group_name_H-M   'P 1'
_cell_length_a   3.50472584
_cell_length_b   3.71636997
_cell_length_c   6.84749808
_cell_angle_alpha   105.75033309
_cell_angle_beta   104.82768410
_cell_angle_gamma   89.99999999
_symmetry_Int_Tables_number   1
_chemical_formula_structural   LiNd2HO3
_chemical_formula_sum   'Li1 Nd2 H1 O3'
_cell_volume   82.74895335
_cell_formula_units_Z   1
loop_
 _symmetry_equiv_pos_site_id
 _symmetry_equiv_pos_as_xyz
  1  'x, y, z'
loop_
 _atom_site_type_symbol
 _atom_site_label
 _atom_site_symmetry_multiplicity
 _atom_site_fract_x
 _atom_site_fract_y
 _atom_site_fract_z
 _atom_site_occupancy
  H  H0  1  0.50000000  0.00000000  0.00000000  1
  Li  Li1  1  0.00000000  0.00000000  0.00000000  1
  O  O2  1  0.00000000  0.50000000  0.00000000  1
  O  O3  1  0.82351573  0.82351832  0.64703145  1
  O  O4  1  0.17648427  0.17648168  0.35296855  1
  Nd  Nd5  1  0.36404452  0.36402323  0.72808904  1
  Nd  Nd6  1  0.63595548  0.63597677  0.27191096  1
