# generated using pymatgen
data_Sb6O13
_symmetry_space_group_name_H-M   'P 1'
_cell_length_a   7.39915456
_cell_length_b   14.82824586
_cell_length_c   12.83142757
_cell_angle_alpha   30.07880858
_cell_angle_beta   53.80650177
_cell_angle_gamma   59.26996407
_symmetry_Int_Tables_number   1
_chemical_formula_structural   Sb6O13
_chemical_formula_sum   'Sb12 O26'
_cell_volume   569.42707722
_cell_formula_units_Z   2
loop_
 _symmetry_equiv_pos_site_id
 _symmetry_equiv_pos_as_xyz
  1  'x, y, z'
loop_
 _atom_site_type_symbol
 _atom_site_label
 _atom_site_symmetry_multiplicity
 _atom_site_fract_x
 _atom_site_fract_y
 _atom_site_fract_z
 _atom_site_occupancy
  Sb  Sb0  1  0.49987436  0.00000000  0.02139148  1
  Sb  Sb1  1  0.00000000  0.25000000  0.50000000  1
  Sb  Sb2  1  0.00000000  0.75000000  0.00000000  1
  Sb  Sb3  1  0.50012564  0.50000000  0.97860852  1
  Sb  Sb4  1  0.50000000  0.25000000  0.50000000  1
  Sb  Sb5  1  0.48989806  0.50000000  0.50195239  1
  Sb  Sb6  1  0.00396818  0.00000000  0.49591204  1
  Sb  Sb7  1  0.50000000  0.25000000  0.00000000  1
  Sb  Sb8  1  0.50000000  0.75000000  0.50000000  1
  Sb  Sb9  1  0.99603182  0.50000000  0.50408796  1
  Sb  Sb10  1  0.51010194  0.00000000  0.49804761  1
  Sb  Sb11  1  0.50000000  0.75000000  0.00000000  1
  O  O12  1  0.18343982  0.19755172  0.17887719  1
  O  O13  1  0.17253405  0.50000000  0.11965431  1
  O  O14  1  0.17135321  0.00000000  0.58406647  1
  O  O15  1  0.55612835  0.20459860  0.17928933  1
  O  O16  1  0.17016162  0.30652136  0.56096412  1
  O  O17  1  0.17016162  0.69347864  0.17400684  1
  O  O18  1  0.41918010  0.19854090  0.42849269  1
  O  O19  1  0.56866605  0.50000000  0.17851283  1
  O  O20  1  0.43133395  0.00000000  0.82148717  1
  O  O21  1  0.17918028  0.50000000  0.56817516  1
  O  O22  1  0.58081990  0.30145910  0.57150731  1
  O  O23  1  0.58081990  0.69854090  0.17442552  1
  O  O24  1  0.82983838  0.19347864  0.43903588  1
  O  O25  1  0.18343982  0.80244828  0.57398062  1
  O  O26  1  0.44387165  0.29540140  0.82071067  1
  O  O27  1  0.44387165  0.70459860  0.41151347  1
  O  O28  1  0.56318482  0.00000000  0.16912168  1
  O  O29  1  0.82864679  0.50000000  0.41593353  1
  O  O30  1  0.43681518  0.50000000  0.83087832  1
  O  O31  1  0.55612835  0.79540140  0.58848653  1
  O  O32  1  0.81656018  0.30244828  0.82112281  1
  O  O33  1  0.81656018  0.69755172  0.42601938  1
  O  O34  1  0.41918010  0.80145910  0.82557448  1
  O  O35  1  0.82081972  0.00000000  0.43182484  1
  O  O36  1  0.82983838  0.80652136  0.82599316  1
  O  O37  1  0.82746595  0.00000000  0.88034569  1
