# generated using pymatgen
data_BaCdO2
_symmetry_space_group_name_H-M   'P 1'
_cell_length_a   3.71956557
_cell_length_b   6.26019296
_cell_length_c   12.18911776
_cell_angle_alpha   90.00000000
_cell_angle_beta   90.00000000
_cell_angle_gamma   90.00000000
_symmetry_Int_Tables_number   1
_chemical_formula_structural   BaCdO2
_chemical_formula_sum   'Ba4 Cd4 O8'
_cell_volume   283.82602287
_cell_formula_units_Z   4
loop_
 _symmetry_equiv_pos_site_id
 _symmetry_equiv_pos_as_xyz
  1  'x, y, z'
loop_
 _atom_site_type_symbol
 _atom_site_label
 _atom_site_symmetry_multiplicity
 _atom_site_fract_x
 _atom_site_fract_y
 _atom_site_fract_z
 _atom_site_occupancy
  O  O0  1  0.25000000  0.27716937  0.01831155  1
  O  O1  1  0.75000000  0.72283063  0.98168845  1
  O  O2  1  0.25000000  0.77716937  0.48168845  1
  O  O3  1  0.75000000  0.22283063  0.51831155  1
  O  O4  1  0.25000000  0.85903909  0.74775399  1
  O  O5  1  0.75000000  0.64096091  0.24775399  1
  O  O6  1  0.25000000  0.35903909  0.75224601  1
  O  O7  1  0.75000000  0.14096091  0.25224601  1
  Cd  Cd8  1  0.75000000  0.90578947  0.39397715  1
  Cd  Cd9  1  0.75000000  0.40578947  0.10602285  1
  Cd  Cd10  1  0.25000000  0.09421053  0.60602285  1
  Cd  Cd11  1  0.25000000  0.59421053  0.89397715  1
  Ba  Ba12  1  0.25000000  0.39668025  0.35637570  1
  Ba  Ba13  1  0.75000000  0.60331975  0.64362430  1
  Ba  Ba14  1  0.25000000  0.89668025  0.14362430  1
  Ba  Ba15  1  0.75000000  0.10331975  0.85637570  1
