# generated using pymatgen
data_Cu10Sn3
_symmetry_space_group_name_H-M   'P 1'
_cell_length_a   7.36170096
_cell_length_b   7.36170078
_cell_length_c   7.93468423
_cell_angle_alpha   90.00000000
_cell_angle_beta   90.00000000
_cell_angle_gamma   120.00000081
_symmetry_Int_Tables_number   1
_chemical_formula_structural   Cu10Sn3
_chemical_formula_sum   'Cu20 Sn6'
_cell_volume   372.40594879
_cell_formula_units_Z   2
loop_
 _symmetry_equiv_pos_site_id
 _symmetry_equiv_pos_as_xyz
  1  'x, y, z'
loop_
 _atom_site_type_symbol
 _atom_site_label
 _atom_site_symmetry_multiplicity
 _atom_site_fract_x
 _atom_site_fract_y
 _atom_site_fract_z
 _atom_site_occupancy
  Cu  Cu0  1  0.66666700  0.33333300  0.57421578  1
  Cu  Cu1  1  0.97231585  0.33104383  0.41350070  1
  Cu  Cu2  1  0.35872799  0.02768415  0.41350070  1
  Cu  Cu3  1  0.64127201  0.97231585  0.91350070  1
  Cu  Cu4  1  0.00000000  0.00000000  0.48807886  1
  Cu  Cu5  1  0.66666700  0.33333300  0.24674529  1
  Cu  Cu6  1  0.02775109  0.67101016  0.58074237  1
  Cu  Cu7  1  0.33333300  0.66666700  0.74674529  1
  Cu  Cu8  1  0.33333300  0.66666700  0.07421578  1
  Cu  Cu9  1  0.33333300  0.66666700  0.42002405  1
  Cu  Cu10  1  0.02768415  0.66895617  0.91350070  1
  Cu  Cu11  1  0.66666700  0.33333300  0.92002405  1
  Cu  Cu12  1  0.64325907  0.97224891  0.58074237  1
  Cu  Cu13  1  0.66895617  0.64127201  0.41350070  1
  Cu  Cu14  1  0.32898984  0.35674093  0.58074237  1
  Cu  Cu15  1  0.35674093  0.02775109  0.08074237  1
  Cu  Cu16  1  0.67101016  0.64325907  0.08074237  1
  Cu  Cu17  1  0.33104383  0.35872799  0.91350070  1
  Cu  Cu18  1  0.97224891  0.32898984  0.08074237  1
  Cu  Cu19  1  0.00000000  0.00000000  0.98807886  1
  Sn  Sn20  1  0.68364918  0.97688967  0.24680228  1
  Sn  Sn21  1  0.02311033  0.70675951  0.24680228  1
  Sn  Sn22  1  0.31635082  0.02311033  0.74680228  1
  Sn  Sn23  1  0.97688967  0.29324049  0.74680228  1
  Sn  Sn24  1  0.29324049  0.31635082  0.24680228  1
  Sn  Sn25  1  0.70675951  0.68364918  0.74680228  1
