# generated using pymatgen
data_NaBiS2
_symmetry_space_group_name_H-M   'P 1'
_cell_length_a   5.76735108
_cell_length_b   5.76727830
_cell_length_c   7.17487039
_cell_angle_alpha   113.79084613
_cell_angle_beta   113.79237459
_cell_angle_gamma   89.78972412
_symmetry_Int_Tables_number   1
_chemical_formula_structural   NaBiS2
_chemical_formula_sum   'Na2 Bi2 S4'
_cell_volume   196.17253745
_cell_formula_units_Z   2
loop_
 _symmetry_equiv_pos_site_id
 _symmetry_equiv_pos_as_xyz
  1  'x, y, z'
loop_
 _atom_site_type_symbol
 _atom_site_label
 _atom_site_symmetry_multiplicity
 _atom_site_fract_x
 _atom_site_fract_y
 _atom_site_fract_z
 _atom_site_occupancy
  Na  Na0  1  0.99785443  0.99709422  0.99793914  1
  Na  Na1  1  0.24784253  0.74687608  0.49802154  1
  Bi  Bi2  1  0.73189940  0.23093857  0.49790011  1
  Bi  Bi3  1  0.48193074  0.48099772  0.99787951  1
  S  S4  1  0.00930681  0.48862268  0.97867685  1
  S  S5  1  0.50859410  0.02773851  0.01705485  1
  S  S6  1  0.73935277  0.75847176  0.47869854  1
  S  S7  1  0.27846722  0.25760847  0.51705846  1
