# generated using pymatgen
data_ZrO2
_symmetry_space_group_name_H-M   'P 1'
_cell_length_a   5.50550846
_cell_length_b   7.75979350
_cell_length_c   3.48076023
_cell_angle_alpha   90.00000000
_cell_angle_beta   90.00000000
_cell_angle_gamma   90.00000000
_symmetry_Int_Tables_number   1
_chemical_formula_structural   ZrO2
_chemical_formula_sum   'Zr4 O8'
_cell_volume   148.70367674
_cell_formula_units_Z   4
loop_
 _symmetry_equiv_pos_site_id
 _symmetry_equiv_pos_as_xyz
  1  'x, y, z'
loop_
 _atom_site_type_symbol
 _atom_site_label
 _atom_site_symmetry_multiplicity
 _atom_site_fract_x
 _atom_site_fract_y
 _atom_site_fract_z
 _atom_site_occupancy
  Zr  Zr0  1  0.13591670  0.82830539  0.25000000  1
  Zr  Zr1  1  0.36408330  0.32830539  0.25000000  1
  Zr  Zr2  1  0.63591670  0.67169461  0.75000000  1
  Zr  Zr3  1  0.86408330  0.17169461  0.75000000  1
  O  O4  1  0.11489112  0.10871820  0.25000000  1
  O  O5  1  0.14022010  0.35525487  0.75000000  1
  O  O6  1  0.35977990  0.85525487  0.75000000  1
  O  O7  1  0.38510888  0.60871820  0.25000000  1
  O  O8  1  0.61489112  0.39128180  0.75000000  1
  O  O9  1  0.64022010  0.14474513  0.25000000  1
  O  O10  1  0.85977990  0.64474513  0.25000000  1
  O  O11  1  0.88510888  0.89128180  0.75000000  1
