# generated using pymatgen
data_Na4Al3(SiO4)3
_symmetry_space_group_name_H-M   'P 1'
_cell_length_a   8.95858459
_cell_length_b   8.95858459
_cell_length_c   8.95858459
_cell_angle_alpha   90.00000000
_cell_angle_beta   90.00000000
_cell_angle_gamma   90.00000000
_symmetry_Int_Tables_number   1
_chemical_formula_structural   Na4Al3(SiO4)3
_chemical_formula_sum   'Na8 Al6 Si6 O24'
_cell_volume   718.98229571
_cell_formula_units_Z   2
loop_
 _symmetry_equiv_pos_site_id
 _symmetry_equiv_pos_as_xyz
  1  'x, y, z'
loop_
 _atom_site_type_symbol
 _atom_site_label
 _atom_site_symmetry_multiplicity
 _atom_site_fract_x
 _atom_site_fract_y
 _atom_site_fract_z
 _atom_site_occupancy
  Al  Al0  1  0.25000000  0.00000000  0.50000000  1
  Al  Al1  1  0.00000000  0.50000000  0.75000000  1
  Al  Al2  1  0.00000000  0.50000000  0.25000000  1
  Al  Al3  1  0.50000000  0.25000000  0.00000000  1
  Al  Al4  1  0.50000000  0.75000000  0.00000000  1
  Al  Al5  1  0.75000000  0.00000000  0.50000000  1
  Si  Si6  1  0.25000000  0.50000000  0.00000000  1
  Si  Si7  1  0.50000000  0.00000000  0.75000000  1
  Si  Si8  1  0.50000000  0.00000000  0.25000000  1
  Si  Si9  1  0.00000000  0.25000000  0.50000000  1
  Si  Si10  1  0.00000000  0.75000000  0.50000000  1
  Si  Si11  1  0.75000000  0.50000000  0.00000000  1
  Na  Na12  1  0.17599185  0.17599185  0.17599185  1
  Na  Na13  1  0.32400815  0.67599185  0.32400815  1
  Na  Na14  1  0.32400815  0.32400815  0.67599185  1
  Na  Na15  1  0.67599185  0.32400815  0.32400815  1
  Na  Na16  1  0.82400815  0.82400815  0.17599185  1
  Na  Na17  1  0.17599185  0.82400815  0.82400815  1
  Na  Na18  1  0.82400815  0.17599185  0.82400815  1
  Na  Na19  1  0.67599185  0.67599185  0.67599185  1
  O  O20  1  0.14915847  0.43599672  0.13896526  1
  O  O21  1  0.35084153  0.63896526  0.06400328  1
  O  O22  1  0.35084153  0.36103474  0.93599672  1
  O  O23  1  0.36103474  0.06400328  0.64915847  1
  O  O24  1  0.63896526  0.06400328  0.35084153  1
  O  O25  1  0.93599672  0.35084153  0.36103474  1
  O  O26  1  0.06400328  0.64915847  0.36103474  1
  O  O27  1  0.13896526  0.14915847  0.43599672  1
  O  O28  1  0.43599672  0.13896526  0.14915847  1
  O  O29  1  0.56400328  0.86103474  0.14915847  1
  O  O30  1  0.13896526  0.85084153  0.56400328  1
  O  O31  1  0.56400328  0.13896526  0.85084153  1
  O  O32  1  0.86103474  0.85084153  0.43599672  1
  O  O33  1  0.86103474  0.14915847  0.56400328  1
  O  O34  1  0.43599672  0.86103474  0.85084153  1
  O  O35  1  0.14915847  0.56400328  0.86103474  1
  O  O36  1  0.85084153  0.43599672  0.86103474  1
  O  O37  1  0.85084153  0.56400328  0.13896526  1
  O  O38  1  0.06400328  0.35084153  0.63896526  1
  O  O39  1  0.93599672  0.64915847  0.63896526  1
  O  O40  1  0.36103474  0.93599672  0.35084153  1
  O  O41  1  0.63896526  0.93599672  0.64915847  1
  O  O42  1  0.64915847  0.36103474  0.06400328  1
  O  O43  1  0.64915847  0.63896526  0.93599672  1
