# generated using pymatgen
data_MgPdF6
_symmetry_space_group_name_H-M   'P 1'
_cell_length_a   5.43568503
_cell_length_b   5.43568503
_cell_length_c   5.43568503
_cell_angle_alpha   56.03476837
_cell_angle_beta   56.03476843
_cell_angle_gamma   56.03476839
_symmetry_Int_Tables_number   1
_chemical_formula_structural   MgPdF6
_chemical_formula_sum   'Mg1 Pd1 F6'
_cell_volume   103.13503984
_cell_formula_units_Z   1
loop_
 _symmetry_equiv_pos_site_id
 _symmetry_equiv_pos_as_xyz
  1  'x, y, z'
loop_
 _atom_site_type_symbol
 _atom_site_label
 _atom_site_symmetry_multiplicity
 _atom_site_fract_x
 _atom_site_fract_y
 _atom_site_fract_z
 _atom_site_occupancy
  F  F0  1  0.37845506  0.11112004  0.75787083  1
  F  F1  1  0.11112004  0.75787083  0.37845506  1
  F  F2  1  0.24212917  0.62154494  0.88887996  1
  F  F3  1  0.88887996  0.24212917  0.62154494  1
  F  F4  1  0.62154494  0.88887996  0.24212917  1
  F  F5  1  0.75787083  0.37845506  0.11112004  1
  Mg  Mg6  1  0.50000000  0.50000000  0.50000000  1
  Pd  Pd7  1  0.00000000  0.00000000  0.00000000  1
