# generated using pymatgen
data_LiMg
_symmetry_space_group_name_H-M   'P 1'
_cell_length_a   3.32980622
_cell_length_b   5.68581181
_cell_length_c   7.18993507
_cell_angle_alpha   71.90076493
_cell_angle_beta   90.00000000
_cell_angle_gamma   107.02668376
_symmetry_Int_Tables_number   1
_chemical_formula_structural   LiMg
_chemical_formula_sum   'Li3 Mg3'
_cell_volume   123.09649371
_cell_formula_units_Z   3
loop_
 _symmetry_equiv_pos_site_id
 _symmetry_equiv_pos_as_xyz
  1  'x, y, z'
loop_
 _atom_site_type_symbol
 _atom_site_label
 _atom_site_symmetry_multiplicity
 _atom_site_fract_x
 _atom_site_fract_y
 _atom_site_fract_z
 _atom_site_occupancy
  Li  Li0  1  0.03899493  0.07799087  0.45801931  1
  Li  Li1  1  0.69354593  0.38709185  0.61459274  1
  Li  Li2  1  0.35340088  0.70680175  0.75929216  1
  Mg  Mg3  1  0.01845615  0.03691130  0.92576168  1
  Mg  Mg4  1  0.69513302  0.39026703  0.10825948  1
  Mg  Mg5  1  0.36713410  0.73426920  0.30073863  1
