# generated using pymatgen
data_AlP(H2O3)2
_symmetry_space_group_name_H-M   'P 1'
_cell_length_a   8.61828201
_cell_length_b   9.68436309
_cell_length_c   9.97014633
_cell_angle_alpha   90.00000000
_cell_angle_beta   90.00000000
_cell_angle_gamma   90.00000000
_symmetry_Int_Tables_number   1
_chemical_formula_structural   AlP(H2O3)2
_chemical_formula_sum   'Al8 P8 H32 O48'
_cell_volume   832.13405788
_cell_formula_units_Z   8
loop_
 _symmetry_equiv_pos_site_id
 _symmetry_equiv_pos_as_xyz
  1  'x, y, z'
loop_
 _atom_site_type_symbol
 _atom_site_label
 _atom_site_symmetry_multiplicity
 _atom_site_fract_x
 _atom_site_fract_y
 _atom_site_fract_z
 _atom_site_occupancy
  H  H0  1  0.84340782  0.08625100  0.17879533  1
  H  H1  1  0.34340782  0.41374900  0.82120467  1
  H  H2  1  0.15659218  0.58625100  0.32120467  1
  H  H3  1  0.65659218  0.91374900  0.67879533  1
  H  H4  1  0.15659218  0.91374900  0.82120467  1
  H  H5  1  0.65659218  0.58625100  0.17879533  1
  H  H6  1  0.84340782  0.41374900  0.67879533  1
  H  H7  1  0.34340782  0.08625100  0.32120467  1
  H  H8  1  0.69751560  0.18047320  0.12127965  1
  H  H9  1  0.19751560  0.31952680  0.87872035  1
  H  H10  1  0.30248440  0.68047320  0.37872035  1
  H  H11  1  0.80248440  0.81952680  0.62127965  1
  H  H12  1  0.30248440  0.81952680  0.87872035  1
  H  H13  1  0.80248440  0.68047320  0.12127965  1
  H  H14  1  0.69751560  0.31952680  0.62127965  1
  H  H15  1  0.19751560  0.18047320  0.37872035  1
  H  H16  1  0.14151843  0.57288464  0.97157616  1
  H  H17  1  0.64151843  0.92711536  0.02842384  1
  H  H18  1  0.14151843  0.92711536  0.47157616  1
  H  H19  1  0.64151843  0.57288464  0.52842384  1
  H  H20  1  0.85848157  0.42711536  0.02842384  1
  H  H21  1  0.35848157  0.07288464  0.97157616  1
  H  H22  1  0.79151010  0.95381304  0.42882542  1
  H  H23  1  0.29151010  0.54618696  0.57117458  1
  H  H24  1  0.20848990  0.45381304  0.07117458  1
  H  H25  1  0.70848990  0.04618696  0.92882542  1
  H  H26  1  0.20848990  0.04618696  0.57117458  1
  H  H27  1  0.70848990  0.45381304  0.42882542  1
  H  H28  1  0.79151010  0.54618696  0.92882542  1
  H  H29  1  0.29151010  0.95381304  0.07117458  1
  H  H30  1  0.85848157  0.07288464  0.52842384  1
  H  H31  1  0.35848157  0.42711536  0.47157616  1
  O  O32  1  0.51347369  0.29163066  0.28452500  1
  O  O33  1  0.01347369  0.20836934  0.71547500  1
  O  O34  1  0.48652631  0.79163066  0.21547500  1
  O  O35  1  0.98652631  0.70836934  0.78452500  1
  O  O36  1  0.48652631  0.70836934  0.71547500  1
  O  O37  1  0.98652631  0.79163066  0.28452500  1
  O  O38  1  0.51347369  0.20836934  0.78452500  1
  O  O39  1  0.01347369  0.29163066  0.21547500  1
  O  O40  1  0.48388090  0.51411423  0.14818921  1
  O  O41  1  0.98388090  0.98588577  0.85181079  1
  O  O42  1  0.51611910  0.01411423  0.35181079  1
  O  O43  1  0.01611910  0.48588577  0.64818921  1
  O  O44  1  0.51611910  0.48588577  0.85181079  1
  O  O45  1  0.01611910  0.01411423  0.14818921  1
  O  O46  1  0.48388090  0.98588577  0.64818921  1
  O  O47  1  0.98388090  0.51411423  0.35181079  1
  O  O48  1  0.08313340  0.29263668  0.45918449  1
  O  O49  1  0.82232955  0.44557096  0.93737611  1
  O  O50  1  0.67767045  0.55442904  0.43737611  1
  O  O51  1  0.17767045  0.94557096  0.56262389  1
  O  O52  1  0.67767045  0.94557096  0.93737611  1
  O  O53  1  0.17767045  0.55442904  0.06262389  1
  O  O54  1  0.32232955  0.44557096  0.56262389  1
  O  O55  1  0.82232955  0.05442904  0.43737611  1
  O  O56  1  0.23318624  0.11575332  0.30675971  1
  O  O57  1  0.73318624  0.38424668  0.69324029  1
  O  O58  1  0.58313340  0.20736332  0.54081551  1
  O  O59  1  0.26681376  0.88424668  0.80675971  1
  O  O60  1  0.76681376  0.88424668  0.69324029  1
  O  O61  1  0.26681376  0.61575332  0.30675971  1
  O  O62  1  0.23318624  0.38424668  0.80675971  1
  O  O63  1  0.73318624  0.11575332  0.19324029  1
  O  O64  1  0.91686660  0.79263668  0.04081551  1
  O  O65  1  0.41686660  0.70736332  0.95918449  1
  O  O66  1  0.91686660  0.70736332  0.54081551  1
  O  O67  1  0.41686660  0.79263668  0.45918449  1
  O  O68  1  0.08313340  0.20736332  0.95918449  1
  O  O69  1  0.58313340  0.29263668  0.04081551  1
  O  O70  1  0.79906295  0.31896276  0.38802422  1
  O  O71  1  0.29906295  0.18103724  0.61197578  1
  O  O72  1  0.20093705  0.81896276  0.11197578  1
  O  O73  1  0.70093705  0.68103724  0.88802422  1
  O  O74  1  0.20093705  0.68103724  0.61197578  1
  O  O75  1  0.70093705  0.81896276  0.38802422  1
  O  O76  1  0.79906295  0.18103724  0.88802422  1
  O  O77  1  0.29906295  0.31896276  0.11197578  1
  O  O78  1  0.76681376  0.61575332  0.19324029  1
  O  O79  1  0.32232955  0.05442904  0.06262389  1
  Al  Al80  1  0.15459026  0.17006512  0.13410956  1
  Al  Al81  1  0.65459026  0.32993488  0.86589044  1
  Al  Al82  1  0.84540974  0.67006512  0.36589044  1
  Al  Al83  1  0.34540974  0.82993488  0.63410956  1
  Al  Al84  1  0.84540974  0.82993488  0.86589044  1
  Al  Al85  1  0.34540974  0.67006512  0.13410956  1
  Al  Al86  1  0.15459026  0.32993488  0.63410956  1
  Al  Al87  1  0.65459026  0.17006512  0.36589044  1
  P  P88  1  0.47055999  0.35426039  0.14758315  1
  P  P89  1  0.97055999  0.14573961  0.85241685  1
  P  P90  1  0.52944001  0.85426039  0.35241685  1
  P  P91  1  0.02944001  0.64573961  0.64758315  1
  P  P92  1  0.52944001  0.64573961  0.85241685  1
  P  P93  1  0.02944001  0.85426039  0.14758315  1
  P  P94  1  0.47055999  0.14573961  0.64758315  1
  P  P95  1  0.97055999  0.35426039  0.35241685  1
