# generated using pymatgen
data_ThGeO4
_symmetry_space_group_name_H-M   'P 1'
_cell_length_a   5.19111568
_cell_length_b   5.19111568
_cell_length_c   6.86933630
_cell_angle_alpha   112.20038208
_cell_angle_beta   112.20038205
_cell_angle_gamma   90.00000000
_symmetry_Int_Tables_number   1
_chemical_formula_structural   ThGeO4
_chemical_formula_sum   'Th2 Ge2 O8'
_cell_volume   156.46822965
_cell_formula_units_Z   2
loop_
 _symmetry_equiv_pos_site_id
 _symmetry_equiv_pos_as_xyz
  1  'x, y, z'
loop_
 _atom_site_type_symbol
 _atom_site_label
 _atom_site_symmetry_multiplicity
 _atom_site_fract_x
 _atom_site_fract_y
 _atom_site_fract_z
 _atom_site_occupancy
  O  O0  1  0.94679392  0.29036938  0.59262165  1
  O  O1  1  0.30225227  0.44679392  0.09262165  1
  O  O2  1  0.79036938  0.14582773  0.09262165  1
  O  O3  1  0.64582773  0.80225227  0.59262165  1
  O  O4  1  0.35417227  0.19774773  0.40737835  1
  O  O5  1  0.20963062  0.85417227  0.90737835  1
  O  O6  1  0.69774773  0.55320608  0.90737835  1
  O  O7  1  0.05320608  0.70963062  0.40737835  1
  Ge  Ge8  1  0.87500000  0.62500000  0.75000000  1
  Ge  Ge9  1  0.12500000  0.37500000  0.25000000  1
  Th  Th10  1  0.37500000  0.12500000  0.75000000  1
  Th  Th11  1  0.62500000  0.87500000  0.25000000  1
