# generated using pymatgen
data_SrCO3
_symmetry_space_group_name_H-M   'P 1'
_cell_length_a   8.68831970
_cell_length_b   6.91633936
_cell_length_c   6.91633886
_cell_angle_alpha   44.67686029
_cell_angle_beta   37.24021904
_cell_angle_gamma   37.24033290
_symmetry_Int_Tables_number   1
_chemical_formula_structural   SrCO3
_chemical_formula_sum   'Sr2 C2 O6'
_cell_volume   148.77507422
_cell_formula_units_Z   2
loop_
 _symmetry_equiv_pos_site_id
 _symmetry_equiv_pos_as_xyz
  1  'x, y, z'
loop_
 _atom_site_type_symbol
 _atom_site_label
 _atom_site_symmetry_multiplicity
 _atom_site_fract_x
 _atom_site_fract_y
 _atom_site_fract_z
 _atom_site_occupancy
  C  C0  1  0.99999927  0.00004363  0.99995728  1
  C  C1  1  0.50000589  0.99995950  0.00003445  1
  O  O2  1  0.25259582  0.24737458  1.00002354  1
  O  O3  1  1.00000054  0.24745616  0.75254356  1
  O  O4  1  0.24740326  0.75262615  -0.00002312  1
  O  O5  1  0.49999927  0.75254038  0.24745984  1
  O  O6  1  0.75259911  1.00002300  0.24737213  1
  O  O7  1  0.74739718  -0.00002321  0.75263182  1
  Sr  Sr8  1  0.24999916  0.50000111  0.50000138  1
  Sr  Sr9  1  0.75000050  0.49999868  0.49999912  1
