# generated using pymatgen
data_TbCo2B2C
_symmetry_space_group_name_H-M   'P 1'
_cell_length_a   3.54914731
_cell_length_b   3.54876252
_cell_length_c   5.71986935
_cell_angle_alpha   108.07209856
_cell_angle_beta   108.07413075
_cell_angle_gamma   90.00000000
_symmetry_Int_Tables_number   1
_chemical_formula_structural   TbCo2B2C
_chemical_formula_sum   'Tb1 Co2 B2 C1'
_cell_volume   64.73842999
_cell_formula_units_Z   1
loop_
 _symmetry_equiv_pos_site_id
 _symmetry_equiv_pos_as_xyz
  1  'x, y, z'
loop_
 _atom_site_type_symbol
 _atom_site_label
 _atom_site_symmetry_multiplicity
 _atom_site_fract_x
 _atom_site_fract_y
 _atom_site_fract_z
 _atom_site_occupancy
  Tb  Tb0  1  0.50000000  0.50000000  -0.00000000  1
  Co  Co1  1  0.75001232  0.25001232  0.50002464  1
  Co  Co2  1  0.24998768  0.74998768  0.49997536  1
  B  B3  1  0.14610630  0.14610630  0.29221360  1
  B  B4  1  0.85389370  0.85389370  0.70778640  1
  C  C5  1  -0.00000000  -0.00000000  -0.00000000  1
