# generated using pymatgen
data_RbNbO3
_symmetry_space_group_name_H-M   'P 1'
_cell_length_a   6.52622215
_cell_length_b   6.52622215
_cell_length_c   8.33204416
_cell_angle_alpha   86.59608601
_cell_angle_beta   93.40391399
_cell_angle_gamma   97.06919445
_symmetry_Int_Tables_number   1
_chemical_formula_structural   RbNbO3
_chemical_formula_sum   'Rb4 Nb4 O12'
_cell_volume   351.06998433
_cell_formula_units_Z   4
loop_
 _symmetry_equiv_pos_site_id
 _symmetry_equiv_pos_as_xyz
  1  'x, y, z'
loop_
 _atom_site_type_symbol
 _atom_site_label
 _atom_site_symmetry_multiplicity
 _atom_site_fract_x
 _atom_site_fract_y
 _atom_site_fract_z
 _atom_site_occupancy
  Rb  Rb0  1  0.33745189  0.66254811  0.76383042  1
  Rb  Rb1  1  0.23412305  0.23412305  0.50000000  1
  Rb  Rb2  1  0.76587695  0.76587695  0.50000000  1
  Rb  Rb3  1  0.66254811  0.33745189  0.23616958  1
  Nb  Nb4  1  0.25829740  0.74170260  0.19602166  1
  Nb  Nb5  1  0.18935074  0.18935074  0.00000000  1
  Nb  Nb6  1  0.81064926  0.81064926  0.00000000  1
  Nb  Nb7  1  0.74170260  0.25829740  0.80397834  1
  O  O8  1  0.12274666  0.87725334  0.94768743  1
  O  O9  1  0.32854995  0.67145005  0.40747106  1
  O  O10  1  0.04828085  0.28713732  0.78877712  1
  O  O11  1  0.71286268  0.95171915  0.78877712  1
  O  O12  1  0.54720848  0.77336478  0.10225977  1
  O  O13  1  0.22663522  0.45279152  0.10225977  1
  O  O14  1  0.45279152  0.22663522  0.89774023  1
  O  O15  1  0.77336478  0.54720848  0.89774023  1
  O  O16  1  0.95171915  0.71286268  0.21122288  1
  O  O17  1  0.28713732  0.04828085  0.21122288  1
  O  O18  1  0.67145005  0.32854995  0.59252894  1
  O  O19  1  0.87725334  0.12274666  0.05231257  1
