# generated using pymatgen
data_Ti6Sn5
_symmetry_space_group_name_H-M   'P 1'
_cell_length_a   5.73634392
_cell_length_b   9.16187872
_cell_length_c   9.87915566
_cell_angle_alpha   117.62915262
_cell_angle_beta   106.87524909
_cell_angle_gamma   90.00299727
_symmetry_Int_Tables_number   1
_chemical_formula_structural   Ti6Sn5
_chemical_formula_sum   'Ti12 Sn10'
_cell_volume   434.60260153
_cell_formula_units_Z   2
loop_
 _symmetry_equiv_pos_site_id
 _symmetry_equiv_pos_as_xyz
  1  'x, y, z'
loop_
 _atom_site_type_symbol
 _atom_site_label
 _atom_site_symmetry_multiplicity
 _atom_site_fract_x
 _atom_site_fract_y
 _atom_site_fract_z
 _atom_site_occupancy
  Ti  Ti0  1  0.15777481  0.15787112  0.31565886  1
  Ti  Ti1  1  0.41395642  0.68498021  0.82784232  1
  Ti  Ti2  1  0.58601901  0.85709144  0.17202737  1
  Ti  Ti3  1  0.84222519  0.84212888  0.68434114  1
  Ti  Ti4  1  0.26602774  0.50000115  0.00002506  1
  Ti  Ti5  1  0.50000000  0.00000000  0.50000000  1
  Ti  Ti6  1  0.73397226  0.49999885  0.99997494  1
  Ti  Ti7  1  0.58604358  0.31501979  0.17215768  1
  Ti  Ti8  1  0.41398099  0.14290856  0.82797263  1
  Ti  Ti9  1  0.50000000  0.50000000  0.50000000  1
  Ti  Ti10  1  0.00000000  0.50000000  0.50000000  1
  Ti  Ti11  1  0.00000000  0.00000000  0.50000000  1
  Sn  Sn12  1  0.10402656  0.41255407  0.20830407  1
  Sn  Sn13  1  0.29161229  0.79151397  0.58307060  1
  Sn  Sn14  1  0.33063959  0.33059766  0.66133545  1
  Sn  Sn15  1  0.10415109  0.79581409  0.20839176  1
  Sn  Sn16  1  0.70838771  0.20848603  0.41692940  1
  Sn  Sn17  1  0.24538445  0.00006049  1.00001100  1
  Sn  Sn18  1  0.66936041  0.66940234  0.33866455  1
  Sn  Sn19  1  0.89597344  0.58744593  0.79169593  1
  Sn  Sn20  1  0.89584891  0.20418591  0.79160824  1
  Sn  Sn21  1  0.75461555  0.99993951  -0.00001100  1
