# generated using pymatgen
data_SrSc2O4
_symmetry_space_group_name_H-M   'P 1'
_cell_length_a   9.76036468
_cell_length_b   11.34946784
_cell_length_c   3.20939056
_cell_angle_alpha   90.00000000
_cell_angle_beta   90.00000000
_cell_angle_gamma   90.00000000
_symmetry_Int_Tables_number   1
_chemical_formula_structural   SrSc2O4
_chemical_formula_sum   'Sr4 Sc8 O16'
_cell_volume   355.52006290
_cell_formula_units_Z   4
loop_
 _symmetry_equiv_pos_site_id
 _symmetry_equiv_pos_as_xyz
  1  'x, y, z'
loop_
 _atom_site_type_symbol
 _atom_site_label
 _atom_site_symmetry_multiplicity
 _atom_site_fract_x
 _atom_site_fract_y
 _atom_site_fract_z
 _atom_site_occupancy
  Sr  Sr0  1  0.24525596  0.34787413  0.75000000  1
  Sr  Sr1  1  0.25474404  0.84787413  0.25000000  1
  Sr  Sr2  1  0.74525596  0.15212587  0.75000000  1
  Sr  Sr3  1  0.75474404  0.65212587  0.25000000  1
  Sc  Sc4  1  0.07090368  0.10997202  0.75000000  1
  Sc  Sc5  1  0.07789039  0.60680581  0.75000000  1
  Sc  Sc6  1  0.42210961  0.10680581  0.25000000  1
  Sc  Sc7  1  0.42909632  0.60997202  0.25000000  1
  Sc  Sc8  1  0.57090368  0.39002798  0.75000000  1
  Sc  Sc9  1  0.57789039  0.89319419  0.75000000  1
  Sc  Sc10  1  0.92210961  0.39319419  0.25000000  1
  Sc  Sc11  1  0.92909632  0.89002798  0.25000000  1
  O  O12  1  0.02088402  0.71671878  0.25000000  1
  O  O13  1  0.07391000  0.92598356  0.75000000  1
  O  O14  1  0.11685068  0.47972130  0.25000000  1
  O  O15  1  0.20823106  0.15980671  0.25000000  1
  O  O16  1  0.29176894  0.65980671  0.75000000  1
  O  O17  1  0.38314932  0.97972130  0.75000000  1
  O  O18  1  0.42609000  0.42598356  0.25000000  1
  O  O19  1  0.47911598  0.21671878  0.75000000  1
  O  O20  1  0.52088402  0.78328122  0.25000000  1
  O  O21  1  0.57391000  0.57401644  0.75000000  1
  O  O22  1  0.61685068  0.02027870  0.25000000  1
  O  O23  1  0.70823106  0.34019329  0.25000000  1
  O  O24  1  0.79176894  0.84019329  0.75000000  1
  O  O25  1  0.88314932  0.52027870  0.75000000  1
  O  O26  1  0.92609000  0.07401644  0.25000000  1
  O  O27  1  0.97911598  0.28328122  0.75000000  1
