# generated using pymatgen
data_Sr2ZnMoO6
_symmetry_space_group_name_H-M   'P 1'
_cell_length_a   5.68972375
_cell_length_b   5.68972375
_cell_length_c   5.68972375
_cell_angle_alpha   60.00000005
_cell_angle_beta   60.00000005
_cell_angle_gamma   60.00000003
_symmetry_Int_Tables_number   1
_chemical_formula_structural   Sr2ZnMoO6
_chemical_formula_sum   'Sr2 Zn1 Mo1 O6'
_cell_volume   130.24424574
_cell_formula_units_Z   1
loop_
 _symmetry_equiv_pos_site_id
 _symmetry_equiv_pos_as_xyz
  1  'x, y, z'
loop_
 _atom_site_type_symbol
 _atom_site_label
 _atom_site_symmetry_multiplicity
 _atom_site_fract_x
 _atom_site_fract_y
 _atom_site_fract_z
 _atom_site_occupancy
  O  O0  1  0.24101770  0.75898247  0.75898103  1
  O  O1  1  0.24101770  0.75898247  0.24101825  1
  O  O2  1  0.75898188  0.24101867  0.75898084  1
  O  O3  1  0.24101750  0.24101867  0.75898252  1
  O  O4  1  0.75898188  0.24101867  0.24101806  1
  O  O5  1  0.75898207  0.75898247  0.24101833  1
  Zn  Zn6  1  0.50000015  0.49999949  0.50000078  1
  Sr  Sr7  1  0.25000073  0.25000082  0.24999952  1
  Sr  Sr8  1  0.75000088  0.75000031  0.74999854  1
  Mo  Mo9  1  0.00000000  0.00000000  0.00000000  1
