# generated using pymatgen
data_LiVF6
_symmetry_space_group_name_H-M   'P 1'
_cell_length_a   4.96015558
_cell_length_b   4.95976536
_cell_length_c   4.63477396
_cell_angle_alpha   89.93036589
_cell_angle_beta   90.05951779
_cell_angle_gamma   60.00626770
_symmetry_Int_Tables_number   1
_chemical_formula_structural   LiVF6
_chemical_formula_sum   'Li1 V1 F6'
_cell_volume   98.75109953
_cell_formula_units_Z   1
loop_
 _symmetry_equiv_pos_site_id
 _symmetry_equiv_pos_as_xyz
  1  'x, y, z'
loop_
 _atom_site_type_symbol
 _atom_site_label
 _atom_site_symmetry_multiplicity
 _atom_site_fract_x
 _atom_site_fract_y
 _atom_site_fract_z
 _atom_site_occupancy
  Li  Li0  1  0.66706822  0.66699014  0.50007417  1
  V  V1  1  0.00015887  -0.00001583  0.00005503  1
  F  F2  1  0.98324567  0.71147584  0.22966674  1
  F  F3  1  0.30569499  0.71171551  0.77102280  1
  F  F4  1  0.71165407  0.98309061  0.77023446  1
  F  F5  1  0.30587814  0.98293626  0.22978806  1
  F  F6  1  0.71189816  0.30553008  0.22887320  1
  F  F7  1  0.98311788  0.30579439  0.77004355  1
