# generated using pymatgen
data_Pr2O3
_symmetry_space_group_name_H-M   'P 1'
_cell_length_a   3.89925048
_cell_length_b   3.89925048
_cell_length_c   6.13763859
_cell_angle_alpha   90.00000000
_cell_angle_beta   90.00000000
_cell_angle_gamma   120.00000001
_symmetry_Int_Tables_number   1
_chemical_formula_structural   Pr2O3
_chemical_formula_sum   'Pr2 O3'
_cell_volume   80.81541582
_cell_formula_units_Z   1
loop_
 _symmetry_equiv_pos_site_id
 _symmetry_equiv_pos_as_xyz
  1  'x, y, z'
loop_
 _atom_site_type_symbol
 _atom_site_label
 _atom_site_symmetry_multiplicity
 _atom_site_fract_x
 _atom_site_fract_y
 _atom_site_fract_z
 _atom_site_occupancy
  O  O0  1  0.66666667  0.33333333  0.35536524  1
  O  O1  1  0.33333333  0.66666667  0.64463476  1
  O  O2  1  0.00000000  0.00000000  0.00000000  1
  Pr  Pr3  1  0.66666667  0.33333333  0.75130053  1
  Pr  Pr4  1  0.33333333  0.66666667  0.24869947  1
