# generated using pymatgen
data_Li2Si
_symmetry_space_group_name_H-M   'P 1'
_cell_length_a   4.34047657
_cell_length_b   4.34348804
_cell_length_c   6.63476493
_cell_angle_alpha   70.92201981
_cell_angle_beta   70.90708753
_cell_angle_gamma   60.02293262
_symmetry_Int_Tables_number   1
_chemical_formula_structural   Li2Si
_chemical_formula_sum   'Li4 Si2'
_cell_volume   100.32932494
_cell_formula_units_Z   2
loop_
 _symmetry_equiv_pos_site_id
 _symmetry_equiv_pos_as_xyz
  1  'x, y, z'
loop_
 _atom_site_type_symbol
 _atom_site_label
 _atom_site_symmetry_multiplicity
 _atom_site_fract_x
 _atom_site_fract_y
 _atom_site_fract_z
 _atom_site_occupancy
  Li  Li0  1  0.35557478  0.35543104  0.93341941  1
  Li  Li1  1  0.64442522  0.64456896  0.06658059  1
  Li  Li2  1  0.79538045  0.79400016  0.61523895  1
  Li  Li3  1  0.20461955  0.20599984  0.38476105  1
  Si  Si4  1  0.06223793  0.06160872  0.81391542  1
  Si  Si5  1  0.93776207  0.93839128  0.18608458  1
