# generated using pymatgen
data_Dy3Y
_symmetry_space_group_name_H-M   'P 1'
_cell_length_a   5.03787076
_cell_length_b   5.03786592
_cell_length_c   5.03786484
_cell_angle_alpha   90.00000898
_cell_angle_beta   89.99992892
_cell_angle_gamma   89.99995280
_symmetry_Int_Tables_number   1
_chemical_formula_structural   Dy3Y
_chemical_formula_sum   'Dy3 Y1'
_cell_volume   127.86160114
_cell_formula_units_Z   1
loop_
 _symmetry_equiv_pos_site_id
 _symmetry_equiv_pos_as_xyz
  1  'x, y, z'
loop_
 _atom_site_type_symbol
 _atom_site_label
 _atom_site_symmetry_multiplicity
 _atom_site_fract_x
 _atom_site_fract_y
 _atom_site_fract_z
 _atom_site_occupancy
  Dy  Dy0  1  0.50000022  0.50000058  0.00000044  1
  Dy  Dy1  1  0.49999834  0.00000013  0.49999981  1
  Dy  Dy2  1  0.00000046  0.50000047  0.49999913  1
  Y  Y3  1  0.00000098  0.99999882  0.00000063  1
