# generated using pymatgen
data_NiF3
_symmetry_space_group_name_H-M   'P 1'
_cell_length_a   5.24084817
_cell_length_b   5.24084764
_cell_length_c   5.24084792
_cell_angle_alpha   56.19484544
_cell_angle_beta   56.19484936
_cell_angle_gamma   56.19485055
_symmetry_Int_Tables_number   1
_chemical_formula_structural   NiF3
_chemical_formula_sum   'Ni2 F6'
_cell_volume   92.82145046
_cell_formula_units_Z   2
loop_
 _symmetry_equiv_pos_site_id
 _symmetry_equiv_pos_as_xyz
  1  'x, y, z'
loop_
 _atom_site_type_symbol
 _atom_site_label
 _atom_site_symmetry_multiplicity
 _atom_site_fract_x
 _atom_site_fract_y
 _atom_site_fract_z
 _atom_site_occupancy
  Ni  Ni0  1  0.00000000  0.00000000  0.00000000  1
  Ni  Ni1  1  0.50000000  0.50000000  0.50000000  1
  F  F2  1  0.62077983  0.24646216  0.88463738  1
  F  F3  1  0.88463738  0.62077983  0.24646216  1
  F  F4  1  0.24646216  0.88463738  0.62077983  1
  F  F5  1  0.37922017  0.75353784  0.11536262  1
  F  F6  1  0.11536262  0.37922017  0.75353784  1
  F  F7  1  0.75353784  0.11536262  0.37922017  1
