# generated using pymatgen
data_LiMnCoO4
_symmetry_space_group_name_H-M   'P 1'
_cell_length_a   5.88987835
_cell_length_b   5.88987902
_cell_length_c   5.88987835
_cell_angle_alpha   92.55541293
_cell_angle_beta   121.18919180
_cell_angle_gamma   58.21590270
_symmetry_Int_Tables_number   1
_chemical_formula_structural   LiMnCoO4
_chemical_formula_sum   'Li2 Mn2 Co2 O8'
_cell_volume   141.07472235
_cell_formula_units_Z   2
loop_
 _symmetry_equiv_pos_site_id
 _symmetry_equiv_pos_as_xyz
  1  'x, y, z'
loop_
 _atom_site_type_symbol
 _atom_site_label
 _atom_site_symmetry_multiplicity
 _atom_site_fract_x
 _atom_site_fract_y
 _atom_site_fract_z
 _atom_site_occupancy
  Li  Li0  1  0.75000000  0.13463576  0.61536424  1
  Li  Li1  1  0.25000000  0.86536424  0.38463576  1
  Mn  Mn2  1  0.50000000  0.50000000  0.00000000  1
  Mn  Mn3  1  0.00000000  0.50000000  0.50000000  1
  Co  Co4  1  0.50000000  0.00000000  0.00000000  1
  Co  Co5  1  0.00000000  0.50000000  0.00000000  1
  O  O6  1  0.52815486  0.72872502  0.79942984  1
  O  O7  1  0.97184514  0.72872502  0.24311912  1
  O  O8  1  0.97292570  0.27757217  0.24950213  1
  O  O9  1  0.52707430  0.72342258  0.24950213  1
  O  O10  1  0.47292570  0.27657742  0.75049787  1
  O  O11  1  0.02707430  0.72242783  0.75049787  1
  O  O12  1  0.02815486  0.27127498  0.75688088  1
  O  O13  1  0.47184514  0.27127498  0.20057016  1
