# generated using pymatgen
data_Co2As2O7
_symmetry_space_group_name_H-M   'P 1'
_cell_length_a   4.86325494
_cell_length_b   5.43851660
_cell_length_c   5.47078910
_cell_angle_alpha   105.88926151
_cell_angle_beta   97.12836250
_cell_angle_gamma   97.29990975
_symmetry_Int_Tables_number   1
_chemical_formula_structural   Co2As2O7
_chemical_formula_sum   'Co2 As2 O7'
_cell_volume   136.11204672
_cell_formula_units_Z   1
loop_
 _symmetry_equiv_pos_site_id
 _symmetry_equiv_pos_as_xyz
  1  'x, y, z'
loop_
 _atom_site_type_symbol
 _atom_site_label
 _atom_site_symmetry_multiplicity
 _atom_site_fract_x
 _atom_site_fract_y
 _atom_site_fract_z
 _atom_site_occupancy
  Co  Co0  1  0.50169768  0.69284582  0.31033787  1
  Co  Co1  1  0.49729814  0.30668110  0.69019765  1
  As  As2  1  0.10038171  0.75833009  0.76144899  1
  As  As3  1  0.89937142  0.23942439  0.23652952  1
  O  O4  1  0.29258630  0.92935946  0.60019926  1
  O  O5  1  0.77282589  0.59340141  0.59812713  1
  O  O6  1  0.22389161  0.40871462  0.40501044  1
  O  O7  1  0.00538919  0.00290907  0.99981095  1
  O  O8  1  0.28972949  0.59384821  0.92844824  1
  O  O9  1  0.70935184  0.40518709  0.07177755  1
  O  O10  1  0.70747573  0.06929776  0.39811139  1
