# generated using pymatgen
data_LiCuS
_symmetry_space_group_name_H-M   'P 1'
_cell_length_a   12.24991594
_cell_length_b   3.71145372
_cell_length_c   3.72209637
_cell_angle_alpha   90.00000000
_cell_angle_beta   90.00000000
_cell_angle_gamma   90.00000000
_symmetry_Int_Tables_number   1
_chemical_formula_structural   LiCuS
_chemical_formula_sum   'Li4 Cu4 S4'
_cell_volume   169.22509689
_cell_formula_units_Z   4
loop_
 _symmetry_equiv_pos_site_id
 _symmetry_equiv_pos_as_xyz
  1  'x, y, z'
loop_
 _atom_site_type_symbol
 _atom_site_label
 _atom_site_symmetry_multiplicity
 _atom_site_fract_x
 _atom_site_fract_y
 _atom_site_fract_z
 _atom_site_occupancy
  Li  Li0  1  0.07843696  0.25000000  0.26407555  1
  Li  Li1  1  0.42156304  0.75000000  0.76407555  1
  Li  Li2  1  0.57843696  0.25000000  0.23592445  1
  Li  Li3  1  0.92156304  0.75000000  0.73592445  1
  Cu  Cu4  1  0.25014262  0.25000000  0.77968130  1
  Cu  Cu5  1  0.24985738  0.75000000  0.27968130  1
  Cu  Cu6  1  0.75014262  0.25000000  0.72031870  1
  Cu  Cu7  1  0.74985738  0.75000000  0.22031870  1
  S  S8  1  0.12312877  0.75000000  0.76430088  1
  S  S9  1  0.37687123  0.25000000  0.26430088  1
  S  S10  1  0.62312877  0.75000000  0.73569912  1
  S  S11  1  0.87687123  0.25000000  0.23569912  1
