# generated using pymatgen
data_Li2HfO3
_symmetry_space_group_name_H-M   'P 1'
_cell_length_a   6.86046167
_cell_length_b   5.38575482
_cell_length_c   10.06763483
_cell_angle_alpha   84.95439597
_cell_angle_beta   137.22532139
_cell_angle_gamma   130.70630723
_symmetry_Int_Tables_number   1
_chemical_formula_structural   Li2HfO3
_chemical_formula_sum   'Li4 Hf2 O6'
_cell_volume   124.67351232
_cell_formula_units_Z   2
loop_
 _symmetry_equiv_pos_site_id
 _symmetry_equiv_pos_as_xyz
  1  'x, y, z'
loop_
 _atom_site_type_symbol
 _atom_site_label
 _atom_site_symmetry_multiplicity
 _atom_site_fract_x
 _atom_site_fract_y
 _atom_site_fract_z
 _atom_site_occupancy
  Li  Li0  1  0.32520143  0.50809258  0.66177552  1
  Li  Li1  1  0.68974191  0.50834187  0.34412837  1
  Li  Li2  1  0.00149061  0.50173110  0.00066649  1
  Li  Li3  1  0.49935788  0.00052130  0.49935436  1
  Hf  Hf4  1  0.83452320  0.00081945  0.16729597  1
  Hf  Hf5  1  0.16395689  0.00015892  0.83202897  1
  O  O6  1  0.57506058  0.72244186  0.42182645  1
  O  O7  1  0.42462400  0.27911281  0.57784000  1
  O  O8  1  0.86734454  0.72176251  0.06802187  1
  O  O9  1  0.71107878  0.21249807  0.22340849  1
  O  O10  1  0.13048236  0.27826539  0.93071450  1
  O  O11  1  0.28829781  0.78962415  0.77568701  1
