# generated using pymatgen
data_BiI
_symmetry_space_group_name_H-M   'P 1'
_cell_length_a   4.41835616
_cell_length_b   8.11462082
_cell_length_c   11.03965263
_cell_angle_alpha   105.68203601
_cell_angle_beta   90.00000000
_cell_angle_gamma   105.79799759
_symmetry_Int_Tables_number   1
_chemical_formula_structural   BiI
_chemical_formula_sum   'Bi4 I4'
_cell_volume   365.52169771
_cell_formula_units_Z   4
loop_
 _symmetry_equiv_pos_site_id
 _symmetry_equiv_pos_as_xyz
  1  'x, y, z'
loop_
 _atom_site_type_symbol
 _atom_site_label
 _atom_site_symmetry_multiplicity
 _atom_site_fract_x
 _atom_site_fract_y
 _atom_site_fract_z
 _atom_site_occupancy
  Bi  Bi0  1  0.18032205  0.36064410  0.98833634  1
  Bi  Bi1  1  0.80072701  0.60145402  0.72462991  1
  Bi  Bi2  1  0.19927299  0.39854598  0.27537009  1
  Bi  Bi3  1  0.81967795  0.63935590  0.01166366  1
  I  I4  1  0.44877512  0.89755025  0.78065470  1
  I  I5  1  0.55122488  0.10244975  0.21934530  1
  I  I6  1  0.84654997  0.69309994  0.37094359  1
  I  I7  1  0.15345003  0.30690006  0.62905641  1
