# generated using pymatgen
data_NaAuO2
_symmetry_space_group_name_H-M   'P 1'
_cell_length_a   3.77963985
_cell_length_b   5.98051283
_cell_length_c   5.97282355
_cell_angle_alpha   90.00000000
_cell_angle_beta   108.44553878
_cell_angle_gamma   90.00000000
_symmetry_Int_Tables_number   1
_chemical_formula_structural   NaAuO2
_chemical_formula_sum   'Na2 Au2 O4'
_cell_volume   128.07460371
_cell_formula_units_Z   2
loop_
 _symmetry_equiv_pos_site_id
 _symmetry_equiv_pos_as_xyz
  1  'x, y, z'
loop_
 _atom_site_type_symbol
 _atom_site_label
 _atom_site_symmetry_multiplicity
 _atom_site_fract_x
 _atom_site_fract_y
 _atom_site_fract_z
 _atom_site_occupancy
  O  O0  1  0.87780098  0.50674321  0.75560197  1
  O  O1  1  0.12219902  0.49325679  0.24439803  1
  O  O2  1  0.87780098  0.99325679  0.75560197  1
  O  O3  1  0.12219902  0.00674321  0.24439803  1
  Na  Na4  1  0.28738127  0.75000000  0.57476253  1
  Na  Na5  1  0.71261873  0.25000000  0.42523747  1
  Au  Au6  1  0.99670038  0.25000000  0.99340076  1
  Au  Au7  1  0.00329962  0.75000000  0.00659924  1
