# generated using pymatgen
data_Mn2Cd3O5
_symmetry_space_group_name_H-M   'P 1'
_cell_length_a   5.74562381
_cell_length_b   4.68642021
_cell_length_c   5.72993048
_cell_angle_alpha   114.13695382
_cell_angle_beta   80.23053660
_cell_angle_gamma   114.06876365
_symmetry_Int_Tables_number   1
_chemical_formula_structural   Mn2Cd3O5
_chemical_formula_sum   'Mn2 Cd3 O5'
_cell_volume   128.55510401
_cell_formula_units_Z   1
loop_
 _symmetry_equiv_pos_site_id
 _symmetry_equiv_pos_as_xyz
  1  'x, y, z'
loop_
 _atom_site_type_symbol
 _atom_site_label
 _atom_site_symmetry_multiplicity
 _atom_site_fract_x
 _atom_site_fract_y
 _atom_site_fract_z
 _atom_site_occupancy
  Mn  Mn0  1  0.00001968  0.99774097  0.99577668  1
  Mn  Mn1  1  0.80224754  0.20138954  0.60232499  1
  Cd  Cd2  1  0.40154402  0.60023317  0.79849327  1
  Cd  Cd3  1  0.19952898  0.79615801  0.39258245  1
  Cd  Cd4  1  0.60367682  0.40502448  0.20505008  1
  O  O5  1  0.40451997  0.10151448  0.79707972  1
  O  O6  1  0.17987129  0.28088710  0.38072870  1
  O  O7  1  0.99675292  0.49031718  0.97943135  1
  O  O8  1  0.62395200  0.92090324  0.21543825  1
  O  O9  1  0.80801577  0.71609383  0.61861150  1
