# generated using pymatgen
data_MnBiO3
_symmetry_space_group_name_H-M   'P 1'
_cell_length_a   5.63032850
_cell_length_b   5.63032850
_cell_length_c   9.85270722
_cell_angle_alpha   91.85308286
_cell_angle_beta   105.09553043
_cell_angle_gamma   119.18812328
_symmetry_Int_Tables_number   1
_chemical_formula_structural   MnBiO3
_chemical_formula_sum   'Mn4 Bi4 O12'
_cell_volume   258.52096313
_cell_formula_units_Z   4
loop_
 _symmetry_equiv_pos_site_id
 _symmetry_equiv_pos_as_xyz
  1  'x, y, z'
loop_
 _atom_site_type_symbol
 _atom_site_label
 _atom_site_symmetry_multiplicity
 _atom_site_fract_x
 _atom_site_fract_y
 _atom_site_fract_z
 _atom_site_occupancy
  Mn  Mn0  1  0.78691367  0.78691367  0.00000000  1
  Mn  Mn1  1  0.71245307  0.21245307  0.50000000  1
  Mn  Mn2  1  0.24963251  0.50063464  0.25014316  1
  Mn  Mn3  1  0.25049148  0.99948934  0.74985684  1
  Bi  Bi4  1  0.54695264  0.64569427  0.62663012  1
  Bi  Bi5  1  0.01906415  0.92032252  0.37336988  1
  Bi  Bi6  1  0.95518454  0.35508215  0.87381058  1
  Bi  Bi7  1  0.48127157  0.08137396  0.12618942  1
  O  O8  1  0.09134312  0.73038486  0.17089565  1
  O  O9  1  0.55948921  0.92044747  0.82910435  1
  O  O10  1  0.40843939  0.27167192  0.32978168  1
  O  O11  1  0.94189024  0.07865771  0.67021832  1
  O  O12  1  0.95744170  0.28714839  0.37765371  1
  O  O13  1  0.90949467  0.57978798  0.62234629  1
  O  O14  1  0.53925730  0.71280015  0.12105986  1
  O  O15  1  0.59174028  0.41819744  0.87894014  1
  O  O16  1  0.39115467  0.10469595  0.58428279  1
  O  O17  1  0.52041316  0.80687188  0.41571721  1
  O  O18  1  0.10821327  0.89272729  0.91526793  1
  O  O19  1  0.97745937  0.19294534  0.08473207  1
