# generated using pymatgen
data_NaCa2In
_symmetry_space_group_name_H-M   'P 1'
_cell_length_a   5.61054242
_cell_length_b   5.61055669
_cell_length_c   5.61054101
_cell_angle_alpha   60.00003031
_cell_angle_beta   59.99991683
_cell_angle_gamma   59.99992429
_symmetry_Int_Tables_number   1
_chemical_formula_structural   NaCa2In
_chemical_formula_sum   'Na1 Ca2 In1'
_cell_volume   124.88208078
_cell_formula_units_Z   1
loop_
 _symmetry_equiv_pos_site_id
 _symmetry_equiv_pos_as_xyz
  1  'x, y, z'
loop_
 _atom_site_type_symbol
 _atom_site_label
 _atom_site_symmetry_multiplicity
 _atom_site_fract_x
 _atom_site_fract_y
 _atom_site_fract_z
 _atom_site_occupancy
  Na  Na0  1  0.75000038  0.75000059  0.75000004  1
  Ca  Ca1  1  0.99999997  -0.00000046  0.00000066  1
  Ca  Ca2  1  0.50000095  0.50000021  0.50000030  1
  In  In3  1  0.24999971  0.25000066  0.25000000  1
