# generated using pymatgen
data_GeP3
_symmetry_space_group_name_H-M   'P 1'
_cell_length_a   5.30488440
_cell_length_b   5.30488441
_cell_length_c   5.30488441
_cell_angle_alpha   84.20363706
_cell_angle_beta   84.20363701
_cell_angle_gamma   84.20363709
_symmetry_Int_Tables_number   1
_chemical_formula_structural   GeP3
_chemical_formula_sum   'Ge2 P6'
_cell_volume   147.14331483
_cell_formula_units_Z   2
loop_
 _symmetry_equiv_pos_site_id
 _symmetry_equiv_pos_as_xyz
  1  'x, y, z'
loop_
 _atom_site_type_symbol
 _atom_site_label
 _atom_site_symmetry_multiplicity
 _atom_site_fract_x
 _atom_site_fract_y
 _atom_site_fract_z
 _atom_site_occupancy
  P  P0  1  0.21176913  0.21176913  0.73755579  1
  P  P1  1  0.21176913  0.73755579  0.21176913  1
  P  P2  1  0.78823087  0.26244421  0.78823087  1
  P  P3  1  0.78823087  0.78823087  0.26244421  1
  P  P4  1  0.26244421  0.78823087  0.78823087  1
  P  P5  1  0.73755579  0.21176913  0.21176913  1
  Ge  Ge6  1  0.73642547  0.73642547  0.73642547  1
  Ge  Ge7  1  0.26357453  0.26357453  0.26357453  1
