# generated using pymatgen
data_Ga
_symmetry_space_group_name_H-M   'P 1'
_cell_length_a   5.27563170
_cell_length_b   8.67872345
_cell_length_c   8.67872351
_cell_angle_alpha   104.27256386
_cell_angle_beta   90.00000000
_cell_angle_gamma   90.00000000
_symmetry_Int_Tables_number   1
_chemical_formula_structural   Ga
_chemical_formula_sum   Ga20
_cell_volume   385.09684023
_cell_formula_units_Z   20
loop_
 _symmetry_equiv_pos_site_id
 _symmetry_equiv_pos_as_xyz
  1  'x, y, z'
loop_
 _atom_site_type_symbol
 _atom_site_label
 _atom_site_symmetry_multiplicity
 _atom_site_fract_x
 _atom_site_fract_y
 _atom_site_fract_z
 _atom_site_occupancy
  Ga  Ga0  1  0.25000000  0.22648555  0.32837863  1
  Ga  Ga1  1  0.50261367  0.39303254  0.60696746  1
  Ga  Ga2  1  0.75000000  0.77351445  0.67162137  1
  Ga  Ga3  1  0.75000000  0.63318831  0.91166502  1
  Ga  Ga4  1  0.25000000  0.91934331  0.33182558  1
  Ga  Ga5  1  0.75000000  0.08065669  0.66817442  1
  Ga  Ga6  1  0.25000000  0.66817442  0.08065669  1
  Ga  Ga7  1  0.25000000  0.99947192  0.00052808  1
  Ga  Ga8  1  0.25000000  0.36681169  0.08833498  1
  Ga  Ga9  1  0.75000000  0.08833498  0.36681169  1
  Ga  Ga10  1  0.99738633  0.39303254  0.60696746  1
  Ga  Ga11  1  0.75000000  0.78597069  0.21402931  1
  Ga  Ga12  1  0.75000000  0.32837863  0.22648555  1
  Ga  Ga13  1  0.25000000  0.21402931  0.78597069  1
  Ga  Ga14  1  0.00261367  0.60696746  0.39303254  1
  Ga  Ga15  1  0.75000000  0.33182558  0.91934331  1
  Ga  Ga16  1  0.75000000  0.00052808  0.99947192  1
  Ga  Ga17  1  0.25000000  0.67162137  0.77351445  1
  Ga  Ga18  1  0.49738633  0.60696746  0.39303254  1
  Ga  Ga19  1  0.25000000  0.91166502  0.63318831  1
