# generated using pymatgen
data_TeWO6
_symmetry_space_group_name_H-M   'P 1'
_cell_length_a   5.33112537
_cell_length_b   5.33097631
_cell_length_c   9.34579431
_cell_angle_alpha   151.22697314
_cell_angle_beta   52.24578805
_cell_angle_gamma   122.45603703
_symmetry_Int_Tables_number   1
_chemical_formula_structural   TeWO6
_chemical_formula_sum   'Te1 W1 O6'
_cell_volume   101.08252590
_cell_formula_units_Z   1
loop_
 _symmetry_equiv_pos_site_id
 _symmetry_equiv_pos_as_xyz
  1  'x, y, z'
loop_
 _atom_site_type_symbol
 _atom_site_label
 _atom_site_symmetry_multiplicity
 _atom_site_fract_x
 _atom_site_fract_y
 _atom_site_fract_z
 _atom_site_occupancy
  Te  Te0  1  0.49666540  0.00003687  0.49649232  1
  W  W1  1  0.99658565  -0.00002544  0.99649835  1
  O  O2  1  0.35564384  0.39378634  0.13866407  1
  O  O3  1  0.24851694  0.78358043  0.63772989  1
  O  O4  1  0.13861427  0.38925879  0.74495359  1
  O  O5  1  0.85405465  0.61081863  0.24850301  1
  O  O6  1  0.74475976  0.21715395  0.35575177  1
  O  O7  1  0.63775948  0.60538942  0.85400600  1
