# generated using pymatgen
data_MnCoO3
_symmetry_space_group_name_H-M   'P 1'
_cell_length_a   5.47135202
_cell_length_b   5.47135202
_cell_length_c   5.47135201
_cell_angle_alpha   54.77258533
_cell_angle_beta   54.77258526
_cell_angle_gamma   54.77258526
_symmetry_Int_Tables_number   1
_chemical_formula_structural   MnCoO3
_chemical_formula_sum   'Mn2 Co2 O6'
_cell_volume   101.71687117
_cell_formula_units_Z   2
loop_
 _symmetry_equiv_pos_site_id
 _symmetry_equiv_pos_as_xyz
  1  'x, y, z'
loop_
 _atom_site_type_symbol
 _atom_site_label
 _atom_site_symmetry_multiplicity
 _atom_site_fract_x
 _atom_site_fract_y
 _atom_site_fract_z
 _atom_site_occupancy
  O  O0  1  0.77308943  0.44108271  0.05016203  1
  O  O1  1  0.44108418  0.05016217  0.77308813  1
  O  O2  1  0.05016309  0.77308913  0.44108369  1
  O  O3  1  0.22691221  0.55891603  0.94983640  1
  O  O4  1  0.94983763  0.22691204  0.55891568  1
  O  O5  1  0.55891744  0.94983656  0.22691215  1
  Mn  Mn6  1  0.84305241  0.84305024  0.84304999  1
  Mn  Mn7  1  0.15694923  0.15694850  0.15694844  1
  Co  Co8  1  0.64188015  0.64188203  0.64188141  1
  Co  Co9  1  0.35811830  0.35811915  0.35811929  1
