# generated using pymatgen
data_RbFe2Se3
_symmetry_space_group_name_H-M   'P 1'
_cell_length_a   5.45381373
_cell_length_b   7.76531422
_cell_length_c   7.76531422
_cell_angle_alpha   102.84080741
_cell_angle_beta   90.00000000
_cell_angle_gamma   90.00000000
_symmetry_Int_Tables_number   1
_chemical_formula_structural   RbFe2Se3
_chemical_formula_sum   'Rb2 Fe4 Se6'
_cell_volume   320.64104580
_cell_formula_units_Z   2
loop_
 _symmetry_equiv_pos_site_id
 _symmetry_equiv_pos_as_xyz
  1  'x, y, z'
loop_
 _atom_site_type_symbol
 _atom_site_label
 _atom_site_symmetry_multiplicity
 _atom_site_fract_x
 _atom_site_fract_y
 _atom_site_fract_z
 _atom_site_occupancy
  Fe  Fe0  1  0.00000000  0.13086450  0.13086450  1
  Fe  Fe1  1  0.50000000  0.86913550  0.86913550  1
  Fe  Fe2  1  0.00000000  0.86913550  0.86913550  1
  Fe  Fe3  1  0.50000000  0.13086450  0.13086450  1
  Se  Se4  1  0.75000000  0.15641130  0.38114005  1
  Se  Se5  1  0.25000000  0.84358870  0.61885995  1
  Se  Se6  1  0.75000000  0.12959167  0.87040833  1
  Se  Se7  1  0.25000000  0.87040833  0.12959167  1
  Se  Se8  1  0.75000000  0.61885995  0.84358870  1
  Se  Se9  1  0.25000000  0.38114005  0.15641130  1
  Rb  Rb10  1  0.25000000  0.33431889  0.66568111  1
  Rb  Rb11  1  0.75000000  0.66568111  0.33431889  1
