# generated using pymatgen
data_Ta4N5
_symmetry_space_group_name_H-M   'P 1'
_cell_length_a   4.29446492
_cell_length_b   5.32965330
_cell_length_c   5.32965330
_cell_angle_alpha   80.65867347
_cell_angle_beta   66.24139954
_cell_angle_gamma   66.24139958
_symmetry_Int_Tables_number   1
_chemical_formula_structural   Ta4N5
_chemical_formula_sum   'Ta4 N5'
_cell_volume   102.18506235
_cell_formula_units_Z   1
loop_
 _symmetry_equiv_pos_site_id
 _symmetry_equiv_pos_as_xyz
  1  'x, y, z'
loop_
 _atom_site_type_symbol
 _atom_site_label
 _atom_site_symmetry_multiplicity
 _atom_site_fract_x
 _atom_site_fract_y
 _atom_site_fract_z
 _atom_site_occupancy
  N  N0  1  0.50000000  0.00000000  0.00000000  1
  N  N1  1  0.90841287  0.39877144  0.78440282  1
  N  N2  1  0.69281569  0.21559718  0.39877144  1
  N  N3  1  0.30718431  0.78440282  0.60122856  1
  N  N4  1  0.09158713  0.60122856  0.21559718  1
  Ta  Ta5  1  0.78378935  0.82130414  0.61111716  1
  Ta  Ta6  1  0.39490651  0.38888284  0.82130414  1
  Ta  Ta7  1  0.60509349  0.61111716  0.17869586  1
  Ta  Ta8  1  0.21621065  0.17869586  0.38888284  1
