# generated using pymatgen
data_Li2CoSnO4
_symmetry_space_group_name_H-M   'P 1'
_cell_length_a   5.45153692
_cell_length_b   5.45153684
_cell_length_c   5.45153658
_cell_angle_alpha   134.47623918
_cell_angle_beta   134.47622848
_cell_angle_gamma   66.34511409
_symmetry_Int_Tables_number   1
_chemical_formula_structural   Li2CoSnO4
_chemical_formula_sum   'Li2 Co1 Sn1 O4'
_cell_volume   81.20045562
_cell_formula_units_Z   1
loop_
 _symmetry_equiv_pos_site_id
 _symmetry_equiv_pos_as_xyz
  1  'x, y, z'
loop_
 _atom_site_type_symbol
 _atom_site_label
 _atom_site_symmetry_multiplicity
 _atom_site_fract_x
 _atom_site_fract_y
 _atom_site_fract_z
 _atom_site_occupancy
  Li  Li0  1  0.25000000  0.75000000  0.50000000  1
  Li  Li1  1  0.50000000  0.50000000  0.00000000  1
  Co  Co2  1  0.75000000  0.25000000  0.50000000  1
  Sn  Sn3  1  0.00000000  0.00000000  0.00000000  1
  O  O4  1  0.50805016  0.00805016  0.50000000  1
  O  O5  1  0.22554953  0.22554953  0.00000000  1
  O  O6  1  0.99194984  0.49194984  0.50000000  1
  O  O7  1  0.77445047  0.77445047  1.00000000  1
