# generated using pymatgen
data_Li7Br3O2
_symmetry_space_group_name_H-M   'P 1'
_cell_length_a   3.98275987
_cell_length_b   3.98275987
_cell_length_c   11.23365352
_cell_angle_alpha   100.21073439
_cell_angle_beta   100.21073437
_cell_angle_gamma   90.00000004
_symmetry_Int_Tables_number   1
_chemical_formula_structural   Li7Br3O2
_chemical_formula_sum   'Li7 Br3 O2'
_cell_volume   172.50199802
_cell_formula_units_Z   1
loop_
 _symmetry_equiv_pos_site_id
 _symmetry_equiv_pos_as_xyz
  1  'x, y, z'
loop_
 _atom_site_type_symbol
 _atom_site_label
 _atom_site_symmetry_multiplicity
 _atom_site_fract_x
 _atom_site_fract_y
 _atom_site_fract_z
 _atom_site_occupancy
  Li  Li0  1  0.59327701  0.09327701  0.18655402  1
  Li  Li1  1  0.09327701  0.59327701  0.18655402  1
  Li  Li2  1  0.40672299  0.90672299  0.81344598  1
  Li  Li3  1  0.90672299  0.40672299  0.81344598  1
  Li  Li4  1  0.18101653  0.18101653  0.36203305  1
  Li  Li5  1  0.81898347  0.81898347  0.63796695  1
  Li  Li6  1  0.00000000  0.00000000  0.00000000  1
  O  O7  1  0.90779274  0.90779274  0.81558549  1
  O  O8  1  0.09220726  0.09220726  0.18441451  1
  Br  Br9  1  0.50000000  0.50000000  0.00000000  1
  Br  Br10  1  0.68923453  0.68923453  0.37846907  1
  Br  Br11  1  0.31076547  0.31076547  0.62153093  1
