# generated using pymatgen
data_NaMn3O4
_symmetry_space_group_name_H-M   'P 1'
_cell_length_a   6.23345844
_cell_length_b   6.23345613
_cell_length_c   3.20623005
_cell_angle_alpha   61.07247740
_cell_angle_beta   61.07294229
_cell_angle_gamma   89.67766067
_symmetry_Int_Tables_number   1
_chemical_formula_structural   NaMn3O4
_chemical_formula_sum   'Na1 Mn3 O4'
_cell_volume   91.09528293
_cell_formula_units_Z   1
loop_
 _symmetry_equiv_pos_site_id
 _symmetry_equiv_pos_as_xyz
  1  'x, y, z'
loop_
 _atom_site_type_symbol
 _atom_site_label
 _atom_site_symmetry_multiplicity
 _atom_site_fract_x
 _atom_site_fract_y
 _atom_site_fract_z
 _atom_site_occupancy
  Na  Na0  1  0.00012501  0.00006726  0.99971415  1
  Mn  Mn1  1  0.50007671  0.99992389  0.99991159  1
  Mn  Mn2  1  0.50021161  0.50009936  0.99942348  1
  Mn  Mn3  1  0.00015384  0.49995724  0.99995426  1
  O  O4  1  0.72827250  0.27210368  0.99927185  1
  O  O5  1  0.27612557  0.27606786  0.99851962  1
  O  O6  1  0.72416275  0.72410386  0.00059423  1
  O  O7  1  0.27213801  0.72823684  0.99927283  1
