# generated using pymatgen
data_HfO2
_symmetry_space_group_name_H-M   'P 1'
_cell_length_a   4.87030514
_cell_length_b   5.82594177
_cell_length_c   16.03650865
_cell_angle_alpha   90.00000000
_cell_angle_beta   90.00000000
_cell_angle_gamma   90.00000000
_symmetry_Int_Tables_number   1
_chemical_formula_structural   HfO2
_chemical_formula_sum   'Hf12 O24'
_cell_volume   455.02172697
_cell_formula_units_Z   12
loop_
 _symmetry_equiv_pos_site_id
 _symmetry_equiv_pos_as_xyz
  1  'x, y, z'
loop_
 _atom_site_type_symbol
 _atom_site_label
 _atom_site_symmetry_multiplicity
 _atom_site_fract_x
 _atom_site_fract_y
 _atom_site_fract_z
 _atom_site_occupancy
  Hf  Hf0  1  0.00277286  0.34650837  0.08410109  1
  Hf  Hf1  1  0.00000000  0.02209697  0.25000000  1
  Hf  Hf2  1  0.99722714  0.34650837  0.41589891  1
  Hf  Hf3  1  0.00000000  0.97790303  0.75000000  1
  Hf  Hf4  1  0.00277286  0.65349163  0.58410109  1
  Hf  Hf5  1  0.99722714  0.65349163  0.91589891  1
  Hf  Hf6  1  0.49722714  0.15349163  0.58410109  1
  Hf  Hf7  1  0.50000000  0.52209697  0.25000000  1
  Hf  Hf8  1  0.50277286  0.15349163  0.91589891  1
  Hf  Hf9  1  0.50000000  0.47790303  0.75000000  1
  Hf  Hf10  1  0.50277286  0.84650837  0.41589891  1
  Hf  Hf11  1  0.49722714  0.84650837  0.08410109  1
  O  O12  1  0.19986750  0.63143256  0.03075577  1
  O  O13  1  0.19986750  0.36856744  0.53075577  1
  O  O14  1  0.28056097  0.19084831  0.69622066  1
  O  O15  1  0.28056097  0.80915169  0.19622066  1
  O  O16  1  0.20742295  0.06725855  0.36329086  1
  O  O17  1  0.20742295  0.93274145  0.86329086  1
  O  O18  1  0.29257705  0.56725855  0.36329086  1
  O  O19  1  0.29257705  0.43274145  0.86329086  1
  O  O20  1  0.21943903  0.30915169  0.19622066  1
  O  O21  1  0.21943903  0.69084831  0.69622066  1
  O  O22  1  0.30013250  0.13143256  0.03075577  1
  O  O23  1  0.30013250  0.86856744  0.53075577  1
  O  O24  1  0.69986750  0.86856744  0.96924423  1
  O  O25  1  0.69986750  0.13143256  0.46924423  1
  O  O26  1  0.78056097  0.30915169  0.30377934  1
  O  O27  1  0.78056097  0.69084831  0.80377934  1
  O  O28  1  0.70742295  0.43274145  0.63670914  1
  O  O29  1  0.70742295  0.56725855  0.13670914  1
  O  O30  1  0.79257705  0.93274145  0.63670914  1
  O  O31  1  0.79257705  0.06725855  0.13670914  1
  O  O32  1  0.71943903  0.19084831  0.80377934  1
  O  O33  1  0.71943903  0.80915169  0.30377934  1
  O  O34  1  0.80013250  0.36856744  0.96924423  1
  O  O35  1  0.80013250  0.63143256  0.46924423  1
