# generated using pymatgen
data_Ho2B4C
_symmetry_space_group_name_H-M   'P 1'
_cell_length_a   3.27035660
_cell_length_b   5.23773415
_cell_length_c   5.23773415
_cell_angle_alpha   77.53613525
_cell_angle_beta   71.80862425
_cell_angle_gamma   71.80862425
_symmetry_Int_Tables_number   1
_chemical_formula_structural   Ho2B4C
_chemical_formula_sum   'Ho2 B4 C1'
_cell_volume   80.27487428
_cell_formula_units_Z   1
loop_
 _symmetry_equiv_pos_site_id
 _symmetry_equiv_pos_as_xyz
  1  'x, y, z'
loop_
 _atom_site_type_symbol
 _atom_site_label
 _atom_site_symmetry_multiplicity
 _atom_site_fract_x
 _atom_site_fract_y
 _atom_site_fract_z
 _atom_site_occupancy
  Ho  Ho0  1  0.26596243  0.23403757  0.23403757  1
  Ho  Ho1  1  0.73403757  0.76596243  0.76596243  1
  B  B2  1  0.50000000  0.36539209  0.63460791  1
  B  B3  1  0.50000000  0.63460791  0.36539209  1
  B  B4  1  0.00000000  0.77205212  0.22794788  1
  B  B5  1  0.00000000  0.22794788  0.77205212  1
  C  C6  1  0.00000000  0.00000000  0.00000000  1
