# generated using pymatgen
data_Rb2CuF4
_symmetry_space_group_name_H-M   'P 1'
_cell_length_a   4.24559539
_cell_length_b   4.24559539
_cell_length_c   7.43652631
_cell_angle_alpha   106.58608077
_cell_angle_beta   106.58608077
_cell_angle_gamma   90.00000000
_symmetry_Int_Tables_number   1
_chemical_formula_structural   Rb2CuF4
_chemical_formula_sum   'Rb2 Cu1 F4'
_cell_volume   122.63597957
_cell_formula_units_Z   1
loop_
 _symmetry_equiv_pos_site_id
 _symmetry_equiv_pos_as_xyz
  1  'x, y, z'
loop_
 _atom_site_type_symbol
 _atom_site_label
 _atom_site_symmetry_multiplicity
 _atom_site_fract_x
 _atom_site_fract_y
 _atom_site_fract_z
 _atom_site_occupancy
  Rb  Rb0  1  0.35624803  0.35624803  0.71249606  1
  Rb  Rb1  1  0.64375197  0.64375197  0.28750394  1
  Cu  Cu2  1  0.00000000  0.00000000  0.00000000  1
  F  F3  1  0.14523720  0.14523720  0.29047439  1
  F  F4  1  0.85476280  0.85476280  0.70952561  1
  F  F5  1  0.00000000  0.50000000  0.00000000  1
  F  F6  1  0.50000000  0.00000000  0.00000000  1
