# generated using pymatgen
data_Sc2BeRu
_symmetry_space_group_name_H-M   'P 1'
_cell_length_a   4.52671843
_cell_length_b   4.52670964
_cell_length_c   4.52670894
_cell_angle_alpha   59.99993277
_cell_angle_beta   59.99989386
_cell_angle_gamma   59.99989784
_symmetry_Int_Tables_number   1
_chemical_formula_structural   Sc2BeRu
_chemical_formula_sum   'Sc2 Be1 Ru1'
_cell_volume   65.58926847
_cell_formula_units_Z   1
loop_
 _symmetry_equiv_pos_site_id
 _symmetry_equiv_pos_as_xyz
  1  'x, y, z'
loop_
 _atom_site_type_symbol
 _atom_site_label
 _atom_site_symmetry_multiplicity
 _atom_site_fract_x
 _atom_site_fract_y
 _atom_site_fract_z
 _atom_site_occupancy
  Sc  Sc0  1  0.00000069  0.00000018  0.00000101  1
  Sc  Sc1  1  0.49999975  0.49999969  0.49999926  1
  Be  Be2  1  0.25000097  0.25000063  0.25000076  1
  Ru  Ru3  1  0.74999959  0.75000049  0.74999997  1
