# generated using pymatgen
data_Mn3CoO8
_symmetry_space_group_name_H-M   'P 1'
_cell_length_a   5.80126656
_cell_length_b   5.78163485
_cell_length_c   5.80126690
_cell_angle_alpha   120.11239331
_cell_angle_beta   119.99999814
_cell_angle_gamma   59.88760885
_symmetry_Int_Tables_number   1
_chemical_formula_structural   Mn3CoO8
_chemical_formula_sum   'Mn3 Co1 O8'
_cell_volume   137.35404711
_cell_formula_units_Z   1
loop_
 _symmetry_equiv_pos_site_id
 _symmetry_equiv_pos_as_xyz
  1  'x, y, z'
loop_
 _atom_site_type_symbol
 _atom_site_label
 _atom_site_symmetry_multiplicity
 _atom_site_fract_x
 _atom_site_fract_y
 _atom_site_fract_z
 _atom_site_occupancy
  Mn  Mn0  1  0.00000000  0.00000000  0.50000000  1
  Mn  Mn1  1  0.50000000  0.00000000  0.00000000  1
  Mn  Mn2  1  0.50000000  0.00000000  0.50000000  1
  Co  Co3  1  0.00000000  0.00000000  0.00000000  1
  O  O4  1  0.26104337  0.20200829  0.23152583  1
  O  O5  1  0.26512826  0.20461523  0.73487174  1
  O  O6  1  0.76847417  0.20200829  0.23152583  1
  O  O7  1  0.76847417  0.20200829  0.73895663  1
  O  O8  1  0.23152583  0.79799171  0.26104337  1
  O  O9  1  0.23152583  0.79799171  0.76847417  1
  O  O10  1  0.73487174  0.79538477  0.26512826  1
  O  O11  1  0.73895663  0.79799171  0.76847417  1
