# generated using pymatgen
data_Li7Si2
_symmetry_space_group_name_H-M   'P 1'
_cell_length_a   4.47760362
_cell_length_b   8.06085608
_cell_length_c   14.93571097
_cell_angle_alpha   90.00000000
_cell_angle_beta   90.00000000
_cell_angle_gamma   90.00000000
_symmetry_Int_Tables_number   1
_chemical_formula_structural   Li7Si2
_chemical_formula_sum   'Li28 Si8'
_cell_volume   539.07937103
_cell_formula_units_Z   4
loop_
 _symmetry_equiv_pos_site_id
 _symmetry_equiv_pos_as_xyz
  1  'x, y, z'
loop_
 _atom_site_type_symbol
 _atom_site_label
 _atom_site_symmetry_multiplicity
 _atom_site_fract_x
 _atom_site_fract_y
 _atom_site_fract_z
 _atom_site_occupancy
  Li  Li0  1  0.00000000  0.50000000  0.50000000  1
  Li  Li1  1  0.00000000  0.00000000  0.00000000  1
  Li  Li2  1  0.50000000  0.00000000  0.50000000  1
  Li  Li3  1  0.50000000  0.50000000  0.00000000  1
  Li  Li4  1  0.50000000  0.62134055  0.14380218  1
  Li  Li5  1  0.50000000  0.37865945  0.85619782  1
  Li  Li6  1  0.50000000  0.12134055  0.35619782  1
  Li  Li7  1  0.50000000  0.87865945  0.64380218  1
  Li  Li8  1  0.50000000  0.73350572  0.39661938  1
  Li  Li9  1  0.50000000  0.26649428  0.60338062  1
  Li  Li10  1  0.50000000  0.23350572  0.10338062  1
  Li  Li11  1  0.50000000  0.76649428  0.89661938  1
  Li  Li12  1  0.50000000  0.91478257  0.24204499  1
  Li  Li13  1  0.50000000  0.08521743  0.75795501  1
  Li  Li14  1  0.50000000  0.41478257  0.25795501  1
  Li  Li15  1  0.50000000  0.58521743  0.74204499  1
  Li  Li16  1  0.00000000  0.82501131  0.51100804  1
  Li  Li17  1  0.00000000  0.17498869  0.48899196  1
  Li  Li18  1  0.00000000  0.32501131  0.98899196  1
  Li  Li19  1  0.00000000  0.67498869  0.01100804  1
  Li  Li20  1  0.00000000  0.61740994  0.31012437  1
  Li  Li21  1  0.00000000  0.38259006  0.68987563  1
  Li  Li22  1  0.00000000  0.11740994  0.18987563  1
  Li  Li23  1  0.00000000  0.88259006  0.81012437  1
  Li  Li24  1  0.00000000  0.79714324  0.16403696  1
  Li  Li25  1  0.00000000  0.20285676  0.83596304  1
  Li  Li26  1  0.00000000  0.29714324  0.33596304  1
  Li  Li27  1  0.00000000  0.70285676  0.66403696  1
  Si  Si28  1  0.50000000  0.89729971  0.06320144  1
  Si  Si29  1  0.50000000  0.10270029  0.93679856  1
  Si  Si30  1  0.50000000  0.39729971  0.43679856  1
  Si  Si31  1  0.50000000  0.60270029  0.56320144  1
  Si  Si32  1  0.00000000  0.94419016  0.34585953  1
  Si  Si33  1  0.00000000  0.05580984  0.65414047  1
  Si  Si34  1  0.00000000  0.44419016  0.15414047  1
  Si  Si35  1  0.00000000  0.55580984  0.84585953  1
