# generated using pymatgen
data_NaNi2O3
_symmetry_space_group_name_H-M   'P 1'
_cell_length_a   2.99675573
_cell_length_b   2.99642751
_cell_length_c   7.67722294
_cell_angle_alpha   89.99711996
_cell_angle_beta   90.00000000
_cell_angle_gamma   120.00362342
_symmetry_Int_Tables_number   1
_chemical_formula_structural   NaNi2O3
_chemical_formula_sum   'Na1 Ni2 O3'
_cell_volume   59.69996072
_cell_formula_units_Z   1
loop_
 _symmetry_equiv_pos_site_id
 _symmetry_equiv_pos_as_xyz
  1  'x, y, z'
loop_
 _atom_site_type_symbol
 _atom_site_label
 _atom_site_symmetry_multiplicity
 _atom_site_fract_x
 _atom_site_fract_y
 _atom_site_fract_z
 _atom_site_occupancy
  Na  Na0  1  0.99998674  0.00000000  0.50000000  1
  Ni  Ni1  1  0.33333886  0.66668095  0.16143340  1
  Ni  Ni2  1  0.66665792  0.33331905  0.83856660  1
  O  O3  1  0.33329272  0.66659862  0.70819620  1
  O  O4  1  0.00000865  0.00000000  0.00000000  1
  O  O5  1  0.66669411  0.33340138  0.29180380  1
