# generated using pymatgen
data_Ti3B4
_symmetry_space_group_name_H-M   'P 1'
_cell_length_a   3.03897024
_cell_length_b   3.25661180
_cell_length_c   7.23027324
_cell_angle_alpha   103.01503254
_cell_angle_beta   102.13149291
_cell_angle_gamma   90.00000000
_symmetry_Int_Tables_number   1
_chemical_formula_structural   Ti3B4
_chemical_formula_sum   'Ti3 B4'
_cell_volume   68.07683705
_cell_formula_units_Z   1
loop_
 _symmetry_equiv_pos_site_id
 _symmetry_equiv_pos_as_xyz
  1  'x, y, z'
loop_
 _atom_site_type_symbol
 _atom_site_label
 _atom_site_symmetry_multiplicity
 _atom_site_fract_x
 _atom_site_fract_y
 _atom_site_fract_z
 _atom_site_occupancy
  Ti  Ti0  1  0.68555949  0.18555949  0.37111897  1
  Ti  Ti1  1  0.31444051  0.81444051  0.62888103  1
  Ti  Ti2  1  -0.00000000  0.00000000  0.00000000  1
  B  B3  1  0.86869277  0.36869277  0.73738553  1
  B  B4  1  0.13130723  0.63130723  0.26261447  1
  B  B5  1  0.43569837  0.43569837  0.87139675  1
  B  B6  1  0.56430163  0.56430163  0.12860325  1
