# generated using pymatgen
data_MnFe2O3
_symmetry_space_group_name_H-M   'P 1'
_cell_length_a   4.47107449
_cell_length_b   4.47095541
_cell_length_c   6.96624170
_cell_angle_alpha   90.00000000
_cell_angle_beta   71.28203223
_cell_angle_gamma   90.00000000
_symmetry_Int_Tables_number   1
_chemical_formula_structural   MnFe2O3
_chemical_formula_sum   'Mn2 Fe4 O6'
_cell_volume   131.88975499
_cell_formula_units_Z   2
loop_
 _symmetry_equiv_pos_site_id
 _symmetry_equiv_pos_as_xyz
  1  'x, y, z'
loop_
 _atom_site_type_symbol
 _atom_site_label
 _atom_site_symmetry_multiplicity
 _atom_site_fract_x
 _atom_site_fract_y
 _atom_site_fract_z
 _atom_site_occupancy
  Mn  Mn0  1  0.00128415  0.00000000  0.99743070  1
  Mn  Mn1  1  0.33204885  0.00000000  0.33590230  1
  Fe  Fe2  1  0.49790194  0.50000000  0.00419511  1
  Fe  Fe3  1  0.83543106  0.50000000  0.32913789  1
  Fe  Fe4  1  0.66666700  0.00000000  0.66666700  1
  Fe  Fe5  1  0.16666700  0.50000000  0.66666700  1
  O  O6  1  0.99761392  0.50000000  0.00477316  1
  O  O7  1  0.50241294  0.00000000  0.99517513  1
  O  O8  1  0.33572008  0.50000000  0.32856084  1
  O  O9  1  0.83092106  0.00000000  0.33815887  1
  O  O10  1  0.16666700  0.00000000  0.66666700  1
  O  O11  1  0.66666700  0.50000000  0.66666700  1
