# generated using pymatgen
data_Pt(SCl3)2
_symmetry_space_group_name_H-M   'P 1'
_cell_length_a   4.89485062
_cell_length_b   6.94917983
_cell_length_c   8.39910157
_cell_angle_alpha   104.09874810
_cell_angle_beta   96.99605128
_cell_angle_gamma   92.98101834
_symmetry_Int_Tables_number   1
_chemical_formula_structural   Pt(SCl3)2
_chemical_formula_sum   'Pt1 S2 Cl6'
_cell_volume   274.03640033
_cell_formula_units_Z   1
loop_
 _symmetry_equiv_pos_site_id
 _symmetry_equiv_pos_as_xyz
  1  'x, y, z'
loop_
 _atom_site_type_symbol
 _atom_site_label
 _atom_site_symmetry_multiplicity
 _atom_site_fract_x
 _atom_site_fract_y
 _atom_site_fract_z
 _atom_site_occupancy
  S  S0  1  0.21688846  0.27379727  0.29592134  1
  S  S1  1  0.78311154  0.72620273  0.70407866  1
  Cl  Cl2  1  0.59270437  0.98547278  0.71860084  1
  Cl  Cl3  1  0.22331034  0.37307932  0.66340486  1
  Cl  Cl4  1  0.77668966  0.62692068  0.33659514  1
  Cl  Cl5  1  0.25052478  0.32148452  0.06911172  1
  Cl  Cl6  1  0.74947522  0.67851548  0.93088828  1
  Cl  Cl7  1  0.40729563  0.01452722  0.28139916  1
  Pt  Pt8  1  0.50000000  0.50000000  0.50000000  1
