# generated using pymatgen
data_C
_symmetry_space_group_name_H-M   'P 1'
_cell_length_a   19.14118084
_cell_length_b   19.14118075
_cell_length_c   19.14118137
_cell_angle_alpha   7.39611811
_cell_angle_beta   7.39612018
_cell_angle_gamma   7.39611904
_symmetry_Int_Tables_number   1
_chemical_formula_structural   C
_chemical_formula_sum   C8
_cell_volume   100.78325605
_cell_formula_units_Z   8
loop_
 _symmetry_equiv_pos_site_id
 _symmetry_equiv_pos_as_xyz
  1  'x, y, z'
loop_
 _atom_site_type_symbol
 _atom_site_label
 _atom_site_symmetry_multiplicity
 _atom_site_fract_x
 _atom_site_fract_y
 _atom_site_fract_z
 _atom_site_occupancy
  C  C0  1  0.03160852  0.03160852  0.03160852  1
  C  C1  1  0.90541262  0.90541262  0.90541262  1
  C  C2  1  0.76127094  0.76127094  0.76127094  1
  C  C3  1  0.09458738  0.09458738  0.09458738  1
  C  C4  1  0.96839148  0.96839148  0.96839148  1
  C  C5  1  0.36491254  0.36491254  0.36491254  1
  C  C6  1  0.23872906  0.23872906  0.23872906  1
  C  C7  1  0.63508746  0.63508746  0.63508746  1
