# generated using pymatgen
data_LiLaTiO4
_symmetry_space_group_name_H-M   'P 1'
_cell_length_a   3.77593780
_cell_length_b   3.77593780
_cell_length_c   12.34503346
_cell_angle_alpha   90.00000000
_cell_angle_beta   90.00000000
_cell_angle_gamma   90.00000000
_symmetry_Int_Tables_number   1
_chemical_formula_structural   LiLaTiO4
_chemical_formula_sum   'Li2 La2 Ti2 O8'
_cell_volume   176.01186096
_cell_formula_units_Z   2
loop_
 _symmetry_equiv_pos_site_id
 _symmetry_equiv_pos_as_xyz
  1  'x, y, z'
loop_
 _atom_site_type_symbol
 _atom_site_label
 _atom_site_symmetry_multiplicity
 _atom_site_fract_x
 _atom_site_fract_y
 _atom_site_fract_z
 _atom_site_occupancy
  Li  Li0  1  0.25000000  0.75000000  0.50000000  1
  Li  Li1  1  0.75000000  0.25000000  0.50000000  1
  O  O2  1  0.75000000  0.75000000  0.92503289  1
  O  O3  1  0.25000000  0.25000000  0.07496711  1
  O  O4  1  0.75000000  0.75000000  0.56068051  1
  O  O5  1  0.25000000  0.25000000  0.43931949  1
  O  O6  1  0.75000000  0.25000000  0.74549553  1
  O  O7  1  0.25000000  0.75000000  0.74549553  1
  O  O8  1  0.25000000  0.75000000  0.25450447  1
  O  O9  1  0.75000000  0.25000000  0.25450447  1
  Ti  Ti10  1  0.75000000  0.75000000  0.70602674  1
  Ti  Ti11  1  0.25000000  0.25000000  0.29397326  1
  La  La12  1  0.75000000  0.75000000  0.11709753  1
  La  La13  1  0.25000000  0.25000000  0.88290247  1
