# generated using pymatgen
data_Ba3Ti2O7
_symmetry_space_group_name_H-M   'P 1'
_cell_length_a   4.07065008
_cell_length_b   11.10776208
_cell_length_c   5.76710751
_cell_angle_alpha   90.02584304
_cell_angle_beta   44.88724032
_cell_angle_gamma   100.53910417
_symmetry_Int_Tables_number   1
_chemical_formula_structural   Ba3Ti2O7
_chemical_formula_sum   'Ba3 Ti2 O7'
_cell_volume   177.75910671
_cell_formula_units_Z   1
loop_
 _symmetry_equiv_pos_site_id
 _symmetry_equiv_pos_as_xyz
  1  'x, y, z'
loop_
 _atom_site_type_symbol
 _atom_site_label
 _atom_site_symmetry_multiplicity
 _atom_site_fract_x
 _atom_site_fract_y
 _atom_site_fract_z
 _atom_site_occupancy
  Ba  Ba0  1  0.13493968  0.63373947  0.92765722  1
  Ba  Ba1  1  0.50079660  0.00000344  0.74306167  1
  Ba  Ba2  1  0.86820918  0.36654583  0.56161071  1
  Ti  Ti3  1  0.31029485  0.80959355  0.32439963  1
  Ti  Ti4  1  0.69190115  0.19045776  0.13399605  1
  O  O5  1  0.12917748  0.62779475  0.43980726  1
  O  O6  1  0.82283986  0.81105441  0.34643255  1
  O  O7  1  0.18000175  0.18910319  0.66881845  1
  O  O8  1  0.20023888  0.18911888  0.15870635  1
  O  O9  1  0.80171769  0.81107762  0.85690863  1
  O  O10  1  0.50107211  0.00002349  0.25479290  1
  O  O11  1  0.87421177  0.37241359  0.06799157  1
