# generated using pymatgen
data_TiNi
_symmetry_space_group_name_H-M   'P 1'
_cell_length_a   7.27808914
_cell_length_b   7.27808913
_cell_length_c   5.31869748
_cell_angle_alpha   90.00000000
_cell_angle_beta   90.00000000
_cell_angle_gamma   120.00000001
_symmetry_Int_Tables_number   1
_chemical_formula_structural   TiNi
_chemical_formula_sum   'Ti9 Ni9'
_cell_volume   243.98923258
_cell_formula_units_Z   9
loop_
 _symmetry_equiv_pos_site_id
 _symmetry_equiv_pos_as_xyz
  1  'x, y, z'
loop_
 _atom_site_type_symbol
 _atom_site_label
 _atom_site_symmetry_multiplicity
 _atom_site_fract_x
 _atom_site_fract_y
 _atom_site_fract_z
 _atom_site_occupancy
  Ti  Ti0  1  0.00000000  0.00000000  0.00000000  1
  Ti  Ti1  1  0.33333333  0.66666667  0.04409623  1
  Ti  Ti2  1  0.66666667  0.33333333  0.95590377  1
  Ti  Ti3  1  0.33087591  0.98692096  0.34601520  1
  Ti  Ti4  1  0.01307904  0.34395495  0.34601520  1
  Ti  Ti5  1  0.65604505  0.66912409  0.34601520  1
  Ti  Ti6  1  0.66912409  0.01307904  0.65398480  1
  Ti  Ti7  1  0.98692096  0.65604505  0.65398480  1
  Ti  Ti8  1  0.34395495  0.33087591  0.65398480  1
  Ni  Ni9  1  0.00000000  0.00000000  0.50000000  1
  Ni  Ni10  1  0.33333333  0.66666667  0.58629119  1
  Ni  Ni11  1  0.66666667  0.33333333  0.41370881  1
  Ni  Ni12  1  0.31386000  0.97380928  0.85900701  1
  Ni  Ni13  1  0.02619072  0.34005072  0.85900701  1
  Ni  Ni14  1  0.65994928  0.68614000  0.85900701  1
  Ni  Ni15  1  0.68614000  0.02619072  0.14099299  1
  Ni  Ni16  1  0.97380928  0.65994928  0.14099299  1
  Ni  Ni17  1  0.34005072  0.31386000  0.14099299  1
