# generated using pymatgen
data_LiTiO2
_symmetry_space_group_name_H-M   'P 1'
_cell_length_a   4.98220313
_cell_length_b   2.87683695
_cell_length_c   10.22876835
_cell_angle_alpha   90.00225829
_cell_angle_beta   90.00034308
_cell_angle_gamma   30.00257555
_symmetry_Int_Tables_number   1
_chemical_formula_structural   LiTiO2
_chemical_formula_sum   'Li2 Ti2 O4'
_cell_volume   73.31010428
_cell_formula_units_Z   2
loop_
 _symmetry_equiv_pos_site_id
 _symmetry_equiv_pos_as_xyz
  1  'x, y, z'
loop_
 _atom_site_type_symbol
 _atom_site_label
 _atom_site_symmetry_multiplicity
 _atom_site_fract_x
 _atom_site_fract_y
 _atom_site_fract_z
 _atom_site_occupancy
  Li  Li0  1  0.00019339  0.00038926  0.99971976  1
  Li  Li1  1  0.00024104  0.00065992  0.50014139  1
  Ti  Ti2  1  0.66718822  0.99955716  0.24998187  1
  Ti  Ti3  1  0.33289548  0.00148476  0.74993183  1
  O  O4  1  0.66642962  0.00143071  0.87089250  1
  O  O5  1  0.66633816  0.00080438  0.62898639  1
  O  O6  1  0.33394453  0.99953022  0.12903075  1
  O  O7  1  0.33396757  0.99874958  0.37093751  1
