# generated using pymatgen
data_Li7B18O
_symmetry_space_group_name_H-M   'P 1'
_cell_length_a   8.17631494
_cell_length_b   8.18557472
_cell_length_c   4.12317850
_cell_angle_alpha   90.00000000
_cell_angle_beta   90.00000000
_cell_angle_gamma   120.07678658
_symmetry_Int_Tables_number   1
_chemical_formula_structural   Li7B18O
_chemical_formula_sum   'Li7 B18 O1'
_cell_volume   238.79927302
_cell_formula_units_Z   1
loop_
 _symmetry_equiv_pos_site_id
 _symmetry_equiv_pos_as_xyz
  1  'x, y, z'
loop_
 _atom_site_type_symbol
 _atom_site_label
 _atom_site_symmetry_multiplicity
 _atom_site_fract_x
 _atom_site_fract_y
 _atom_site_fract_z
 _atom_site_occupancy
  Li  Li0  1  0.17928477  0.28660296  0.00000000  1
  Li  Li1  1  0.34557746  0.68193337  0.00000000  1
  Li  Li2  1  0.00438741  0.01393929  0.50000000  1
  Li  Li3  1  0.22878855  0.99258608  0.00000000  1
  Li  Li4  1  0.65320304  0.32977332  0.00000000  1
  Li  Li5  1  0.84837799  0.73868567  0.00000000  1
  Li  Li6  1  0.80969736  0.07371546  0.00000000  1
  B  B7  1  0.99955944  0.49913164  0.80111062  1
  B  B8  1  0.12158462  0.67294112  0.50000000  1
  B  B9  1  0.32756294  0.87783248  0.50000000  1
  B  B10  1  0.12244043  0.45035203  0.50000000  1
  B  B11  1  0.50081169  0.00096623  0.79693183  1
  B  B12  1  0.32993408  0.45333139  0.50000000  1
  B  B13  1  0.55175169  0.87920794  0.50000000  1
  B  B14  1  0.55373445  0.67588296  0.50000000  1
  B  B15  1  0.50202980  0.50308318  0.20224351  1
  B  B16  1  0.50202980  0.50308318  0.79775649  1
  B  B17  1  0.44858418  0.32824998  0.50000000  1
  B  B18  1  0.44959270  0.12341972  0.50000000  1
  B  B19  1  0.67328278  0.55107886  0.50000000  1
  B  B20  1  0.50081169  0.00096623  0.20306817  1
  B  B21  1  0.87770188  0.54975234  0.50000000  1
  B  B22  1  0.67165354  0.12363494  0.50000000  1
  B  B23  1  0.87802082  0.32738562  0.50000000  1
  B  B24  1  0.99955944  0.49913164  0.19888938  1
  O  O25  1  0.00998746  0.01528233  0.00000000  1
