# generated using pymatgen
data_TiV3O8
_symmetry_space_group_name_H-M   'P 1'
_cell_length_a   6.42335917
_cell_length_b   6.42335877
_cell_length_c   6.56786322
_cell_angle_alpha   73.75787806
_cell_angle_beta   106.24211967
_cell_angle_gamma   145.94237049
_symmetry_Int_Tables_number   1
_chemical_formula_structural   TiV3O8
_chemical_formula_sum   'Ti1 V3 O8'
_cell_volume   145.12175350
_cell_formula_units_Z   1
loop_
 _symmetry_equiv_pos_site_id
 _symmetry_equiv_pos_as_xyz
  1  'x, y, z'
loop_
 _atom_site_type_symbol
 _atom_site_label
 _atom_site_symmetry_multiplicity
 _atom_site_fract_x
 _atom_site_fract_y
 _atom_site_fract_z
 _atom_site_occupancy
  Ti  Ti0  1  0.69069350  0.30930650  0.27808947  1
  V  V1  1  0.39756038  0.60243962  0.30767019  1
  V  V2  1  0.60140623  0.39859377  0.70070189  1
  V  V3  1  0.30234879  0.69765121  0.72695012  1
  O  O4  1  0.14176065  0.85823935  0.70683930  1
  O  O5  1  0.23603304  0.76396696  0.34439081  1
  O  O6  1  0.36693144  0.63306856  0.99554456  1
  O  O7  1  0.44434515  0.55565485  0.62444329  1
  O  O8  1  0.55763673  0.44236327  0.36621826  1
  O  O9  1  0.63393989  0.36606011  0.00015445  1
  O  O10  1  0.75981682  0.24018318  0.65238230  1
  O  O11  1  0.86752738  0.13247262  0.29661536  1
