# generated using pymatgen
data_Ca3Sn2O7
_symmetry_space_group_name_H-M   'P 1'
_cell_length_a   5.78485063
_cell_length_b   5.64786898
_cell_length_c   10.35661329
_cell_angle_alpha   105.82318482
_cell_angle_beta   90.00000000
_cell_angle_gamma   90.00000000
_symmetry_Int_Tables_number   1
_chemical_formula_structural   Ca3Sn2O7
_chemical_formula_sum   'Ca6 Sn4 O14'
_cell_volume   325.55039739
_cell_formula_units_Z   2
loop_
 _symmetry_equiv_pos_site_id
 _symmetry_equiv_pos_as_xyz
  1  'x, y, z'
loop_
 _atom_site_type_symbol
 _atom_site_label
 _atom_site_symmetry_multiplicity
 _atom_site_fract_x
 _atom_site_fract_y
 _atom_site_fract_z
 _atom_site_occupancy
  Ca  Ca0  1  0.69813908  0.75950669  1.00000000  1
  Ca  Ca1  1  0.19813908  0.24049331  0.00000000  1
  Ca  Ca2  1  0.80478602  0.57289516  0.61684302  1
  Ca  Ca3  1  0.30478602  0.42710484  0.38315698  1
  Ca  Ca4  1  0.80478602  0.95605114  0.38315698  1
  Ca  Ca5  1  0.30478602  0.04394886  0.61684302  1
  Sn  Sn6  1  0.75028991  0.35206293  0.20075872  1
  Sn  Sn7  1  0.25028991  0.64793707  0.79924128  1
  Sn  Sn8  1  0.25028991  0.84869579  0.20075872  1
  Sn  Sn9  1  0.75028991  0.15130421  0.79924128  1
  O  O10  1  0.71137003  0.96287931  0.59855062  1
  O  O11  1  0.21137003  0.03712069  0.40144938  1
  O  O12  1  0.21137003  0.63567031  0.59855062  1
  O  O13  1  0.71137003  0.36432969  0.40144938  1
  O  O14  1  0.05311636  0.32250240  0.75924497  1
  O  O15  1  0.55311636  0.67749760  0.24075503  1
  O  O16  1  0.55311636  0.43674257  0.75924497  1
  O  O17  1  0.05311636  0.56325743  0.24075503  1
  O  O18  1  0.94536563  0.86395831  0.84182638  1
  O  O19  1  0.44536563  0.13604169  0.15817362  1
  O  O20  1  0.79200702  0.35211183  0.00000000  1
  O  O21  1  0.29200702  0.64788817  1.00000000  1
  O  O22  1  0.94536563  0.02213194  0.15817362  1
  O  O23  1  0.44536563  0.97786806  0.84182638  1
