# generated using pymatgen
data_In2O3
_symmetry_space_group_name_H-M   'P 1'
_cell_length_a   5.87940440
_cell_length_b   5.87940250
_cell_length_c   5.87941235
_cell_angle_alpha   56.72058823
_cell_angle_beta   56.72059158
_cell_angle_gamma   56.72069435
_symmetry_Int_Tables_number   1
_chemical_formula_structural   In2O3
_chemical_formula_sum   'In4 O6'
_cell_volume   132.82806880
_cell_formula_units_Z   2
loop_
 _symmetry_equiv_pos_site_id
 _symmetry_equiv_pos_as_xyz
  1  'x, y, z'
loop_
 _atom_site_type_symbol
 _atom_site_label
 _atom_site_symmetry_multiplicity
 _atom_site_fract_x
 _atom_site_fract_y
 _atom_site_fract_z
 _atom_site_occupancy
  In  In0  1  0.64278533  0.64278538  0.64278486  1
  O  O1  1  0.74999998  0.45327900  0.04672102  1
  O  O2  1  0.95327883  0.24999936  0.54672135  1
  In  In3  1  0.85721476  0.85721474  0.85721519  1
  O  O4  1  0.54672065  0.95327903  0.24999944  1
  In  In5  1  0.14278519  0.14278563  0.14278520  1
  O  O6  1  0.45327884  0.04672129  0.74999996  1
  In  In7  1  0.35721473  0.35721471  0.35721488  1
  O  O8  1  0.24999980  0.54672129  0.95327891  1
  O  O9  1  0.04672189  0.74999958  0.45327920  1
