# generated using pymatgen
data_ZrMnO3
_symmetry_space_group_name_H-M   'P 1'
_cell_length_a   5.81724375
_cell_length_b   5.81724389
_cell_length_c   5.81724421
_cell_angle_alpha   56.51721326
_cell_angle_beta   56.51720602
_cell_angle_gamma   56.51721235
_symmetry_Int_Tables_number   1
_chemical_formula_structural   ZrMnO3
_chemical_formula_sum   'Zr2 Mn2 O6'
_cell_volume   127.99464831
_cell_formula_units_Z   2
loop_
 _symmetry_equiv_pos_site_id
 _symmetry_equiv_pos_as_xyz
  1  'x, y, z'
loop_
 _atom_site_type_symbol
 _atom_site_label
 _atom_site_symmetry_multiplicity
 _atom_site_fract_x
 _atom_site_fract_y
 _atom_site_fract_z
 _atom_site_occupancy
  Zr  Zr0  1  0.14477634  0.14477634  0.14477634  1
  Zr  Zr1  1  0.85522366  0.85522366  0.85522366  1
  Mn  Mn2  1  0.36026403  0.36026403  0.36026403  1
  Mn  Mn3  1  0.63973597  0.63973597  0.63973597  1
  O  O4  1  0.04599344  0.76713341  0.44692024  1
  O  O5  1  0.44692024  0.04599344  0.76713341  1
  O  O6  1  0.76713341  0.44692024  0.04599344  1
  O  O7  1  0.23286659  0.55307976  0.95400656  1
  O  O8  1  0.55307976  0.95400656  0.23286659  1
  O  O9  1  0.95400656  0.23286659  0.55307976  1
