# generated using pymatgen
data_MgSO4
_symmetry_space_group_name_H-M   'P 1'
_cell_length_a   4.78043996
_cell_length_b   4.78043996
_cell_length_c   6.61218410
_cell_angle_alpha   90.00000000
_cell_angle_beta   90.00000000
_cell_angle_gamma   113.82326596
_symmetry_Int_Tables_number   1
_chemical_formula_structural   MgSO4
_chemical_formula_sum   'Mg2 S2 O8'
_cell_volume   138.23079305
_cell_formula_units_Z   2
loop_
 _symmetry_equiv_pos_site_id
 _symmetry_equiv_pos_as_xyz
  1  'x, y, z'
loop_
 _atom_site_type_symbol
 _atom_site_label
 _atom_site_symmetry_multiplicity
 _atom_site_fract_x
 _atom_site_fract_y
 _atom_site_fract_z
 _atom_site_occupancy
  O  O0  1  0.22424375  0.30638881  0.75000000  1
  O  O1  1  0.77575625  0.69361119  0.25000000  1
  O  O2  1  0.30638881  0.22424375  0.25000000  1
  O  O3  1  0.69361119  0.77575625  0.75000000  1
  O  O4  1  0.24741976  0.75258024  0.93475668  1
  O  O5  1  0.75258024  0.24741976  0.43475668  1
  O  O6  1  0.75258024  0.24741976  0.06524332  1
  O  O7  1  0.24741976  0.75258024  0.56524332  1
  Mg  Mg8  1  0.00000000  0.00000000  0.00000000  1
  Mg  Mg9  1  0.00000000  0.00000000  0.50000000  1
  S  S10  1  0.34840915  0.65159085  0.75000000  1
  S  S11  1  0.65159085  0.34840915  0.25000000  1
