# generated using pymatgen
data_In2S3
_symmetry_space_group_name_H-M   'P 1'
_cell_length_a   7.10460366
_cell_length_b   7.10460366
_cell_length_c   7.10460366
_cell_angle_alpha   55.92154910
_cell_angle_beta   55.92154910
_cell_angle_gamma   55.92154911
_symmetry_Int_Tables_number   1
_chemical_formula_structural   In2S3
_chemical_formula_sum   'In4 S6'
_cell_volume   229.60633378
_cell_formula_units_Z   2
loop_
 _symmetry_equiv_pos_site_id
 _symmetry_equiv_pos_as_xyz
  1  'x, y, z'
loop_
 _atom_site_type_symbol
 _atom_site_label
 _atom_site_symmetry_multiplicity
 _atom_site_fract_x
 _atom_site_fract_y
 _atom_site_fract_z
 _atom_site_occupancy
  S  S0  1  0.04867086  0.75000000  0.45132914  1
  S  S1  1  0.75000000  0.45132914  0.04867086  1
  S  S2  1  0.45132914  0.04867086  0.75000000  1
  S  S3  1  0.95132914  0.25000000  0.54867086  1
  S  S4  1  0.54867086  0.95132914  0.25000000  1
  S  S5  1  0.25000000  0.54867086  0.95132914  1
  In  In6  1  0.85440289  0.85440289  0.85440289  1
  In  In7  1  0.64559711  0.64559711  0.64559711  1
  In  In8  1  0.14559711  0.14559711  0.14559711  1
  In  In9  1  0.35440289  0.35440289  0.35440289  1
