# generated using pymatgen
data_KCoN
_symmetry_space_group_name_H-M   'P 1'
_cell_length_a   10.29145721
_cell_length_b   3.47997906
_cell_length_c   6.30456888
_cell_angle_alpha   90.00000000
_cell_angle_beta   90.00000000
_cell_angle_gamma   90.00000000
_symmetry_Int_Tables_number   1
_chemical_formula_structural   KCoN
_chemical_formula_sum   'K4 Co4 N4'
_cell_volume   225.79218032
_cell_formula_units_Z   4
loop_
 _symmetry_equiv_pos_site_id
 _symmetry_equiv_pos_as_xyz
  1  'x, y, z'
loop_
 _atom_site_type_symbol
 _atom_site_label
 _atom_site_symmetry_multiplicity
 _atom_site_fract_x
 _atom_site_fract_y
 _atom_site_fract_z
 _atom_site_occupancy
  K  K0  1  0.66448672  0.25000000  0.07755653  1
  K  K1  1  0.16448672  0.25000000  0.42244347  1
  K  K2  1  0.33551328  0.75000000  0.92244347  1
  K  K3  1  0.83551328  0.75000000  0.57755653  1
  Co  Co4  1  0.54351157  0.25000000  0.60036188  1
  Co  Co5  1  0.04351157  0.25000000  0.89963812  1
  Co  Co6  1  0.45648843  0.75000000  0.39963812  1
  Co  Co7  1  0.95648843  0.75000000  0.10036188  1
  N  N8  1  0.93582922  0.25000000  0.15255736  1
  N  N9  1  0.43582922  0.25000000  0.34744264  1
  N  N10  1  0.06417078  0.75000000  0.84744264  1
  N  N11  1  0.56417078  0.75000000  0.65255736  1
