# generated using pymatgen
data_Sr3N2
_symmetry_space_group_name_H-M   'P 1'
_cell_length_a   10.69757410
_cell_length_b   10.69757410
_cell_length_c   10.69757410
_cell_angle_alpha   109.47121786
_cell_angle_beta   109.47122202
_cell_angle_gamma   109.47122202
_symmetry_Int_Tables_number   1
_chemical_formula_structural   Sr3N2
_chemical_formula_sum   'Sr24 N16'
_cell_volume   942.39727138
_cell_formula_units_Z   8
loop_
 _symmetry_equiv_pos_site_id
 _symmetry_equiv_pos_as_xyz
  1  'x, y, z'
loop_
 _atom_site_type_symbol
 _atom_site_label
 _atom_site_symmetry_multiplicity
 _atom_site_fract_x
 _atom_site_fract_y
 _atom_site_fract_z
 _atom_site_occupancy
  Sr  Sr0  1  0.77296937  0.72797017  0.73305814  1
  Sr  Sr1  1  0.46008877  0.73305814  0.50508797  1
  Sr  Sr2  1  0.03991123  0.04499920  0.77296937  1
  Sr  Sr3  1  0.45500080  0.49491203  0.72797017  1
  Sr  Sr4  1  0.53991123  0.26694186  0.49491203  1
  Sr  Sr5  1  0.22797017  0.45500080  0.99491203  1
  Sr  Sr6  1  0.49491203  0.22797017  0.95500080  1
  Sr  Sr7  1  0.27202983  0.76694186  0.72703063  1
  Sr  Sr8  1  0.95500080  0.72703063  0.46008877  1
  Sr  Sr9  1  0.72797017  0.23305814  0.27296937  1
  Sr  Sr10  1  0.76694186  0.22703063  0.77202983  1
  Sr  Sr11  1  0.23305814  0.77296937  0.22797017  1
  Sr  Sr12  1  0.72703063  0.96008877  0.45500080  1
  Sr  Sr13  1  0.54499920  0.50508797  0.27202983  1
  Sr  Sr14  1  0.96008877  0.95500080  0.22703063  1
  Sr  Sr15  1  0.22703063  0.27202983  0.26694186  1
  Sr  Sr16  1  0.27296937  0.03991123  0.54499920  1
  Sr  Sr17  1  0.00508797  0.46008877  0.23305814  1
  Sr  Sr18  1  0.26694186  0.99491203  0.03991123  1
  Sr  Sr19  1  0.50508797  0.77202983  0.04499920  1
  Sr  Sr20  1  0.77202983  0.54499920  0.00508797  1
  Sr  Sr21  1  0.73305814  0.00508797  0.96008877  1
  Sr  Sr22  1  0.99491203  0.53991123  0.76694186  1
  Sr  Sr23  1  0.04499920  0.27296937  0.53991123  1
  N  N24  1  0.29443523  0.25000000  0.04443523  1
  N  N25  1  0.25000000  0.04443523  0.29443523  1
  N  N26  1  0.04443523  0.79443523  0.75000000  1
  N  N27  1  0.95556477  0.20556477  0.25000000  1
  N  N28  1  0.20556477  0.75000000  0.45556477  1
  N  N29  1  0.70556477  0.75000000  0.95556477  1
  N  N30  1  0.79443523  0.25000000  0.54443523  1
  N  N31  1  0.54443523  0.29443523  0.75000000  1
  N  N32  1  0.25000000  0.54443523  0.79443523  1
  N  N33  1  0.45556477  0.70556477  0.25000000  1
  N  N34  1  0.50000000  0.50000000  0.50000000  1
  N  N35  1  0.00000000  0.50000000  -0.00000000  1
  N  N36  1  0.75000000  0.95556477  0.70556477  1
  N  N37  1  0.75000000  0.45556477  0.20556477  1
  N  N38  1  0.50000000  0.00000000  0.00000000  1
  N  N39  1  -0.00000000  -0.00000000  0.50000000  1
