# generated using pymatgen
data_Ag2HgS2
_symmetry_space_group_name_H-M   'P 1'
_cell_length_a   4.19811187
_cell_length_b   6.82305316
_cell_length_c   7.98014748
_cell_angle_alpha   90.00000000
_cell_angle_beta   90.00000000
_cell_angle_gamma   110.23906783
_symmetry_Int_Tables_number   1
_chemical_formula_structural   Ag2HgS2
_chemical_formula_sum   'Ag4 Hg2 S4'
_cell_volume   214.46955943
_cell_formula_units_Z   2
loop_
 _symmetry_equiv_pos_site_id
 _symmetry_equiv_pos_as_xyz
  1  'x, y, z'
loop_
 _atom_site_type_symbol
 _atom_site_label
 _atom_site_symmetry_multiplicity
 _atom_site_fract_x
 _atom_site_fract_y
 _atom_site_fract_z
 _atom_site_occupancy
  S  S0  1  0.81007676  0.26529298  0.87522310  1
  S  S1  1  0.18992324  0.23470702  0.37522310  1
  S  S2  1  0.18992324  0.73470702  0.12477690  1
  S  S3  1  0.81007676  0.76529298  0.62477690  1
  Ag  Ag4  1  0.61956909  0.40234632  0.15009909  1
  Ag  Ag5  1  0.38043091  0.09765368  0.65009909  1
  Ag  Ag6  1  0.61956909  0.90234632  0.34990091  1
  Ag  Ag7  1  0.38043091  0.59765368  0.84990091  1
  Hg  Hg8  1  0.00000000  0.50000000  0.50000000  1
  Hg  Hg9  1  0.00000000  0.00000000  0.00000000  1
