# generated using pymatgen
data_Y4GaCo4
_symmetry_space_group_name_H-M   'P 1'
_cell_length_a   4.07153946
_cell_length_b   5.47835634
_cell_length_c   8.92634565
_cell_angle_alpha   108.88214642
_cell_angle_beta   90.00000000
_cell_angle_gamma   111.81446831
_symmetry_Int_Tables_number   1
_chemical_formula_structural   Y4GaCo4
_chemical_formula_sum   'Y4 Ga1 Co4'
_cell_volume   173.25358787
_cell_formula_units_Z   1
loop_
 _symmetry_equiv_pos_site_id
 _symmetry_equiv_pos_as_xyz
  1  'x, y, z'
loop_
 _atom_site_type_symbol
 _atom_site_label
 _atom_site_symmetry_multiplicity
 _atom_site_fract_x
 _atom_site_fract_y
 _atom_site_fract_z
 _atom_site_occupancy
  Co  Co0  1  0.96303820  0.92607640  0.64607153  1
  Co  Co1  1  0.03696180  0.07392360  0.35392847  1
  Co  Co2  1  0.91101895  0.82203791  0.87926135  1
  Co  Co3  1  0.08898105  0.17796209  0.12073865  1
  Ga  Ga4  1  0.50000000  0.00000000  0.50000000  1
  Y  Y5  1  0.25469467  0.50938934  0.66070632  1
  Y  Y6  1  0.74530533  0.49061066  0.33929368  1
  Y  Y7  1  0.60954828  0.21909656  0.88431358  1
  Y  Y8  1  0.39045172  0.78090344  0.11568642  1
