# generated using pymatgen
data_ScGaCo2
_symmetry_space_group_name_H-M   'P 1'
_cell_length_a   4.23784697
_cell_length_b   4.23781758
_cell_length_c   4.23783448
_cell_angle_alpha   59.99983336
_cell_angle_beta   59.99996109
_cell_angle_gamma   59.99993399
_symmetry_Int_Tables_number   1
_chemical_formula_structural   ScGaCo2
_chemical_formula_sum   'Sc1 Ga1 Co2'
_cell_volume   53.81652225
_cell_formula_units_Z   1
loop_
 _symmetry_equiv_pos_site_id
 _symmetry_equiv_pos_as_xyz
  1  'x, y, z'
loop_
 _atom_site_type_symbol
 _atom_site_label
 _atom_site_symmetry_multiplicity
 _atom_site_fract_x
 _atom_site_fract_y
 _atom_site_fract_z
 _atom_site_occupancy
  Sc  Sc0  1  0.75000091  0.75000044  0.74999897  1
  Ga  Ga1  1  0.24999907  0.24999930  0.24999957  1
  Co  Co2  1  0.50000020  0.50000066  0.50000101  1
  Co  Co3  1  0.99999982  0.99999960  0.00000046  1
