# generated using pymatgen
data_Ni2As2O7
_symmetry_space_group_name_H-M   'P 1'
_cell_length_a   4.83246805
_cell_length_b   5.40723800
_cell_length_c   5.40723782
_cell_angle_alpha   106.85421330
_cell_angle_beta   96.83799282
_cell_angle_gamma   96.83795805
_symmetry_Int_Tables_number   1
_chemical_formula_structural   Ni2As2O7
_chemical_formula_sum   'Ni2 As2 O7'
_cell_volume   132.49650362
_cell_formula_units_Z   1
loop_
 _symmetry_equiv_pos_site_id
 _symmetry_equiv_pos_as_xyz
  1  'x, y, z'
loop_
 _atom_site_type_symbol
 _atom_site_label
 _atom_site_symmetry_multiplicity
 _atom_site_fract_x
 _atom_site_fract_y
 _atom_site_fract_z
 _atom_site_occupancy
  O  O0  1  0.28978978  0.92988934  0.59394664  1
  O  O1  1  0.71021048  0.40605344  0.07011030  1
  O  O2  1  0.71020996  0.07010950  0.40605303  1
  O  O3  1  0.28978962  0.59394738  0.92988997  1
  O  O4  1  0.00000000  0.00000000  0.00000000  1
  O  O5  1  0.22707044  0.40829806  0.40829849  1
  O  O6  1  0.77292930  0.59170078  0.59170119  1
  Ni  Ni7  1  0.50000010  0.68808741  0.31191283  1
  Ni  Ni8  1  0.50000000  0.31191341  0.68808744  1
  As  As9  1  0.10350950  0.75749541  0.75749623  1
  As  As10  1  0.89649024  0.24250344  0.24250345  1
