# generated using pymatgen
data_KY2Ti2S2O5
_symmetry_space_group_name_H-M   'P 1'
_cell_length_a   3.73444421
_cell_length_b   3.73444421
_cell_length_c   15.01416546
_cell_angle_alpha   90.00000000
_cell_angle_beta   90.00000000
_cell_angle_gamma   90.00000000
_symmetry_Int_Tables_number   1
_chemical_formula_structural   KY2Ti2S2O5
_chemical_formula_sum   'K1 Y2 Ti2 S2 O5'
_cell_volume   209.38865591
_cell_formula_units_Z   1
loop_
 _symmetry_equiv_pos_site_id
 _symmetry_equiv_pos_as_xyz
  1  'x, y, z'
loop_
 _atom_site_type_symbol
 _atom_site_label
 _atom_site_symmetry_multiplicity
 _atom_site_fract_x
 _atom_site_fract_y
 _atom_site_fract_z
 _atom_site_occupancy
  O  O0  1  0.50000000  0.00000000  0.83333640  1
  O  O1  1  0.00000000  0.50000000  0.83333640  1
  O  O2  1  0.00000000  0.50000000  0.16666360  1
  O  O3  1  0.00000000  0.00000000  0.00000000  1
  O  O4  1  0.50000000  0.00000000  0.16666360  1
  S  S5  1  0.00000000  0.00000000  0.34964589  1
  S  S6  1  0.00000000  0.00000000  0.65035411  1
  K  K7  1  0.50000000  0.50000000  0.50000000  1
  Ti  Ti8  1  0.00000000  0.00000000  0.87886944  1
  Ti  Ti9  1  0.00000000  0.00000000  0.12113056  1
  Y  Y10  1  0.50000000  0.50000000  0.74229603  1
  Y  Y11  1  0.50000000  0.50000000  0.25770397  1
