# generated using pymatgen
data_TlCuO2
_symmetry_space_group_name_H-M   'P 1'
_cell_length_a   5.48564563
_cell_length_b   5.67506915
_cell_length_c   5.85991525
_cell_angle_alpha   118.32538204
_cell_angle_beta   90.00000000
_cell_angle_gamma   90.00000000
_symmetry_Int_Tables_number   1
_chemical_formula_structural   TlCuO2
_chemical_formula_sum   'Tl2 Cu2 O4'
_cell_volume   160.58492903
_cell_formula_units_Z   2
loop_
 _symmetry_equiv_pos_site_id
 _symmetry_equiv_pos_as_xyz
  1  'x, y, z'
loop_
 _atom_site_type_symbol
 _atom_site_label
 _atom_site_symmetry_multiplicity
 _atom_site_fract_x
 _atom_site_fract_y
 _atom_site_fract_z
 _atom_site_occupancy
  Tl  Tl0  1  0.25000000  0.69526508  0.85927951  1
  Tl  Tl1  1  0.75000000  0.30473492  0.14072049  1
  Cu  Cu2  1  0.75000000  0.98813019  0.49470040  1
  Cu  Cu3  1  0.25000000  0.01186981  0.50529960  1
  O  O4  1  0.50003780  0.99998107  0.28688358  1
  O  O5  1  0.49996220  0.00001893  0.71311642  1
  O  O6  1  0.00003780  0.00001893  0.71311642  1
  O  O7  1  0.99996220  0.99998107  0.28688358  1
