# generated using pymatgen
data_MoO3
_symmetry_space_group_name_H-M   'P 1'
_cell_length_a   3.75499690
_cell_length_b   3.92140897
_cell_length_c   15.49706950
_cell_angle_alpha   90.00000000
_cell_angle_beta   90.00000000
_cell_angle_gamma   90.00000000
_symmetry_Int_Tables_number   1
_chemical_formula_structural   MoO3
_chemical_formula_sum   'Mo4 O12'
_cell_volume   228.19246590
_cell_formula_units_Z   4
loop_
 _symmetry_equiv_pos_site_id
 _symmetry_equiv_pos_as_xyz
  1  'x, y, z'
loop_
 _atom_site_type_symbol
 _atom_site_label
 _atom_site_symmetry_multiplicity
 _atom_site_fract_x
 _atom_site_fract_y
 _atom_site_fract_z
 _atom_site_occupancy
  O  O0  1  0.25000100  0.46922612  0.70580031  1
  O  O1  1  0.75000000  0.53077288  0.29420069  1
  O  O2  1  0.75000000  0.96922612  0.79420069  1
  O  O3  1  0.25000100  0.03077388  0.20580031  1
  O  O4  1  0.25000100  0.50144827  0.43845837  1
  O  O5  1  0.75000000  0.49855173  0.56154263  1
  O  O6  1  0.75000000  1.00144827  0.06154263  1
  O  O7  1  0.25000100  -0.00144827  0.93845737  1
  O  O8  1  0.25000100  0.98151456  0.58195498  1
  O  O9  1  0.75000000  0.48151456  0.91804402  1
  O  O10  1  0.75000000  0.01848544  0.41804402  1
  O  O11  1  0.25000100  0.51848544  0.08195498  1
  Mo  Mo12  1  0.25000100  0.43523009  0.59649409  1
  Mo  Mo13  1  0.75000000  0.56476991  0.40350591  1
  Mo  Mo14  1  0.75000000  0.93523009  0.90350591  1
  Mo  Mo15  1  0.25000100  0.06476991  0.09649409  1
