# generated using pymatgen
data_Yb3Si5
_symmetry_space_group_name_H-M   'P 1'
_cell_length_a   6.90922893
_cell_length_b   6.90922892
_cell_length_c   4.23870790
_cell_angle_alpha   90.00000000
_cell_angle_beta   90.00000000
_cell_angle_gamma   119.99999998
_symmetry_Int_Tables_number   1
_chemical_formula_structural   Yb3Si5
_chemical_formula_sum   'Yb3 Si5'
_cell_volume   175.23598186
_cell_formula_units_Z   1
loop_
 _symmetry_equiv_pos_site_id
 _symmetry_equiv_pos_as_xyz
  1  'x, y, z'
loop_
 _atom_site_type_symbol
 _atom_site_label
 _atom_site_symmetry_multiplicity
 _atom_site_fract_x
 _atom_site_fract_y
 _atom_site_fract_z
 _atom_site_occupancy
  Si  Si0  1  0.66666667  0.33333333  0.50000000  1
  Si  Si1  1  0.33333333  0.66666667  0.50000000  1
  Si  Si2  1  0.00000000  0.31773379  0.50000000  1
  Si  Si3  1  0.31773379  0.00000000  0.50000000  1
  Si  Si4  1  0.68226621  0.68226621  0.50000000  1
  Yb  Yb5  1  0.00000000  0.66406738  0.00000000  1
  Yb  Yb6  1  0.33593262  0.33593262  0.00000000  1
  Yb  Yb7  1  0.66406738  0.00000000  0.00000000  1
