# generated using pymatgen
data_Li3(CuO2)2
_symmetry_space_group_name_H-M   'P 1'
_cell_length_a   5.27822484
_cell_length_b   5.27822483
_cell_length_c   10.56642089
_cell_angle_alpha   138.41248627
_cell_angle_beta   149.02666805
_cell_angle_gamma   52.63675933
_symmetry_Int_Tables_number   1
_chemical_formula_structural   Li3(CuO2)2
_chemical_formula_sum   'Li3 Cu2 O4'
_cell_volume   100.04675038
_cell_formula_units_Z   1
loop_
 _symmetry_equiv_pos_site_id
 _symmetry_equiv_pos_as_xyz
  1  'x, y, z'
loop_
 _atom_site_type_symbol
 _atom_site_label
 _atom_site_symmetry_multiplicity
 _atom_site_fract_x
 _atom_site_fract_y
 _atom_site_fract_z
 _atom_site_occupancy
  Li  Li0  1  0.28705012  0.78705012  0.75000000  1
  Li  Li1  1  0.28449377  0.78449377  0.25000000  1
  Li  Li2  1  0.70860586  0.20860586  0.75000000  1
  O  O3  1  0.33988949  0.36430863  0.98473671  1
  O  O4  1  0.63023616  0.60583066  0.98087366  1
  O  O5  1  0.64408333  0.66848884  0.51912634  1
  O  O6  1  0.39483521  0.37041606  0.51526329  1
  Cu  Cu7  1  0.00515988  0.50515988  0.75000000  1
  Cu  Cu8  1  0.99864619  0.49864619  0.25000000  1
