# generated using pymatgen
data_Al2O3
_symmetry_space_group_name_H-M   'P 1'
_cell_length_a   16.85338081
_cell_length_b   5.65743858
_cell_length_c   5.65743507
_cell_angle_alpha   90.05237393
_cell_angle_beta   60.44602956
_cell_angle_gamma   59.14324996
_symmetry_Int_Tables_number   1
_chemical_formula_structural   Al2O3
_chemical_formula_sum   'Al16 O24'
_cell_volume   378.81991002
_cell_formula_units_Z   8
loop_
 _symmetry_equiv_pos_site_id
 _symmetry_equiv_pos_as_xyz
  1  'x, y, z'
loop_
 _atom_site_type_symbol
 _atom_site_label
 _atom_site_symmetry_multiplicity
 _atom_site_fract_x
 _atom_site_fract_y
 _atom_site_fract_z
 _atom_site_occupancy
  Al  Al0  1  0.99999998  0.00103804  0.00103833  1
  Al  Al1  1  0.09192442  0.34411281  0.10590085  1
  Al  Al2  1  0.09008214  0.34708608  0.61587167  1
  Al  Al3  1  0.33207489  0.01839797  0.00621882  1
  Al  Al4  1  0.16792511  0.73160203  0.24378118  1
  Al  Al5  1  0.25000000  0.37500000  0.62500000  1
  Al  Al6  1  0.40807558  0.40588719  0.14409915  1
  Al  Al7  1  0.40991786  0.40291392  0.63412833  1
  Al  Al8  1  0.66792492  0.00244382  0.01462268  1
  Al  Al9  1  0.50000002  0.74896196  0.24896167  1
  Al  Al10  1  0.59192442  0.36832575  0.63011389  1
  Al  Al11  1  0.75000000  0.37500000  0.12500000  1
  Al  Al12  1  0.59008207  0.86388207  0.63266767  1
  Al  Al13  1  0.83207508  0.74755618  0.23537732  1
  Al  Al14  1  0.90807558  0.38167425  0.61988611  1
  Al  Al15  1  0.90991793  0.88611793  0.61733233  1
  O  O16  1  0.08088226  0.13689994  0.37621211  1
  O  O17  1  0.07345842  0.16015436  0.88725804  1
  O  O18  1  0.07492055  0.61084115  0.38492175  1
  O  O19  1  0.24484365  0.15199655  0.38799200  1
  O  O20  1  0.08639513  0.60047917  0.86759285  1
  O  O21  1  0.25458112  0.59775276  0.37077931  1
  O  O22  1  0.24541888  0.15224724  0.87922069  1
  O  O23  1  0.41360487  0.14952083  0.38240715  1
  O  O24  1  0.25515635  0.59800345  0.86200800  1
  O  O25  1  0.42507945  0.13915885  0.86507825  1
  O  O26  1  0.42654158  0.58984564  0.36274196  1
  O  O27  1  0.57492054  0.14031680  0.41439718  1
  O  O28  1  0.41911774  0.61310006  0.87378789  1
  O  O29  1  0.58639514  0.62322175  0.39033539  1
  O  O30  1  0.58088210  0.13114133  0.87045349  1
  O  O31  1  0.74541877  0.13452302  0.36149622  1
  O  O32  1  0.57345839  0.64236657  0.86947039  1
  O  O33  1  0.75515650  0.12252312  0.88652718  1
  O  O34  1  0.74484350  0.62747688  0.36347282  1
  O  O35  1  0.92654161  0.10763343  0.38052961  1
  O  O36  1  0.75458123  0.61547698  0.88850378  1
  O  O37  1  0.91911790  0.61885867  0.37954651  1
  O  O38  1  0.91360486  0.12677825  0.85966461  1
  O  O39  1  0.92507946  0.60968320  0.83560282  1
