# generated using pymatgen
data_CrP2S7
_symmetry_space_group_name_H-M   'P 1'
_cell_length_a   6.39283522
_cell_length_b   6.39283522
_cell_length_c   6.53536940
_cell_angle_alpha   85.15752695
_cell_angle_beta   94.84247305
_cell_angle_gamma   84.25065756
_symmetry_Int_Tables_number   1
_chemical_formula_structural   CrP2S7
_chemical_formula_sum   'Cr1 P2 S7'
_cell_volume   263.63318648
_cell_formula_units_Z   1
loop_
 _symmetry_equiv_pos_site_id
 _symmetry_equiv_pos_as_xyz
  1  'x, y, z'
loop_
 _atom_site_type_symbol
 _atom_site_label
 _atom_site_symmetry_multiplicity
 _atom_site_fract_x
 _atom_site_fract_y
 _atom_site_fract_z
 _atom_site_occupancy
  Cr  Cr0  1  0.49310873  0.49310873  0.00000000  1
  P  P1  1  0.04484728  0.65353850  0.07664009  1
  P  P2  1  0.65353850  0.04484728  0.92335991  1
  S  S3  1  0.14805276  0.51116445  0.82993164  1
  S  S4  1  0.52699525  0.81146729  0.78110099  1
  S  S5  1  0.31566236  0.63021910  0.27145928  1
  S  S6  1  0.98444427  0.98444427  0.00000000  1
  S  S7  1  0.63021910  0.31566236  0.72854072  1
  S  S8  1  0.81146729  0.52699525  0.21889901  1
  S  S9  1  0.51116445  0.14805276  0.17006836  1
