# generated using pymatgen
data_Li(CoO2)2
_symmetry_space_group_name_H-M   'P 1'
_cell_length_a   5.65150728
_cell_length_b   4.84895486
_cell_length_c   10.13498802
_cell_angle_alpha   90.01161043
_cell_angle_beta   89.91340618
_cell_angle_gamma   90.05952978
_symmetry_Int_Tables_number   1
_chemical_formula_structural   Li(CoO2)2
_chemical_formula_sum   'Li4 Co8 O16'
_cell_volume   277.73776291
_cell_formula_units_Z   4
loop_
 _symmetry_equiv_pos_site_id
 _symmetry_equiv_pos_as_xyz
  1  'x, y, z'
loop_
 _atom_site_type_symbol
 _atom_site_label
 _atom_site_symmetry_multiplicity
 _atom_site_fract_x
 _atom_site_fract_y
 _atom_site_fract_z
 _atom_site_occupancy
  Li  Li0  1  0.37680341  0.89392080  0.24858686  1
  Li  Li1  1  0.37531600  0.60728213  0.75036754  1
  Li  Li2  1  0.87445724  0.39387489  0.25041085  1
  Li  Li3  1  0.87332214  0.10697859  0.74867664  1
  Co  Co4  1  0.00129502  0.99601521  0.00409172  1
  Co  Co5  1  0.99924490  0.50310981  0.50373945  1
  Co  Co6  1  0.24948483  0.49724141  0.00285781  1
  Co  Co7  1  0.25083961  0.00304710  0.50366042  1
  Co  Co8  1  0.50047971  0.00277402  0.99705639  1
  Co  Co9  1  0.50010979  0.49670876  0.49683341  1
  Co  Co10  1  0.74985798  0.99667951  0.49677318  1
  Co  Co11  1  0.74875906  0.50396882  0.99584726  1
  O  O12  1  0.00195421  0.17541406  0.40440100  1
  O  O13  1  0.99555649  0.66038130  0.09923033  1
  O  O14  1  0.99833413  0.32450011  0.90425597  1
  O  O15  1  0.00066614  0.83894014  0.59942679  1
  O  O16  1  0.24847903  0.15496307  0.09923265  1
  O  O17  1  0.24844606  0.67538822  0.40432627  1
  O  O18  1  0.24683637  0.83097438  0.90422903  1
  O  O19  1  0.24881272  0.33878966  0.59956595  1
  O  O20  1  0.50148007  0.34507291  0.90067749  1
  O  O21  1  0.49804030  0.83083604  0.59599739  1
  O  O22  1  0.49429642  0.15409422  0.40077456  1
  O  O23  1  0.50319603  0.66896318  0.09576604  1
  O  O24  1  0.75159676  0.33100114  0.59593885  1
  O  O25  1  0.75629989  0.65407702  0.40088661  1
  O  O26  1  0.75163692  0.17544777  0.09579732  1
  O  O27  1  0.75439877  0.83955574  0.90059223  1
