# generated using pymatgen
data_Sn4Bi2Se7
_symmetry_space_group_name_H-M   'P 1'
_cell_length_a   29.77236733
_cell_length_b   11.28975964
_cell_length_c   7.42851258
_cell_angle_alpha   29.15147492
_cell_angle_beta   30.09465148
_cell_angle_gamma   18.98234269
_symmetry_Int_Tables_number   1
_chemical_formula_structural   Sn4Bi2Se7
_chemical_formula_sum   'Sn4 Bi2 Se7'
_cell_volume   383.23144105
_cell_formula_units_Z   1
loop_
 _symmetry_equiv_pos_site_id
 _symmetry_equiv_pos_as_xyz
  1  'x, y, z'
loop_
 _atom_site_type_symbol
 _atom_site_label
 _atom_site_symmetry_multiplicity
 _atom_site_fract_x
 _atom_site_fract_y
 _atom_site_fract_z
 _atom_site_occupancy
  Sn  Sn0  1  0.26641927  0.04115832  0.01162830  1
  Sn  Sn1  1  0.43908134  0.98016985  0.98597504  1
  Sn  Sn2  1  0.56092411  0.01982598  0.01401636  1
  Sn  Sn3  1  0.73357956  0.95884324  0.98837375  1
  Bi  Bi4  1  0.14482783  -0.00179336  0.99164130  1
  Bi  Bi5  1  0.85517404  0.00178950  0.00835595  1
  Se  Se6  1  0.13426695  0.51174147  0.52429251  1
  Se  Se7  1  0.28904301  0.50258985  0.46881530  1
  Se  Se8  1  0.42903827  0.49407499  0.51387510  1
  Se  Se9  1  0.57095890  0.50593173  0.48612682  1
  Se  Se10  1  0.71095586  0.49741238  0.53118481  1
  Se  Se11  1  0.86573295  0.48825820  0.47570698  1
  Se  Se12  1  -0.00000210  0.49999785  0.50000780  1
