# generated using pymatgen
data_VOF
_symmetry_space_group_name_H-M   'P 1'
_cell_length_a   7.23801819
_cell_length_b   5.25504521
_cell_length_c   3.30761762
_cell_angle_alpha   90.00000000
_cell_angle_beta   90.00000000
_cell_angle_gamma   90.00000000
_symmetry_Int_Tables_number   1
_chemical_formula_structural   VOF
_chemical_formula_sum   'V4 O4 F4'
_cell_volume   125.80891696
_cell_formula_units_Z   4
loop_
 _symmetry_equiv_pos_site_id
 _symmetry_equiv_pos_as_xyz
  1  'x, y, z'
loop_
 _atom_site_type_symbol
 _atom_site_label
 _atom_site_symmetry_multiplicity
 _atom_site_fract_x
 _atom_site_fract_y
 _atom_site_fract_z
 _atom_site_occupancy
  V  V0  1  0.15520939  0.86641958  0.75000000  1
  V  V1  1  0.34479061  0.36641958  0.25000000  1
  V  V2  1  0.65520939  0.63358042  0.75000000  1
  V  V3  1  0.84479061  0.13358042  0.25000000  1
  O  O4  1  0.12587039  0.10315789  0.25000000  1
  O  O5  1  0.37412961  0.60315789  0.75000000  1
  O  O6  1  0.62587039  0.39684211  0.25000000  1
  O  O7  1  0.87412961  0.89684211  0.75000000  1
  F  F8  1  0.11548637  0.61830360  0.25000000  1
  F  F9  1  0.38451363  0.11830360  0.75000000  1
  F  F10  1  0.61548637  0.88169640  0.25000000  1
  F  F11  1  0.88451363  0.38169640  0.75000000  1
