# generated using pymatgen
data_MoCl3
_symmetry_space_group_name_H-M   'P 1'
_cell_length_a   5.92012476
_cell_length_b   5.92012476
_cell_length_c   6.95977984
_cell_angle_alpha   99.19981630
_cell_angle_beta   99.19981634
_cell_angle_gamma   115.90891367
_symmetry_Int_Tables_number   1
_chemical_formula_structural   MoCl3
_chemical_formula_sum   'Mo2 Cl6'
_cell_volume   209.21111965
_cell_formula_units_Z   2
loop_
 _symmetry_equiv_pos_site_id
 _symmetry_equiv_pos_as_xyz
  1  'x, y, z'
loop_
 _atom_site_type_symbol
 _atom_site_label
 _atom_site_symmetry_multiplicity
 _atom_site_fract_x
 _atom_site_fract_y
 _atom_site_fract_z
 _atom_site_occupancy
  Cl  Cl0  1  0.23184654  0.23184654  0.24912346  1
  Cl  Cl1  1  0.76815346  0.76815346  0.75087654  1
  Cl  Cl2  1  0.09224808  0.43310148  0.80146842  1
  Cl  Cl3  1  0.56689852  0.90775192  0.19853158  1
  Cl  Cl4  1  0.90775192  0.56689852  0.19853158  1
  Cl  Cl5  1  0.43310148  0.09224808  0.80146842  1
  Mo  Mo6  1  0.14631761  0.85368239  0.00000000  1
  Mo  Mo7  1  0.85368239  0.14631761  0.00000000  1
