# generated using pymatgen
data_MgCu
_symmetry_space_group_name_H-M   'P 1'
_cell_length_a   3.10906167
_cell_length_b   4.48726809
_cell_length_c   4.46406543
_cell_angle_alpha   90.02542487
_cell_angle_beta   90.03410289
_cell_angle_gamma   90.04482716
_symmetry_Int_Tables_number   1
_chemical_formula_structural   MgCu
_chemical_formula_sum   'Mg2 Cu2'
_cell_volume   62.27900321
_cell_formula_units_Z   2
loop_
 _symmetry_equiv_pos_site_id
 _symmetry_equiv_pos_as_xyz
  1  'x, y, z'
loop_
 _atom_site_type_symbol
 _atom_site_label
 _atom_site_symmetry_multiplicity
 _atom_site_fract_x
 _atom_site_fract_y
 _atom_site_fract_z
 _atom_site_occupancy
  Mg  Mg0  1  0.49998780  0.56944190  -0.00000906  1
  Mg  Mg1  1  0.50000783  0.09726046  0.50000714  1
  Cu  Cu2  1  0.00000896  0.05825703  0.00001267  1
  Cu  Cu3  1  -0.00000558  0.60837360  0.49998825  1
