# generated using pymatgen
data_MgNb2(PbO3)3
_symmetry_space_group_name_H-M   'P 1'
_cell_length_a   4.12712504
_cell_length_b   12.34719896
_cell_length_c   5.78465435
_cell_angle_alpha   45.15723061
_cell_angle_beta   89.65032785
_cell_angle_gamma   90.09706230
_symmetry_Int_Tables_number   1
_chemical_formula_structural   MgNb2(PbO3)3
_chemical_formula_sum   'Mg1 Nb2 Pb3 O9'
_cell_volume   208.99860423
_cell_formula_units_Z   1
loop_
 _symmetry_equiv_pos_site_id
 _symmetry_equiv_pos_as_xyz
  1  'x, y, z'
loop_
 _atom_site_type_symbol
 _atom_site_label
 _atom_site_symmetry_multiplicity
 _atom_site_fract_x
 _atom_site_fract_y
 _atom_site_fract_z
 _atom_site_occupancy
  Mg  Mg0  1  0.48223147  -0.00659820  0.49373975  1
  Nb  Nb1  1  0.45258204  0.65192918  0.51648444  1
  Nb  Nb2  1  0.52152749  0.33148135  0.50049881  1
  Pb  Pb3  1  -0.00348371  0.27122662  0.08486580  1
  Pb  Pb4  1  -0.05168930  0.71296587  0.91202391  1
  Pb  Pb5  1  0.89809818  0.98476857  0.97299587  1
  O  O6  1  0.49668069  0.17827473  -0.01795302  1
  O  O7  1  0.51780869  0.82126024  0.02256246  1
  O  O8  1  0.49679362  0.49468190  0.00083145  1
  O  O9  1  0.50358862  0.17053926  0.50069774  1
  O  O10  1  0.49668021  0.49995256  0.49164267  1
  O  O11  1  0.51535184  0.81644427  0.51464642  1
  O  O12  1  0.99413452  0.33202512  0.49843061  1
  O  O13  1  -0.00550958  0.66228325  0.50092584  1
  O  O14  1  0.98862524  -0.00413373  0.52581624  1
