# generated using pymatgen
data_CuSeO3
_symmetry_space_group_name_H-M   'P 1'
_cell_length_a   5.47677625
_cell_length_b   6.15155066
_cell_length_c   7.30675774
_cell_angle_alpha   90.00000000
_cell_angle_beta   90.00000000
_cell_angle_gamma   90.00000000
_symmetry_Int_Tables_number   1
_chemical_formula_structural   CuSeO3
_chemical_formula_sum   'Cu4 Se4 O12'
_cell_volume   246.16953862
_cell_formula_units_Z   4
loop_
 _symmetry_equiv_pos_site_id
 _symmetry_equiv_pos_as_xyz
  1  'x, y, z'
loop_
 _atom_site_type_symbol
 _atom_site_label
 _atom_site_symmetry_multiplicity
 _atom_site_fract_x
 _atom_site_fract_y
 _atom_site_fract_z
 _atom_site_occupancy
  O  O0  1  0.91521345  0.20593382  0.43244102  1
  O  O1  1  0.41521345  0.29406618  0.56755898  1
  O  O2  1  0.58478655  0.70593382  0.06755898  1
  O  O3  1  0.08478655  0.79406618  0.93244102  1
  O  O4  1  0.08478655  0.79406618  0.56755898  1
  O  O5  1  0.58478655  0.70593382  0.43244102  1
  O  O6  1  0.41521345  0.29406618  0.93244102  1
  O  O7  1  0.91521345  0.20593382  0.06755898  1
  O  O8  1  0.33469720  0.07134448  0.25000000  1
  O  O9  1  0.83469720  0.42865552  0.75000000  1
  O  O10  1  0.16530280  0.57134448  0.25000000  1
  O  O11  1  0.66530280  0.92865552  0.75000000  1
  Cu  Cu12  1  0.50000000  0.00000000  0.00000000  1
  Cu  Cu13  1  0.00000000  0.50000000  0.00000000  1
  Cu  Cu14  1  0.00000000  0.50000000  0.50000000  1
  Cu  Cu15  1  0.50000000  0.00000000  0.50000000  1
  Se  Se16  1  0.00867328  0.04562470  0.25000000  1
  Se  Se17  1  0.50867328  0.45437530  0.75000000  1
  Se  Se18  1  0.49132672  0.54562470  0.25000000  1
  Se  Se19  1  0.99132672  0.95437530  0.75000000  1
