# generated using pymatgen
data_CaTe
_symmetry_space_group_name_H-M   'P 1'
_cell_length_a   4.48236901
_cell_length_b   7.66067740
_cell_length_c   7.71069655
_cell_angle_alpha   90.00000000
_cell_angle_beta   90.00000000
_cell_angle_gamma   90.00000000
_symmetry_Int_Tables_number   1
_chemical_formula_structural   CaTe
_chemical_formula_sum   'Ca4 Te4'
_cell_volume   264.76976685
_cell_formula_units_Z   4
loop_
 _symmetry_equiv_pos_site_id
 _symmetry_equiv_pos_as_xyz
  1  'x, y, z'
loop_
 _atom_site_type_symbol
 _atom_site_label
 _atom_site_symmetry_multiplicity
 _atom_site_fract_x
 _atom_site_fract_y
 _atom_site_fract_z
 _atom_site_occupancy
  Ca  Ca0  1  0.25000000  0.49827739  0.75265478  1
  Ca  Ca1  1  0.75000000  0.50172261  0.24734522  1
  Ca  Ca2  1  0.25000000  0.99827739  0.74734522  1
  Ca  Ca3  1  0.75000000  0.00172261  0.25265478  1
  Te  Te4  1  0.25000000  0.75234129  0.08353494  1
  Te  Te5  1  0.75000000  0.24765871  0.91646506  1
  Te  Te6  1  0.25000000  0.25234129  0.41646506  1
  Te  Te7  1  0.75000000  0.74765871  0.58353494  1
