# generated using pymatgen
data_Li2(NiO2)3
_symmetry_space_group_name_H-M   'P 1'
_cell_length_a   5.12169150
_cell_length_b   4.96731056
_cell_length_c   4.97210251
_cell_angle_alpha   59.96807703
_cell_angle_beta   70.86784857
_cell_angle_gamma   80.55898430
_symmetry_Int_Tables_number   1
_chemical_formula_structural   Li2(NiO2)3
_chemical_formula_sum   'Li2 Ni3 O6'
_cell_volume   103.46405731
_cell_formula_units_Z   1
loop_
 _symmetry_equiv_pos_site_id
 _symmetry_equiv_pos_as_xyz
  1  'x, y, z'
loop_
 _atom_site_type_symbol
 _atom_site_label
 _atom_site_symmetry_multiplicity
 _atom_site_fract_x
 _atom_site_fract_y
 _atom_site_fract_z
 _atom_site_occupancy
  Li  Li0  1  0.00000000  0.65848212  0.67075894  1
  Li  Li1  1  0.00000000  0.34151788  0.32924106  1
  Ni  Ni2  1  0.50000000  0.32993886  0.83503107  1
  Ni  Ni3  1  0.50000000  0.00000000  0.50000000  1
  Ni  Ni4  1  0.50000000  0.67006114  0.16496893  1
  O  O5  1  0.70329021  0.00000000  0.75512823  1
  O  O6  1  0.71537224  0.64410860  0.44791498  1
  O  O7  1  0.71537224  0.35589140  0.09202358  1
  O  O8  1  0.28462776  0.64410860  0.90797642  1
  O  O9  1  0.28462776  0.35589140  0.55208502  1
  O  O10  1  0.29670979  1.00000000  0.24487177  1
