# generated using pymatgen
data_ZnGeO3
_symmetry_space_group_name_H-M   'P 1'
_cell_length_a   5.52456297
_cell_length_b   5.52456297
_cell_length_c   5.52456297
_cell_angle_alpha   54.33987559
_cell_angle_beta   54.33987561
_cell_angle_gamma   54.33987571
_symmetry_Int_Tables_number   1
_chemical_formula_structural   ZnGeO3
_chemical_formula_sum   'Zn2 Ge2 O6'
_cell_volume   103.48546107
_cell_formula_units_Z   2
loop_
 _symmetry_equiv_pos_site_id
 _symmetry_equiv_pos_as_xyz
  1  'x, y, z'
loop_
 _atom_site_type_symbol
 _atom_site_label
 _atom_site_symmetry_multiplicity
 _atom_site_fract_x
 _atom_site_fract_y
 _atom_site_fract_z
 _atom_site_occupancy
  O  O0  1  0.04637164  0.78581768  0.43906744  1
  O  O1  1  0.78581768  0.43906744  0.04637164  1
  O  O2  1  0.43906744  0.04637164  0.78581768  1
  O  O3  1  0.95362836  0.21418232  0.56093256  1
  O  O4  1  0.56093256  0.95362836  0.21418232  1
  O  O5  1  0.21418232  0.56093256  0.95362836  1
  Zn  Zn6  1  0.36836690  0.36836690  0.36836690  1
  Zn  Zn7  1  0.63163310  0.63163310  0.63163310  1
  Ge  Ge8  1  0.15634686  0.15634686  0.15634686  1
  Ge  Ge9  1  0.84365314  0.84365314  0.84365314  1
