# generated using pymatgen
data_Zr2Al4C5
_symmetry_space_group_name_H-M   'P 1'
_cell_length_a   3.35838492
_cell_length_b   3.35838492
_cell_length_c   13.87383812
_cell_angle_alpha   83.04827551
_cell_angle_beta   83.04827551
_cell_angle_gamma   60.00000117
_symmetry_Int_Tables_number   1
_chemical_formula_structural   Zr2Al4C5
_chemical_formula_sum   'Zr2 Al4 C5'
_cell_volume   134.18529244
_cell_formula_units_Z   1
loop_
 _symmetry_equiv_pos_site_id
 _symmetry_equiv_pos_as_xyz
  1  'x, y, z'
loop_
 _atom_site_type_symbol
 _atom_site_label
 _atom_site_symmetry_multiplicity
 _atom_site_fract_x
 _atom_site_fract_y
 _atom_site_fract_z
 _atom_site_occupancy
  Zr  Zr0  1  0.37004020  0.37004020  0.88987940  1
  Zr  Zr1  1  0.10270212  0.10270212  0.69189364  1
  Al  Al2  1  0.92589834  0.92589834  0.22230499  1
  Al  Al3  1  0.82531737  0.82531737  0.52404790  1
  Al  Al4  1  0.64756526  0.64756526  0.05730423  1
  Al  Al5  1  0.54728161  0.54728161  0.35815516  1
  C  C6  1  0.00253068  0.00253068  0.99240796  1
  C  C7  1  0.87267990  0.87267990  0.38196029  1
  C  C8  1  0.73634009  0.73634009  0.79097972  1
  C  C9  1  0.60027868  0.60027868  0.19916397  1
  C  C10  1  0.47026575  0.47026575  0.58920274  1
