# generated using pymatgen
data_BaNd2CoO5
_symmetry_space_group_name_H-M   'P 1'
_cell_length_a   3.77174976
_cell_length_b   6.01752858
_cell_length_c   7.00801388
_cell_angle_alpha   115.43038533
_cell_angle_beta   105.61075795
_cell_angle_gamma   90.00012843
_symmetry_Int_Tables_number   1
_chemical_formula_structural   BaNd2CoO5
_chemical_formula_sum   'Ba1 Nd2 Co1 O5'
_cell_volume   137.12141218
_cell_formula_units_Z   1
loop_
 _symmetry_equiv_pos_site_id
 _symmetry_equiv_pos_as_xyz
  1  'x, y, z'
loop_
 _atom_site_type_symbol
 _atom_site_label
 _atom_site_symmetry_multiplicity
 _atom_site_fract_x
 _atom_site_fract_y
 _atom_site_fract_z
 _atom_site_occupancy
  O  O0  1  0.35281316  0.59766430  0.70567581  1
  O  O1  1  0.64718683  0.40233494  0.29432342  1
  O  O2  1  0.64717393  0.89198842  0.29432233  1
  O  O3  1  0.35282717  0.10801089  0.70567697  1
  O  O4  1  0.99999976  0.49999996  0.99999971  1
  Co  Co5  1  0.50000059  0.49999993  0.99999964  1
  Ba  Ba6  1  0.00000003  0.00000007  0.99999987  1
  Nd  Nd7  1  0.79631489  0.29638691  0.59275468  1
  Nd  Nd8  1  0.20368539  0.70361231  0.40724464  1
