# generated using pymatgen
data_Ca2SiO4
_symmetry_space_group_name_H-M   'P 1'
_cell_length_a   5.57569945
_cell_length_b   6.81557351
_cell_length_c   9.37991036
_cell_angle_alpha   90.00000000
_cell_angle_beta   94.57359319
_cell_angle_gamma   90.00000000
_symmetry_Int_Tables_number   1
_chemical_formula_structural   Ca2SiO4
_chemical_formula_sum   'Ca8 Si4 O16'
_cell_volume   355.31646695
_cell_formula_units_Z   4
loop_
 _symmetry_equiv_pos_site_id
 _symmetry_equiv_pos_as_xyz
  1  'x, y, z'
loop_
 _atom_site_type_symbol
 _atom_site_label
 _atom_site_symmetry_multiplicity
 _atom_site_fract_x
 _atom_site_fract_y
 _atom_site_fract_z
 _atom_site_occupancy
  O  O0  1  0.85111427  0.83069721  0.07230891  1
  O  O1  1  0.64888573  0.33069721  0.42769109  1
  O  O2  1  0.14888573  0.16930279  0.92769109  1
  O  O3  1  0.35111427  0.66930279  0.57230891  1
  O  O4  1  0.51302307  0.83209295  0.86378231  1
  O  O5  1  0.98697693  0.33209295  0.63621769  1
  O  O6  1  0.48697693  0.16790705  0.13621769  1
  O  O7  1  0.01302307  0.66790705  0.36378231  1
  O  O8  1  0.97612446  0.74872068  0.80440237  1
  O  O9  1  0.52387554  0.24872068  0.69559763  1
  O  O10  1  0.02387554  0.25127932  0.19559763  1
  O  O11  1  0.47612446  0.75127932  0.30440237  1
  O  O12  1  0.21890717  0.01263183  0.44405521  1
  O  O13  1  0.28109283  0.51263183  0.05594479  1
  O  O14  1  0.78109283  0.98736817  0.55594479  1
  O  O15  1  0.71890717  0.48736817  0.94405521  1
  Si  Si16  1  0.76818490  0.71899169  0.91846274  1
  Si  Si17  1  0.73181510  0.21899169  0.58153726  1
  Si  Si18  1  0.23181510  0.28100831  0.08153726  1
  Si  Si19  1  0.26818490  0.78100831  0.41846274  1
  Ca  Ca20  1  0.72135342  0.50331580  0.20251465  1
  Ca  Ca21  1  0.77864658  0.00331580  0.29748535  1
  Ca  Ca22  1  0.27864658  0.49668420  0.79748535  1
  Ca  Ca23  1  0.22135342  0.99668420  0.70251465  1
  Ca  Ca24  1  0.72649852  0.15891595  0.93097378  1
  Ca  Ca25  1  0.77350148  0.65891595  0.56902622  1
  Ca  Ca26  1  0.27350148  0.84108405  0.06902622  1
  Ca  Ca27  1  0.22649852  0.34108405  0.43097378  1
