# generated using pymatgen
data_Cu3SbSe3
_symmetry_space_group_name_H-M   'P 1'
_cell_length_a   6.91620144
_cell_length_b   8.04672596
_cell_length_c   10.58433663
_cell_angle_alpha   90.00000000
_cell_angle_beta   90.00000000
_cell_angle_gamma   90.00000000
_symmetry_Int_Tables_number   1
_chemical_formula_structural   Cu3SbSe3
_chemical_formula_sum   'Cu12 Sb4 Se12'
_cell_volume   589.04773327
_cell_formula_units_Z   4
loop_
 _symmetry_equiv_pos_site_id
 _symmetry_equiv_pos_as_xyz
  1  'x, y, z'
loop_
 _atom_site_type_symbol
 _atom_site_label
 _atom_site_symmetry_multiplicity
 _atom_site_fract_x
 _atom_site_fract_y
 _atom_site_fract_z
 _atom_site_occupancy
  Cu  Cu0  1  0.06613552  0.69182655  0.25000000  1
  Cu  Cu1  1  0.56613552  0.80817345  0.75000000  1
  Cu  Cu2  1  0.93386448  0.30817345  0.75000000  1
  Cu  Cu3  1  0.43386448  0.19182655  0.25000000  1
  Cu  Cu4  1  0.25349487  0.09945421  0.04614685  1
  Cu  Cu5  1  0.75349487  0.40054579  0.95385315  1
  Cu  Cu6  1  0.24650513  0.59945421  0.45385315  1
  Cu  Cu7  1  0.74650513  0.90054579  0.54614685  1
  Cu  Cu8  1  0.74650513  0.90054579  0.95385315  1
  Cu  Cu9  1  0.24650513  0.59945421  0.04614685  1
  Cu  Cu10  1  0.75349487  0.40054579  0.54614685  1
  Cu  Cu11  1  0.25349487  0.09945421  0.45385315  1
  Se  Se12  1  0.34882675  0.84397927  0.93753238  1
  Se  Se13  1  0.84882675  0.65602073  0.06246762  1
  Se  Se14  1  0.65117325  0.15602073  0.43753238  1
  Se  Se15  1  0.15117325  0.34397927  0.56246762  1
  Se  Se16  1  0.14100020  -0.00167069  0.25000000  1
  Se  Se17  1  0.64100020  0.50167069  0.75000000  1
  Se  Se18  1  0.35899980  0.49832931  0.25000000  1
  Se  Se19  1  0.85899980  1.00167069  0.75000000  1
  Se  Se20  1  0.65117325  0.15602073  0.06246762  1
  Se  Se21  1  0.15117325  0.34397927  0.93753238  1
  Se  Se22  1  0.84882675  0.65602073  0.43753238  1
  Se  Se23  1  0.34882675  0.84397927  0.56246762  1
  Sb  Sb24  1  0.10912947  0.75544009  0.75000000  1
  Sb  Sb25  1  0.60912947  0.74455991  0.25000000  1
  Sb  Sb26  1  0.39087053  0.25544009  0.75000000  1
  Sb  Sb27  1  0.89087053  0.24455991  0.25000000  1
