# generated using pymatgen
data_MgZr3
_symmetry_space_group_name_H-M   'P 1'
_cell_length_a   6.36219406
_cell_length_b   6.36219424
_cell_length_c   5.16851605
_cell_angle_alpha   90.00000000
_cell_angle_beta   90.00000000
_cell_angle_gamma   120.00000426
_symmetry_Int_Tables_number   1
_chemical_formula_structural   MgZr3
_chemical_formula_sum   'Mg2 Zr6'
_cell_volume   181.18002629
_cell_formula_units_Z   2
loop_
 _symmetry_equiv_pos_site_id
 _symmetry_equiv_pos_as_xyz
  1  'x, y, z'
loop_
 _atom_site_type_symbol
 _atom_site_label
 _atom_site_symmetry_multiplicity
 _atom_site_fract_x
 _atom_site_fract_y
 _atom_site_fract_z
 _atom_site_occupancy
  Mg  Mg0  1  0.66666600  0.33333300  0.24999900  1
  Mg  Mg1  1  0.33333400  0.66666700  0.75000000  1
  Zr  Zr2  1  0.16827976  0.33655853  0.24999900  1
  Zr  Zr3  1  0.16827976  0.83172124  0.24999900  1
  Zr  Zr4  1  0.66344147  0.83172124  0.24999900  1
  Zr  Zr5  1  0.33655753  0.16827876  0.75000000  1
  Zr  Zr6  1  0.83172024  0.16827876  0.75000000  1
  Zr  Zr7  1  0.83172124  0.66344247  0.75000000  1
