# generated using pymatgen
data_CoSnO3
_symmetry_space_group_name_H-M   'P 1'
_cell_length_a   5.35668762
_cell_length_b   5.66829066
_cell_length_c   5.35668813
_cell_angle_alpha   118.19758079
_cell_angle_beta   59.99999712
_cell_angle_gamma   118.19757333
_symmetry_Int_Tables_number   1
_chemical_formula_structural   CoSnO3
_chemical_formula_sum   'Co2 Sn2 O6'
_cell_volume   118.04272409
_cell_formula_units_Z   2
loop_
 _symmetry_equiv_pos_site_id
 _symmetry_equiv_pos_as_xyz
  1  'x, y, z'
loop_
 _atom_site_type_symbol
 _atom_site_label
 _atom_site_symmetry_multiplicity
 _atom_site_fract_x
 _atom_site_fract_y
 _atom_site_fract_z
 _atom_site_occupancy
  Co  Co0  1  0.35801363  0.07404088  0.35801363  1
  Co  Co1  1  0.64198637  0.92595912  0.64198637  1
  Sn  Sn2  1  0.14732390  0.44197271  0.14732390  1
  Sn  Sn3  1  0.85267610  0.55802729  0.85267610  1
  O  O4  1  0.04951575  0.25426108  0.44842623  1
  O  O5  1  0.44842623  0.25426108  0.75631910  1
  O  O6  1  0.24368090  0.74573892  0.95048425  1
  O  O7  1  0.75631910  0.25426108  0.04951575  1
  O  O8  1  0.55157377  0.74573892  0.24368090  1
  O  O9  1  0.95048425  0.74573892  0.55157377  1
