# generated using pymatgen
data_Pd2Cl2O
_symmetry_space_group_name_H-M   'P 1'
_cell_length_a   6.47875574
_cell_length_b   6.47875575
_cell_length_c   6.79923468
_cell_angle_alpha   118.45267537
_cell_angle_beta   118.45267537
_cell_angle_gamma   89.99999998
_symmetry_Int_Tables_number   1
_chemical_formula_structural   Pd2Cl2O
_chemical_formula_sum   'Pd4 Cl4 O2'
_cell_volume   210.88660831
_cell_formula_units_Z   2
loop_
 _symmetry_equiv_pos_site_id
 _symmetry_equiv_pos_as_xyz
  1  'x, y, z'
loop_
 _atom_site_type_symbol
 _atom_site_label
 _atom_site_symmetry_multiplicity
 _atom_site_fract_x
 _atom_site_fract_y
 _atom_site_fract_z
 _atom_site_occupancy
  O  O0  1  0.87500000  0.12500000  0.75000000  1
  O  O1  1  0.12500000  0.87500000  0.25000000  1
  Cl  Cl2  1  0.58024532  0.83024532  0.16049065  1
  Cl  Cl3  1  0.83024532  0.58024532  0.66049065  1
  Cl  Cl4  1  0.16975468  0.41975468  0.33950935  1
  Cl  Cl5  1  0.41975468  0.16975468  0.83950935  1
  Pd  Pd6  1  0.00000000  0.50000000  0.00000000  1
  Pd  Pd7  1  0.00000000  0.00000000  0.50000000  1
  Pd  Pd8  1  0.50000000  0.00000000  0.50000000  1
  Pd  Pd9  1  0.00000000  0.00000000  0.00000000  1
