# generated using pymatgen
data_VOF2
_symmetry_space_group_name_H-M   'P 1'
_cell_length_a   5.11502366
_cell_length_b   5.30085078
_cell_length_c   5.11502366
_cell_angle_alpha   85.94724700
_cell_angle_beta   117.70181879
_cell_angle_gamma   63.53216295
_symmetry_Int_Tables_number   1
_chemical_formula_structural   VOF2
_chemical_formula_sum   'V2 O2 F4'
_cell_volume   102.94491185
_cell_formula_units_Z   2
loop_
 _symmetry_equiv_pos_site_id
 _symmetry_equiv_pos_as_xyz
  1  'x, y, z'
loop_
 _atom_site_type_symbol
 _atom_site_label
 _atom_site_symmetry_multiplicity
 _atom_site_fract_x
 _atom_site_fract_y
 _atom_site_fract_z
 _atom_site_occupancy
  V  V0  1  0.00000000  0.00000000  0.00000000  1
  V  V1  1  0.00000000  0.50000000  0.50000000  1
  O  O2  1  0.07960279  0.25000000  0.82960279  1
  O  O3  1  0.92039721  0.75000000  0.17039721  1
  F  F4  1  0.49958916  0.24707987  0.64754711  1
  F  F5  1  0.89462698  0.25292013  0.24666903  1
  F  F6  1  0.10537302  0.74707987  0.75333097  1
  F  F7  1  0.50041084  0.75292013  0.35245289  1
