# generated using pymatgen
data_CaYMg6
_symmetry_space_group_name_H-M   'P 1'
_cell_length_a   6.74032063
_cell_length_b   9.46594464
_cell_length_c   4.63006641
_cell_angle_alpha   90.00000000
_cell_angle_beta   90.00000000
_cell_angle_gamma   134.60282166
_symmetry_Int_Tables_number   1
_chemical_formula_structural   CaYMg6
_chemical_formula_sum   'Ca1 Y1 Mg6'
_cell_volume   210.33256807
_cell_formula_units_Z   1
loop_
 _symmetry_equiv_pos_site_id
 _symmetry_equiv_pos_as_xyz
  1  'x, y, z'
loop_
 _atom_site_type_symbol
 _atom_site_label
 _atom_site_symmetry_multiplicity
 _atom_site_fract_x
 _atom_site_fract_y
 _atom_site_fract_z
 _atom_site_occupancy
  Ca  Ca0  1  0.24973279  0.37486640  0.25000000  1
  Y  Y1  1  0.25004343  0.87502071  0.25000000  1
  Mg  Mg2  1  0.75029579  0.37497057  0.25000000  1
  Mg  Mg3  1  0.75029579  0.87532421  0.25000000  1
  Mg  Mg4  1  0.24967144  0.11905466  0.75000000  1
  Mg  Mg5  1  0.24967144  0.63061778  0.75000000  1
  Mg  Mg6  1  0.73886218  0.11943109  0.75000000  1
  Mg  Mg7  1  0.76142714  0.63071457  0.75000000  1
