# generated using pymatgen
data_Fe3PO7
_symmetry_space_group_name_H-M   'P 1'
_cell_length_a   5.25253463
_cell_length_b   5.25253463
_cell_length_c   5.25253463
_cell_angle_alpha   101.94476627
_cell_angle_beta   101.94476622
_cell_angle_gamma   101.94476634
_symmetry_Int_Tables_number   1
_chemical_formula_structural   Fe3PO7
_chemical_formula_sum   'Fe3 P1 O7'
_cell_volume   133.89822036
_cell_formula_units_Z   1
loop_
 _symmetry_equiv_pos_site_id
 _symmetry_equiv_pos_as_xyz
  1  'x, y, z'
loop_
 _atom_site_type_symbol
 _atom_site_label
 _atom_site_symmetry_multiplicity
 _atom_site_fract_x
 _atom_site_fract_y
 _atom_site_fract_z
 _atom_site_occupancy
  O  O0  1  0.14618417  0.83393233  0.83393305  1
  O  O1  1  0.83393265  0.83393232  0.14618408  1
  O  O2  1  0.83393274  0.14618423  0.83393315  1
  O  O3  1  0.76924103  0.39181792  0.39181846  1
  O  O4  1  0.23042374  0.23042351  0.23042240  1
  O  O5  1  0.39181955  0.39181792  0.76924089  1
  O  O6  1  0.39181892  0.76924120  0.39181871  1
  P  P7  1  0.00146118  0.00146212  0.00146157  1
  Fe  Fe8  1  0.54299752  0.54299785  0.15318932  1
  Fe  Fe9  1  0.15318932  0.54299785  0.54299722  1
  Fe  Fe10  1  0.54299760  0.15318876  0.54299705  1
