# generated using pymatgen
data_Tl2CuF4
_symmetry_space_group_name_H-M   'P 1'
_cell_length_a   4.20245198
_cell_length_b   4.20245198
_cell_length_c   7.52958293
_cell_angle_alpha   73.78280951
_cell_angle_beta   73.78280951
_cell_angle_gamma   89.95556796
_symmetry_Int_Tables_number   1
_chemical_formula_structural   Tl2CuF4
_chemical_formula_sum   'Tl2 Cu1 F4'
_cell_volume   122.17440589
_cell_formula_units_Z   1
loop_
 _symmetry_equiv_pos_site_id
 _symmetry_equiv_pos_as_xyz
  1  'x, y, z'
loop_
 _atom_site_type_symbol
 _atom_site_label
 _atom_site_symmetry_multiplicity
 _atom_site_fract_x
 _atom_site_fract_y
 _atom_site_fract_z
 _atom_site_occupancy
  Tl  Tl0  1  0.35714620  0.35290416  0.28994964  1
  Tl  Tl1  1  0.64709584  0.64285380  0.71005036  1
  Cu  Cu2  1  0.00588398  0.99411602  0.00000000  1
  F  F3  1  0.14767480  0.13586147  0.71646373  1
  F  F4  1  0.86413853  0.85232520  0.28353627  1
  F  F5  1  0.00661580  0.49485514  1.00000000  1
  F  F6  1  0.50514486  0.99338420  0.00000000  1
