# generated using pymatgen
data_NaNi2O3
_symmetry_space_group_name_H-M   'P 1'
_cell_length_a   5.30504405
_cell_length_b   5.20319555
_cell_length_c   5.20319570
_cell_angle_alpha   118.20160808
_cell_angle_beta   79.22698978
_cell_angle_gamma   79.22700077
_symmetry_Int_Tables_number   1
_chemical_formula_structural   NaNi2O3
_chemical_formula_sum   'Na2 Ni4 O6'
_cell_volume   117.89249641
_cell_formula_units_Z   2
loop_
 _symmetry_equiv_pos_site_id
 _symmetry_equiv_pos_as_xyz
  1  'x, y, z'
loop_
 _atom_site_type_symbol
 _atom_site_label
 _atom_site_symmetry_multiplicity
 _atom_site_fract_x
 _atom_site_fract_y
 _atom_site_fract_z
 _atom_site_occupancy
  Na  Na0  1  0.50000000  0.17019193  0.82980807  1
  Na  Na1  1  0.50000000  0.82980807  0.17019193  1
  Ni  Ni2  1  0.00000000  0.00000000  0.00000000  1
  Ni  Ni3  1  0.00000000  0.66482264  0.33517736  1
  Ni  Ni4  1  1.00000000  0.33517736  0.66482264  1
  Ni  Ni5  1  0.50000000  0.50000000  0.50000000  1
  O  O6  1  0.24677891  0.29389887  0.29389887  1
  O  O7  1  0.20963022  0.61522860  0.91604882  1
  O  O8  1  0.20963022  0.91604882  0.61522860  1
  O  O9  1  0.79036978  0.38477140  0.08395118  1
  O  O10  1  0.79036978  0.08395118  0.38477140  1
  O  O11  1  0.75322109  0.70610113  0.70610113  1
