# generated using pymatgen
data_V3CoO8
_symmetry_space_group_name_H-M   'P 1'
_cell_length_a   5.59235213
_cell_length_b   7.34726828
_cell_length_c   5.58529047
_cell_angle_alpha   90.50043157
_cell_angle_beta   89.93813741
_cell_angle_gamma   90.53064142
_symmetry_Int_Tables_number   1
_chemical_formula_structural   V3CoO8
_chemical_formula_sum   'V3 Co1 O8'
_cell_volume   229.47256178
_cell_formula_units_Z   1
loop_
 _symmetry_equiv_pos_site_id
 _symmetry_equiv_pos_as_xyz
  1  'x, y, z'
loop_
 _atom_site_type_symbol
 _atom_site_label
 _atom_site_symmetry_multiplicity
 _atom_site_fract_x
 _atom_site_fract_y
 _atom_site_fract_z
 _atom_site_occupancy
  V  V0  1  0.06388345  0.12131591  0.00983309  1
  V  V1  1  0.43247082  0.62730509  0.49817603  1
  V  V2  1  0.56720148  0.37487201  0.99722018  1
  Co  Co3  1  0.93221993  0.87726393  0.50800968  1
  O  O4  1  0.03509563  0.07405762  0.30462512  1
  O  O5  1  0.13987595  0.67261565  0.44977993  1
  O  O6  1  0.36888841  0.18488354  0.93647572  1
  O  O7  1  0.47917015  0.55782643  0.80350453  1
  O  O8  1  0.52762740  0.44346015  0.30680405  1
  O  O9  1  0.60027852  0.81599739  0.44688268  1
  O  O10  1  0.87491029  0.31142762  0.94397674  1
  O  O11  1  0.97837697  0.93897467  0.84311226  1
