# generated using pymatgen
data_NbS2
_symmetry_space_group_name_H-M   'P 1'
_cell_length_a   3.38364811
_cell_length_b   3.36963963
_cell_length_c   6.31126797
_cell_angle_alpha   90.00000001
_cell_angle_beta   89.89354134
_cell_angle_gamma   119.86313417
_symmetry_Int_Tables_number   1
_chemical_formula_structural   NbS2
_chemical_formula_sum   'Nb1 S2'
_cell_volume   62.40396879
_cell_formula_units_Z   1
loop_
 _symmetry_equiv_pos_site_id
 _symmetry_equiv_pos_as_xyz
  1  'x, y, z'
loop_
 _atom_site_type_symbol
 _atom_site_label
 _atom_site_symmetry_multiplicity
 _atom_site_fract_x
 _atom_site_fract_y
 _atom_site_fract_z
 _atom_site_occupancy
  Nb  Nb0  1  0.00000000  0.00000000  -0.00000000  1
  S  S1  1  0.33418363  0.66709181  0.24596207  1
  S  S2  1  0.66581637  0.33290819  0.75403793  1
