# generated using pymatgen
data_LiMnO2
_symmetry_space_group_name_H-M   'P 1'
_cell_length_a   2.86393214
_cell_length_b   5.14633731
_cell_length_c   5.20848351
_cell_angle_alpha   89.99444099
_cell_angle_beta   89.99999998
_cell_angle_gamma   89.99995656
_symmetry_Int_Tables_number   1
_chemical_formula_structural   LiMnO2
_chemical_formula_sum   'Li2 Mn2 O4'
_cell_volume   76.76659240
_cell_formula_units_Z   2
loop_
 _symmetry_equiv_pos_site_id
 _symmetry_equiv_pos_as_xyz
  1  'x, y, z'
loop_
 _atom_site_type_symbol
 _atom_site_label
 _atom_site_symmetry_multiplicity
 _atom_site_fract_x
 _atom_site_fract_y
 _atom_site_fract_z
 _atom_site_occupancy
  Li  Li0  1  0.49999900  0.00000756  0.50001465  1
  Li  Li1  1  0.00000100  0.49999716  0.99999198  1
  Mn  Mn2  1  0.50000200  0.50000552  0.49998260  1
  Mn  Mn3  1  0.99999900  -0.00000213  0.00003023  1
  O  O4  1  0.00000200  0.28763488  0.34830791  1
  O  O5  1  0.49999900  0.21236929  0.84830681  1
  O  O6  1  0.00000100  0.71236367  0.65169479  1
  O  O7  1  0.50000000  0.78762604  0.15171904  1
