# generated using pymatgen
data_CuBiSCl2
_symmetry_space_group_name_H-M   'P 1'
_cell_length_a   4.05965764
_cell_length_b   6.82319854
_cell_length_c   8.48403153
_cell_angle_alpha   90.00000000
_cell_angle_beta   90.00000000
_cell_angle_gamma   107.30686922
_symmetry_Int_Tables_number   1
_chemical_formula_structural   CuBiSCl2
_chemical_formula_sum   'Cu2 Bi2 S2 Cl4'
_cell_volume   224.36651950
_cell_formula_units_Z   2
loop_
 _symmetry_equiv_pos_site_id
 _symmetry_equiv_pos_as_xyz
  1  'x, y, z'
loop_
 _atom_site_type_symbol
 _atom_site_label
 _atom_site_symmetry_multiplicity
 _atom_site_fract_x
 _atom_site_fract_y
 _atom_site_fract_z
 _atom_site_occupancy
  Cu  Cu0  1  0.00000000  0.00000000  0.00000000  1
  Cu  Cu1  1  0.00000000  0.00000000  0.50000000  1
  Bi  Bi2  1  0.70232192  0.40464385  0.25000000  1
  Bi  Bi3  1  0.29767808  0.59535615  0.75000000  1
  S  S4  1  0.93680918  0.87361836  0.75000000  1
  S  S5  1  0.06319082  0.12638164  0.25000000  1
  Cl  Cl6  1  0.35157462  0.70314924  0.06301346  1
  Cl  Cl7  1  0.35157462  0.70314924  0.43698654  1
  Cl  Cl8  1  0.64842538  0.29685076  0.93698654  1
  Cl  Cl9  1  0.64842538  0.29685076  0.56301346  1
