# generated using pymatgen
data_CoSe2
_symmetry_space_group_name_H-M   'P 1'
_cell_length_a   6.88220625
_cell_length_b   6.87880130
_cell_length_c   6.90843885
_cell_angle_alpha   60.34055913
_cell_angle_beta   60.31722208
_cell_angle_gamma   60.38853707
_symmetry_Int_Tables_number   1
_chemical_formula_structural   CoSe2
_chemical_formula_sum   'Co4 Se8'
_cell_volume   233.08705103
_cell_formula_units_Z   4
loop_
 _symmetry_equiv_pos_site_id
 _symmetry_equiv_pos_as_xyz
  1  'x, y, z'
loop_
 _atom_site_type_symbol
 _atom_site_label
 _atom_site_symmetry_multiplicity
 _atom_site_fract_x
 _atom_site_fract_y
 _atom_site_fract_z
 _atom_site_occupancy
  Co  Co0  1  0.49846718  0.00369186  0.49897578  1
  Co  Co1  1  0.00255428  0.49854444  0.49942765  1
  Co  Co2  1  0.49945579  0.49864237  0.50001257  1
  Co  Co3  1  0.49943893  0.49885814  0.00169292  1
  Se  Se4  1  0.25604871  0.25707432  0.25843047  1
  Se  Se5  1  0.74173823  0.74179800  0.27760386  1
  Se  Se6  1  0.27703743  0.74017341  0.74132357  1
  Se  Se7  1  0.74062504  0.27590407  0.74156279  1
  Se  Se8  1  0.72680650  0.25995750  0.25664334  1
  Se  Se9  1  0.25973318  0.72535711  0.25770145  1
  Se  Se10  1  0.25618822  0.25764040  0.72769310  1
  Se  Se11  1  0.74190850  0.74235838  0.73893252  1
