# generated using pymatgen
data_ErU2S3O2
_symmetry_space_group_name_H-M   'P 1'
_cell_length_a   3.79708282
_cell_length_b   3.79708255
_cell_length_c   10.87300282
_cell_angle_alpha   100.05599480
_cell_angle_beta   100.05599411
_cell_angle_gamma   90.00000023
_symmetry_Int_Tables_number   1
_chemical_formula_structural   ErU2S3O2
_chemical_formula_sum   'Er1 U2 S3 O2'
_cell_volume   151.91042085
_cell_formula_units_Z   1
loop_
 _symmetry_equiv_pos_site_id
 _symmetry_equiv_pos_as_xyz
  1  'x, y, z'
loop_
 _atom_site_type_symbol
 _atom_site_label
 _atom_site_symmetry_multiplicity
 _atom_site_fract_x
 _atom_site_fract_y
 _atom_site_fract_z
 _atom_site_occupancy
  U  U0  1  0.81383342  0.81383342  0.62766684  1
  U  U1  1  0.18621200  0.18621200  0.37242399  1
  S  S2  1  0.62796837  0.62796837  0.25593674  1
  S  S3  1  -0.00002753  -0.00002753  -0.00005505  1
  O  O4  1  0.24999195  0.74999195  0.49998390  1
  O  O5  1  0.74999195  0.24999195  0.49998390  1
  Er  Er6  1  0.50002169  0.50002169  0.00004338  1
  S  S7  1  0.37200814  0.37200814  0.74401628  1
