# generated using pymatgen
data_TiMn2Ga
_symmetry_space_group_name_H-M   'P 1'
_cell_length_a   4.32818314
_cell_length_b   4.33100476
_cell_length_c   4.33245729
_cell_angle_alpha   59.99504315
_cell_angle_beta   60.03011462
_cell_angle_gamma   60.04786570
_symmetry_Int_Tables_number   1
_chemical_formula_structural   TiMn2Ga
_chemical_formula_sum   'Ti1 Mn2 Ga1'
_cell_volume   57.45832531
_cell_formula_units_Z   1
loop_
 _symmetry_equiv_pos_site_id
 _symmetry_equiv_pos_as_xyz
  1  'x, y, z'
loop_
 _atom_site_type_symbol
 _atom_site_label
 _atom_site_symmetry_multiplicity
 _atom_site_fract_x
 _atom_site_fract_y
 _atom_site_fract_z
 _atom_site_occupancy
  Ti  Ti0  1  0.75006906  0.75001286  0.74997839  1
  Mn  Mn1  1  0.49998937  0.50008853  0.49979137  1
  Mn  Mn2  1  0.99995924  0.99994809  0.00026982  1
  Ga  Ga3  1  0.24998432  0.24995252  0.24996242  1
