# generated using pymatgen
data_B4C
_symmetry_space_group_name_H-M   'P 1'
_cell_length_a   5.18446661
_cell_length_b   5.18446661
_cell_length_c   5.18446645
_cell_angle_alpha   65.98122886
_cell_angle_beta   65.98122886
_cell_angle_gamma   65.98122199
_symmetry_Int_Tables_number   1
_chemical_formula_structural   B4C
_chemical_formula_sum   'B12 C3'
_cell_volume   111.29299833
_cell_formula_units_Z   3
loop_
 _symmetry_equiv_pos_site_id
 _symmetry_equiv_pos_as_xyz
  1  'x, y, z'
loop_
 _atom_site_type_symbol
 _atom_site_label
 _atom_site_symmetry_multiplicity
 _atom_site_fract_x
 _atom_site_fract_y
 _atom_site_fract_z
 _atom_site_occupancy
  B  B0  1  0.30861037  0.80647151  0.80647151  1
  B  B1  1  0.80647151  0.80647151  0.30861037  1
  B  B2  1  0.80647151  0.30861037  0.80647151  1
  B  B3  1  0.69138963  0.19352849  0.19352849  1
  B  B4  1  0.19352849  0.19352849  0.69138963  1
  B  B5  1  0.19352849  0.69138963  0.19352849  1
  B  B6  1  0.67042693  0.99382994  0.99382994  1
  B  B7  1  0.99382994  0.99382994  0.67042693  1
  B  B8  1  0.99382994  0.67042693  0.99382994  1
  B  B9  1  0.32957307  0.00617006  0.00617006  1
  B  B10  1  0.00617006  0.00617006  0.32957307  1
  B  B11  1  0.00617006  0.32957307  0.00617006  1
  C  C12  1  0.61018928  0.61018928  0.61018928  1
  C  C13  1  0.38981072  0.38981072  0.38981072  1
  C  C14  1  0.50000000  0.50000000  0.50000000  1
