# generated using pymatgen
data_NbRhO4
_symmetry_space_group_name_H-M   'P 1'
_cell_length_a   5.69074603
_cell_length_b   5.69074603
_cell_length_c   5.69074603
_cell_angle_alpha   73.51713523
_cell_angle_beta   106.48286477
_cell_angle_gamma   64.37095646
_symmetry_Int_Tables_number   1
_chemical_formula_structural   NbRhO4
_chemical_formula_sum   'Nb2 Rh2 O8'
_cell_volume   140.62637198
_cell_formula_units_Z   2
loop_
 _symmetry_equiv_pos_site_id
 _symmetry_equiv_pos_as_xyz
  1  'x, y, z'
loop_
 _atom_site_type_symbol
 _atom_site_label
 _atom_site_symmetry_multiplicity
 _atom_site_fract_x
 _atom_site_fract_y
 _atom_site_fract_z
 _atom_site_occupancy
  Nb  Nb0  1  0.76545268  0.73454732  0.50000000  1
  Nb  Nb1  1  0.51545268  0.48454732  0.00000000  1
  Rh  Rh2  1  0.24752771  0.25247229  0.50000000  1
  Rh  Rh3  1  0.99752771  0.00247229  0.00000000  1
  O  O4  1  0.06120091  0.74439763  0.80559854  1
  O  O5  1  0.53211068  0.26209256  0.79420324  1
  O  O6  1  0.50560237  0.79999617  0.69440146  1
  O  O7  1  0.98790744  0.30629480  0.70579676  1
  O  O8  1  0.98790744  0.71788932  0.29420324  1
  O  O9  1  0.50560237  0.18879909  0.30559854  1
  O  O10  1  0.45000383  0.74439763  0.19440146  1
  O  O11  1  0.94370520  0.26209256  0.20579676  1
