# generated using pymatgen
data_TiMn2Ge
_symmetry_space_group_name_H-M   'P 1'
_cell_length_a   4.15198610
_cell_length_b   4.15258731
_cell_length_c   4.15188471
_cell_angle_alpha   60.02238908
_cell_angle_beta   59.97845601
_cell_angle_gamma   59.99588760
_symmetry_Int_Tables_number   1
_chemical_formula_structural   TiMn2Ge
_chemical_formula_sum   'Ti1 Mn2 Ge1'
_cell_volume   50.61673144
_cell_formula_units_Z   1
loop_
 _symmetry_equiv_pos_site_id
 _symmetry_equiv_pos_as_xyz
  1  'x, y, z'
loop_
 _atom_site_type_symbol
 _atom_site_label
 _atom_site_symmetry_multiplicity
 _atom_site_fract_x
 _atom_site_fract_y
 _atom_site_fract_z
 _atom_site_occupancy
  Ti  Ti0  1  0.74996333  0.74998291  0.75000182  1
  Mn  Mn1  1  0.49995558  0.50009124  0.50005083  1
  Mn  Mn2  1  0.00003685  0.99997299  0.99995298  1
  Ge  Ge3  1  0.25004224  0.24995086  0.24999237  1
