# generated using pymatgen
data_Li2VCrO4
_symmetry_space_group_name_H-M   'P 1'
_cell_length_a   5.32178856
_cell_length_b   5.32178800
_cell_length_c   5.32178828
_cell_angle_alpha   135.15643479
_cell_angle_beta   135.15642577
_cell_angle_gamma   65.28723600
_symmetry_Int_Tables_number   1
_chemical_formula_structural   Li2VCrO4
_chemical_formula_sum   'Li2 V1 Cr1 O4'
_cell_volume   73.85462927
_cell_formula_units_Z   1
loop_
 _symmetry_equiv_pos_site_id
 _symmetry_equiv_pos_as_xyz
  1  'x, y, z'
loop_
 _atom_site_type_symbol
 _atom_site_label
 _atom_site_symmetry_multiplicity
 _atom_site_fract_x
 _atom_site_fract_y
 _atom_site_fract_z
 _atom_site_occupancy
  Li  Li0  1  0.25000000  0.75000000  0.50000000  1
  Li  Li1  1  0.50000000  0.50000000  0.00000000  1
  V  V2  1  0.00000000  0.00000000  0.00000000  1
  Cr  Cr3  1  0.75000000  0.25000000  0.50000000  1
  O  O4  1  0.52179666  0.02179666  0.50000000  1
  O  O5  1  0.23302329  0.23302329  0.00000000  1
  O  O6  1  0.97820334  0.47820334  0.50000000  1
  O  O7  1  0.76697671  0.76697671  1.00000000  1
