# generated using pymatgen
data_ScUS3
_symmetry_space_group_name_H-M   'P 1'
_cell_length_a   3.72007472
_cell_length_b   6.37532475
_cell_length_c   9.14170149
_cell_angle_alpha   90.00000000
_cell_angle_beta   90.00000000
_cell_angle_gamma   106.96309674
_symmetry_Int_Tables_number   1
_chemical_formula_structural   ScUS3
_chemical_formula_sum   'Sc2 U2 S6'
_cell_volume   207.37803137
_cell_formula_units_Z   2
loop_
 _symmetry_equiv_pos_site_id
 _symmetry_equiv_pos_as_xyz
  1  'x, y, z'
loop_
 _atom_site_type_symbol
 _atom_site_label
 _atom_site_symmetry_multiplicity
 _atom_site_fract_x
 _atom_site_fract_y
 _atom_site_fract_z
 _atom_site_occupancy
  S  S0  1  0.85835320  0.71670640  0.93645640  1
  S  S1  1  0.14164680  0.28329360  0.06354360  1
  S  S2  1  0.14164680  0.28329360  0.43645640  1
  S  S3  1  0.85835320  0.71670640  0.56354360  1
  S  S4  1  0.58525162  0.17050324  0.75000000  1
  S  S5  1  0.41474838  0.82949676  0.25000000  1
  Sc  Sc6  1  0.50000000  0.00000000  0.50000000  1
  Sc  Sc7  1  0.50000000  0.00000000  0.00000000  1
  U  U8  1  0.75080720  0.50161441  0.25000000  1
  U  U9  1  0.24919280  0.49838559  0.75000000  1
