# generated using pymatgen
data_Ca3Ag8
_symmetry_space_group_name_H-M   'P 1'
_cell_length_a   8.69260008
_cell_length_b   8.69260110
_cell_length_c   8.69260034
_cell_angle_alpha   109.47121890
_cell_angle_beta   109.47122126
_cell_angle_gamma   109.47122113
_symmetry_Int_Tables_number   1
_chemical_formula_structural   Ca3Ag8
_chemical_formula_sum   'Ca6 Ag16'
_cell_volume   505.62352833
_cell_formula_units_Z   2
loop_
 _symmetry_equiv_pos_site_id
 _symmetry_equiv_pos_as_xyz
  1  'x, y, z'
loop_
 _atom_site_type_symbol
 _atom_site_label
 _atom_site_symmetry_multiplicity
 _atom_site_fract_x
 _atom_site_fract_y
 _atom_site_fract_z
 _atom_site_occupancy
  Ca  Ca0  1  1.00000000  0.27756789  0.27756789  1
  Ca  Ca1  1  0.72243211  1.00000000  0.72243211  1
  Ca  Ca2  1  0.27756789  0.27756789  1.00000000  1
  Ca  Ca3  1  0.72243211  0.72243211  0.00000000  1
  Ca  Ca4  1  0.00000000  0.72243211  0.72243211  1
  Ca  Ca5  1  0.27756789  0.00000000  0.27756789  1
  Ag  Ag6  1  0.65658812  1.00000000  0.34341188  1
  Ag  Ag7  1  0.65658812  0.31317625  0.65658812  1
  Ag  Ag8  1  0.00000000  0.65658812  0.34341188  1
  Ag  Ag9  1  0.68682375  0.34341188  0.34341188  1
  Ag  Ag10  1  0.34341188  0.34341188  0.68682375  1
  Ag  Ag11  1  1.00000000  0.34341188  0.65658812  1
  Ag  Ag12  1  0.34341188  0.65658812  0.00000000  1
  Ag  Ag13  1  0.65658812  0.65658812  0.31317625  1
  Ag  Ag14  1  0.31317625  0.65658812  0.65658812  1
  Ag  Ag15  1  0.50000000  0.00000000  0.00000000  1
  Ag  Ag16  1  0.65658812  0.34341188  1.00000000  1
  Ag  Ag17  1  0.34341188  0.00000000  0.65658812  1
  Ag  Ag18  1  0.34341188  0.68682375  0.34341188  1
  Ag  Ag19  1  0.50000000  0.50000000  0.50000000  1
  Ag  Ag20  1  0.00000000  0.50000000  0.00000000  1
  Ag  Ag21  1  0.00000000  0.00000000  0.50000000  1
