# generated using pymatgen
data_Ti4O5
_symmetry_space_group_name_H-M   'P 1'
_cell_length_a   4.18776039
_cell_length_b   5.13966150
_cell_length_c   5.13966150
_cell_angle_alpha   80.44629988
_cell_angle_beta   65.95860732
_cell_angle_gamma   65.95860731
_symmetry_Int_Tables_number   1
_chemical_formula_structural   Ti4O5
_chemical_formula_sum   'Ti4 O5'
_cell_volume   92.26384092
_cell_formula_units_Z   1
loop_
 _symmetry_equiv_pos_site_id
 _symmetry_equiv_pos_as_xyz
  1  'x, y, z'
loop_
 _atom_site_type_symbol
 _atom_site_label
 _atom_site_symmetry_multiplicity
 _atom_site_fract_x
 _atom_site_fract_y
 _atom_site_fract_z
 _atom_site_occupancy
  O  O0  1  0.90854238  0.78145534  0.40145990  1
  O  O1  1  0.31000228  0.59854010  0.78145534  1
  O  O2  1  0.68999772  0.40145990  0.21854466  1
  O  O3  1  0.09145762  0.21854466  0.59854010  1
  O  O4  1  0.50000000  0.00000000  0.00000000  1
  Ti  Ti5  1  0.60756836  0.17599480  0.60886849  1
  Ti  Ti6  1  0.21643684  0.39113151  0.17599480  1
  Ti  Ti7  1  0.78356316  0.60886849  0.82400520  1
  Ti  Ti8  1  0.39243164  0.82400520  0.39113151  1
