# generated using pymatgen
data_V2MoO8
_symmetry_space_group_name_H-M   'P 1'
_cell_length_a   3.71323809
_cell_length_b   4.33319904
_cell_length_c   9.86738140
_cell_angle_alpha   90.00185894
_cell_angle_beta   100.84147683
_cell_angle_gamma   90.00044833
_symmetry_Int_Tables_number   1
_chemical_formula_structural   V2MoO8
_chemical_formula_sum   'V2 Mo1 O8'
_cell_volume   155.93434022
_cell_formula_units_Z   1
loop_
 _symmetry_equiv_pos_site_id
 _symmetry_equiv_pos_as_xyz
  1  'x, y, z'
loop_
 _atom_site_type_symbol
 _atom_site_label
 _atom_site_symmetry_multiplicity
 _atom_site_fract_x
 _atom_site_fract_y
 _atom_site_fract_z
 _atom_site_occupancy
  V  V0  1  0.18797469  0.04402755  0.37589059  1
  V  V1  1  0.81202592  0.04409537  0.62409919  1
  Mo  Mo2  1  0.99997428  0.03610829  0.99999329  1
  O  O3  1  0.99999486  0.43280659  0.00000211  1
  O  O4  1  0.29067633  0.95990378  0.58132541  1
  O  O5  1  0.09749002  0.94549734  0.19512361  1
  O  O6  1  0.81380299  0.41721410  0.62780406  1
  O  O7  1  0.70933558  0.95984946  0.41868704  1
  O  O8  1  0.18620684  0.41712709  0.37219910  1
  O  O9  1  0.90251941  0.94556058  0.80486958  1
  O  O10  1  0.50000007  0.94480884  0.00000502  1
