# generated using pymatgen
data_BaCuO2
_symmetry_space_group_name_H-M   'P 1'
_cell_length_a   4.02080570
_cell_length_b   4.09571129
_cell_length_c   8.56241295
_cell_angle_alpha   90.00000000
_cell_angle_beta   76.42052934
_cell_angle_gamma   90.00000000
_symmetry_Int_Tables_number   1
_chemical_formula_structural   BaCuO2
_chemical_formula_sum   'Ba2 Cu2 O4'
_cell_volume   137.06451939
_cell_formula_units_Z   2
loop_
 _symmetry_equiv_pos_site_id
 _symmetry_equiv_pos_as_xyz
  1  'x, y, z'
loop_
 _atom_site_type_symbol
 _atom_site_label
 _atom_site_symmetry_multiplicity
 _atom_site_fract_x
 _atom_site_fract_y
 _atom_site_fract_z
 _atom_site_occupancy
  Ba  Ba0  1  0.33637654  0.25000000  0.32724692  1
  Ba  Ba1  1  0.66362346  0.75000000  0.67275308  1
  Cu  Cu2  1  0.06157387  0.25000000  0.87685225  1
  Cu  Cu3  1  0.93842613  0.75000000  0.12314775  1
  O  O4  1  0.82430584  0.75000000  0.35138832  1
  O  O5  1  0.94818614  0.25000000  0.10362772  1
  O  O6  1  0.17569416  0.25000000  0.64861168  1
  O  O7  1  0.05181386  0.75000000  0.89637228  1
