# generated using pymatgen
data_ErSe2
_symmetry_space_group_name_H-M   'P 1'
_cell_length_a   4.04868293
_cell_length_b   4.04868293
_cell_length_c   8.28222457
_cell_angle_alpha   90.00000000
_cell_angle_beta   90.00000000
_cell_angle_gamma   90.00000000
_symmetry_Int_Tables_number   1
_chemical_formula_structural   ErSe2
_chemical_formula_sum   'Er2 Se4'
_cell_volume   135.76084589
_cell_formula_units_Z   2
loop_
 _symmetry_equiv_pos_site_id
 _symmetry_equiv_pos_as_xyz
  1  'x, y, z'
loop_
 _atom_site_type_symbol
 _atom_site_label
 _atom_site_symmetry_multiplicity
 _atom_site_fract_x
 _atom_site_fract_y
 _atom_site_fract_z
 _atom_site_occupancy
  Se  Se0  1  0.25000000  0.75000000  0.00000000  1
  Se  Se1  1  0.75000000  0.25000000  0.00000000  1
  Se  Se2  1  0.25000000  0.25000000  0.62956869  1
  Se  Se3  1  0.75000000  0.75000000  0.37043131  1
  Er  Er4  1  0.75000000  0.75000000  0.72607634  1
  Er  Er5  1  0.25000000  0.25000000  0.27392366  1
