# generated using pymatgen
data_PrCrGe3
_symmetry_space_group_name_H-M   'P 1'
_cell_length_a   6.18380704
_cell_length_b   6.18380704
_cell_length_c   5.75780595
_cell_angle_alpha   90.00000000
_cell_angle_beta   90.00000000
_cell_angle_gamma   119.99999999
_symmetry_Int_Tables_number   1
_chemical_formula_structural   PrCrGe3
_chemical_formula_sum   'Pr2 Cr2 Ge6'
_cell_volume   190.67752875
_cell_formula_units_Z   2
loop_
 _symmetry_equiv_pos_site_id
 _symmetry_equiv_pos_as_xyz
  1  'x, y, z'
loop_
 _atom_site_type_symbol
 _atom_site_label
 _atom_site_symmetry_multiplicity
 _atom_site_fract_x
 _atom_site_fract_y
 _atom_site_fract_z
 _atom_site_occupancy
  Cr  Cr0  1  0.00000000  0.00000000  0.50000000  1
  Cr  Cr1  1  0.00000000  0.00000000  0.00000000  1
  Ge  Ge2  1  0.19198934  0.80801066  0.25000000  1
  Ge  Ge3  1  0.80801066  0.61602131  0.75000000  1
  Ge  Ge4  1  0.19198934  0.38397869  0.25000000  1
  Ge  Ge5  1  0.80801066  0.19198934  0.75000000  1
  Ge  Ge6  1  0.38397869  0.19198934  0.75000000  1
  Ge  Ge7  1  0.61602131  0.80801066  0.25000000  1
  Pr  Pr8  1  0.66666667  0.33333333  0.25000000  1
  Pr  Pr9  1  0.33333333  0.66666667  0.75000000  1
