# generated using pymatgen
data_HfZrO4
_symmetry_space_group_name_H-M   'P 1'
_cell_length_a   5.86560201
_cell_length_b   4.90986825
_cell_length_c   5.87263872
_cell_angle_alpha   90.00000000
_cell_angle_beta   67.37171771
_cell_angle_gamma   90.00000000
_symmetry_Int_Tables_number   1
_chemical_formula_structural   HfZrO4
_chemical_formula_sum   'Hf2 Zr2 O8'
_cell_volume   156.10866820
_cell_formula_units_Z   2
loop_
 _symmetry_equiv_pos_site_id
 _symmetry_equiv_pos_as_xyz
  1  'x, y, z'
loop_
 _atom_site_type_symbol
 _atom_site_label
 _atom_site_symmetry_multiplicity
 _atom_site_fract_x
 _atom_site_fract_y
 _atom_site_fract_z
 _atom_site_occupancy
  Hf  Hf0  1  0.00000000  0.00000000  0.00000000  1
  Hf  Hf1  1  0.00000000  0.50000000  0.50000000  1
  Zr  Zr2  1  0.50000000  0.50000000  0.00000000  1
  Zr  Zr3  1  0.50000000  0.00000000  0.50000000  1
  O  O4  1  0.14728204  0.69430725  0.15523103  1
  O  O5  1  0.14728204  0.80569275  0.65523103  1
  O  O6  1  0.34636402  0.31271853  0.35278141  1
  O  O7  1  0.34636402  0.18728147  0.85278141  1
  O  O8  1  0.65363598  0.81271853  0.14721859  1
  O  O9  1  0.65363598  0.68728147  0.64721859  1
  O  O10  1  0.85271796  0.19430725  0.34476897  1
  O  O11  1  0.85271796  0.30569275  0.84476897  1
