# generated using pymatgen
data_NiGe2
_symmetry_space_group_name_H-M   'P 1'
_cell_length_a   5.80088314
_cell_length_b   5.80425680
_cell_length_c   6.17940974
_cell_angle_alpha   118.01125009
_cell_angle_beta   90.00000000
_cell_angle_gamma   90.00000000
_symmetry_Int_Tables_number   1
_chemical_formula_structural   NiGe2
_chemical_formula_sum   'Ni4 Ge8'
_cell_volume   183.68652716
_cell_formula_units_Z   4
loop_
 _symmetry_equiv_pos_site_id
 _symmetry_equiv_pos_as_xyz
  1  'x, y, z'
loop_
 _atom_site_type_symbol
 _atom_site_label
 _atom_site_symmetry_multiplicity
 _atom_site_fract_x
 _atom_site_fract_y
 _atom_site_fract_z
 _atom_site_occupancy
  Ni  Ni0  1  0.00000000  0.11550905  0.23101811  1
  Ni  Ni1  1  0.50000000  0.38449095  0.76898189  1
  Ni  Ni2  1  0.00000000  0.88449095  0.76898189  1
  Ni  Ni3  1  0.50000000  0.61550905  0.23101811  1
  Ge  Ge4  1  0.34333066  0.84566992  0.00000000  1
  Ge  Ge5  1  0.84333066  0.65433008  0.00000000  1
  Ge  Ge6  1  0.15666934  0.34566992  0.00000000  1
  Ge  Ge7  1  0.65666934  0.15433008  0.00000000  1
  Ge  Ge8  1  0.25000000  0.00231244  0.50000000  1
  Ge  Ge9  1  0.75000000  0.49768756  0.50000000  1
  Ge  Ge10  1  0.75000000  0.99768756  0.50000000  1
  Ge  Ge11  1  0.25000000  0.50231244  0.50000000  1
