# generated using pymatgen
data_V3FeO8
_symmetry_space_group_name_H-M   'P 1'
_cell_length_a   6.38962374
_cell_length_b   6.38962374
_cell_length_c   6.52669386
_cell_angle_alpha   73.94789984
_cell_angle_beta   106.05210016
_cell_angle_gamma   145.34353927
_symmetry_Int_Tables_number   1
_chemical_formula_structural   V3FeO8
_chemical_formula_sum   'V3 Fe1 O8'
_cell_volume   145.03186880
_cell_formula_units_Z   1
loop_
 _symmetry_equiv_pos_site_id
 _symmetry_equiv_pos_as_xyz
  1  'x, y, z'
loop_
 _atom_site_type_symbol
 _atom_site_label
 _atom_site_symmetry_multiplicity
 _atom_site_fract_x
 _atom_site_fract_y
 _atom_site_fract_z
 _atom_site_occupancy
  V  V0  1  0.29763928  0.70236072  0.71293876  1
  V  V1  1  0.40338285  0.59661715  0.29585800  1
  V  V2  1  0.60038026  0.39961974  0.71774416  1
  Fe  Fe3  1  0.70565994  0.29434006  0.30212416  1
  O  O4  1  0.13212562  0.86787438  0.69257275  1
  O  O5  1  0.24708152  0.75291848  0.36675899  1
  O  O6  1  0.35885727  0.64114273  0.98470617  1
  O  O7  1  0.44793701  0.55206299  0.63707255  1
  O  O8  1  0.55346527  0.44653473  0.36079228  1
  O  O9  1  0.63268305  0.36731695  0.98660200  1
  O  O10  1  0.75605598  0.24394402  0.65591688  1
  O  O11  1  0.86473194  0.13526806  0.28691329  1
