# generated using pymatgen
data_Li4Fe(WO4)3
_symmetry_space_group_name_H-M   'P 1'
_cell_length_a   5.48533953
_cell_length_b   10.95524045
_cell_length_c   9.63691800
_cell_angle_alpha   28.26345765
_cell_angle_beta   51.18480286
_cell_angle_gamma   56.60189495
_symmetry_Int_Tables_number   1
_chemical_formula_structural   Li4Fe(WO4)3
_chemical_formula_sum   'Li4 Fe1 W3 O12'
_cell_volume   213.66672468
_cell_formula_units_Z   1
loop_
 _symmetry_equiv_pos_site_id
 _symmetry_equiv_pos_as_xyz
  1  'x, y, z'
loop_
 _atom_site_type_symbol
 _atom_site_label
 _atom_site_symmetry_multiplicity
 _atom_site_fract_x
 _atom_site_fract_y
 _atom_site_fract_z
 _atom_site_occupancy
  Li  Li0  1  0.25248946  0.99835719  0.30269700  1
  Li  Li1  1  0.31050317  0.49905431  0.27188881  1
  Li  Li2  1  0.76422632  0.00329304  0.73996146  1
  Li  Li3  1  0.78254430  0.49421521  0.80807172  1
  Fe  Fe4  1  0.00782071  0.50164428  0.99874835  1
  W  W5  1  0.99448186  0.99690987  0.00782007  1
  W  W6  1  0.49401857  0.00412770  0.50083358  1
  W  W7  1  0.50442557  0.49827750  0.50177617  1
  O  O8  1  0.37172054  0.29717813  0.13892507  1
  O  O9  1  0.23865808  0.11721087  0.63537301  1
  O  O10  1  0.12735756  0.31902145  0.73823890  1
  O  O11  1  0.85309026  0.19481863  0.24167888  1
  O  O12  1  0.37959895  0.80398625  0.12622169  1
  O  O13  1  0.72600948  0.38205097  0.37392217  1
  O  O14  1  0.24893265  0.61919594  0.61946607  1
  O  O15  1  0.61701292  0.18758178  0.87247401  1
  O  O16  1  0.14360813  0.82198466  0.72505284  1
  O  O17  1  0.87452280  0.68234726  0.24941955  1
  O  O18  1  0.74954747  0.87935723  0.36727393  1
  O  O19  1  0.63062920  0.69938772  0.85135871  1
