# generated using pymatgen
data_V3CrO8
_symmetry_space_group_name_H-M   'P 1'
_cell_length_a   6.38741513
_cell_length_b   6.38741556
_cell_length_c   6.47207470
_cell_angle_alpha   73.60437368
_cell_angle_beta   106.39562453
_cell_angle_gamma   145.09822669
_symmetry_Int_Tables_number   1
_chemical_formula_structural   V3CrO8
_chemical_formula_sum   'V3 Cr1 O8'
_cell_volume   144.31938843
_cell_formula_units_Z   1
loop_
 _symmetry_equiv_pos_site_id
 _symmetry_equiv_pos_as_xyz
  1  'x, y, z'
loop_
 _atom_site_type_symbol
 _atom_site_label
 _atom_site_symmetry_multiplicity
 _atom_site_fract_x
 _atom_site_fract_y
 _atom_site_fract_z
 _atom_site_occupancy
  V  V0  1  0.40132591  0.59867409  0.29782905  1
  V  V1  1  0.60087126  0.39912874  0.72185379  1
  V  V2  1  0.29711273  0.70288727  0.71071896  1
  Cr  Cr3  1  0.70674534  0.29325466  0.31185597  1
  O  O4  1  0.13412909  0.86587091  0.69237485  1
  O  O5  1  0.24348183  0.75651817  0.35748088  1
  O  O6  1  0.35806095  0.64193905  0.98570581  1
  O  O7  1  0.44622343  0.55377657  0.63628825  1
  O  O8  1  0.55088192  0.44911808  0.35545587  1
  O  O9  1  0.63891894  0.36108106  0.99296795  1
  O  O10  1  0.75677817  0.24322183  0.64557510  1
  O  O11  1  0.86547143  0.13452857  0.29189353  1
