# generated using pymatgen
data_Nb10C7
_symmetry_space_group_name_H-M   'P 1'
_cell_length_a   6.34139852
_cell_length_b   15.85516785
_cell_length_c   5.50302021
_cell_angle_alpha   29.80737617
_cell_angle_beta   54.96721116
_cell_angle_gamma   60.12563720
_symmetry_Int_Tables_number   1
_chemical_formula_structural   Nb10C7
_chemical_formula_sum   'Nb10 C7'
_cell_volume   225.20531232
_cell_formula_units_Z   1
loop_
 _symmetry_equiv_pos_site_id
 _symmetry_equiv_pos_as_xyz
  1  'x, y, z'
loop_
 _atom_site_type_symbol
 _atom_site_label
 _atom_site_symmetry_multiplicity
 _atom_site_fract_x
 _atom_site_fract_y
 _atom_site_fract_z
 _atom_site_occupancy
  Nb  Nb0  1  0.01845606  0.99145570  0.99634411  1
  Nb  Nb1  1  0.01845606  0.20854430  0.95362263  1
  Nb  Nb2  1  0.48154394  0.99145570  0.04637737  1
  Nb  Nb3  1  0.99139680  0.39562375  0.01891461  1
  Nb  Nb4  1  0.48154394  0.20854430  0.00365589  1
  Nb  Nb5  1  0.98602054  0.60000000  0.02775861  1
  Nb  Nb6  1  0.50860320  0.39562375  0.00296662  1
  Nb  Nb7  1  0.99139680  0.80437625  0.99703338  1
  Nb  Nb8  1  0.51397946  0.60000000  0.97224139  1
  Nb  Nb9  1  0.50860320  0.80437625  0.98108539  1
  C  C10  1  0.25000000  0.99929113  0.50177217  1
  C  C11  1  0.25000000  0.20070887  0.49822783  1
  C  C12  1  0.25000000  0.39779758  0.50550605  1
  C  C13  1  0.75000000  0.39855617  0.50360958  1
  C  C14  1  0.25000000  0.80220242  0.49449395  1
  C  C15  1  0.75000000  0.60000000  0.50000000  1
  C  C16  1  0.75000000  0.80144383  0.49639042  1
