# generated using pymatgen
data_Ba4Y2Cu6O13
_symmetry_space_group_name_H-M   'P 1'
_cell_length_a   3.90917534
_cell_length_b   7.72063977
_cell_length_c   11.97204504
_cell_angle_alpha   90.00000000
_cell_angle_beta   90.00000000
_cell_angle_gamma   90.00000000
_symmetry_Int_Tables_number   1
_chemical_formula_structural   Ba4Y2Cu6O13
_chemical_formula_sum   'Ba4 Y2 Cu6 O13'
_cell_volume   361.33229717
_cell_formula_units_Z   1
loop_
 _symmetry_equiv_pos_site_id
 _symmetry_equiv_pos_as_xyz
  1  'x, y, z'
loop_
 _atom_site_type_symbol
 _atom_site_label
 _atom_site_symmetry_multiplicity
 _atom_site_fract_x
 _atom_site_fract_y
 _atom_site_fract_z
 _atom_site_occupancy
  O  O0  1  0.00000000  0.50000000  0.14941533  1
  O  O1  1  0.00000000  0.50000000  0.85058467  1
  O  O2  1  0.00000000  0.00000000  0.15844185  1
  O  O3  1  0.00000000  0.00000000  0.84155815  1
  O  O4  1  0.50000000  0.50000000  0.37929744  1
  O  O5  1  0.50000000  0.50000000  0.62070256  1
  O  O6  1  0.50000000  0.00000000  0.37908567  1
  O  O7  1  0.50000000  0.00000000  0.62091433  1
  O  O8  1  0.00000000  0.25030579  0.62025810  1
  O  O9  1  0.00000000  0.74969421  0.37974190  1
  O  O10  1  0.00000000  0.25030579  0.37974190  1
  O  O11  1  0.00000000  0.74969421  0.62025810  1
  O  O12  1  0.50000000  0.00000000  0.00000000  1
  Cu  Cu13  1  0.00000000  0.50000000  0.35996670  1
  Cu  Cu14  1  0.00000000  0.50000000  0.64003330  1
  Cu  Cu15  1  0.00000000  0.00000000  0.35984539  1
  Cu  Cu16  1  0.00000000  0.00000000  0.64015461  1
  Cu  Cu17  1  0.00000000  0.50000000  0.00000000  1
  Cu  Cu18  1  0.00000000  0.00000000  0.00000000  1
  Y  Y19  1  0.50000000  0.74902328  0.50000000  1
  Y  Y20  1  0.50000000  0.25097672  0.50000000  1
  Ba  Ba21  1  0.50000000  0.24276910  0.18770039  1
  Ba  Ba22  1  0.50000000  0.75723090  0.81229961  1
  Ba  Ba23  1  0.50000000  0.75723090  0.18770039  1
  Ba  Ba24  1  0.50000000  0.24276910  0.81229961  1
