# generated using pymatgen
data_SiO2
_symmetry_space_group_name_H-M   'P 1'
_cell_length_a   7.24237220
_cell_length_b   7.25932496
_cell_length_c   7.24199319
_cell_angle_alpha   59.92080090
_cell_angle_beta   75.50401303
_cell_angle_gamma   60.03776077
_symmetry_Int_Tables_number   1
_chemical_formula_structural   SiO2
_chemical_formula_sum   'Si8 O16'
_cell_volume   285.43973573
_cell_formula_units_Z   8
loop_
 _symmetry_equiv_pos_site_id
 _symmetry_equiv_pos_as_xyz
  1  'x, y, z'
loop_
 _atom_site_type_symbol
 _atom_site_label
 _atom_site_symmetry_multiplicity
 _atom_site_fract_x
 _atom_site_fract_y
 _atom_site_fract_z
 _atom_site_occupancy
  O  O0  1  0.98220641  0.24350087  0.57727790  1
  O  O1  1  0.51779359  0.67922123  0.57727790  1
  O  O2  1  0.01779359  0.75649913  0.42272210  1
  O  O3  1  0.48220641  0.32077877  0.42272210  1
  O  O4  1  0.82906880  0.58394148  0.79016944  1
  O  O5  1  0.67093120  0.12588907  0.79016944  1
  O  O6  1  0.17093120  0.41605852  0.20983056  1
  O  O7  1  0.32906880  0.87411093  0.20983056  1
  O  O8  1  0.00000000  0.00000000  0.00000000  1
  O  O9  1  0.50000000  0.50000000  0.00000000  1
  O  O10  1  0.75000000  0.63057983  0.23884035  1
  O  O11  1  0.25000000  0.36942017  0.76115965  1
  O  O12  1  0.94451712  0.20672686  0.24051410  1
  O  O13  1  0.55548288  0.05275904  0.24051410  1
  O  O14  1  0.05548288  0.79327314  0.75948590  1
  O  O15  1  0.44451712  0.94724096  0.75948590  1
  Si  Si16  1  0.03899778  0.62571245  0.68261939  1
  Si  Si17  1  0.46100222  0.19166816  0.68261939  1
  Si  Si18  1  0.96100222  0.37428755  0.31738061  1
  Si  Si19  1  0.53899778  0.80833184  0.31738061  1
  Si  Si20  1  0.57312248  0.67650907  0.78472562  1
  Si  Si21  1  0.92687752  0.03876531  0.78472562  1
  Si  Si22  1  0.42687752  0.32349093  0.21527438  1
  Si  Si23  1  0.07312248  0.96123469  0.21527438  1
