# generated using pymatgen
data_MgH2
_symmetry_space_group_name_H-M   'P 1'
_cell_length_a   4.65032620
_cell_length_b   4.76907517
_cell_length_c   4.89320844
_cell_angle_alpha   90.00000000
_cell_angle_beta   90.00000000
_cell_angle_gamma   90.00000000
_symmetry_Int_Tables_number   1
_chemical_formula_structural   MgH2
_chemical_formula_sum   'Mg4 H8'
_cell_volume   108.52037899
_cell_formula_units_Z   4
loop_
 _symmetry_equiv_pos_site_id
 _symmetry_equiv_pos_as_xyz
  1  'x, y, z'
loop_
 _atom_site_type_symbol
 _atom_site_label
 _atom_site_symmetry_multiplicity
 _atom_site_fract_x
 _atom_site_fract_y
 _atom_site_fract_z
 _atom_site_occupancy
  Mg  Mg0  1  0.73423277  0.75191142  0.96949790  1
  Mg  Mg1  1  0.26576723  0.75191142  0.46949790  1
  Mg  Mg2  1  0.73423277  0.25191142  0.53050210  1
  Mg  Mg3  1  0.26576723  0.25191142  0.03050210  1
  H  H4  1  0.55770429  0.03018199  0.24121777  1
  H  H5  1  0.09890860  0.35630659  0.38384033  1
  H  H6  1  0.55770429  0.53018199  0.25878223  1
  H  H7  1  0.90109140  0.85630659  0.61615967  1
  H  H8  1  0.09890860  0.85630659  0.11615967  1
  H  H9  1  0.44229571  0.53018199  0.75878223  1
  H  H10  1  0.44229571  0.03018199  0.74121777  1
  H  H11  1  0.90109140  0.35630659  0.88384033  1
