# generated using pymatgen
data_V3CoO8
_symmetry_space_group_name_H-M   'P 1'
_cell_length_a   6.41893914
_cell_length_b   6.41893923
_cell_length_c   6.56284593
_cell_angle_alpha   73.63650882
_cell_angle_beta   106.36349162
_cell_angle_gamma   145.97766283
_symmetry_Int_Tables_number   1
_chemical_formula_structural   V3CoO8
_chemical_formula_sum   'V3 Co1 O8'
_cell_volume   144.58191038
_cell_formula_units_Z   1
loop_
 _symmetry_equiv_pos_site_id
 _symmetry_equiv_pos_as_xyz
  1  'x, y, z'
loop_
 _atom_site_type_symbol
 _atom_site_label
 _atom_site_symmetry_multiplicity
 _atom_site_fract_x
 _atom_site_fract_y
 _atom_site_fract_z
 _atom_site_occupancy
  V  V0  1  0.39856462  0.60143538  0.27944059  1
  V  V1  1  0.59958109  0.40041891  0.72360089  1
  V  V2  1  0.29676501  0.70323499  0.70212735  1
  Co  Co3  1  0.69738185  0.30261815  0.30197459  1
  O  O4  1  0.13317906  0.86682094  0.68856236  1
  O  O5  1  0.25629367  0.74370633  0.37866791  1
  O  O6  1  0.35976611  0.64023389  0.98976342  1
  O  O7  1  0.44850630  0.55149370  0.64595062  1
  O  O8  1  0.54544186  0.45455814  0.35467629  1
  O  O9  1  0.63571474  0.36428526  0.98872051  1
  O  O10  1  0.75446577  0.24553423  0.65968947  1
  O  O11  1  0.87433892  0.12566108  0.28682500  1
