# generated using pymatgen
data_GeO2
_symmetry_space_group_name_H-M   'P 1'
_cell_length_a   4.37457278
_cell_length_b   4.83940126
_cell_length_c   5.40899706
_cell_angle_alpha   90.00000000
_cell_angle_beta   90.00000000
_cell_angle_gamma   90.00000000
_symmetry_Int_Tables_number   1
_chemical_formula_structural   GeO2
_chemical_formula_sum   'Ge4 O8'
_cell_volume   114.51016090
_cell_formula_units_Z   4
loop_
 _symmetry_equiv_pos_site_id
 _symmetry_equiv_pos_as_xyz
  1  'x, y, z'
loop_
 _atom_site_type_symbol
 _atom_site_label
 _atom_site_symmetry_multiplicity
 _atom_site_fract_x
 _atom_site_fract_y
 _atom_site_fract_z
 _atom_site_occupancy
  O  O0  1  0.76802745  0.07851742  0.88748952  1
  O  O1  1  0.26802745  0.92148258  0.61251048  1
  O  O2  1  0.73197255  0.57851742  0.61251048  1
  O  O3  1  0.23197255  0.42148258  0.88748952  1
  O  O4  1  0.76802745  0.57851742  0.11251048  1
  O  O5  1  0.26802745  0.42148258  0.38748952  1
  O  O6  1  0.73197255  0.07851742  0.38748952  1
  O  O7  1  0.23197255  0.92148258  0.11251048  1
  Ge  Ge8  1  0.50000000  0.75000000  0.34156628  1
  Ge  Ge9  1  0.00000000  0.25000000  0.15843372  1
  Ge  Ge10  1  0.50000000  0.25000000  0.65843372  1
  Ge  Ge11  1  0.00000000  0.75000000  0.84156628  1
