# generated using pymatgen
data_S
_symmetry_space_group_name_H-M   'P 1'
_cell_length_a   8.20296867
_cell_length_b   10.50451021
_cell_length_c   10.48392736
_cell_angle_alpha   98.58594468
_cell_angle_beta   90.00000000
_cell_angle_gamma   90.00000000
_symmetry_Int_Tables_number   1
_chemical_formula_structural   S
_chemical_formula_sum   S28
_cell_volume   893.25665720
_cell_formula_units_Z   28
loop_
 _symmetry_equiv_pos_site_id
 _symmetry_equiv_pos_as_xyz
  1  'x, y, z'
loop_
 _atom_site_type_symbol
 _atom_site_label
 _atom_site_symmetry_multiplicity
 _atom_site_fract_x
 _atom_site_fract_y
 _atom_site_fract_z
 _atom_site_occupancy
  S  S0  1  0.07553625  0.10734724  0.31623570  1
  S  S1  1  0.61544443  0.66074674  0.45234222  1
  S  S2  1  0.78654146  0.08216013  0.07735050  1
  S  S3  1  0.39250840  0.75320945  0.21928613  1
  S  S4  1  0.39338522  0.86687354  0.77659396  1
  S  S5  1  0.60661478  0.13312646  0.22340604  1
  S  S6  1  0.60749160  0.24679055  0.78071387  1
  S  S7  1  0.11544443  0.83925326  0.54765778  1
  S  S8  1  0.71345854  0.58216013  0.07735050  1
  S  S9  1  0.42446375  0.60734724  0.31623570  1
  S  S10  1  0.10661478  0.36687354  0.77659396  1
  S  S11  1  0.88455557  0.16074674  0.45234222  1
  S  S12  1  0.89250840  0.74679055  0.78071387  1
  S  S13  1  0.57553625  0.39265276  0.68376430  1
  S  S14  1  0.92446375  0.89265276  0.68376430  1
  S  S15  1  0.30594700  0.95046121  0.62583814  1
  S  S16  1  0.41759798  0.26189443  0.93482960  1
  S  S17  1  0.28654146  0.41783987  0.92264950  1
  S  S18  1  0.58240202  0.73810557  0.06517040  1
  S  S19  1  0.21345854  0.91783987  0.92264950  1
  S  S20  1  0.80594700  0.54953879  0.37416186  1
  S  S21  1  0.89338522  0.63312646  0.22340604  1
  S  S22  1  0.10749160  0.25320945  0.21928613  1
  S  S23  1  0.69405300  0.04953879  0.37416186  1
  S  S24  1  0.08240202  0.76189443  0.93482960  1
  S  S25  1  0.91759798  0.23810557  0.06517040  1
  S  S26  1  0.19405300  0.45046121  0.62583814  1
  S  S27  1  0.38455557  0.33925326  0.54765778  1
