# generated using pymatgen
data_LiMg6Cd
_symmetry_space_group_name_H-M   'P 1'
_cell_length_a   6.29416808
_cell_length_b   6.29416758
_cell_length_c   5.11744628
_cell_angle_alpha   90.00000000
_cell_angle_beta   90.00000000
_cell_angle_gamma   119.82919247
_symmetry_Int_Tables_number   1
_chemical_formula_structural   LiMg6Cd
_chemical_formula_sum   'Li1 Mg6 Cd1'
_cell_volume   175.87555719
_cell_formula_units_Z   1
loop_
 _symmetry_equiv_pos_site_id
 _symmetry_equiv_pos_as_xyz
  1  'x, y, z'
loop_
 _atom_site_type_symbol
 _atom_site_label
 _atom_site_symmetry_multiplicity
 _atom_site_fract_x
 _atom_site_fract_y
 _atom_site_fract_z
 _atom_site_occupancy
  Li  Li0  1  0.16738020  0.33261980  0.25000000  1
  Mg  Mg1  1  0.16733828  0.83441471  0.25000000  1
  Mg  Mg2  1  0.66558529  0.33266172  0.25000000  1
  Mg  Mg3  1  0.66628610  0.83371390  0.25000000  1
  Mg  Mg4  1  0.33301599  0.66334122  0.75000000  1
  Mg  Mg5  1  0.83665878  0.16698401  0.75000000  1
  Mg  Mg6  1  0.83287905  0.66712095  0.75000000  1
  Cd  Cd7  1  0.33085632  0.16914368  0.75000000  1
