# generated using pymatgen
data_NaNi5O6
_symmetry_space_group_name_H-M   'P 1'
_cell_length_a   5.18622050
_cell_length_b   5.19035595
_cell_length_c   5.19006556
_cell_angle_alpha   119.82080770
_cell_angle_beta   80.26118360
_cell_angle_gamma   80.26295033
_symmetry_Int_Tables_number   1
_chemical_formula_structural   NaNi5O6
_chemical_formula_sum   'Na1 Ni5 O6'
_cell_volume   114.10224917
_cell_formula_units_Z   1
loop_
 _symmetry_equiv_pos_site_id
 _symmetry_equiv_pos_as_xyz
  1  'x, y, z'
loop_
 _atom_site_type_symbol
 _atom_site_label
 _atom_site_symmetry_multiplicity
 _atom_site_fract_x
 _atom_site_fract_y
 _atom_site_fract_z
 _atom_site_occupancy
  Na  Na0  1  0.50000000  0.16666700  0.83333300  1
  Ni  Ni1  1  -0.00005402  0.00293492  0.99723533  1
  Ni  Ni2  1  0.00005402  0.33039808  0.66943167  1
  Ni  Ni3  1  0.00000000  0.66666700  0.33333300  1
  Ni  Ni4  1  0.49997683  0.49913482  0.50091588  1
  Ni  Ni5  1  0.50002317  0.83419918  0.16575112  1
  O  O6  1  0.24169518  0.25515638  0.27839904  1
  O  O7  1  0.75830482  0.07817662  0.38826696  1
  O  O8  1  0.76511888  0.43127890  0.09790842  1
  O  O9  1  0.24171546  0.61169754  0.92185147  1
  O  O10  1  0.23488112  0.90205410  0.56875858  1
  O  O11  1  0.75828454  0.72163546  0.74481553  1
