# generated using pymatgen
data_Cr2ReO6
_symmetry_space_group_name_H-M   'P 1'
_cell_length_a   4.61020588
_cell_length_b   4.61020588
_cell_length_c   9.16008811
_cell_angle_alpha   90.00000000
_cell_angle_beta   90.00000000
_cell_angle_gamma   90.00000000
_symmetry_Int_Tables_number   1
_chemical_formula_structural   Cr2ReO6
_chemical_formula_sum   'Cr4 Re2 O12'
_cell_volume   194.68849671
_cell_formula_units_Z   2
loop_
 _symmetry_equiv_pos_site_id
 _symmetry_equiv_pos_as_xyz
  1  'x, y, z'
loop_
 _atom_site_type_symbol
 _atom_site_label
 _atom_site_symmetry_multiplicity
 _atom_site_fract_x
 _atom_site_fract_y
 _atom_site_fract_z
 _atom_site_occupancy
  O  O0  1  0.69217507  0.69217507  0.66198380  1
  O  O1  1  0.30782499  0.30782499  0.66198380  1
  O  O2  1  0.69217507  0.69217507  0.33801591  1
  O  O3  1  0.19217394  0.80782611  0.16198395  1
  O  O4  1  0.80782611  0.19217394  0.16198395  1
  O  O5  1  0.80782611  0.19217394  0.83801576  1
  O  O6  1  0.29480855  0.29480855  0.00000000  1
  O  O7  1  0.20519038  0.79480967  0.49999985  1
  O  O8  1  0.79480967  0.20519038  0.49999985  1
  O  O9  1  0.19217394  0.80782611  0.83801576  1
  O  O10  1  0.30782499  0.30782499  0.33801591  1
  O  O11  1  0.70519151  0.70519151  0.00000000  1
  Cr  Cr12  1  0.00000000  0.00000000  0.33407119  1
  Cr  Cr13  1  0.49999893  0.49999893  0.83407104  1
  Cr  Cr14  1  0.00000000  0.00000000  0.66592852  1
  Cr  Cr15  1  0.49999893  0.49999893  0.16592867  1
  Re  Re16  1  0.00000000  0.00000000  0.00000000  1
  Re  Re17  1  0.49999893  0.49999893  0.49999985  1
