# generated using pymatgen
data_Fe2O3
_symmetry_space_group_name_H-M   'P 1'
_cell_length_a   8.27583787
_cell_length_b   8.27583817
_cell_length_c   8.27583849
_cell_angle_alpha   109.47122398
_cell_angle_beta   109.47122464
_cell_angle_gamma   109.47121591
_symmetry_Int_Tables_number   1
_chemical_formula_structural   Fe2O3
_chemical_formula_sum   'Fe16 O24'
_cell_volume   436.32898634
_cell_formula_units_Z   8
loop_
 _symmetry_equiv_pos_site_id
 _symmetry_equiv_pos_as_xyz
  1  'x, y, z'
loop_
 _atom_site_type_symbol
 _atom_site_label
 _atom_site_symmetry_multiplicity
 _atom_site_fract_x
 _atom_site_fract_y
 _atom_site_fract_z
 _atom_site_occupancy
  Fe  Fe0  1  0.21193882  0.75000000  0.96193882  1
  Fe  Fe1  1  0.96193882  0.21193882  0.75000000  1
  Fe  Fe2  1  0.78806118  0.25000000  0.03806118  1
  Fe  Fe3  1  0.25000000  0.03806118  0.78806118  1
  Fe  Fe4  1  0.71193882  0.75000000  0.46193882  1
  Fe  Fe5  1  0.75000000  0.96193882  0.21193882  1
  Fe  Fe6  1  0.25000000  0.53806118  0.28806118  1
  Fe  Fe7  1  0.75000000  0.46193882  0.71193882  1
  Fe  Fe8  1  0.00000000  0.50000000  0.50000000  1
  Fe  Fe9  1  0.28806118  0.25000000  0.53806118  1
  Fe  Fe10  1  0.53806118  0.28806118  0.25000000  1
  Fe  Fe11  1  0.46193882  0.71193882  0.75000000  1
  Fe  Fe12  1  0.03806118  0.78806118  0.25000000  1
  Fe  Fe13  1  0.00000000  0.00000000  0.00000000  1
  Fe  Fe14  1  0.50000000  0.00000000  0.50000000  1
  Fe  Fe15  1  0.50000000  0.50000000  0.00000000  1
  O  O16  1  0.27398064  0.04106446  0.04756232  1
  O  O17  1  0.95893554  0.95243768  0.72601936  1
  O  O18  1  0.54756232  0.50649787  0.77358168  1
  O  O19  1  0.45893554  0.73291619  0.00649787  1
  O  O20  1  0.04756232  0.27398064  0.04106446  1
  O  O21  1  0.76708381  0.22601936  0.27358168  1
  O  O22  1  0.73291619  0.00649787  0.45893554  1
  O  O23  1  0.72641832  0.23291619  0.77398064  1
  O  O24  1  0.95243768  0.72601936  0.95893554  1
  O  O25  1  0.77358168  0.54756232  0.50649787  1
  O  O26  1  0.50649787  0.77358168  0.54756232  1
  O  O27  1  0.77398064  0.72641832  0.23291619  1
  O  O28  1  0.54106446  0.26708381  0.99350213  1
  O  O29  1  0.22601936  0.27358168  0.76708381  1
  O  O30  1  0.04106446  0.04756232  0.27398064  1
  O  O31  1  0.26708381  0.99350213  0.54106446  1
  O  O32  1  0.27358168  0.76708381  0.22601936  1
  O  O33  1  0.22641832  0.45243768  0.49350213  1
  O  O34  1  0.49350213  0.22641832  0.45243768  1
  O  O35  1  0.99350213  0.54106446  0.26708381  1
  O  O36  1  0.23291619  0.77398064  0.72641832  1
  O  O37  1  0.00649787  0.45893554  0.73291619  1
  O  O38  1  0.72601936  0.95893554  0.95243768  1
  O  O39  1  0.45243768  0.49350213  0.22641832  1
