# generated using pymatgen
data_Mg7Ga
_symmetry_space_group_name_H-M   'P 1'
_cell_length_a   6.32336782
_cell_length_b   6.32336732
_cell_length_c   5.08402865
_cell_angle_alpha   90.00000000
_cell_angle_beta   90.00000000
_cell_angle_gamma   120.00000263
_symmetry_Int_Tables_number   1
_chemical_formula_structural   Mg7Ga
_chemical_formula_sum   'Mg7 Ga1'
_cell_volume   176.04977100
_cell_formula_units_Z   1
loop_
 _symmetry_equiv_pos_site_id
 _symmetry_equiv_pos_as_xyz
  1  'x, y, z'
loop_
 _atom_site_type_symbol
 _atom_site_label
 _atom_site_symmetry_multiplicity
 _atom_site_fract_x
 _atom_site_fract_y
 _atom_site_fract_z
 _atom_site_occupancy
  Mg  Mg0  1  0.16621449  0.83310675  0.25000000  1
  Mg  Mg1  1  0.66689325  0.33378551  0.25000000  1
  Mg  Mg2  1  0.66689325  0.83310675  0.25000000  1
  Mg  Mg3  1  0.33208847  0.16791153  0.75000000  1
  Mg  Mg4  1  0.33208847  0.66417793  0.75000000  1
  Mg  Mg5  1  0.83582207  0.16791153  0.75000000  1
  Mg  Mg6  1  0.83333300  0.66666700  0.75000000  1
  Ga  Ga7  1  0.16666700  0.33333300  0.25000000  1
