# generated using pymatgen
data_Mg7Sn
_symmetry_space_group_name_H-M   'P 1'
_cell_length_a   6.43296741
_cell_length_b   6.43296689
_cell_length_c   5.13319859
_cell_angle_alpha   90.00000000
_cell_angle_beta   90.00000000
_cell_angle_gamma   120.00000275
_symmetry_Int_Tables_number   1
_chemical_formula_structural   Mg7Sn
_chemical_formula_sum   'Mg7 Sn1'
_cell_volume   183.96760437
_cell_formula_units_Z   1
loop_
 _symmetry_equiv_pos_site_id
 _symmetry_equiv_pos_as_xyz
  1  'x, y, z'
loop_
 _atom_site_type_symbol
 _atom_site_label
 _atom_site_symmetry_multiplicity
 _atom_site_fract_x
 _atom_site_fract_y
 _atom_site_fract_z
 _atom_site_occupancy
  Mg  Mg0  1  0.16609388  0.83304644  0.25000000  1
  Mg  Mg1  1  0.66695356  0.33390612  0.25000000  1
  Mg  Mg2  1  0.66695356  0.83304644  0.25000000  1
  Mg  Mg3  1  0.33613976  0.16386024  0.75000000  1
  Mg  Mg4  1  0.33613976  0.67228053  0.75000000  1
  Mg  Mg5  1  0.82771947  0.16386024  0.75000000  1
  Mg  Mg6  1  0.83333300  0.66666700  0.75000000  1
  Sn  Sn7  1  0.16666700  0.33333300  0.25000000  1
