# generated using pymatgen
data_ZnWO4
_symmetry_space_group_name_H-M   'P 1'
_cell_length_a   4.88071875
_cell_length_b   4.90582519
_cell_length_c   7.45692576
_cell_angle_alpha   106.97930863
_cell_angle_beta   106.85110892
_cell_angle_gamma   96.45378876
_symmetry_Int_Tables_number   1
_chemical_formula_structural   ZnWO4
_chemical_formula_sum   'Zn2 W2 O8'
_cell_volume   159.60081018
_cell_formula_units_Z   2
loop_
 _symmetry_equiv_pos_site_id
 _symmetry_equiv_pos_as_xyz
  1  'x, y, z'
loop_
 _atom_site_type_symbol
 _atom_site_label
 _atom_site_symmetry_multiplicity
 _atom_site_fract_x
 _atom_site_fract_y
 _atom_site_fract_z
 _atom_site_occupancy
  O  O0  1  0.88425987  0.59720338  0.66784315  1
  W  W1  1  0.83238018  0.08228760  0.16473776  1
  O  O2  1  0.50258469  0.26360446  0.08681370  1
  O  O3  1  0.71634888  0.92927759  0.33222825  1
  O  O4  1  0.91585277  0.17679462  0.91319274  1
  O  O5  1  0.11576041  0.40281507  0.33216651  1
  O  O6  1  0.28365434  0.07072252  0.66776572  1
  Zn  Zn7  1  0.36491772  0.61493262  0.22993532  1
  W  W8  1  0.16762359  0.91771304  0.83526096  1
  O  O9  1  0.49740218  0.73638873  0.91318237  1
  O  O10  1  0.08413925  0.82320202  0.08681127  1
  Zn  Zn11  1  0.63507612  0.38505836  0.77006225  1
