# generated using pymatgen
data_B2S2O9
_symmetry_space_group_name_H-M   'P 1'
_cell_length_a   4.30089099
_cell_length_b   4.47779636
_cell_length_c   8.98101592
_cell_angle_alpha   92.97689069
_cell_angle_beta   90.00000000
_cell_angle_gamma   118.70149469
_symmetry_Int_Tables_number   1
_chemical_formula_structural   B2S2O9
_chemical_formula_sum   'B2 S2 O9'
_cell_volume   151.44378111
_cell_formula_units_Z   1
loop_
 _symmetry_equiv_pos_site_id
 _symmetry_equiv_pos_as_xyz
  1  'x, y, z'
loop_
 _atom_site_type_symbol
 _atom_site_label
 _atom_site_symmetry_multiplicity
 _atom_site_fract_x
 _atom_site_fract_y
 _atom_site_fract_z
 _atom_site_occupancy
  B  B0  1  0.82562587  0.00405140  0.85894953  1
  B  B1  1  0.82157447  0.99594860  0.14105047  1
  S  S2  1  0.49163184  0.33600056  0.73852633  1
  S  S3  1  0.15563129  0.66399944  0.26147367  1
  O  O4  1  0.62123681  0.33540604  0.59416483  1
  O  O5  1  0.28583078  0.66459396  0.40583517  1
  O  O6  1  0.51122560  0.66879115  0.79869785  1
  O  O7  1  0.84243445  0.33120885  0.20130215  1
  O  O8  1  0.68280471  0.25432630  0.86097205  1
  O  O9  1  0.42847841  0.74567370  0.13902795  1
  O  O10  1  0.09776614  0.08310453  0.74066096  1
  O  O11  1  0.01466161  0.91689547  0.25933904  1
  O  O12  1  0.95431799  0.00000000  -0.00000000  1
