# generated using pymatgen
data_NdSc3
_symmetry_space_group_name_H-M   'P 1'
_cell_length_a   6.83746285
_cell_length_b   6.83746224
_cell_length_c   5.38620353
_cell_angle_alpha   90.00000000
_cell_angle_beta   90.00000000
_cell_angle_gamma   119.99999761
_symmetry_Int_Tables_number   1
_chemical_formula_structural   NdSc3
_chemical_formula_sum   'Nd2 Sc6'
_cell_volume   218.07371547
_cell_formula_units_Z   2
loop_
 _symmetry_equiv_pos_site_id
 _symmetry_equiv_pos_as_xyz
  1  'x, y, z'
loop_
 _atom_site_type_symbol
 _atom_site_label
 _atom_site_symmetry_multiplicity
 _atom_site_fract_x
 _atom_site_fract_y
 _atom_site_fract_z
 _atom_site_occupancy
  Nd  Nd0  1  0.66666700  0.33333200  0.25000000  1
  Nd  Nd1  1  0.33333400  0.66666800  0.74999900  1
  Sc  Sc2  1  0.83790910  0.16209090  0.74999900  1
  Sc  Sc3  1  0.32418180  0.16209090  0.74999900  1
  Sc  Sc4  1  0.83790810  0.67581820  0.74999900  1
  Sc  Sc5  1  0.16209090  0.83791110  0.25000000  1
  Sc  Sc6  1  0.67582020  0.83791110  0.25000000  1
  Sc  Sc7  1  0.16209090  0.32418180  0.25000000  1
