# generated using pymatgen
data_MgZn
_symmetry_space_group_name_H-M   'P 1'
_cell_length_a   10.73417096
_cell_length_b   10.73417113
_cell_length_c   17.58799072
_cell_angle_alpha   90.00000000
_cell_angle_beta   90.00000000
_cell_angle_gamma   119.90250426
_symmetry_Int_Tables_number   1
_chemical_formula_structural   MgZn
_chemical_formula_sum   'Mg48 Zn48'
_cell_volume   1756.74897502
_cell_formula_units_Z   48
loop_
 _symmetry_equiv_pos_site_id
 _symmetry_equiv_pos_as_xyz
  1  'x, y, z'
loop_
 _atom_site_type_symbol
 _atom_site_label
 _atom_site_symmetry_multiplicity
 _atom_site_fract_x
 _atom_site_fract_y
 _atom_site_fract_z
 _atom_site_occupancy
  Mg  Mg0  1  0.66657976  0.83342024  0.21761944  1
  Mg  Mg1  1  0.83335082  0.16664918  0.28232886  1
  Mg  Mg2  1  0.49984596  0.00015404  0.74947647  1
  Mg  Mg3  1  0.66681450  0.83318550  0.71800016  1
  Mg  Mg4  1  0.83335082  0.16664918  0.96767114  1
  Mg  Mg5  1  0.49984596  0.50015404  0.24947647  1
  Mg  Mg6  1  0.00015336  0.49984664  0.25049926  1
  Mg  Mg7  1  0.33335082  0.66664918  0.96767114  1
  Mg  Mg8  1  0.16657976  0.83342024  0.71761944  1
  Mg  Mg9  1  0.16681450  0.83318550  0.03199984  1
  Mg  Mg10  1  0.66681450  0.33318550  0.21800016  1
  Mg  Mg11  1  0.83325350  0.16674650  0.78204736  1
  Mg  Mg12  1  0.83335082  0.66664918  0.46767114  1
  Mg  Mg13  1  0.66657976  0.33342024  0.71761944  1
  Mg  Mg14  1  0.66681450  0.83318550  0.53199984  1
  Mg  Mg15  1  0.16681450  0.83318550  0.21800016  1
  Mg  Mg16  1  0.16657976  0.33342024  0.21761944  1
  Mg  Mg17  1  0.33325350  0.16674650  0.96795264  1
  Mg  Mg18  1  0.66657976  0.33342024  0.53238056  1
  Mg  Mg19  1  0.50015336  0.99984664  0.99950074  1
  Mg  Mg20  1  0.16657976  0.83342024  0.53238056  1
  Mg  Mg21  1  0.99984596  0.50015404  0.50052353  1
  Mg  Mg22  1  0.83335082  0.66664918  0.78232886  1
  Mg  Mg23  1  0.50015336  0.99984664  0.25049926  1
  Mg  Mg24  1  0.16681450  0.33318550  0.71800016  1
  Mg  Mg25  1  0.33335082  0.16664918  0.46767114  1
  Mg  Mg26  1  0.99984596  0.00015404  0.24947647  1
  Mg  Mg27  1  0.33335082  0.66664918  0.28232886  1
  Mg  Mg28  1  0.66681450  0.33318550  0.03199984  1
  Mg  Mg29  1  0.16681450  0.33318550  0.53199984  1
  Mg  Mg30  1  0.33335082  0.16664918  0.78232886  1
  Mg  Mg31  1  0.00015336  0.49984664  0.99950074  1
  Mg  Mg32  1  0.00015336  0.99984664  0.75049926  1
  Mg  Mg33  1  0.33325350  0.16674650  0.28204736  1
  Mg  Mg34  1  0.49984596  0.00015404  0.50052353  1
  Mg  Mg35  1  0.50015336  0.49984664  0.49950074  1
  Mg  Mg36  1  0.83325350  0.66674650  0.96795264  1
  Mg  Mg37  1  0.66657976  0.83342024  0.03238056  1
  Mg  Mg38  1  0.00015336  0.99984664  0.49950074  1
  Mg  Mg39  1  0.83325350  0.66674650  0.28204736  1
  Mg  Mg40  1  0.50015336  0.49984664  0.75049926  1
  Mg  Mg41  1  0.99984596  0.00015404  0.00052353  1
  Mg  Mg42  1  0.33325350  0.66674650  0.46795264  1
  Mg  Mg43  1  0.33325350  0.66674650  0.78204736  1
  Mg  Mg44  1  0.99984596  0.50015404  0.74947647  1
  Mg  Mg45  1  0.83325350  0.16674650  0.46795264  1
  Mg  Mg46  1  0.16657976  0.33342024  0.03238056  1
  Mg  Mg47  1  0.49984596  0.50015404  0.00052353  1
  Zn  Zn48  1  0.41405146  0.58594854  0.62500000  1
  Zn  Zn49  1  0.08644024  0.41355976  0.37583253  1
  Zn  Zn50  1  0.82709886  0.41353013  0.87446575  1
  Zn  Zn51  1  0.08646987  0.17290114  0.37446575  1
  Zn  Zn52  1  0.67235727  0.08681519  0.12500000  1
  Zn  Zn53  1  0.32709886  0.41353013  0.37446575  1
  Zn  Zn54  1  0.17235727  0.08681519  0.62500000  1
  Zn  Zn55  1  0.91318481  0.82764273  0.62500000  1
  Zn  Zn56  1  0.32709886  0.91353013  0.37553425  1
  Zn  Zn57  1  0.58644024  0.41355976  0.87583253  1
  Zn  Zn58  1  0.58646987  0.17290114  0.37553425  1
  Zn  Zn59  1  0.67345826  0.08611543  0.62500000  1
  Zn  Zn60  1  0.08644024  0.91355976  0.87583253  1
  Zn  Zn61  1  0.32709886  0.41353013  0.87553425  1
  Zn  Zn62  1  0.17345826  0.58611543  0.62500000  1
  Zn  Zn63  1  0.08646987  0.67290114  0.37553425  1
  Zn  Zn64  1  0.91405146  0.08594854  0.62500000  1
  Zn  Zn65  1  0.58646987  0.17290114  0.87446575  1
  Zn  Zn66  1  0.58646987  0.67290114  0.37446575  1
  Zn  Zn67  1  0.58646987  0.67290114  0.87553425  1
  Zn  Zn68  1  0.58644024  0.41355976  0.37416747  1
  Zn  Zn69  1  0.91304989  0.58695011  0.62500000  1
  Zn  Zn70  1  0.91388457  0.82654174  0.12500000  1
  Zn  Zn71  1  0.41318481  0.82764273  0.12500000  1
  Zn  Zn72  1  0.67235727  0.58681519  0.62500000  1
  Zn  Zn73  1  0.41405146  0.08594854  0.12500000  1
  Zn  Zn74  1  0.82709886  0.41353013  0.37553425  1
  Zn  Zn75  1  0.41388457  0.32654174  0.12500000  1
  Zn  Zn76  1  0.08646987  0.67290114  0.87446575  1
  Zn  Zn77  1  0.08646987  0.17290114  0.87553425  1
  Zn  Zn78  1  0.41304989  0.08695011  0.62500000  1
  Zn  Zn79  1  0.17345826  0.08611543  0.12500000  1
  Zn  Zn80  1  0.91304989  0.08695011  0.12500000  1
  Zn  Zn81  1  0.32709886  0.91353013  0.87446575  1
  Zn  Zn82  1  0.82709886  0.91353013  0.37446575  1
  Zn  Zn83  1  0.91318481  0.32764273  0.12500000  1
  Zn  Zn84  1  0.91388457  0.32654174  0.62500000  1
  Zn  Zn85  1  0.17235727  0.58681519  0.12500000  1
  Zn  Zn86  1  0.67345826  0.58611543  0.12500000  1
  Zn  Zn87  1  0.08644024  0.41355976  0.87416747  1
  Zn  Zn88  1  0.58644024  0.91355976  0.87416747  1
  Zn  Zn89  1  0.41388457  0.82654174  0.62500000  1
  Zn  Zn90  1  0.91405146  0.58594854  0.12500000  1
  Zn  Zn91  1  0.58644024  0.91355976  0.37583253  1
  Zn  Zn92  1  0.08644024  0.91355976  0.37416747  1
  Zn  Zn93  1  0.41318481  0.32764273  0.62500000  1
  Zn  Zn94  1  0.41304989  0.58695011  0.12500000  1
  Zn  Zn95  1  0.82709886  0.91353013  0.87553425  1
