# generated using pymatgen
data_LiMnO2
_symmetry_space_group_name_H-M   'P 1'
_cell_length_a   2.95329142
_cell_length_b   3.08540343
_cell_length_c   10.11372094
_cell_angle_alpha   97.85835671
_cell_angle_beta   85.90442443
_cell_angle_gamma   121.49115754
_symmetry_Int_Tables_number   1
_chemical_formula_structural   LiMnO2
_chemical_formula_sum   'Li2 Mn2 O4'
_cell_volume   77.84637471
_cell_formula_units_Z   2
loop_
 _symmetry_equiv_pos_site_id
 _symmetry_equiv_pos_as_xyz
  1  'x, y, z'
loop_
 _atom_site_type_symbol
 _atom_site_label
 _atom_site_symmetry_multiplicity
 _atom_site_fract_x
 _atom_site_fract_y
 _atom_site_fract_z
 _atom_site_occupancy
  Li  Li0  1  0.34358711  0.74275535  0.24052774  1
  Li  Li1  1  0.65641289  0.39916825  0.74052774  1
  Mn  Mn2  1  0.35379297  0.65010245  0.49960477  1
  Mn  Mn3  1  0.64620703  0.29630948  0.99960477  1
  O  O4  1  0.27342112  0.62608810  0.88666220  1
  O  O5  1  0.01452995  0.97366918  0.11426628  1
  O  O6  1  0.98547005  0.95914022  0.61426628  1
  O  O7  1  0.72657888  0.35266698  0.38666220  1
