# generated using pymatgen
data_PuNi
_symmetry_space_group_name_H-M   'P 1'
_cell_length_a   3.74072888
_cell_length_b   3.98339269
_cell_length_c   5.51661169
_cell_angle_alpha   90.00000000
_cell_angle_beta   109.81853349
_cell_angle_gamma   90.00000000
_symmetry_Int_Tables_number   1
_chemical_formula_structural   PuNi
_chemical_formula_sum   'Pu2 Ni2'
_cell_volume   77.33316051
_cell_formula_units_Z   2
loop_
 _symmetry_equiv_pos_site_id
 _symmetry_equiv_pos_as_xyz
  1  'x, y, z'
loop_
 _atom_site_type_symbol
 _atom_site_label
 _atom_site_symmetry_multiplicity
 _atom_site_fract_x
 _atom_site_fract_y
 _atom_site_fract_z
 _atom_site_occupancy
  Ni  Ni0  1  0.42937247  0.75000000  0.85874494  1
  Ni  Ni1  1  0.57062753  0.25000000  0.14125506  1
  Pu  Pu2  1  0.14524478  0.75000000  0.29048956  1
  Pu  Pu3  1  0.85475522  0.25000000  0.70951044  1
