# generated using pymatgen
data_SrNiO3
_symmetry_space_group_name_H-M   'P 1'
_cell_length_a   5.50045052
_cell_length_b   3.88533486
_cell_length_c   3.87665859
_cell_angle_alpha   89.94774539
_cell_angle_beta   90.00511387
_cell_angle_gamma   45.08893293
_symmetry_Int_Tables_number   1
_chemical_formula_structural   SrNiO3
_chemical_formula_sum   'Sr1 Ni1 O3'
_cell_volume   58.67348917
_cell_formula_units_Z   1
loop_
 _symmetry_equiv_pos_site_id
 _symmetry_equiv_pos_as_xyz
  1  'x, y, z'
loop_
 _atom_site_type_symbol
 _atom_site_label
 _atom_site_symmetry_multiplicity
 _atom_site_fract_x
 _atom_site_fract_y
 _atom_site_fract_z
 _atom_site_occupancy
  Sr  Sr0  1  0.99858135  0.00685478  0.50330223  1
  Ni  Ni1  1  0.49864519  0.00663992  0.00426669  1
  O  O2  1  0.50938201  0.99491317  0.50482370  1
  O  O3  1  0.48709797  0.52005957  0.00751159  1
  O  O4  1  0.99845448  0.51470857  0.00739680  1
