# generated using pymatgen
data_H2C
_symmetry_space_group_name_H-M   'P 1'
_cell_length_a   7.17882863
_cell_length_b   4.93778896
_cell_length_c   2.56307595
_cell_angle_alpha   90.00000000
_cell_angle_beta   90.00000000
_cell_angle_gamma   90.00000000
_symmetry_Int_Tables_number   1
_chemical_formula_structural   H2C
_chemical_formula_sum   'H8 C4'
_cell_volume   90.85473920
_cell_formula_units_Z   4
loop_
 _symmetry_equiv_pos_site_id
 _symmetry_equiv_pos_as_xyz
  1  'x, y, z'
loop_
 _atom_site_type_symbol
 _atom_site_label
 _atom_site_symmetry_multiplicity
 _atom_site_fract_x
 _atom_site_fract_y
 _atom_site_fract_z
 _atom_site_occupancy
  H  H0  1  0.19302294  0.96289588  0.25000000  1
  H  H1  1  0.80697706  0.03710412  0.75000000  1
  H  H2  1  0.30697706  0.46289588  0.75000000  1
  H  H3  1  0.69302294  0.53710412  0.25000000  1
  H  H4  1  0.01458297  0.71785783  0.25000000  1
  H  H5  1  0.98541703  0.28214217  0.75000000  1
  H  H6  1  0.48541703  0.21785783  0.75000000  1
  H  H7  1  0.51458297  0.78214217  0.25000000  1
  C  C8  1  0.04024165  0.93843116  0.25000000  1
  C  C9  1  0.95975835  0.06156884  0.75000000  1
  C  C10  1  0.45975835  0.43843116  0.75000000  1
  C  C11  1  0.54024165  0.56156884  0.25000000  1
