# generated using pymatgen
data_MgZn5
_symmetry_space_group_name_H-M   'P 1'
_cell_length_a   10.18774788
_cell_length_b   10.18774788
_cell_length_c   17.63574636
_cell_angle_alpha   85.91950147
_cell_angle_beta   94.08049852
_cell_angle_gamma   120.66903543
_symmetry_Int_Tables_number   1
_chemical_formula_structural   MgZn5
_chemical_formula_sum   'Mg16 Zn80'
_cell_volume   1569.10568873
_cell_formula_units_Z   16
loop_
 _symmetry_equiv_pos_site_id
 _symmetry_equiv_pos_as_xyz
  1  'x, y, z'
loop_
 _atom_site_type_symbol
 _atom_site_label
 _atom_site_symmetry_multiplicity
 _atom_site_fract_x
 _atom_site_fract_y
 _atom_site_fract_z
 _atom_site_occupancy
  Mg  Mg0  1  0.82726986  0.17273014  0.28090505  1
  Mg  Mg1  1  0.17273014  0.82726986  0.71909495  1
  Mg  Mg2  1  0.67273014  0.32726986  0.71909495  1
  Mg  Mg3  1  0.17273014  0.32726986  0.21909495  1
  Mg  Mg4  1  0.33430734  0.16569266  0.96648706  1
  Mg  Mg5  1  0.66569266  0.33430734  0.53351294  1
  Mg  Mg6  1  0.16569266  0.83430734  0.53351294  1
  Mg  Mg7  1  0.82726986  0.67273014  0.78090505  1
  Mg  Mg8  1  0.32726986  0.67273014  0.28090505  1
  Mg  Mg9  1  0.32726986  0.17273014  0.78090505  1
  Mg  Mg10  1  0.83430734  0.66569266  0.96648706  1
  Mg  Mg11  1  0.66569266  0.83430734  0.03351294  1
  Mg  Mg12  1  0.33430734  0.66569266  0.46648706  1
  Mg  Mg13  1  0.67273014  0.82726986  0.21909495  1
  Mg  Mg14  1  0.83430734  0.16569266  0.46648706  1
  Mg  Mg15  1  0.16569266  0.33430734  0.03351294  1
  Zn  Zn16  1  0.00000000  0.00000000  0.50000000  1
  Zn  Zn17  1  0.66537035  0.83462965  0.53533581  1
  Zn  Zn18  1  0.66813232  0.83186768  0.71079657  1
  Zn  Zn19  1  0.41752171  0.58247829  0.12314473  1
  Zn  Zn20  1  0.08247829  0.41752171  0.37685527  1
  Zn  Zn21  1  0.82717502  0.41940375  0.36956785  1
  Zn  Zn22  1  0.08257992  0.17031619  0.37199935  1
  Zn  Zn23  1  0.83462965  0.16537035  0.96466419  1
  Zn  Zn24  1  0.49114190  0.00885810  0.24676352  1
  Zn  Zn25  1  0.99114190  0.00885810  0.74676352  1
  Zn  Zn26  1  0.67031619  0.08257992  0.12800065  1
  Zn  Zn27  1  0.32968381  0.41742008  0.37199935  1
  Zn  Zn28  1  0.33462965  0.66537035  0.96466419  1
  Zn  Zn29  1  0.17031619  0.08257992  0.62800065  1
  Zn  Zn30  1  0.91742008  0.82968381  0.62800065  1
  Zn  Zn31  1  0.32717502  0.91940375  0.36956785  1
  Zn  Zn32  1  0.16537035  0.83462965  0.03533581  1
  Zn  Zn33  1  0.91940375  0.32717502  0.63043215  1
  Zn  Zn34  1  0.83186768  0.16813232  0.78920343  1
  Zn  Zn35  1  0.83462965  0.66537035  0.46466419  1
  Zn  Zn36  1  0.58059625  0.17282498  0.36956785  1
  Zn  Zn37  1  0.16813232  0.83186768  0.21079657  1
  Zn  Zn38  1  0.67282498  0.08059625  0.63043215  1
  Zn  Zn39  1  0.08247829  0.91752171  0.87685527  1
  Zn  Zn40  1  0.50000000  0.00000000  0.50000000  1
  Zn  Zn41  1  0.66813232  0.33186768  0.21079657  1
  Zn  Zn42  1  0.32717502  0.41940375  0.86956785  1
  Zn  Zn43  1  0.91940375  0.82717502  0.13043215  1
  Zn  Zn44  1  0.17282498  0.58059625  0.63043215  1
  Zn  Zn45  1  0.08059625  0.67282498  0.36956785  1
  Zn  Zn46  1  0.58347906  0.41652094  0.38798719  1
  Zn  Zn47  1  0.50000000  0.00000000  0.00000000  1
  Zn  Zn48  1  0.91652094  0.08347906  0.61201281  1
  Zn  Zn49  1  0.00000000  0.00000000  0.00000000  1
  Zn  Zn50  1  0.58257992  0.17031619  0.87199935  1
  Zn  Zn51  1  0.58257992  0.67031619  0.37199935  1
  Zn  Zn52  1  0.00885810  0.99114190  0.25323648  1
  Zn  Zn53  1  0.58059625  0.67282498  0.86956785  1
  Zn  Zn54  1  0.91752171  0.58247829  0.62314473  1
  Zn  Zn55  1  0.50000000  0.50000000  0.00000000  1
  Zn  Zn56  1  0.41742008  0.82968381  0.12800065  1
  Zn  Zn57  1  0.67031619  0.58257992  0.62800065  1
  Zn  Zn58  1  0.50885810  0.49114190  0.25323648  1
  Zn  Zn59  1  0.41652094  0.08347906  0.11201281  1
  Zn  Zn60  1  0.16813232  0.33186768  0.71079657  1
  Zn  Zn61  1  0.33462965  0.16537035  0.46466419  1
  Zn  Zn62  1  0.58247829  0.41752171  0.87685527  1
  Zn  Zn63  1  0.82968381  0.41742008  0.87199935  1
  Zn  Zn64  1  0.17282498  0.08059625  0.13043215  1
  Zn  Zn65  1  0.66537035  0.33462965  0.03533581  1
  Zn  Zn66  1  0.16537035  0.33462965  0.53533581  1
  Zn  Zn67  1  0.08059625  0.17282498  0.86956785  1
  Zn  Zn68  1  0.00000000  0.50000000  0.50000000  1
  Zn  Zn69  1  0.00885810  0.49114190  0.75323648  1
  Zn  Zn70  1  0.41752171  0.08247829  0.62314473  1
  Zn  Zn71  1  0.58247829  0.91752171  0.37685527  1
  Zn  Zn72  1  0.33186768  0.16813232  0.28920343  1
  Zn  Zn73  1  0.50885810  0.99114190  0.75323648  1
  Zn  Zn74  1  0.50000000  0.50000000  0.50000000  1
  Zn  Zn75  1  0.41742008  0.32968381  0.62800065  1
  Zn  Zn76  1  0.91752171  0.08247829  0.12314473  1
  Zn  Zn77  1  0.32968381  0.91742008  0.87199935  1
  Zn  Zn78  1  0.08347906  0.91652094  0.38798719  1
  Zn  Zn79  1  0.83186768  0.66813232  0.28920343  1
  Zn  Zn80  1  0.00000000  0.50000000  0.00000000  1
  Zn  Zn81  1  0.82968381  0.91742008  0.37199935  1
  Zn  Zn82  1  0.33186768  0.66813232  0.78920343  1
  Zn  Zn83  1  0.08347906  0.41652094  0.88798719  1
  Zn  Zn84  1  0.91742008  0.32968381  0.12800065  1
  Zn  Zn85  1  0.17031619  0.58257992  0.12800065  1
  Zn  Zn86  1  0.67282498  0.58059625  0.13043215  1
  Zn  Zn87  1  0.58347906  0.91652094  0.88798719  1
  Zn  Zn88  1  0.41652094  0.58347906  0.61201281  1
  Zn  Zn89  1  0.49114190  0.50885810  0.74676352  1
  Zn  Zn90  1  0.91652094  0.58347906  0.11201281  1
  Zn  Zn91  1  0.99114190  0.50885810  0.24676352  1
  Zn  Zn92  1  0.08257992  0.67031619  0.87199935  1
  Zn  Zn93  1  0.41940375  0.32717502  0.13043215  1
  Zn  Zn94  1  0.41940375  0.82717502  0.63043215  1
  Zn  Zn95  1  0.82717502  0.91940375  0.86956785  1
