# generated using pymatgen
data_Li4NiOF4
_symmetry_space_group_name_H-M   'P 1'
_cell_length_a   2.90629193
_cell_length_b   2.90629193
_cell_length_c   10.61099989
_cell_angle_alpha   97.87122799
_cell_angle_beta   82.12877201
_cell_angle_gamma   90.00000000
_symmetry_Int_Tables_number   1
_chemical_formula_structural   Li4NiOF4
_chemical_formula_sum   'Li4 Ni1 O1 F4'
_cell_volume   87.92919814
_cell_formula_units_Z   1
loop_
 _symmetry_equiv_pos_site_id
 _symmetry_equiv_pos_as_xyz
  1  'x, y, z'
loop_
 _atom_site_type_symbol
 _atom_site_label
 _atom_site_symmetry_multiplicity
 _atom_site_fract_x
 _atom_site_fract_y
 _atom_site_fract_z
 _atom_site_occupancy
  Li  Li0  1  0.39907913  0.60092087  0.20184173  1
  Li  Li1  1  0.79837680  0.20162320  0.40324640  1
  Li  Li2  1  0.20162320  0.79837680  0.59675360  1
  Li  Li3  1  0.60092087  0.39907913  0.79815827  1
  Ni  Ni4  1  0.00000000  0.00000000  0.00000000  1
  O  O5  1  0.50000000  0.50000000  0.00000000  1
  F  F6  1  0.89606851  0.10393149  0.20786298  1
  F  F7  1  0.29905971  0.70094029  0.40188058  1
  F  F8  1  0.70094029  0.29905971  0.59811942  1
  F  F9  1  0.10393149  0.89606851  0.79213702  1
