# generated using pymatgen
data_YMg5
_symmetry_space_group_name_H-M   'P 1'
_cell_length_a   3.67976257
_cell_length_b   6.26986464
_cell_length_c   7.03432065
_cell_angle_alpha   73.09076084
_cell_angle_beta   90.00000000
_cell_angle_gamma   107.06451069
_symmetry_Int_Tables_number   1
_chemical_formula_structural   YMg5
_chemical_formula_sum   'Y1 Mg5'
_cell_volume   147.79287747
_cell_formula_units_Z   1
loop_
 _symmetry_equiv_pos_site_id
 _symmetry_equiv_pos_as_xyz
  1  'x, y, z'
loop_
 _atom_site_type_symbol
 _atom_site_label
 _atom_site_symmetry_multiplicity
 _atom_site_fract_x
 _atom_site_fract_y
 _atom_site_fract_z
 _atom_site_occupancy
  Y  Y0  1  0.36124067  0.72248234  0.77797730  1
  Mg  Mg1  1  0.03656030  0.07311960  0.94971181  1
  Mg  Mg2  1  0.68962385  0.37924770  0.12251629  1
  Mg  Mg3  1  0.36101394  0.72202888  0.27820956  1
  Mg  Mg4  1  0.03290129  0.06580359  0.43216359  1
  Mg  Mg5  1  0.68532495  0.37065189  0.60608545  1
