# generated using pymatgen
data_NaLaO2
_symmetry_space_group_name_H-M   'P 1'
_cell_length_a   3.68185938
_cell_length_b   6.00360647
_cell_length_c   3.68185928
_cell_angle_alpha   107.85669496
_cell_angle_beta   60.00000872
_cell_angle_gamma   107.85670419
_symmetry_Int_Tables_number   1
_chemical_formula_structural   NaLaO2
_chemical_formula_sum   'Na1 La1 O2'
_cell_volume   65.91583983
_cell_formula_units_Z   1
loop_
 _symmetry_equiv_pos_site_id
 _symmetry_equiv_pos_as_xyz
  1  'x, y, z'
loop_
 _atom_site_type_symbol
 _atom_site_label
 _atom_site_symmetry_multiplicity
 _atom_site_fract_x
 _atom_site_fract_y
 _atom_site_fract_z
 _atom_site_occupancy
  Na  Na0  1  0.00000000  0.00000000  0.00000000  1
  La  La1  1  0.50000000  0.50000000  0.50000000  1
  O  O2  1  0.76129325  0.28388075  0.76129325  1
  O  O3  1  0.23870675  0.71611925  0.23870675  1
