# generated using pymatgen
data_V(CoSe2)2
_symmetry_space_group_name_H-M   'P 1'
_cell_length_a   3.50120133
_cell_length_b   6.34834001
_cell_length_c   6.51680164
_cell_angle_alpha   119.01008157
_cell_angle_beta   105.58268934
_cell_angle_gamma   90.00000000
_symmetry_Int_Tables_number   1
_chemical_formula_structural   V(CoSe2)2
_chemical_formula_sum   'V1 Co2 Se4'
_cell_volume   120.55031758
_cell_formula_units_Z   1
loop_
 _symmetry_equiv_pos_site_id
 _symmetry_equiv_pos_as_xyz
  1  'x, y, z'
loop_
 _atom_site_type_symbol
 _atom_site_label
 _atom_site_symmetry_multiplicity
 _atom_site_fract_x
 _atom_site_fract_y
 _atom_site_fract_z
 _atom_site_occupancy
  V  V0  1  -0.00000000  0.00000000  0.00000000  1
  Co  Co1  1  0.25721060  0.27403677  0.51442120  1
  Co  Co2  1  0.74278940  0.72596323  0.48557880  1
  Se  Se3  1  0.13222118  0.45724806  0.26444235  1
  Se  Se4  1  0.86777882  0.54275194  0.73555765  1
  Se  Se5  1  0.36403593  0.03447584  0.72807186  1
  Se  Se6  1  0.63596407  0.96552416  0.27192814  1
