# generated using pymatgen
data_Li2LaTa2O7
_symmetry_space_group_name_H-M   'P 1'
_cell_length_a   4.00099541
_cell_length_b   4.00099541
_cell_length_c   9.70659765
_cell_angle_alpha   101.89370612
_cell_angle_beta   101.89370610
_cell_angle_gamma   89.99999999
_symmetry_Int_Tables_number   1
_chemical_formula_structural   Li2LaTa2O7
_chemical_formula_sum   'Li2 La1 Ta2 O7'
_cell_volume   148.63638841
_cell_formula_units_Z   1
loop_
 _symmetry_equiv_pos_site_id
 _symmetry_equiv_pos_as_xyz
  1  'x, y, z'
loop_
 _atom_site_type_symbol
 _atom_site_label
 _atom_site_symmetry_multiplicity
 _atom_site_fract_x
 _atom_site_fract_y
 _atom_site_fract_z
 _atom_site_occupancy
  Li  Li0  1  0.75000000  0.25000000  0.50000000  1
  Li  Li1  1  0.25000000  0.75000000  0.50000000  1
  O  O2  1  0.71531298  0.71531298  0.43062596  1
  O  O3  1  0.50000000  0.50000000  0.00000000  1
  O  O4  1  0.09710121  0.59710121  0.19420242  1
  O  O5  1  0.59710121  0.09710121  0.19420242  1
  O  O6  1  0.40289879  0.90289879  0.80579758  1
  O  O7  1  0.90289879  0.40289879  0.80579758  1
  O  O8  1  0.28468702  0.28468702  0.56937404  1
  La  La9  1  0.00000000  0.00000000  0.00000000  1
  Ta  Ta10  1  0.61292818  0.61292818  0.22585635  1
  Ta  Ta11  1  0.38707182  0.38707182  0.77414365  1
