# generated using pymatgen
data_Na2ZrN2
_symmetry_space_group_name_H-M   'P 1'
_cell_length_a   3.35728546
_cell_length_b   3.35728751
_cell_length_c   8.88551957
_cell_angle_alpha   90.00000180
_cell_angle_beta   90.00004060
_cell_angle_gamma   120.00001582
_symmetry_Int_Tables_number   1
_chemical_formula_structural   Na2ZrN2
_chemical_formula_sum   'Na2 Zr1 N2'
_cell_volume   86.73416360
_cell_formula_units_Z   1
loop_
 _symmetry_equiv_pos_site_id
 _symmetry_equiv_pos_as_xyz
  1  'x, y, z'
loop_
 _atom_site_type_symbol
 _atom_site_label
 _atom_site_symmetry_multiplicity
 _atom_site_fract_x
 _atom_site_fract_y
 _atom_site_fract_z
 _atom_site_occupancy
  Na  Na0  1  0.66666800  0.33333400  0.29326771  1
  Na  Na1  1  0.33333200  0.66666600  0.70673229  1
  Zr  Zr2  1  0.00000000  0.00000000  -0.00000000  1
  N  N3  1  0.66666600  0.33333300  0.86862582  1
  N  N4  1  0.33333400  0.66666700  0.13137418  1
