# generated using pymatgen
data_Sc(BC)2
_symmetry_space_group_name_H-M   'P 1'
_cell_length_a   3.45124743
_cell_length_b   5.28401525
_cell_length_c   10.20318603
_cell_angle_alpha   90.00000000
_cell_angle_beta   90.00000000
_cell_angle_gamma   90.00000000
_symmetry_Int_Tables_number   1
_chemical_formula_structural   Sc(BC)2
_chemical_formula_sum   'Sc4 B8 C8'
_cell_volume   186.06983118
_cell_formula_units_Z   4
loop_
 _symmetry_equiv_pos_site_id
 _symmetry_equiv_pos_as_xyz
  1  'x, y, z'
loop_
 _atom_site_type_symbol
 _atom_site_label
 _atom_site_symmetry_multiplicity
 _atom_site_fract_x
 _atom_site_fract_y
 _atom_site_fract_z
 _atom_site_occupancy
  B  B0  1  0.50000000  0.98623831  0.31101595  1
  B  B1  1  0.50000000  0.01376169  0.68898405  1
  B  B2  1  0.50000000  0.51376169  0.81101595  1
  B  B3  1  0.50000000  0.48623831  0.18898405  1
  B  B4  1  0.50000000  0.35604496  0.46450605  1
  B  B5  1  0.50000000  0.64395504  0.53549395  1
  B  B6  1  0.50000000  0.85604496  0.03549395  1
  B  B7  1  0.50000000  0.14395504  0.96450605  1
  C  C8  1  0.50000000  0.29631136  0.30924378  1
  C  C9  1  0.50000000  0.70368864  0.69075622  1
  C  C10  1  0.50000000  0.20368864  0.80924378  1
  C  C11  1  0.50000000  0.79631136  0.19075622  1
  C  C12  1  0.50000000  0.39260810  0.04455322  1
  C  C13  1  0.50000000  0.60739190  0.95544678  1
  C  C14  1  0.50000000  0.89260810  0.45544678  1
  C  C15  1  0.50000000  0.10739190  0.54455322  1
  Sc  Sc16  1  0.00000000  0.36280024  0.64858922  1
  Sc  Sc17  1  0.00000000  0.63719976  0.35141078  1
  Sc  Sc18  1  0.00000000  0.86280024  0.85141078  1
  Sc  Sc19  1  0.00000000  0.13719976  0.14858922  1
