# generated using pymatgen
data_Mn3B4
_symmetry_space_group_name_H-M   'P 1'
_cell_length_a   2.95752836
_cell_length_b   2.97325207
_cell_length_c   6.72072117
_cell_angle_alpha   102.77762530
_cell_angle_beta   102.71082917
_cell_angle_gamma   90.00000001
_symmetry_Int_Tables_number   1
_chemical_formula_structural   Mn3B4
_chemical_formula_sum   'Mn3 B4'
_cell_volume   56.14891475
_cell_formula_units_Z   1
loop_
 _symmetry_equiv_pos_site_id
 _symmetry_equiv_pos_as_xyz
  1  'x, y, z'
loop_
 _atom_site_type_symbol
 _atom_site_label
 _atom_site_symmetry_multiplicity
 _atom_site_fract_x
 _atom_site_fract_y
 _atom_site_fract_z
 _atom_site_occupancy
  B  B0  1  0.93281404  0.43283160  0.86562808  1
  B  B1  1  0.06718596  0.56716840  0.13437192  1
  B  B2  1  0.35745531  0.35746301  0.71491062  1
  B  B3  1  0.64254469  0.64253699  0.28508938  1
  Mn  Mn4  1  0.18632088  0.18631213  0.37264176  1
  Mn  Mn5  1  0.81367912  0.81368787  0.62735824  1
  Mn  Mn6  1  0.50000000  0.00000000  0.00000000  1
