# generated using pymatgen
data_LiMn2O4
_symmetry_space_group_name_H-M   'P 1'
_cell_length_a   5.82004067
_cell_length_b   5.82004067
_cell_length_c   6.07090612
_cell_angle_alpha   62.00609684
_cell_angle_beta   59.47996473
_cell_angle_gamma   88.89189132
_symmetry_Int_Tables_number   1
_chemical_formula_structural   LiMn2O4
_chemical_formula_sum   'Li2 Mn4 O8'
_cell_volume   149.79631026
_cell_formula_units_Z   2
loop_
 _symmetry_equiv_pos_site_id
 _symmetry_equiv_pos_as_xyz
  1  'x, y, z'
loop_
 _atom_site_type_symbol
 _atom_site_label
 _atom_site_symmetry_multiplicity
 _atom_site_fract_x
 _atom_site_fract_y
 _atom_site_fract_z
 _atom_site_occupancy
  Li  Li0  1  0.50000000  0.00000000  0.50000000  1
  Li  Li1  1  0.50000000  0.50000000  0.00000000  1
  Mn  Mn2  1  0.00000000  0.50000000  0.50000000  1
  Mn  Mn3  1  0.00000000  0.00000000  0.50000000  1
  Mn  Mn4  1  0.00000000  0.00000000  0.00000000  1
  Mn  Mn5  1  0.50000000  0.00000000  0.00000000  1
  O  O6  1  0.26451271  0.78949437  0.98449766  1
  O  O7  1  0.22136203  0.19833503  0.05848165  1
  O  O8  1  0.25681669  0.77984368  0.44151835  1
  O  O9  1  0.22600797  0.25098963  0.48449766  1
  O  O10  1  0.77399203  0.74901037  0.51550234  1
  O  O11  1  0.74318331  0.22015632  0.55848165  1
  O  O12  1  0.77863797  0.80166497  0.94151835  1
  O  O13  1  0.73548729  0.21050563  0.01550234  1
