# generated using pymatgen
data_Li2Mn3O6
_symmetry_space_group_name_H-M   'P 1'
_cell_length_a   2.88443768
_cell_length_b   5.16562395
_cell_length_c   7.43504283
_cell_angle_alpha   79.67005657
_cell_angle_beta   78.81191651
_cell_angle_gamma   89.99754723
_symmetry_Int_Tables_number   1
_chemical_formula_structural   Li2Mn3O6
_chemical_formula_sum   'Li2 Mn3 O6'
_cell_volume   106.84538957
_cell_formula_units_Z   1
loop_
 _symmetry_equiv_pos_site_id
 _symmetry_equiv_pos_as_xyz
  1  'x, y, z'
loop_
 _atom_site_type_symbol
 _atom_site_label
 _atom_site_symmetry_multiplicity
 _atom_site_fract_x
 _atom_site_fract_y
 _atom_site_fract_z
 _atom_site_occupancy
  Li  Li0  1  0.18240921  0.07279141  0.63476002  1
  Li  Li1  1  0.81710140  0.92723608  0.36515087  1
  Mn  Mn2  1  0.00011215  0.99997920  0.99974679  1
  Mn  Mn3  1  0.64913432  0.54985250  0.70177849  1
  Mn  Mn4  1  0.35077040  0.45052617  0.29868405  1
  O  O5  1  0.42840081  0.12049463  0.14325602  1
  O  O6  1  0.57175413  0.87932634  0.85648636  1
  O  O7  1  0.90824352  0.67081788  0.18375769  1
  O  O8  1  0.09187470  0.32911616  0.81623659  1
  O  O9  1  0.77272768  0.26745737  0.45464645  1
  O  O10  1  0.22729568  0.73239527  0.54549567  1
