# generated using pymatgen
data_CeVO4
_symmetry_space_group_name_H-M   'P 1'
_cell_length_a   6.12147431
_cell_length_b   6.12147431
_cell_length_c   6.12147431
_cell_angle_alpha   106.52509089
_cell_angle_beta   106.52509089
_cell_angle_gamma   115.53926845
_symmetry_Int_Tables_number   1
_chemical_formula_structural   CeVO4
_chemical_formula_sum   'Ce2 V2 O8'
_cell_volume   175.08088328
_cell_formula_units_Z   2
loop_
 _symmetry_equiv_pos_site_id
 _symmetry_equiv_pos_as_xyz
  1  'x, y, z'
loop_
 _atom_site_type_symbol
 _atom_site_label
 _atom_site_symmetry_multiplicity
 _atom_site_fract_x
 _atom_site_fract_y
 _atom_site_fract_z
 _atom_site_occupancy
  Ce  Ce0  1  0.87500000  0.12500000  0.25000000  1
  Ce  Ce1  1  0.12500000  0.87500000  0.75000000  1
  V  V2  1  0.62500000  0.37500000  0.75000000  1
  V  V3  1  0.37500000  0.62500000  0.25000000  1
  O  O4  1  0.26549945  0.19807385  0.56742560  1
  O  O5  1  0.19807385  0.26549945  0.06742560  1
  O  O6  1  0.19807385  0.63064825  0.43257440  1
  O  O7  1  0.63064825  0.19807385  0.93257440  1
  O  O8  1  0.73450055  0.80192615  0.43257440  1
  O  O9  1  0.80192615  0.73450055  0.93257440  1
  O  O10  1  0.80192615  0.36935175  0.56742560  1
  O  O11  1  0.36935175  0.80192615  0.06742560  1
