# generated using pymatgen
data_Li3Ni2O2F3
_symmetry_space_group_name_H-M   'P 1'
_cell_length_a   2.94037436
_cell_length_b   2.94037436
_cell_length_c   10.59642974
_cell_angle_alpha   97.97515235
_cell_angle_beta   97.97515235
_cell_angle_gamma   90.00000000
_symmetry_Int_Tables_number   1
_chemical_formula_structural   Li3Ni2O2F3
_chemical_formula_sum   'Li3 Ni2 O2 F3'
_cell_volume   89.83375506
_cell_formula_units_Z   1
loop_
 _symmetry_equiv_pos_site_id
 _symmetry_equiv_pos_as_xyz
  1  'x, y, z'
loop_
 _atom_site_type_symbol
 _atom_site_label
 _atom_site_symmetry_multiplicity
 _atom_site_fract_x
 _atom_site_fract_y
 _atom_site_fract_z
 _atom_site_occupancy
  Li  Li0  1  0.20123410  0.20123410  0.40246819  1
  Li  Li1  1  0.80000000  0.80000000  0.60000000  1
  Li  Li2  1  0.39876590  0.39876590  0.79753181  1
  Ni  Ni3  1  0.00032042  0.00032042  0.00064185  1
  Ni  Ni4  1  0.59967958  0.59967958  0.19935815  1
  O  O5  1  0.49824337  0.49824337  0.99648775  1
  O  O6  1  0.10175663  0.10175663  0.20351225  1
  F  F7  1  0.70401429  0.70401429  0.40802859  1
  F  F8  1  0.30000000  0.30000000  0.60000000  1
  F  F9  1  0.89598571  0.89598571  0.79197141  1
