# generated using pymatgen
data_Br2O
_symmetry_space_group_name_H-M   'P 1'
_cell_length_a   4.34793175
_cell_length_b   7.08528976
_cell_length_c   10.40958042
_cell_angle_alpha   90.00000000
_cell_angle_beta   90.00000000
_cell_angle_gamma   90.00000000
_symmetry_Int_Tables_number   1
_chemical_formula_structural   Br2O
_chemical_formula_sum   'Br8 O4'
_cell_volume   320.68124341
_cell_formula_units_Z   4
loop_
 _symmetry_equiv_pos_site_id
 _symmetry_equiv_pos_as_xyz
  1  'x, y, z'
loop_
 _atom_site_type_symbol
 _atom_site_label
 _atom_site_symmetry_multiplicity
 _atom_site_fract_x
 _atom_site_fract_y
 _atom_site_fract_z
 _atom_site_occupancy
  O  O0  1  0.30768227  0.69688790  0.14479113  1
  O  O1  1  0.69231773  0.19688790  0.85520887  1
  O  O2  1  0.19231773  0.69688790  0.64479113  1
  O  O3  1  0.80768227  0.19688790  0.35520887  1
  Br  Br4  1  0.62252590  0.32190173  0.50703975  1
  Br  Br5  1  0.37747410  0.82190173  0.49296025  1
  Br  Br6  1  0.87747410  0.32190173  0.00703975  1
  Br  Br7  1  0.12252590  0.82190173  0.99296025  1
  Br  Br8  1  0.07190471  0.50311037  0.21579937  1
  Br  Br9  1  0.92809529  1.00311037  0.78420063  1
  Br  Br10  1  0.42809529  0.50311037  0.71579937  1
  Br  Br11  1  0.57190471  1.00311037  0.28420063  1
