# generated using pymatgen
data_VCuO4
_symmetry_space_group_name_H-M   'P 1'
_cell_length_a   5.82000035
_cell_length_b   5.82000050
_cell_length_c   5.82000034
_cell_angle_alpha   115.45194376
_cell_angle_beta   121.66524539
_cell_angle_gamma   92.59585006
_symmetry_Int_Tables_number   1
_chemical_formula_structural   VCuO4
_chemical_formula_sum   'V2 Cu2 O8'
_cell_volume   141.78097302
_cell_formula_units_Z   2
loop_
 _symmetry_equiv_pos_site_id
 _symmetry_equiv_pos_as_xyz
  1  'x, y, z'
loop_
 _atom_site_type_symbol
 _atom_site_label
 _atom_site_symmetry_multiplicity
 _atom_site_fract_x
 _atom_site_fract_y
 _atom_site_fract_z
 _atom_site_occupancy
  O  O0  1  0.22971036  0.78813882  0.05842746  1
  O  O1  1  0.16662117  0.65889680  0.50772536  1
  O  O2  1  0.83337883  0.34110220  0.49227564  1
  O  O3  1  0.34882756  0.34110220  0.00772436  1
  O  O4  1  0.77028864  0.82871710  0.55842846  1
  O  O5  1  0.77028964  0.21186118  0.94157254  1
  O  O6  1  0.65117244  0.65889680  0.99227564  1
  O  O7  1  0.22971136  0.17128290  0.44157154  1
  V  V8  1  0.71734899  0.46734999  0.25000000  1
  V  V9  1  0.28264901  0.53265001  0.75000000  1
  Cu  Cu10  1  0.50000100  0.00000000  0.50000000  1
  Cu  Cu11  1  0.00000000  0.00000000  0.00000000  1
