# generated using pymatgen
data_Fe2CoO4
_symmetry_space_group_name_H-M   'P 1'
_cell_length_a   6.03930038
_cell_length_b   6.03936239
_cell_length_c   18.06599462
_cell_angle_alpha   59.90433947
_cell_angle_beta   59.90432788
_cell_angle_gamma   59.99980541
_symmetry_Int_Tables_number   1
_chemical_formula_structural   Fe2CoO4
_chemical_formula_sum   'Fe12 Co6 O24'
_cell_volume   465.25865324
_cell_formula_units_Z   6
loop_
 _symmetry_equiv_pos_site_id
 _symmetry_equiv_pos_as_xyz
  1  'x, y, z'
loop_
 _atom_site_type_symbol
 _atom_site_label
 _atom_site_symmetry_multiplicity
 _atom_site_fract_x
 _atom_site_fract_y
 _atom_site_fract_z
 _atom_site_occupancy
  Co  Co0  1  0.49668715  0.49991878  0.00002360  1
  Co  Co1  1  0.50332537  0.49666635  0.33333696  1
  Co  Co2  1  0.50018621  0.00014452  0.49991505  1
  Co  Co3  1  0.99984079  0.49982564  0.16676467  1
  Co  Co4  1  0.50008255  0.50330232  0.66664860  1
  Co  Co5  1  0.49992385  0.50005818  0.83332795  1
  Fe  Fe6  1  0.12613621  0.12064482  0.04311722  1
  Fe  Fe7  1  0.49977696  0.00136162  0.16596191  1
  Fe  Fe8  1  0.12391441  0.12598700  0.37646947  1
  Fe  Fe9  1  0.50040808  0.49904131  0.16727154  1
  Fe  Fe10  1  0.99865554  0.50023270  0.50069124  1
  Fe  Fe11  1  0.12055341  0.12389834  0.70984480  1
  Fe  Fe12  1  0.50095290  0.49961388  0.49940323  1
  Fe  Fe13  1  0.87401202  0.87611004  0.29019281  1
  Fe  Fe14  1  0.49879420  0.99855074  0.83409991  1
  Fe  Fe15  1  0.87934837  0.87389317  0.62355163  1
  Fe  Fe16  1  0.00143913  0.50118504  0.83256559  1
  Fe  Fe17  1  0.87610215  0.87944676  0.95681728  1
  O  O18  1  0.25902085  0.24611628  0.08688522  1
  O  O19  1  0.26181822  0.73052395  0.08654480  1
  O  O20  1  0.26598792  0.25069302  0.24410385  1
  O  O21  1  0.73011045  0.25141168  0.08893059  1
  O  O22  1  0.27005437  0.74813560  0.24449604  1
  O  O23  1  0.24830693  0.26166013  0.41988868  1
  O  O24  1  0.73403620  0.74902937  0.08923768  1
  O  O25  1  0.74090879  0.26543471  0.24647264  1
  O  O26  1  0.25185835  0.72996201  0.42218479  1
  O  O27  1  0.25098215  0.26596734  0.57742109  1
  O  O28  1  0.73835253  0.75171907  0.24677177  1
  O  O29  1  0.73456316  0.25910140  0.42017746  1
  O  O30  1  0.26946322  0.73818385  0.58012498  1
  O  O31  1  0.25187464  0.25204064  0.75539962  1
  O  O32  1  0.74860715  0.26990706  0.57772772  1
  O  O33  1  0.74929142  0.73404514  0.42256708  1
  O  O34  1  0.24556524  0.73469132  0.75362120  1
  O  O35  1  0.25057262  0.25084556  0.91080848  1
  O  O36  1  0.75385720  0.74096035  0.57980315  1
  O  O37  1  0.73041003  0.24817230  0.75323538  1
  O  O38  1  0.26532158  0.75438198  0.91303477  1
  O  O39  1  0.74913379  0.74941653  0.75585600  1
  O  O40  1  0.75180842  0.26959086  0.91343694  1
  O  O41  1  0.74795547  0.74812861  0.91126663  1
