# generated using pymatgen
data_BaBrCl
_symmetry_space_group_name_H-M   'P 1'
_cell_length_a   5.06240897
_cell_length_b   8.14812595
_cell_length_c   10.28632732
_cell_angle_alpha   90.00000000
_cell_angle_beta   90.00000000
_cell_angle_gamma   90.00000000
_symmetry_Int_Tables_number   1
_chemical_formula_structural   BaBrCl
_chemical_formula_sum   'Ba4 Br4 Cl4'
_cell_volume   424.30221638
_cell_formula_units_Z   4
loop_
 _symmetry_equiv_pos_site_id
 _symmetry_equiv_pos_as_xyz
  1  'x, y, z'
loop_
 _atom_site_type_symbol
 _atom_site_label
 _atom_site_symmetry_multiplicity
 _atom_site_fract_x
 _atom_site_fract_y
 _atom_site_fract_z
 _atom_site_occupancy
  Cl  Cl0  1  0.25000000  0.49691415  0.64754295  1
  Cl  Cl1  1  0.75000000  0.50308585  0.35245705  1
  Cl  Cl2  1  0.25000000  -0.00308585  0.85245705  1
  Cl  Cl3  1  0.75000000  1.00308585  0.14754295  1
  Br  Br4  1  0.75000000  0.86152053  0.59199346  1
  Br  Br5  1  0.25000000  0.13847947  0.40800654  1
  Br  Br6  1  0.75000000  0.36152053  0.90800654  1
  Br  Br7  1  0.25000000  0.63847947  0.09199346  1
  Ba  Ba8  1  0.25000000  0.72826026  0.40674266  1
  Ba  Ba9  1  0.75000000  0.27173974  0.59325734  1
  Ba  Ba10  1  0.25000000  0.22826026  0.09325734  1
  Ba  Ba11  1  0.75000000  0.77173974  0.90674266  1
