# generated using pymatgen
data_BaCO3
_symmetry_space_group_name_H-M   'P 1'
_cell_length_a   4.65732837
_cell_length_b   5.43441886
_cell_length_c   6.15233542
_cell_angle_alpha   90.00000000
_cell_angle_beta   103.63575760
_cell_angle_gamma   90.00000000
_symmetry_Int_Tables_number   1
_chemical_formula_structural   BaCO3
_chemical_formula_sum   'Ba2 C2 O6'
_cell_volume   151.32586044
_cell_formula_units_Z   2
loop_
 _symmetry_equiv_pos_site_id
 _symmetry_equiv_pos_as_xyz
  1  'x, y, z'
loop_
 _atom_site_type_symbol
 _atom_site_label
 _atom_site_symmetry_multiplicity
 _atom_site_fract_x
 _atom_site_fract_y
 _atom_site_fract_z
 _atom_site_occupancy
  Ba  Ba0  1  0.12282845  0.26883884  0.76642048  1
  Ba  Ba1  1  0.87717155  0.76883884  0.23357952  1
  C  C2  1  0.50317865  0.76878763  0.74409669  1
  C  C3  1  0.49682135  0.26878763  0.25590331  1
  O  O4  1  0.22013308  0.76880580  0.65377622  1
  O  O5  1  0.64080504  0.56106154  0.79590548  1
  O  O6  1  0.64101772  0.97650619  0.79509713  1
  O  O7  1  0.35919496  0.06106154  0.20409452  1
  O  O8  1  0.35898228  0.47650619  0.20490287  1
  O  O9  1  0.77986692  0.26880580  0.34622378  1
