# generated using pymatgen
data_BeZnO2
_symmetry_space_group_name_H-M   'P 1'
_cell_length_a   4.30880004
_cell_length_b   4.30879874
_cell_length_c   5.03362369
_cell_angle_alpha   115.33953043
_cell_angle_beta   115.33954759
_cell_angle_gamma   90.00139802
_symmetry_Int_Tables_number   1
_chemical_formula_structural   BeZnO2
_chemical_formula_sum   'Be2 Zn2 O4'
_cell_volume   74.39085388
_cell_formula_units_Z   2
loop_
 _symmetry_equiv_pos_site_id
 _symmetry_equiv_pos_as_xyz
  1  'x, y, z'
loop_
 _atom_site_type_symbol
 _atom_site_label
 _atom_site_symmetry_multiplicity
 _atom_site_fract_x
 _atom_site_fract_y
 _atom_site_fract_z
 _atom_site_occupancy
  Be  Be0  1  0.25001029  0.74997702  0.49999259  1
  O  O1  1  0.12498901  0.68968390  0.74999166  1
  O  O2  1  0.93968493  0.87498849  0.24999191  1
  Be  Be3  1  0.99997730  0.00001331  0.99999304  1
  O  O4  1  0.31032974  0.37499975  0.25000322  1
  O  O5  1  0.62500001  0.06032942  0.75000367  1
  Zn  Zn6  1  0.75000896  0.24999941  0.50001230  1
  Zn  Zn7  1  0.49999974  0.50000871  0.00001162  1
