# generated using pymatgen
data_LiScI3
_symmetry_space_group_name_H-M   'P 1'
_cell_length_a   7.48567035
_cell_length_b   7.48567035
_cell_length_c   6.70449035
_cell_angle_alpha   90.00000000
_cell_angle_beta   90.00000000
_cell_angle_gamma   120.00000002
_symmetry_Int_Tables_number   1
_chemical_formula_structural   LiScI3
_chemical_formula_sum   'Li2 Sc2 I6'
_cell_volume   325.35523414
_cell_formula_units_Z   2
loop_
 _symmetry_equiv_pos_site_id
 _symmetry_equiv_pos_as_xyz
  1  'x, y, z'
loop_
 _atom_site_type_symbol
 _atom_site_label
 _atom_site_symmetry_multiplicity
 _atom_site_fract_x
 _atom_site_fract_y
 _atom_site_fract_z
 _atom_site_occupancy
  Li  Li0  1  0.33333333  0.66666667  0.50000000  1
  Li  Li1  1  0.33333333  0.66666667  0.00000000  1
  Sc  Sc2  1  0.00000000  0.00000000  0.00000000  1
  Sc  Sc3  1  0.00000000  0.00000000  0.50000000  1
  I  I4  1  0.66918711  0.67253671  0.75000000  1
  I  I5  1  0.00334960  0.33081289  0.75000000  1
  I  I6  1  0.32746329  0.99665040  0.75000000  1
  I  I7  1  0.32746329  0.33081289  0.25000000  1
  I  I8  1  0.66918711  0.99665040  0.25000000  1
  I  I9  1  0.00334960  0.67253671  0.25000000  1
