# generated using pymatgen
data_LaUO4
_symmetry_space_group_name_H-M   'P 1'
_cell_length_a   3.84747247
_cell_length_b   3.84744359
_cell_length_c   5.63290383
_cell_angle_alpha   89.99960245
_cell_angle_beta   90.00204253
_cell_angle_gamma   90.00067604
_symmetry_Int_Tables_number   1
_chemical_formula_structural   LaUO4
_chemical_formula_sum   'La1 U1 O4'
_cell_volume   83.38349940
_cell_formula_units_Z   1
loop_
 _symmetry_equiv_pos_site_id
 _symmetry_equiv_pos_as_xyz
  1  'x, y, z'
loop_
 _atom_site_type_symbol
 _atom_site_label
 _atom_site_symmetry_multiplicity
 _atom_site_fract_x
 _atom_site_fract_y
 _atom_site_fract_z
 _atom_site_occupancy
  La  La0  1  0.50000896  0.50001280  0.50001182  1
  U  U1  1  0.00001205  -0.00001647  -0.00001705  1
  O  O2  1  0.99999132  0.50000094  0.22552647  1
  O  O3  1  0.49999292  0.00000497  0.22551581  1
  O  O4  1  0.99999470  0.49999083  0.77448305  1
  O  O5  1  0.50000005  0.00000693  0.77447989  1
