# generated using pymatgen
data_LiCuS
_symmetry_space_group_name_H-M   'P 1'
_cell_length_a   4.76447386
_cell_length_b   7.57352660
_cell_length_c   7.57352660
_cell_angle_alpha   95.67815880
_cell_angle_beta   108.33352742
_cell_angle_gamma   71.66647258
_symmetry_Int_Tables_number   1
_chemical_formula_structural   LiCuS
_chemical_formula_sum   'Li4 Cu4 S4'
_cell_volume   246.24349360
_cell_formula_units_Z   4
loop_
 _symmetry_equiv_pos_site_id
 _symmetry_equiv_pos_as_xyz
  1  'x, y, z'
loop_
 _atom_site_type_symbol
 _atom_site_label
 _atom_site_symmetry_multiplicity
 _atom_site_fract_x
 _atom_site_fract_y
 _atom_site_fract_z
 _atom_site_occupancy
  Li  Li0  1  0.24959281  0.15631933  0.15550495  1
  Li  Li1  1  0.90591214  0.84449505  0.15631933  1
  Li  Li2  1  0.59408786  0.15550495  0.84368067  1
  Li  Li3  1  0.25040719  0.84368067  0.84449505  1
  Cu  Cu4  1  0.89499085  0.20966776  0.49964846  1
  Cu  Cu5  1  0.60465861  0.50035154  0.20966776  1
  Cu  Cu6  1  0.89534139  0.49964846  0.79033224  1
  Cu  Cu7  1  0.60500915  0.79033224  0.50035154  1
  S  S8  1  0.74963095  0.20242209  0.20168498  1
  S  S9  1  0.45205303  0.79831502  0.20242209  1
  S  S10  1  0.04794697  0.20168498  0.79757791  1
  S  S11  1  0.75036905  0.79757791  0.79831502  1
