# generated using pymatgen
data_Zr5N5O2
_symmetry_space_group_name_H-M   'P 1'
_cell_length_a   3.11537184
_cell_length_b   5.52655417
_cell_length_c   9.25826252
_cell_angle_alpha   75.03112357
_cell_angle_beta   89.95609158
_cell_angle_gamma   73.60149653
_symmetry_Int_Tables_number   1
_chemical_formula_structural   Zr5N5O2
_chemical_formula_sum   'Zr5 N5 O2'
_cell_volume   147.28027647
_cell_formula_units_Z   1
loop_
 _symmetry_equiv_pos_site_id
 _symmetry_equiv_pos_as_xyz
  1  'x, y, z'
loop_
 _atom_site_type_symbol
 _atom_site_label
 _atom_site_symmetry_multiplicity
 _atom_site_fract_x
 _atom_site_fract_y
 _atom_site_fract_z
 _atom_site_occupancy
  Zr  Zr0  1  0.11777447  0.77036294  0.92889683  1
  Zr  Zr1  1  0.69511929  0.59932220  0.30971953  1
  Zr  Zr2  1  0.29330943  0.41003098  0.69265219  1
  Zr  Zr3  1  0.89209203  0.22047953  0.08194621  1
  Zr  Zr4  1  0.99396612  0.00395914  0.50462305  1
  N  N5  1  0.50839238  0.98630722  0.01175309  1
  N  N6  1  0.65018313  0.69149621  0.55788042  1
  N  N7  1  0.74070867  0.52257018  0.85698519  1
  N  N8  1  0.26544908  0.46858043  0.15200529  1
  N  N9  1  0.33675697  0.31769952  0.44898609  1
  O  O10  1  0.03897549  0.90967795  0.29282087  1
  O  O11  1  0.95000593  0.09212471  0.71818526  1
