# generated using pymatgen
data_Al2Mo3C
_symmetry_space_group_name_H-M   'P 1'
_cell_length_a   6.88994728
_cell_length_b   6.88994728
_cell_length_c   6.88994728
_cell_angle_alpha   90.00000000
_cell_angle_beta   90.00000000
_cell_angle_gamma   90.00000000
_symmetry_Int_Tables_number   1
_chemical_formula_structural   Al2Mo3C
_chemical_formula_sum   'Al8 Mo12 C4'
_cell_volume   327.07526087
_cell_formula_units_Z   4
loop_
 _symmetry_equiv_pos_site_id
 _symmetry_equiv_pos_as_xyz
  1  'x, y, z'
loop_
 _atom_site_type_symbol
 _atom_site_label
 _atom_site_symmetry_multiplicity
 _atom_site_fract_x
 _atom_site_fract_y
 _atom_site_fract_z
 _atom_site_occupancy
  C  C0  1  0.87500000  0.12500000  0.62500000  1
  C  C1  1  0.12500000  0.62500000  0.87500000  1
  C  C2  1  0.62500000  0.87500000  0.12500000  1
  C  C3  1  0.37500000  0.37500000  0.37500000  1
  Al  Al4  1  0.56670661  0.43329339  0.93329339  1
  Al  Al5  1  0.68329339  0.68329339  0.68329339  1
  Al  Al6  1  0.93329339  0.56670661  0.43329339  1
  Al  Al7  1  0.43329339  0.93329339  0.56670661  1
  Al  Al8  1  0.18329339  0.81670661  0.31670661  1
  Al  Al9  1  0.81670661  0.31670661  0.18329339  1
  Al  Al10  1  0.31670661  0.18329339  0.81670661  1
  Al  Al11  1  0.06670661  0.06670661  0.06670661  1
  Mo  Mo12  1  0.62500000  0.29821329  0.54821329  1
  Mo  Mo13  1  0.70178671  0.04821329  0.87500000  1
  Mo  Mo14  1  0.54821329  0.62500000  0.29821329  1
  Mo  Mo15  1  0.95178671  0.37500000  0.79821329  1
  Mo  Mo16  1  0.29821329  0.54821329  0.62500000  1
  Mo  Mo17  1  0.45178671  0.12500000  0.20178671  1
  Mo  Mo18  1  0.04821329  0.87500000  0.70178671  1
  Mo  Mo19  1  0.79821329  0.95178671  0.37500000  1
  Mo  Mo20  1  0.20178671  0.45178671  0.12500000  1
  Mo  Mo21  1  0.87500000  0.70178671  0.04821329  1
  Mo  Mo22  1  0.37500000  0.79821329  0.95178671  1
  Mo  Mo23  1  0.12500000  0.20178671  0.45178671  1
