# generated using pymatgen
data_ScVO3
_symmetry_space_group_name_H-M   'P 1'
_cell_length_a   5.39991608
_cell_length_b   7.81944510
_cell_length_c   5.09617990
_cell_angle_alpha   90.00000000
_cell_angle_beta   90.00000000
_cell_angle_gamma   90.00000000
_symmetry_Int_Tables_number   1
_chemical_formula_structural   ScVO3
_chemical_formula_sum   'Sc4 V4 O12'
_cell_volume   215.18287016
_cell_formula_units_Z   4
loop_
 _symmetry_equiv_pos_site_id
 _symmetry_equiv_pos_as_xyz
  1  'x, y, z'
loop_
 _atom_site_type_symbol
 _atom_site_label
 _atom_site_symmetry_multiplicity
 _atom_site_fract_x
 _atom_site_fract_y
 _atom_site_fract_z
 _atom_site_occupancy
  Sc  Sc0  1  0.06158220  0.25000000  0.98139242  1
  Sc  Sc1  1  0.43841780  0.75000000  0.48139242  1
  Sc  Sc2  1  0.56158220  0.25000000  0.51860758  1
  Sc  Sc3  1  0.93841780  0.75000000  0.01860758  1
  V  V4  1  0.00000000  0.00000000  0.50000000  1
  V  V5  1  0.00000000  0.50000000  0.50000000  1
  V  V6  1  0.50000000  0.00000000  0.00000000  1
  V  V7  1  0.50000000  0.50000000  0.00000000  1
  O  O8  1  0.07454838  0.75000000  0.64504422  1
  O  O9  1  0.19201367  0.57499399  0.18381660  1
  O  O10  1  0.19201367  0.92500601  0.18381660  1
  O  O11  1  0.30798633  0.07499399  0.68381660  1
  O  O12  1  0.30798633  0.42500601  0.68381660  1
  O  O13  1  0.42545162  0.25000000  0.14504422  1
  O  O14  1  0.57454838  0.75000000  0.85495578  1
  O  O15  1  0.69201367  0.57499399  0.31618340  1
  O  O16  1  0.69201367  0.92500601  0.31618340  1
  O  O17  1  0.80798633  0.07499399  0.81618340  1
  O  O18  1  0.80798633  0.42500601  0.81618340  1
  O  O19  1  0.92545162  0.25000000  0.35495578  1
