# generated using pymatgen
data_Y2O3
_symmetry_space_group_name_H-M   'P 1'
_cell_length_a   5.82879786
_cell_length_b   6.10017426
_cell_length_c   5.82879757
_cell_angle_alpha   118.53898765
_cell_angle_beta   60.00000401
_cell_angle_gamma   118.53898333
_symmetry_Int_Tables_number   1
_chemical_formula_structural   Y2O3
_chemical_formula_sum   'Y4 O6'
_cell_volume   149.70312771
_cell_formula_units_Z   2
loop_
 _symmetry_equiv_pos_site_id
 _symmetry_equiv_pos_as_xyz
  1  'x, y, z'
loop_
 _atom_site_type_symbol
 _atom_site_label
 _atom_site_symmetry_multiplicity
 _atom_site_fract_x
 _atom_site_fract_y
 _atom_site_fract_z
 _atom_site_occupancy
  Y  Y0  1  0.14194432  0.42583196  0.14194432  1
  Y  Y1  1  0.35805568  0.07416804  0.35805568  1
  Y  Y2  1  0.64194332  0.92583096  0.64194332  1
  Y  Y3  1  0.85805668  0.57416904  0.85805668  1
  O  O4  1  0.25000000  0.75000000  0.54297694  1
  O  O5  1  0.04297694  0.25000000  0.75000000  1
  O  O6  1  0.45702306  0.25000000  0.04297694  1
  O  O7  1  0.54297694  0.75000000  0.95702306  1
  O  O8  1  0.95702306  0.75000000  0.25000000  1
  O  O9  1  0.75000000  0.25000000  0.45702306  1
