# generated using pymatgen
data_PbWO4
_symmetry_space_group_name_H-M   'P 1'
_cell_length_a   5.56797965
_cell_length_b   5.56797964
_cell_length_c   7.28151658
_cell_angle_alpha   112.47848826
_cell_angle_beta   112.47848831
_cell_angle_gamma   90.00000002
_symmetry_Int_Tables_number   1
_chemical_formula_structural   PbWO4
_chemical_formula_sum   'Pb2 W2 O8'
_cell_volume   189.89894656
_cell_formula_units_Z   2
loop_
 _symmetry_equiv_pos_site_id
 _symmetry_equiv_pos_as_xyz
  1  'x, y, z'
loop_
 _atom_site_type_symbol
 _atom_site_label
 _atom_site_symmetry_multiplicity
 _atom_site_fract_x
 _atom_site_fract_y
 _atom_site_fract_z
 _atom_site_occupancy
  O  O0  1  0.19237888  0.56713873  0.91447733  1
  O  O1  1  0.34733861  0.69237888  0.41447733  1
  O  O2  1  0.06713873  0.22209845  0.41447733  1
  O  O3  1  0.72209845  0.84733861  0.91447733  1
  O  O4  1  0.27790155  0.15266139  0.08552267  1
  O  O5  1  0.93286127  0.77790155  0.58552267  1
  O  O6  1  0.65266139  0.30762112  0.58552267  1
  O  O7  1  0.80762112  0.43286127  0.08552267  1
  W  W8  1  0.87500000  0.62500000  0.75000000  1
  W  W9  1  0.12500000  0.37500000  0.25000000  1
  Pb  Pb10  1  0.37500000  0.12500000  0.75000000  1
  Pb  Pb11  1  0.62500000  0.87500000  0.25000000  1
