# generated using pymatgen
data_Cs3YF6
_symmetry_space_group_name_H-M   'P 1'
_cell_length_a   7.30464294
_cell_length_b   7.30464294
_cell_length_c   7.23195205
_cell_angle_alpha   120.33305674
_cell_angle_beta   120.33305676
_cell_angle_gamma   90.00000003
_symmetry_Int_Tables_number   1
_chemical_formula_structural   Cs3YF6
_chemical_formula_sum   'Cs3 Y1 F6'
_cell_volume   270.08870027
_cell_formula_units_Z   1
loop_
 _symmetry_equiv_pos_site_id
 _symmetry_equiv_pos_as_xyz
  1  'x, y, z'
loop_
 _atom_site_type_symbol
 _atom_site_label
 _atom_site_symmetry_multiplicity
 _atom_site_fract_x
 _atom_site_fract_y
 _atom_site_fract_z
 _atom_site_occupancy
  F  F0  1  0.70110722  0.00000000  0.00000000  1
  F  F1  1  0.00000000  0.70110722  0.00000000  1
  F  F2  1  1.00000000  0.29889278  1.00000000  1
  F  F3  1  0.29889278  1.00000000  0.00000000  1
  F  F4  1  0.22094563  0.22094563  0.44189126  1
  F  F5  1  0.77905437  0.77905437  0.55810874  1
  Y  Y6  1  0.00000000  0.00000000  0.00000000  1
  Cs  Cs7  1  0.25000000  0.75000000  0.50000000  1
  Cs  Cs8  1  0.50000000  0.50000000  0.00000000  1
  Cs  Cs9  1  0.75000000  0.25000000  0.50000000  1
