# generated using pymatgen
data_Ni5O6
_symmetry_space_group_name_H-M   'P 1'
_cell_length_a   5.20180938
_cell_length_b   5.09807636
_cell_length_c   5.09717890
_cell_angle_alpha   118.17569221
_cell_angle_beta   79.08369768
_cell_angle_gamma   79.10726760
_symmetry_Int_Tables_number   1
_chemical_formula_structural   Ni5O6
_chemical_formula_sum   'Ni5 O6'
_cell_volume   110.78278146
_cell_formula_units_Z   1
loop_
 _symmetry_equiv_pos_site_id
 _symmetry_equiv_pos_as_xyz
  1  'x, y, z'
loop_
 _atom_site_type_symbol
 _atom_site_label
 _atom_site_symmetry_multiplicity
 _atom_site_fract_x
 _atom_site_fract_y
 _atom_site_fract_z
 _atom_site_occupancy
  Ni  Ni0  1  0.00000000  0.66666700  0.33333300  1
  Ni  Ni1  1  0.00022779  0.00569015  0.99441603  1
  Ni  Ni2  1  0.49994551  0.83667599  0.16363578  1
  Ni  Ni3  1  0.50005449  0.49665701  0.50303022  1
  Ni  Ni4  1  0.99977221  0.32764285  0.67224997  1
  O  O5  1  0.23348667  0.26381749  0.29923847  1
  O  O6  1  0.21479975  0.92296906  0.58949076  1
  O  O7  1  0.23362878  0.63271063  0.93043061  1
  O  O8  1  0.76651333  0.06951651  0.36742753  1
  O  O9  1  0.78520025  0.41036494  0.07717624  1
  O  O10  1  0.76637122  0.70062237  0.73623539  1
