# generated using pymatgen
data_RuRh3
_symmetry_space_group_name_H-M   'P 1'
_cell_length_a   5.47691131
_cell_length_b   5.47691058
_cell_length_c   4.37095722
_cell_angle_alpha   90.00000000
_cell_angle_beta   90.00000000
_cell_angle_gamma   119.99999810
_symmetry_Int_Tables_number   1
_chemical_formula_structural   RuRh3
_chemical_formula_sum   'Ru2 Rh6'
_cell_volume   113.54775561
_cell_formula_units_Z   2
loop_
 _symmetry_equiv_pos_site_id
 _symmetry_equiv_pos_as_xyz
  1  'x, y, z'
loop_
 _atom_site_type_symbol
 _atom_site_label
 _atom_site_symmetry_multiplicity
 _atom_site_fract_x
 _atom_site_fract_y
 _atom_site_fract_z
 _atom_site_occupancy
  Ru  Ru0  1  0.33333300  0.66666700  0.74999900  1
  Ru  Ru1  1  0.66666700  0.33333300  0.24999900  1
  Rh  Rh2  1  0.16746052  0.33492103  0.24999900  1
  Rh  Rh3  1  0.66508097  0.83253848  0.24999900  1
  Rh  Rh4  1  0.16745752  0.83253848  0.24999900  1
  Rh  Rh5  1  0.83254048  0.66507997  0.74999900  1
  Rh  Rh6  1  0.33491903  0.16745952  0.74999900  1
  Rh  Rh7  1  0.83253948  0.16745952  0.74999900  1
