# generated using pymatgen
data_Na2FeO3
_symmetry_space_group_name_H-M   'P 1'
_cell_length_a   6.14604416
_cell_length_b   6.44919704
_cell_length_c   5.10079238
_cell_angle_alpha   90.00000000
_cell_angle_beta   90.00000000
_cell_angle_gamma   61.54315051
_symmetry_Int_Tables_number   1
_chemical_formula_structural   Na2FeO3
_chemical_formula_sum   'Na4 Fe2 O6'
_cell_volume   177.75216621
_cell_formula_units_Z   2
loop_
 _symmetry_equiv_pos_site_id
 _symmetry_equiv_pos_as_xyz
  1  'x, y, z'
loop_
 _atom_site_type_symbol
 _atom_site_label
 _atom_site_symmetry_multiplicity
 _atom_site_fract_x
 _atom_site_fract_y
 _atom_site_fract_z
 _atom_site_occupancy
  Na  Na0  1  0.83873231  0.66915814  0.51205278  1
  Na  Na1  1  0.49210855  0.66915814  0.01205278  1
  Na  Na2  1  0.50789145  0.33084186  0.51205278  1
  Na  Na3  1  0.16126769  0.33084186  0.01205278  1
  Fe  Fe4  1  0.82821097  0.00000000  0.04666003  1
  Fe  Fe5  1  0.17178903  1.00000000  0.54666003  1
  O  O6  1  0.84639285  0.71883779  0.99094867  1
  O  O7  1  0.43476936  0.71883779  0.49094867  1
  O  O8  1  0.56523064  0.28116221  0.99094867  1
  O  O9  1  0.15360715  0.28116221  0.49094867  1
  O  O10  1  0.88559955  0.00000000  0.40533708  1
  O  O11  1  0.11440045  1.00000000  0.90533708  1
