# generated using pymatgen
data_LiVN2
_symmetry_space_group_name_H-M   'P 1'
_cell_length_a   5.46863215
_cell_length_b   6.65077029
_cell_length_c   5.08226069
_cell_angle_alpha   90.00000000
_cell_angle_beta   90.00000000
_cell_angle_gamma   90.00000000
_symmetry_Int_Tables_number   1
_chemical_formula_structural   LiVN2
_chemical_formula_sum   'Li4 V4 N8'
_cell_volume   184.84495314
_cell_formula_units_Z   4
loop_
 _symmetry_equiv_pos_site_id
 _symmetry_equiv_pos_as_xyz
  1  'x, y, z'
loop_
 _atom_site_type_symbol
 _atom_site_label
 _atom_site_symmetry_multiplicity
 _atom_site_fract_x
 _atom_site_fract_y
 _atom_site_fract_z
 _atom_site_occupancy
  Li  Li0  1  0.58232903  0.87710792  0.99165981  1
  Li  Li1  1  0.41767097  0.12289208  0.49165981  1
  Li  Li2  1  0.91767097  0.37710792  0.49165981  1
  Li  Li3  1  0.08232903  0.62289208  0.99165981  1
  V  V4  1  0.57392413  0.37471044  0.00459446  1
  V  V5  1  0.42607587  0.62528956  0.50459446  1
  V  V6  1  0.92607587  0.87471044  0.50459446  1
  V  V7  1  0.07392413  0.12528956  0.00459446  1
  N  N8  1  0.55379450  0.40070908  0.35756827  1
  N  N9  1  0.44620550  0.59929092  0.85756827  1
  N  N10  1  0.94620550  0.90070908  0.85756827  1
  N  N11  1  0.05379450  0.09929092  0.35756827  1
  N  N12  1  0.60551282  0.84547678  0.41617747  1
  N  N13  1  0.39448718  0.15452322  0.91617747  1
  N  N14  1  0.89448718  0.34547678  0.91617747  1
  N  N15  1  0.10551282  0.65452322  0.41617747  1
