# generated using pymatgen
data_LiTiO2
_symmetry_space_group_name_H-M   'P 1'
_cell_length_a   2.90050806
_cell_length_b   2.90064927
_cell_length_c   10.25177516
_cell_angle_alpha   90.00333269
_cell_angle_beta   89.99834119
_cell_angle_gamma   120.00162483
_symmetry_Int_Tables_number   1
_chemical_formula_structural   LiTiO2
_chemical_formula_sum   'Li2 Ti2 O4'
_cell_volume   74.69506151
_cell_formula_units_Z   2
loop_
 _symmetry_equiv_pos_site_id
 _symmetry_equiv_pos_as_xyz
  1  'x, y, z'
loop_
 _atom_site_type_symbol
 _atom_site_label
 _atom_site_symmetry_multiplicity
 _atom_site_fract_x
 _atom_site_fract_y
 _atom_site_fract_z
 _atom_site_occupancy
  Li  Li0  1  0.33324352  0.66679822  0.24036334  1
  Li  Li1  1  0.66675648  0.33355470  0.74036334  1
  Ti  Ti2  1  0.33341287  0.66663328  0.49971155  1
  Ti  Ti3  1  0.66658713  0.33322041  0.99971155  1
  O  O4  1  0.33336015  0.66668714  0.88313919  1
  O  O5  1  0.99984598  0.99976262  0.11784591  1
  O  O6  1  0.00015402  0.99991664  0.61784591  1
  O  O7  1  0.66663985  0.33332699  0.38313919  1
