# generated using pymatgen
data_Mn3O4
_symmetry_space_group_name_H-M   'P 1'
_cell_length_a   3.06781949
_cell_length_b   9.74857423
_cell_length_c   10.02596149
_cell_angle_alpha   90.00000000
_cell_angle_beta   90.00000000
_cell_angle_gamma   90.00000000
_symmetry_Int_Tables_number   1
_chemical_formula_structural   Mn3O4
_chemical_formula_sum   'Mn12 O16'
_cell_volume   299.84508703
_cell_formula_units_Z   4
loop_
 _symmetry_equiv_pos_site_id
 _symmetry_equiv_pos_as_xyz
  1  'x, y, z'
loop_
 _atom_site_type_symbol
 _atom_site_label
 _atom_site_symmetry_multiplicity
 _atom_site_fract_x
 _atom_site_fract_y
 _atom_site_fract_z
 _atom_site_occupancy
  O  O0  1  0.79020368  0.38763002  0.47132354  1
  O  O1  1  0.79020368  0.61236929  0.02867598  1
  O  O2  1  0.20979727  0.88763018  0.52867549  1
  O  O3  1  0.20979727  0.11236912  0.97132406  1
  O  O4  1  0.20979727  0.61236929  0.52867549  1
  O  O5  1  0.20979727  0.38763002  0.97132406  1
  O  O6  1  0.79020368  0.11236912  0.47132354  1
  O  O7  1  0.79020368  0.88763018  0.02867598  1
  O  O8  1  0.81423119  0.74999974  0.29649417  1
  O  O9  1  0.81423119  0.24999957  0.20350534  1
  O  O10  1  0.18576977  0.24999957  0.70350586  1
  O  O11  1  0.18576977  0.74999974  0.79649469  1
  O  O12  1  0.63079262  0.00000000  0.74999977  1
  O  O13  1  0.36920501  0.50000017  0.25000026  1
  O  O14  1  0.63079262  0.50000017  0.74999977  1
  O  O15  1  0.36920501  0.00000000  0.25000026  1
  Mn  Mn16  1  0.20877314  0.43018013  0.61565221  1
  Mn  Mn17  1  0.20877314  0.56982021  0.88434834  1
  Mn  Mn18  1  0.79122782  0.93017926  0.38434782  1
  Mn  Mn19  1  0.79122782  0.06982004  0.11565169  1
  Mn  Mn20  1  0.79122782  0.56982021  0.38434782  1
  Mn  Mn21  1  0.79122782  0.43018013  0.11565169  1
  Mn  Mn22  1  0.20877314  0.06982004  0.61565221  1
  Mn  Mn23  1  0.20877314  0.93017926  0.88434834  1
  Mn  Mn24  1  0.31846485  0.24999957  0.35617268  1
  Mn  Mn25  1  0.31846485  0.74999974  0.14382684  1
  Mn  Mn26  1  0.68153610  0.74999974  0.64382736  1
  Mn  Mn27  1  0.68153610  0.24999957  0.85617320  1
