# generated using pymatgen
data_ZrO2
_symmetry_space_group_name_H-M   'P 1'
_cell_length_a   4.04297042
_cell_length_b   6.99358577
_cell_length_c   7.11783833
_cell_angle_alpha   74.16781260
_cell_angle_beta   90.00000000
_cell_angle_gamma   73.19900260
_symmetry_Int_Tables_number   1
_chemical_formula_structural   ZrO2
_chemical_formula_sum   'Zr4 O8'
_cell_volume   184.67569694
_cell_formula_units_Z   4
loop_
 _symmetry_equiv_pos_site_id
 _symmetry_equiv_pos_as_xyz
  1  'x, y, z'
loop_
 _atom_site_type_symbol
 _atom_site_label
 _atom_site_symmetry_multiplicity
 _atom_site_fract_x
 _atom_site_fract_y
 _atom_site_fract_z
 _atom_site_occupancy
  Zr  Zr0  1  0.09985115  0.80029769  0.71006427  1
  Zr  Zr1  1  0.19460969  0.61078062  0.28705460  1
  Zr  Zr2  1  0.80539031  0.38921938  0.71294540  1
  Zr  Zr3  1  0.90014885  0.19970231  0.28993573  1
  O  O4  1  0.05986873  0.88026354  0.37787724  1
  O  O5  1  0.64189518  0.71620965  0.70645286  1
  O  O6  1  0.13207809  0.73584383  0.00420860  1
  O  O7  1  0.25907430  0.48185141  0.64647018  1
  O  O8  1  0.74092570  0.51814859  0.35352982  1
  O  O9  1  0.86792191  0.26415617  0.99579140  1
  O  O10  1  0.35810482  0.28379035  0.29354714  1
  O  O11  1  0.94013127  0.11973646  0.62212276  1
