# generated using pymatgen
data_Mg6ZnCd
_symmetry_space_group_name_H-M   'P 1'
_cell_length_a   6.26391328
_cell_length_b   6.26391280
_cell_length_c   5.03806788
_cell_angle_alpha   90.00000000
_cell_angle_beta   90.00000000
_cell_angle_gamma   120.26799325
_symmetry_Int_Tables_number   1
_chemical_formula_structural   Mg6ZnCd
_chemical_formula_sum   'Mg6 Zn1 Cd1'
_cell_volume   170.72885891
_cell_formula_units_Z   1
loop_
 _symmetry_equiv_pos_site_id
 _symmetry_equiv_pos_as_xyz
  1  'x, y, z'
loop_
 _atom_site_type_symbol
 _atom_site_label
 _atom_site_symmetry_multiplicity
 _atom_site_fract_x
 _atom_site_fract_y
 _atom_site_fract_z
 _atom_site_occupancy
  Mg  Mg0  1  0.16565187  0.83463184  0.25000000  1
  Mg  Mg1  1  0.66536816  0.33434813  0.25000000  1
  Mg  Mg2  1  0.66760560  0.83239440  0.25000000  1
  Mg  Mg3  1  0.33209400  0.65870759  0.75000000  1
  Mg  Mg4  1  0.84129241  0.16790600  0.75000000  1
  Mg  Mg5  1  0.83270092  0.66729908  0.75000000  1
  Zn  Zn6  1  0.16192423  0.33807577  0.25000000  1
  Cd  Cd7  1  0.33336281  0.16663719  0.75000000  1
