# generated using pymatgen
data_Sm5Mg
_symmetry_space_group_name_H-M   'P 1'
_cell_length_a   3.64587494
_cell_length_b   9.33194817
_cell_length_c   5.75673256
_cell_angle_alpha   90.00000000
_cell_angle_beta   90.00000000
_cell_angle_gamma   78.73519968
_symmetry_Int_Tables_number   1
_chemical_formula_structural   Sm5Mg
_chemical_formula_sum   'Sm5 Mg1'
_cell_volume   192.08866976
_cell_formula_units_Z   1
loop_
 _symmetry_equiv_pos_site_id
 _symmetry_equiv_pos_as_xyz
  1  'x, y, z'
loop_
 _atom_site_type_symbol
 _atom_site_label
 _atom_site_symmetry_multiplicity
 _atom_site_fract_x
 _atom_site_fract_y
 _atom_site_fract_z
 _atom_site_occupancy
  Sm  Sm0  1  0.99656505  0.00687190  0.00000000  1
  Sm  Sm1  1  0.32730730  0.34538640  0.00000000  1
  Sm  Sm2  1  0.66730050  0.66540000  0.00000000  1
  Sm  Sm3  1  0.44501499  0.10997002  0.50000000  1
  Sm  Sm4  1  0.11801266  0.76397668  0.50000000  1
  Mg  Mg5  1  0.77913650  0.44172801  0.50000000  1
