# generated using pymatgen
data_ScHO2
_symmetry_space_group_name_H-M   'P 1'
_cell_length_a   3.23352653
_cell_length_b   3.23353767
_cell_length_c   9.06212602
_cell_angle_alpha   90.00162691
_cell_angle_beta   89.99936461
_cell_angle_gamma   120.00070463
_symmetry_Int_Tables_number   1
_chemical_formula_structural   ScHO2
_chemical_formula_sum   'Sc2 H2 O4'
_cell_volume   82.05631294
_cell_formula_units_Z   2
loop_
 _symmetry_equiv_pos_site_id
 _symmetry_equiv_pos_as_xyz
  1  'x, y, z'
loop_
 _atom_site_type_symbol
 _atom_site_label
 _atom_site_symmetry_multiplicity
 _atom_site_fract_x
 _atom_site_fract_y
 _atom_site_fract_z
 _atom_site_occupancy
  Sc  Sc0  1  0.99999425  0.00004218  -0.00000244  1
  Sc  Sc1  1  0.00001218  0.00002326  0.50000196  1
  H  H2  1  0.33331191  0.66667677  0.25000044  1
  H  H3  1  0.66668027  0.33336953  0.75000066  1
  O  O4  1  0.33331871  0.66670945  0.11558823  1
  O  O5  1  0.33332416  0.66665074  0.38441330  1
  O  O6  1  0.66668115  0.33335481  0.61558198  1
  O  O7  1  0.66667638  0.33337327  0.88441586  1
