# generated using pymatgen
data_NaCuO2
_symmetry_space_group_name_H-M   'P 1'
_cell_length_a   3.72003934
_cell_length_b   5.42051938
_cell_length_c   5.77939768
_cell_angle_alpha   90.00000000
_cell_angle_beta   71.22599253
_cell_angle_gamma   90.00000000
_symmetry_Int_Tables_number   1
_chemical_formula_structural   NaCuO2
_chemical_formula_sum   'Na2 Cu2 O4'
_cell_volume   110.33851471
_cell_formula_units_Z   2
loop_
 _symmetry_equiv_pos_site_id
 _symmetry_equiv_pos_as_xyz
  1  'x, y, z'
loop_
 _atom_site_type_symbol
 _atom_site_label
 _atom_site_symmetry_multiplicity
 _atom_site_fract_x
 _atom_site_fract_y
 _atom_site_fract_z
 _atom_site_occupancy
  Na  Na0  1  0.29031119  0.25000000  0.41937762  1
  Na  Na1  1  0.70968881  0.75000000  0.58062238  1
  Cu  Cu2  1  0.00333677  0.25000000  0.99332646  1
  Cu  Cu3  1  0.99666323  0.75000000  0.00667354  1
  O  O4  1  0.88550162  0.49358880  0.22899676  1
  O  O5  1  0.11449838  0.50641120  0.77100324  1
  O  O6  1  0.88550162  0.00641120  0.22899676  1
  O  O7  1  0.11449838  0.99358880  0.77100324  1
