# generated using pymatgen
data_Ac3Yb
_symmetry_space_group_name_H-M   'P 1'
_cell_length_a   7.95127773
_cell_length_b   7.95127716
_cell_length_c   6.39753885
_cell_angle_alpha   90.00000000
_cell_angle_beta   90.00000000
_cell_angle_gamma   119.99999817
_symmetry_Int_Tables_number   1
_chemical_formula_structural   Ac3Yb
_chemical_formula_sum   'Yb2 Ac6'
_cell_volume   350.28165003
_cell_formula_units_Z   2
loop_
 _symmetry_equiv_pos_site_id
 _symmetry_equiv_pos_as_xyz
  1  'x, y, z'
loop_
 _atom_site_type_symbol
 _atom_site_label
 _atom_site_symmetry_multiplicity
 _atom_site_fract_x
 _atom_site_fract_y
 _atom_site_fract_z
 _atom_site_occupancy
  Yb  Yb0  1  0.33333300  0.66666700  0.75000000  1
  Yb  Yb1  1  0.66666700  0.33333300  0.25000000  1
  Ac  Ac2  1  0.16648914  0.33297829  0.25000000  1
  Ac  Ac3  1  0.66702071  0.83351086  0.25000000  1
  Ac  Ac4  1  0.16648914  0.83351086  0.25000000  1
  Ac  Ac5  1  0.83351086  0.66702171  0.75000000  1
  Ac  Ac6  1  0.33297929  0.16648914  0.75000000  1
  Ac  Ac7  1  0.83351086  0.16648914  0.75000000  1
