# generated using pymatgen
data_LiVF4
_symmetry_space_group_name_H-M   'P 1'
_cell_length_a   5.17223856
_cell_length_b   5.11541682
_cell_length_c   5.18788111
_cell_angle_alpha   103.29759517
_cell_angle_beta   92.27351518
_cell_angle_gamma   90.42188895
_symmetry_Int_Tables_number   1
_chemical_formula_structural   LiVF4
_chemical_formula_sum   'Li2 V2 F8'
_cell_volume   133.45724080
_cell_formula_units_Z   2
loop_
 _symmetry_equiv_pos_site_id
 _symmetry_equiv_pos_as_xyz
  1  'x, y, z'
loop_
 _atom_site_type_symbol
 _atom_site_label
 _atom_site_symmetry_multiplicity
 _atom_site_fract_x
 _atom_site_fract_y
 _atom_site_fract_z
 _atom_site_occupancy
  Li  Li0  1  0.50090853  0.81999373  0.25794423  1
  Li  Li1  1  0.49909147  0.18000627  0.74205677  1
  V  V2  1  0.05037685  0.30439909  0.21001690  1
  V  V3  1  0.94962315  0.69560091  0.78998310  1
  F  F4  1  0.14411073  0.66840897  0.45290941  1
  F  F5  1  0.20587429  0.01113339  0.90897963  1
  F  F6  1  0.24103509  0.51077411  0.97057283  1
  F  F7  1  0.33808196  0.17010733  0.39865995  1
  F  F8  1  0.66191804  0.82989267  0.60134005  1
  F  F9  1  0.75896491  0.48922589  0.02942717  1
  F  F10  1  0.79412571  0.98886661  0.09102037  1
  F  F11  1  0.85588927  0.33159103  0.54709059  1
