# generated using pymatgen
data_AlNiF5
_symmetry_space_group_name_H-M   'P 1'
_cell_length_a   3.52730469
_cell_length_b   5.15981570
_cell_length_c   5.15981544
_cell_angle_alpha   74.09949697
_cell_angle_beta   70.01310477
_cell_angle_gamma   70.01309430
_symmetry_Int_Tables_number   1
_chemical_formula_structural   AlNiF5
_chemical_formula_sum   'Al1 Ni1 F5'
_cell_volume   81.61497590
_cell_formula_units_Z   1
loop_
 _symmetry_equiv_pos_site_id
 _symmetry_equiv_pos_as_xyz
  1  'x, y, z'
loop_
 _atom_site_type_symbol
 _atom_site_label
 _atom_site_symmetry_multiplicity
 _atom_site_fract_x
 _atom_site_fract_y
 _atom_site_fract_z
 _atom_site_occupancy
  Al  Al0  1  0.50000000  0.50000000  0.50000000  1
  Ni  Ni1  1  0.00000000  0.00000000  0.00000000  1
  F  F2  1  0.50000000  0.79772554  0.20227446  1
  F  F3  1  0.50000000  0.20227446  0.79772554  1
  F  F4  1  0.74089640  0.25910360  0.25910360  1
  F  F5  1  0.25910360  0.74089640  0.74089640  1
  F  F6  1  0.00000000  0.50000000  0.50000000  1
