# generated using pymatgen
data_Yb2(NiB2)3
_symmetry_space_group_name_H-M   'P 1'
_cell_length_a   3.47112364
_cell_length_b   5.75559651
_cell_length_c   5.75559651
_cell_angle_alpha   96.30178901
_cell_angle_beta   90.00000000
_cell_angle_gamma   90.00000000
_symmetry_Int_Tables_number   1
_chemical_formula_structural   Yb2(NiB2)3
_chemical_formula_sum   'Yb2 Ni3 B6'
_cell_volume   114.29272614
_cell_formula_units_Z   1
loop_
 _symmetry_equiv_pos_site_id
 _symmetry_equiv_pos_as_xyz
  1  'x, y, z'
loop_
 _atom_site_type_symbol
 _atom_site_label
 _atom_site_symmetry_multiplicity
 _atom_site_fract_x
 _atom_site_fract_y
 _atom_site_fract_z
 _atom_site_occupancy
  B  B0  1  0.50000000  0.61305363  0.61305363  1
  B  B1  1  0.50000000  0.38694637  0.38694637  1
  B  B2  1  0.50000000  0.91055316  0.61021680  1
  B  B3  1  0.50000000  0.08944684  0.38978320  1
  B  B4  1  0.50000000  0.61021680  0.91055316  1
  B  B5  1  0.50000000  0.38978320  0.08944684  1
  Ni  Ni6  1  0.00000000  0.77312783  0.77312783  1
  Ni  Ni7  1  0.00000000  0.22687217  0.22687217  1
  Ni  Ni8  1  0.50000000  0.00000000  0.00000000  1
  Yb  Yb9  1  0.00000000  0.72723116  0.27276884  1
  Yb  Yb10  1  0.00000000  0.27276884  0.72723116  1
