# generated using pymatgen
data_CuReO4
_symmetry_space_group_name_H-M   'P 1'
_cell_length_a   4.78284941
_cell_length_b   5.87079693
_cell_length_c   4.93880578
_cell_angle_alpha   89.92242479
_cell_angle_beta   92.18327363
_cell_angle_gamma   85.38419163
_symmetry_Int_Tables_number   1
_chemical_formula_structural   CuReO4
_chemical_formula_sum   'Cu2 Re2 O8'
_cell_volume   138.12593449
_cell_formula_units_Z   2
loop_
 _symmetry_equiv_pos_site_id
 _symmetry_equiv_pos_as_xyz
  1  'x, y, z'
loop_
 _atom_site_type_symbol
 _atom_site_label
 _atom_site_symmetry_multiplicity
 _atom_site_fract_x
 _atom_site_fract_y
 _atom_site_fract_z
 _atom_site_occupancy
  Cu  Cu0  1  0.50803294  0.33359522  0.75193548  1
  Cu  Cu1  1  0.49196706  0.66640478  0.24806452  1
  Re  Re2  1  0.01586342  0.17536247  0.25326870  1
  Re  Re3  1  0.98413658  0.82463753  0.74673130  1
  O  O4  1  0.21428661  0.09987282  0.94849433  1
  O  O5  1  0.25016874  0.36071327  0.40782137  1
  O  O6  1  0.20911796  0.88633947  0.43553184  1
  O  O7  1  0.26172567  0.62811091  0.88997582  1
  O  O8  1  0.73827433  0.37188909  0.11002418  1
  O  O9  1  0.79088204  0.11366053  0.56446816  1
  O  O10  1  0.74983126  0.63928673  0.59217863  1
  O  O11  1  0.78571339  0.90012718  0.05150567  1
