# generated using pymatgen
data_Li6SbS2
_symmetry_space_group_name_H-M   'P 1'
_cell_length_a   4.02694194
_cell_length_b   10.11885768
_cell_length_c   19.41130727
_cell_angle_alpha   16.41412358
_cell_angle_beta   89.99549822
_cell_angle_gamma   78.51688231
_symmetry_Int_Tables_number   1
_chemical_formula_structural   Li6SbS2
_chemical_formula_sum   'Li6 Sb1 S2'
_cell_volume   158.68376756
_cell_formula_units_Z   1
loop_
 _symmetry_equiv_pos_site_id
 _symmetry_equiv_pos_as_xyz
  1  'x, y, z'
loop_
 _atom_site_type_symbol
 _atom_site_label
 _atom_site_symmetry_multiplicity
 _atom_site_fract_x
 _atom_site_fract_y
 _atom_site_fract_z
 _atom_site_occupancy
  Li  Li0  1  0.49588119  0.00239929  0.10109317  1
  Li  Li1  1  0.49632680  0.00344618  0.60002816  1
  Li  Li2  1  0.49889607  0.99619414  0.89950949  1
  Li  Li3  1  0.49982656  0.99964874  0.25009957  1
  Li  Li4  1  0.50062737  0.99845692  0.75077520  1
  Li  Li5  1  0.50065487  0.99460308  0.40079826  1
  Sb  Sb6  1  0.99757774  0.99892761  0.00054651  1
  S  S7  1  0.99854431  0.00065979  0.67553220  1
  S  S8  1  -0.00000591  0.99764325  0.32517244  1
