# generated using pymatgen
data_MgRh5
_symmetry_space_group_name_H-M   'P 1'
_cell_length_a   2.77377037
_cell_length_b   5.14888591
_cell_length_c   6.59040399
_cell_angle_alpha   76.11211050
_cell_angle_beta   90.00000000
_cell_angle_gamma   105.62596448
_symmetry_Int_Tables_number   1
_chemical_formula_structural   MgRh5
_chemical_formula_sum   'Mg1 Rh5'
_cell_volume   87.78383659
_cell_formula_units_Z   1
loop_
 _symmetry_equiv_pos_site_id
 _symmetry_equiv_pos_as_xyz
  1  'x, y, z'
loop_
 _atom_site_type_symbol
 _atom_site_label
 _atom_site_symmetry_multiplicity
 _atom_site_fract_x
 _atom_site_fract_y
 _atom_site_fract_z
 _atom_site_occupancy
  Mg  Mg0  1  0.38635540  0.77271080  0.72138938  1
  Rh  Rh1  1  0.00450519  0.00901038  0.00287607  1
  Rh  Rh2  1  0.72450185  0.44900469  0.05426459  1
  Rh  Rh3  1  0.33271012  0.66542124  0.33073050  1
  Rh  Rh4  1  0.05784104  0.11568107  0.38729970  1
  Rh  Rh5  1  0.66075341  0.32150681  0.67010576  1
