# generated using pymatgen
data_NbNO
_symmetry_space_group_name_H-M   'P 1'
_cell_length_a   4.00873704
_cell_length_b   6.69418748
_cell_length_c   6.83714920
_cell_angle_alpha   74.41375252
_cell_angle_beta   90.00000000
_cell_angle_gamma   72.57727989
_symmetry_Int_Tables_number   1
_chemical_formula_structural   NbNO
_chemical_formula_sum   'Nb4 N4 O4'
_cell_volume   167.97419187
_cell_formula_units_Z   4
loop_
 _symmetry_equiv_pos_site_id
 _symmetry_equiv_pos_as_xyz
  1  'x, y, z'
loop_
 _atom_site_type_symbol
 _atom_site_label
 _atom_site_symmetry_multiplicity
 _atom_site_fract_x
 _atom_site_fract_y
 _atom_site_fract_z
 _atom_site_occupancy
  Nb  Nb0  1  0.10418979  0.79161941  0.71297081  1
  Nb  Nb1  1  0.20849957  0.58299985  0.29352728  1
  Nb  Nb2  1  0.79150043  0.41700015  0.70647272  1
  Nb  Nb3  1  0.89581021  0.20838059  0.28702919  1
  N  N4  1  0.63901962  0.72196177  0.73018829  1
  N  N5  1  0.25928695  0.48142509  0.64240312  1
  N  N6  1  0.74071305  0.51857491  0.35759688  1
  N  N7  1  0.36098038  0.27803823  0.26981171  1
  O  O8  1  0.05689994  0.88620112  0.37606541  1
  O  O9  1  0.12827134  0.74345732  0.00897760  1
  O  O10  1  0.87172866  0.25654268  0.99102240  1
  O  O11  1  0.94310006  0.11379888  0.62393459  1
