# generated using pymatgen
data_ZrO2
_symmetry_space_group_name_H-M   'P 1'
_cell_length_a   8.17203845
_cell_length_b   8.17203845
_cell_length_c   5.09730473
_cell_angle_alpha   90.00000000
_cell_angle_beta   90.00000000
_cell_angle_gamma   90.00000000
_symmetry_Int_Tables_number   1
_chemical_formula_structural   ZrO2
_chemical_formula_sum   'Zr10 O20'
_cell_volume   340.40928729
_cell_formula_units_Z   10
loop_
 _symmetry_equiv_pos_site_id
 _symmetry_equiv_pos_as_xyz
  1  'x, y, z'
loop_
 _atom_site_type_symbol
 _atom_site_label
 _atom_site_symmetry_multiplicity
 _atom_site_fract_x
 _atom_site_fract_y
 _atom_site_fract_z
 _atom_site_occupancy
  Zr  Zr0  1  0.07561334  0.88301928  0.75410965  1
  Zr  Zr1  1  0.11698072  0.57561334  0.24589035  1
  Zr  Zr2  1  0.25000000  0.25000000  0.81915781  1
  Zr  Zr3  1  0.38301928  0.92438666  0.24589035  1
  Zr  Zr4  1  0.42438666  0.61698072  0.75410965  1
  Zr  Zr5  1  0.57561334  0.38301928  0.24589035  1
  Zr  Zr6  1  0.61698072  0.07561334  0.75410965  1
  Zr  Zr7  1  0.75000000  0.75000000  0.18084219  1
  Zr  Zr8  1  0.88301928  0.42438666  0.75410965  1
  Zr  Zr9  1  0.92438666  0.11698072  0.24589035  1
  O  O10  1  0.04535068  0.14035055  0.61282962  1
  O  O11  1  0.04346935  0.33882164  0.07577051  1
  O  O12  1  0.14035055  0.45464932  0.61282962  1
  O  O13  1  0.16117836  0.04346935  0.07577051  1
  O  O14  1  0.25000000  0.75000000  0.50000000  1
  O  O15  1  0.25000000  0.75000000  0.00000000  1
  O  O16  1  0.33882164  0.45653065  0.07577051  1
  O  O17  1  0.35964945  0.04535068  0.61282962  1
  O  O18  1  0.45653065  0.16117836  0.07577051  1
  O  O19  1  0.45464932  0.35964945  0.61282962  1
  O  O20  1  0.54535068  0.64035055  0.38717038  1
  O  O21  1  0.54346935  0.83882164  0.92422949  1
  O  O22  1  0.64035055  0.95464932  0.38717038  1
  O  O23  1  0.66117836  0.54346935  0.92422949  1
  O  O24  1  0.75000000  0.25000000  0.50000000  1
  O  O25  1  0.75000000  0.25000000  0.00000000  1
  O  O26  1  0.83882164  0.95653065  0.92422949  1
  O  O27  1  0.85964945  0.54535068  0.38717038  1
  O  O28  1  0.95653065  0.66117836  0.92422949  1
  O  O29  1  0.95464932  0.85964945  0.38717038  1
