# generated using pymatgen
data_SrMgF4
_symmetry_space_group_name_H-M   'P 1'
_cell_length_a   4.07702115
_cell_length_b   5.60093140
_cell_length_c   7.78532846
_cell_angle_alpha   90.00000000
_cell_angle_beta   105.17927063
_cell_angle_gamma   90.00000000
_symmetry_Int_Tables_number   1
_chemical_formula_structural   SrMgF4
_chemical_formula_sum   'Sr2 Mg2 F8'
_cell_volume   171.57640117
_cell_formula_units_Z   2
loop_
 _symmetry_equiv_pos_site_id
 _symmetry_equiv_pos_as_xyz
  1  'x, y, z'
loop_
 _atom_site_type_symbol
 _atom_site_label
 _atom_site_symmetry_multiplicity
 _atom_site_fract_x
 _atom_site_fract_y
 _atom_site_fract_z
 _atom_site_occupancy
  F  F0  1  0.00000000  0.00000000  0.00000000  1
  F  F1  1  0.00000000  0.50000000  0.00000000  1
  F  F2  1  0.18601251  0.49801174  0.37202502  1
  F  F3  1  0.81398749  0.50198826  0.62797498  1
  F  F4  1  0.39888718  0.75000000  0.79777436  1
  F  F5  1  0.60111282  0.25000000  0.20222564  1
  F  F6  1  0.18601251  0.00198826  0.37202502  1
  F  F7  1  0.81398749  0.99801174  0.62797498  1
  Mg  Mg8  1  0.08840745  0.25000000  0.17681490  1
  Mg  Mg9  1  0.91159255  0.75000000  0.82318510  1
  Sr  Sr10  1  0.66900403  0.75000000  0.33800806  1
  Sr  Sr11  1  0.33099597  0.25000000  0.66199194  1
