# generated using pymatgen
data_Fe2OF3
_symmetry_space_group_name_H-M   'P 1'
_cell_length_a   4.85121745
_cell_length_b   9.68896526
_cell_length_c   3.10580817
_cell_angle_alpha   90.00000000
_cell_angle_beta   90.00000000
_cell_angle_gamma   90.00000000
_symmetry_Int_Tables_number   1
_chemical_formula_structural   Fe2OF3
_chemical_formula_sum   'Fe4 O2 F6'
_cell_volume   145.98316278
_cell_formula_units_Z   2
loop_
 _symmetry_equiv_pos_site_id
 _symmetry_equiv_pos_as_xyz
  1  'x, y, z'
loop_
 _atom_site_type_symbol
 _atom_site_label
 _atom_site_symmetry_multiplicity
 _atom_site_fract_x
 _atom_site_fract_y
 _atom_site_fract_z
 _atom_site_occupancy
  Fe  Fe0  1  0.03200557  0.98700599  0.00000000  1
  Fe  Fe1  1  0.97670239  0.49518371  0.00000000  1
  Fe  Fe2  1  0.53200557  0.26299401  0.50000000  1
  Fe  Fe3  1  0.47670239  0.75481629  0.50000000  1
  O  O4  1  0.19153810  0.90927386  0.50000000  1
  O  O5  1  0.69153810  0.34072614  0.00000000  1
  F  F6  1  0.20214778  0.39259788  0.50000000  1
  F  F7  1  0.30354857  0.15356193  0.00000000  1
  F  F8  1  0.29405758  0.64502631  0.00000000  1
  F  F9  1  0.70214778  0.85740212  0.00000000  1
  F  F10  1  0.79405758  0.60497369  0.50000000  1
  F  F11  1  0.80354857  0.09643807  0.50000000  1
