# generated using pymatgen
data_WN2
_symmetry_space_group_name_H-M   'P 1'
_cell_length_a   5.88918000
_cell_length_b   8.13412706
_cell_length_c   6.00730505
_cell_angle_alpha   90.00000000
_cell_angle_beta   90.00000000
_cell_angle_gamma   90.00000000
_symmetry_Int_Tables_number   1
_chemical_formula_structural   WN2
_chemical_formula_sum   'W4 N8'
_cell_volume   287.76996668
_cell_formula_units_Z   4
loop_
 _symmetry_equiv_pos_site_id
 _symmetry_equiv_pos_as_xyz
  1  'x, y, z'
loop_
 _atom_site_type_symbol
 _atom_site_label
 _atom_site_symmetry_multiplicity
 _atom_site_fract_x
 _atom_site_fract_y
 _atom_site_fract_z
 _atom_site_occupancy
  W  W0  1  0.05145118  0.12425340  0.37414551  1
  W  W1  1  0.44854882  0.62425340  0.87414551  1
  W  W2  1  0.55145118  0.37574660  0.37414551  1
  W  W3  1  0.94854882  0.87574660  0.87414551  1
  N  N4  1  0.01023090  0.02811988  0.09604644  1
  N  N5  1  0.15211358  0.70225797  0.90480805  1
  N  N6  1  0.34788642  0.20225797  0.40480805  1
  N  N7  1  0.48976910  0.52811988  0.59604644  1
  N  N8  1  0.65211358  0.79774203  0.90480805  1
  N  N9  1  0.51023090  0.47188012  0.09604644  1
  N  N10  1  0.98976910  0.97188012  0.59604644  1
  N  N11  1  0.84788642  0.29774203  0.40480805  1
