# generated using pymatgen
data_LiMg6Sn
_symmetry_space_group_name_H-M   'P 1'
_cell_length_a   6.41112122
_cell_length_b   6.31086856
_cell_length_c   5.10104171
_cell_angle_alpha   90.00000000
_cell_angle_beta   90.00000000
_cell_angle_gamma   119.48406172
_symmetry_Int_Tables_number   1
_chemical_formula_structural   LiMg6Sn
_chemical_formula_sum   'Li1 Mg6 Sn1'
_cell_volume   179.65822421
_cell_formula_units_Z   1
loop_
 _symmetry_equiv_pos_site_id
 _symmetry_equiv_pos_as_xyz
  1  'x, y, z'
loop_
 _atom_site_type_symbol
 _atom_site_label
 _atom_site_symmetry_multiplicity
 _atom_site_fract_x
 _atom_site_fract_y
 _atom_site_fract_z
 _atom_site_occupancy
  Li  Li0  1  0.16627551  0.83313725  0.25000000  1
  Mg  Mg1  1  0.66720461  0.33436901  0.25000000  1
  Mg  Mg2  1  0.66720461  0.83283460  0.25000000  1
  Mg  Mg3  1  0.33395997  0.16216924  0.75000000  1
  Mg  Mg4  1  0.33395997  0.67179174  0.75000000  1
  Mg  Mg5  1  0.82938384  0.16469242  0.75000000  1
  Mg  Mg6  1  0.83500099  0.66750100  0.75000000  1
  Sn  Sn7  1  0.16701049  0.33350474  0.25000000  1
