# generated using pymatgen
data_WOF4
_symmetry_space_group_name_H-M   'P 1'
_cell_length_a   5.35215004
_cell_length_b   6.52784151
_cell_length_c   6.27633523
_cell_angle_alpha   102.25142129
_cell_angle_beta   107.93499550
_cell_angle_gamma   95.15975060
_symmetry_Int_Tables_number   1
_chemical_formula_structural   WOF4
_chemical_formula_sum   'W2 O2 F8'
_cell_volume   201.01204067
_cell_formula_units_Z   2
loop_
 _symmetry_equiv_pos_site_id
 _symmetry_equiv_pos_as_xyz
  1  'x, y, z'
loop_
 _atom_site_type_symbol
 _atom_site_label
 _atom_site_symmetry_multiplicity
 _atom_site_fract_x
 _atom_site_fract_y
 _atom_site_fract_z
 _atom_site_occupancy
  W  W0  1  0.08621504  0.25212872  0.21792485  1
  W  W1  1  0.91378496  0.74787128  0.78207515  1
  O  O2  1  0.00483858  0.50028708  0.74264188  1
  O  O3  1  0.99516142  0.49971292  0.25735812  1
  F  F4  1  0.15529398  0.89553745  0.68067560  1
  F  F5  1  0.15702110  0.88964367  0.09870807  1
  F  F6  1  0.36113847  0.26901501  0.49470822  1
  F  F7  1  0.65656658  0.70639697  0.92455331  1
  F  F8  1  0.34343342  0.29360303  0.07544669  1
  F  F9  1  0.63886153  0.73098499  0.50529178  1
  F  F10  1  0.84297890  0.11035633  0.90129193  1
  F  F11  1  0.84470602  0.10446255  0.31932440  1
