# generated using pymatgen
data_TePb
_symmetry_space_group_name_H-M   'P 1'
_cell_length_a   4.69110655
_cell_length_b   7.09451770
_cell_length_c   8.43870842
_cell_angle_alpha   89.99790773
_cell_angle_beta   90.00292358
_cell_angle_gamma   90.00050750
_symmetry_Int_Tables_number   1
_chemical_formula_structural   TePb
_chemical_formula_sum   'Te4 Pb4'
_cell_volume   280.84982245
_cell_formula_units_Z   4
loop_
 _symmetry_equiv_pos_site_id
 _symmetry_equiv_pos_as_xyz
  1  'x, y, z'
loop_
 _atom_site_type_symbol
 _atom_site_label
 _atom_site_symmetry_multiplicity
 _atom_site_fract_x
 _atom_site_fract_y
 _atom_site_fract_z
 _atom_site_occupancy
  Te  Te0  1  0.25001533  0.11959008  0.19312656  1
  Te  Te1  1  0.25001811  0.38045657  0.69313682  1
  Te  Te2  1  0.74993707  0.61939261  0.30692976  1
  Te  Te3  1  0.74991190  0.88059073  0.80690949  1
  Pb  Pb4  1  0.24999668  0.72487852  0.04241721  1
  Pb  Pb5  1  0.24996808  0.77510529  0.54239911  1
  Pb  Pb6  1  0.75006882  0.22459539  0.45755282  1
  Pb  Pb7  1  0.75008400  0.27539081  0.95752822  1
