# generated using pymatgen
data_LiCoS2
_symmetry_space_group_name_H-M   'P 1'
_cell_length_a   3.41810192
_cell_length_b   6.51510543
_cell_length_c   3.41810182
_cell_angle_alpha   105.20784168
_cell_angle_beta   60.00000872
_cell_angle_gamma   105.20784032
_symmetry_Int_Tables_number   1
_chemical_formula_structural   LiCoS2
_chemical_formula_sum   'Li1 Co1 S2'
_cell_volume   62.82389299
_cell_formula_units_Z   1
loop_
 _symmetry_equiv_pos_site_id
 _symmetry_equiv_pos_as_xyz
  1  'x, y, z'
loop_
 _atom_site_type_symbol
 _atom_site_label
 _atom_site_symmetry_multiplicity
 _atom_site_fract_x
 _atom_site_fract_y
 _atom_site_fract_z
 _atom_site_occupancy
  Li  Li0  1  0.14496355  0.43489165  0.14496355  1
  Co  Co1  1  0.00133522  0.00400467  0.00133522  1
  S  S2  1  0.27444824  0.82334373  0.27444824  1
  S  S3  1  0.73225398  0.19676094  0.73225398  1
