# generated using pymatgen
data_AgAuO3
_symmetry_space_group_name_H-M   'P 1'
_cell_length_a   7.28592655
_cell_length_b   7.28592655
_cell_length_c   7.28592655
_cell_angle_alpha   60.00000000
_cell_angle_beta   90.00000000
_cell_angle_gamma   120.00000000
_symmetry_Int_Tables_number   1
_chemical_formula_structural   AgAuO3
_chemical_formula_sum   'Ag4 Au4 O12'
_cell_volume   273.48868830
_cell_formula_units_Z   4
loop_
 _symmetry_equiv_pos_site_id
 _symmetry_equiv_pos_as_xyz
  1  'x, y, z'
loop_
 _atom_site_type_symbol
 _atom_site_label
 _atom_site_symmetry_multiplicity
 _atom_site_fract_x
 _atom_site_fract_y
 _atom_site_fract_z
 _atom_site_occupancy
  Ag  Ag0  1  0.00000000  0.00000000  0.00000000  1
  Ag  Ag1  1  0.50000000  0.50000000  0.00000000  1
  Ag  Ag2  1  0.00000000  0.50000000  0.00000000  1
  Ag  Ag3  1  0.00000000  0.00000000  0.50000000  1
  Au  Au4  1  0.50000000  0.00000000  0.00000000  1
  Au  Au5  1  0.50000000  0.00000000  0.50000000  1
  Au  Au6  1  0.50000000  0.50000000  0.50000000  1
  Au  Au7  1  0.00000000  0.50000000  0.50000000  1
  O  O8  1  0.84128676  0.25000000  0.40871324  1
  O  O9  1  0.59128676  0.18257352  0.15871324  1
  O  O10  1  0.59128676  0.75000000  0.15871324  1
  O  O11  1  0.84128676  0.25000000  0.84128676  1
  O  O12  1  0.40871324  0.25000000  0.40871324  1
  O  O13  1  0.84128676  0.68257352  0.40871324  1
  O  O14  1  0.59128676  0.75000000  0.59128676  1
  O  O15  1  0.15871324  0.75000000  0.15871324  1
  O  O16  1  0.15871324  0.31742648  0.59128676  1
  O  O17  1  0.40871324  0.25000000  0.84128676  1
  O  O18  1  0.40871324  0.81742648  0.84128676  1
  O  O19  1  0.15871324  0.75000000  0.59128676  1
