# generated using pymatgen
data_LiMg6Zn
_symmetry_space_group_name_H-M   'P 1'
_cell_length_a   6.20882910
_cell_length_b   6.20882862
_cell_length_c   5.04476843
_cell_angle_alpha   90.00000000
_cell_angle_beta   90.00000000
_cell_angle_gamma   119.87595245
_symmetry_Int_Tables_number   1
_chemical_formula_structural   LiMg6Zn
_chemical_formula_sum   'Li1 Mg6 Zn1'
_cell_volume   168.62918888
_cell_formula_units_Z   1
loop_
 _symmetry_equiv_pos_site_id
 _symmetry_equiv_pos_as_xyz
  1  'x, y, z'
loop_
 _atom_site_type_symbol
 _atom_site_label
 _atom_site_symmetry_multiplicity
 _atom_site_fract_x
 _atom_site_fract_y
 _atom_site_fract_z
 _atom_site_occupancy
  Li  Li0  1  0.33131681  0.16868319  0.75000000  1
  Mg  Mg1  1  0.16733843  0.83812319  0.25000000  1
  Mg  Mg2  1  0.66187681  0.33266157  0.25000000  1
  Mg  Mg3  1  0.66708635  0.83291365  0.25000000  1
  Mg  Mg4  1  0.33009090  0.65949178  0.75000000  1
  Mg  Mg5  1  0.84050822  0.16990910  0.75000000  1
  Mg  Mg6  1  0.83384354  0.66615646  0.75000000  1
  Zn  Zn7  1  0.16793894  0.33206106  0.25000000  1
