# generated using pymatgen
data_TiO2
_symmetry_space_group_name_H-M   'P 1'
_cell_length_a   2.98206301
_cell_length_b   4.96901607
_cell_length_c   9.55646497
_cell_angle_alpha   90.00000000
_cell_angle_beta   90.00000000
_cell_angle_gamma   90.00000000
_symmetry_Int_Tables_number   1
_chemical_formula_structural   TiO2
_chemical_formula_sum   'Ti4 O8'
_cell_volume   141.60692403
_cell_formula_units_Z   4
loop_
 _symmetry_equiv_pos_site_id
 _symmetry_equiv_pos_as_xyz
  1  'x, y, z'
loop_
 _atom_site_type_symbol
 _atom_site_label
 _atom_site_symmetry_multiplicity
 _atom_site_fract_x
 _atom_site_fract_y
 _atom_site_fract_z
 _atom_site_occupancy
  O  O0  1  0.25000000  0.29688203  0.46896155  1
  O  O1  1  0.75000000  0.70311797  0.53103845  1
  O  O2  1  0.75000000  0.79688203  0.03103845  1
  O  O3  1  0.25000000  0.20311797  0.96896155  1
  O  O4  1  0.25000000  0.63849979  0.26773354  1
  O  O5  1  0.75000000  0.36150021  0.73226646  1
  O  O6  1  0.75000000  0.13849979  0.23226646  1
  O  O7  1  0.25000000  0.86150021  0.76773354  1
  Ti  Ti8  1  0.25000000  0.57666043  0.63781067  1
  Ti  Ti9  1  0.75000000  0.42333957  0.36218933  1
  Ti  Ti10  1  0.75000000  0.07666043  0.86218933  1
  Ti  Ti11  1  0.25000000  0.92333957  0.13781067  1
