# generated using pymatgen
data_SmF3
_symmetry_space_group_name_H-M   'P 1'
_cell_length_a   4.46025394
_cell_length_b   6.67913812
_cell_length_c   7.10106357
_cell_angle_alpha   90.00000000
_cell_angle_beta   90.00000000
_cell_angle_gamma   90.00000000
_symmetry_Int_Tables_number   1
_chemical_formula_structural   SmF3
_chemical_formula_sum   'Sm4 F12'
_cell_volume   211.54531446
_cell_formula_units_Z   4
loop_
 _symmetry_equiv_pos_site_id
 _symmetry_equiv_pos_as_xyz
  1  'x, y, z'
loop_
 _atom_site_type_symbol
 _atom_site_label
 _atom_site_symmetry_multiplicity
 _atom_site_fract_x
 _atom_site_fract_y
 _atom_site_fract_z
 _atom_site_occupancy
  F  F0  1  0.07913481  0.98040276  0.75000000  1
  F  F1  1  0.57913481  0.51959724  0.25000000  1
  F  F2  1  0.42086519  0.48040276  0.75000000  1
  F  F3  1  0.92086519  0.01959724  0.25000000  1
  F  F4  1  0.38676484  0.16410643  0.06414921  1
  F  F5  1  0.88676484  0.33589357  0.93585079  1
  F  F6  1  0.11323516  0.66410643  0.43585079  1
  F  F7  1  0.61323516  0.83589357  0.56414921  1
  F  F8  1  0.61323516  0.83589357  0.93585079  1
  F  F9  1  0.11323516  0.66410643  0.06414921  1
  F  F10  1  0.88676484  0.33589357  0.56414921  1
  F  F11  1  0.38676484  0.16410643  0.43585079  1
  Sm  Sm12  1  0.93517301  0.63180606  0.75000000  1
  Sm  Sm13  1  0.43517301  0.86819394  0.25000000  1
  Sm  Sm14  1  0.56482699  0.13180606  0.75000000  1
  Sm  Sm15  1  0.06482699  0.36819394  0.25000000  1
