# generated using pymatgen
data_NaGe2N3
_symmetry_space_group_name_H-M   'P 1'
_cell_length_a   5.18649745
_cell_length_b   5.77263261
_cell_length_c   5.77263261
_cell_angle_alpha   119.16635127
_cell_angle_beta   90.00000000
_cell_angle_gamma   90.00000000
_symmetry_Int_Tables_number   1
_chemical_formula_structural   NaGe2N3
_chemical_formula_sum   'Na2 Ge4 N6'
_cell_volume   150.91761344
_cell_formula_units_Z   2
loop_
 _symmetry_equiv_pos_site_id
 _symmetry_equiv_pos_as_xyz
  1  'x, y, z'
loop_
 _atom_site_type_symbol
 _atom_site_label
 _atom_site_symmetry_multiplicity
 _atom_site_fract_x
 _atom_site_fract_y
 _atom_site_fract_z
 _atom_site_occupancy
  N  N0  1  0.95434565  0.74203564  0.74203564  1
  N  N1  1  0.45434565  0.25796436  0.25796436  1
  N  N2  1  0.37972072  0.65866024  0.07604393  1
  N  N3  1  0.37972072  0.07604393  0.65866024  1
  N  N4  1  0.87972072  0.92395607  0.34133976  1
  N  N5  1  0.87972072  0.34133976  0.92395607  1
  Na  Na6  1  0.49528704  0.66130808  0.66130808  1
  Na  Na7  1  0.99528704  0.33869192  0.33869192  1
  Ge  Ge8  1  0.02446293  0.01168315  0.67587159  1
  Ge  Ge9  1  0.52446293  0.98831685  0.32412841  1
  Ge  Ge10  1  0.52446293  0.32412841  0.98831685  1
  Ge  Ge11  1  0.02446293  0.67587159  0.01168315  1
