# generated using pymatgen
data_Cr3Te4
_symmetry_space_group_name_H-M   'P 1'
_cell_length_a   4.02898237
_cell_length_b   4.02879988
_cell_length_c   12.64197711
_cell_angle_alpha   90.22338863
_cell_angle_beta   90.00000000
_cell_angle_gamma   120.00149845
_symmetry_Int_Tables_number   1
_chemical_formula_structural   Cr3Te4
_chemical_formula_sum   'Cr3 Te4'
_cell_volume   177.70749097
_cell_formula_units_Z   1
loop_
 _symmetry_equiv_pos_site_id
 _symmetry_equiv_pos_as_xyz
  1  'x, y, z'
loop_
 _atom_site_type_symbol
 _atom_site_label
 _atom_site_symmetry_multiplicity
 _atom_site_fract_x
 _atom_site_fract_y
 _atom_site_fract_z
 _atom_site_occupancy
  Cr  Cr0  1  0.00000000  0.00000000  0.50000000  1
  Cr  Cr1  1  0.99817350  0.99634701  0.24408357  1
  Cr  Cr2  1  0.00182650  0.00365299  0.75591643  1
  Te  Te3  1  0.66374720  0.32749440  0.13478966  1
  Te  Te4  1  0.66796833  0.33593667  0.62528415  1
  Te  Te5  1  0.33625280  0.67250560  0.86521034  1
  Te  Te6  1  0.33203167  0.66406333  0.37471585  1
