# generated using pymatgen
data_Na4WO4
_symmetry_space_group_name_H-M   'P 1'
_cell_length_a   4.90361878
_cell_length_b   5.70313188
_cell_length_c   5.70313188
_cell_angle_alpha   100.65057899
_cell_angle_beta   115.46158122
_cell_angle_gamma   64.53841878
_symmetry_Int_Tables_number   1
_chemical_formula_structural   Na4WO4
_chemical_formula_sum   'Na4 W1 O4'
_cell_volume   130.01623473
_cell_formula_units_Z   1
loop_
 _symmetry_equiv_pos_site_id
 _symmetry_equiv_pos_as_xyz
  1  'x, y, z'
loop_
 _atom_site_type_symbol
 _atom_site_label
 _atom_site_symmetry_multiplicity
 _atom_site_fract_x
 _atom_site_fract_y
 _atom_site_fract_z
 _atom_site_occupancy
  Na  Na0  1  0.40695137  0.39541440  0.20931813  1
  Na  Na1  1  0.19763324  0.20931813  0.60458560  1
  Na  Na2  1  0.80236676  0.79068187  0.39541440  1
  Na  Na3  1  0.59304863  0.60458560  0.79068187  1
  W  W4  1  0.00000000  0.00000000  0.00000000  1
  O  O5  1  0.91886452  0.33347562  0.17120366  1
  O  O6  1  0.74766086  0.17120366  0.66652438  1
  O  O7  1  0.25233914  0.82879634  0.33347562  1
  O  O8  1  0.08113548  0.66652438  0.82879634  1
