# generated using pymatgen
data_Na4PtO4
_symmetry_space_group_name_H-M   'P 1'
_cell_length_a   3.30166135
_cell_length_b   5.73047757
_cell_length_c   7.16088064
_cell_angle_alpha   75.54864975
_cell_angle_beta   103.32854726
_cell_angle_gamma   106.74298790
_symmetry_Int_Tables_number   1
_chemical_formula_structural   Na4PtO4
_chemical_formula_sum   'Na4 Pt1 O4'
_cell_volume   123.78369369
_cell_formula_units_Z   1
loop_
 _symmetry_equiv_pos_site_id
 _symmetry_equiv_pos_as_xyz
  1  'x, y, z'
loop_
 _atom_site_type_symbol
 _atom_site_label
 _atom_site_symmetry_multiplicity
 _atom_site_fract_x
 _atom_site_fract_y
 _atom_site_fract_z
 _atom_site_occupancy
  Na  Na0  1  0.99310129  0.01192653  0.97427604  1
  Na  Na1  1  0.83112512  0.46841424  0.19383601  1
  Na  Na2  1  0.40689871  0.18807347  0.62572396  1
  Na  Na3  1  0.56887488  0.73158576  0.40616399  1
  Pt  Pt4  1  0.20000000  0.60000000  0.80000000  1
  O  O5  1  0.39691689  0.72523147  0.06860232  1
  O  O6  1  0.00308311  0.47476853  0.53139768  1
  O  O7  1  0.76823725  0.83220307  0.70427143  1
  O  O8  1  0.63176275  0.36779693  0.89572857  1
