# generated using pymatgen
data_NbFeO4
_symmetry_space_group_name_H-M   'P 1'
_cell_length_a   5.76810693
_cell_length_b   5.76810734
_cell_length_c   5.76810678
_cell_angle_alpha   140.16131810
_cell_angle_beta   140.16132303
_cell_angle_gamma   57.60843891
_symmetry_Int_Tables_number   1
_chemical_formula_structural   NbFeO4
_chemical_formula_sum   'Nb1 Fe1 O4'
_cell_volume   78.07911210
_cell_formula_units_Z   1
loop_
 _symmetry_equiv_pos_site_id
 _symmetry_equiv_pos_as_xyz
  1  'x, y, z'
loop_
 _atom_site_type_symbol
 _atom_site_label
 _atom_site_symmetry_multiplicity
 _atom_site_fract_x
 _atom_site_fract_y
 _atom_site_fract_z
 _atom_site_occupancy
  Nb  Nb0  1  0.00000000  0.00000000  0.00000000  1
  Fe  Fe1  1  0.75000000  0.25000000  0.50000000  1
  O  O2  1  0.53946803  0.03946803  0.50000000  1
  O  O3  1  0.19972891  0.19972891  1.00000000  1
  O  O4  1  0.96053197  0.46053197  0.50000000  1
  O  O5  1  0.80027109  0.80027109  0.00000000  1
