# generated using pymatgen
data_CrFeCoNi
_symmetry_space_group_name_H-M   'P 1'
_cell_length_a   5.04023053
_cell_length_b   4.37046988
_cell_length_c   4.01256633
_cell_angle_alpha   90.00451651
_cell_angle_beta   89.99527356
_cell_angle_gamma   89.63065075
_symmetry_Int_Tables_number   1
_chemical_formula_structural   CrFeCoNi
_chemical_formula_sum   'Cr2 Fe2 Co2 Ni2'
_cell_volume   88.38767898
_cell_formula_units_Z   2
loop_
 _symmetry_equiv_pos_site_id
 _symmetry_equiv_pos_as_xyz
  1  'x, y, z'
loop_
 _atom_site_type_symbol
 _atom_site_label
 _atom_site_symmetry_multiplicity
 _atom_site_fract_x
 _atom_site_fract_y
 _atom_site_fract_z
 _atom_site_occupancy
  Cr  Cr0  1  0.62627571  0.30273662  0.71496670  1
  Cr  Cr1  1  0.12387523  0.62962624  0.21521342  1
  Fe  Fe2  1  0.38199355  0.13618293  0.21515281  1
  Fe  Fe3  1  0.37671352  0.79351026  0.71477601  1
  Co  Co4  1  0.63084745  0.63743000  0.21492565  1
  Co  Co5  1  0.87994673  0.13074891  0.21501349  1
  Ni  Ni6  1  0.87421126  0.80221540  0.71505487  1
  Ni  Ni7  1  0.12404955  0.29688665  0.71526405  1
