# generated using pymatgen
data_WOF4
_symmetry_space_group_name_H-M   'P 1'
_cell_length_a   6.43487020
_cell_length_b   5.25778520
_cell_length_c   6.14154636
_cell_angle_alpha   81.03729587
_cell_angle_beta   102.42065714
_cell_angle_gamma   86.99314720
_symmetry_Int_Tables_number   1
_chemical_formula_structural   WOF4
_chemical_formula_sum   'W2 O2 F8'
_cell_volume   199.64945146
_cell_formula_units_Z   2
loop_
 _symmetry_equiv_pos_site_id
 _symmetry_equiv_pos_as_xyz
  1  'x, y, z'
loop_
 _atom_site_type_symbol
 _atom_site_label
 _atom_site_symmetry_multiplicity
 _atom_site_fract_x
 _atom_site_fract_y
 _atom_site_fract_z
 _atom_site_occupancy
  W  W0  1  0.21464758  0.86521485  0.74260446  1
  W  W1  1  0.78535242  0.13478515  0.25739554  1
  O  O2  1  0.26030274  0.65857779  0.99548914  1
  O  O3  1  0.73969726  0.34142221  0.00451086  1
  F  F4  1  0.13722207  0.17805564  0.83516117  1
  F  F5  1  0.09485873  0.14524750  0.37695408  1
  F  F6  1  0.25411769  0.63173688  0.54647107  1
  F  F7  1  0.48607991  0.98143491  0.73730530  1
  F  F8  1  0.51392009  0.01856509  0.26269470  1
  F  F9  1  0.74588231  0.36826312  0.45352893  1
  F  F10  1  0.90514127  0.85475250  0.62304592  1
  F  F11  1  0.86277793  0.82194436  0.16483883  1
