# generated using pymatgen
data_NbCo3
_symmetry_space_group_name_H-M   'P 1'
_cell_length_a   4.71961946
_cell_length_b   4.71961911
_cell_length_c   15.47174762
_cell_angle_alpha   90.00000000
_cell_angle_beta   90.00000000
_cell_angle_gamma   120.00000248
_symmetry_Int_Tables_number   1
_chemical_formula_structural   NbCo3
_chemical_formula_sum   'Nb6 Co18'
_cell_volume   298.45848286
_cell_formula_units_Z   6
loop_
 _symmetry_equiv_pos_site_id
 _symmetry_equiv_pos_as_xyz
  1  'x, y, z'
loop_
 _atom_site_type_symbol
 _atom_site_label
 _atom_site_symmetry_multiplicity
 _atom_site_fract_x
 _atom_site_fract_y
 _atom_site_fract_z
 _atom_site_occupancy
  Nb  Nb0  1  0.33333300  0.66666700  0.66910880  1
  Nb  Nb1  1  0.00000000  0.00000000  0.39983777  1
  Nb  Nb2  1  0.00000000  0.00000000  0.58981253  1
  Nb  Nb3  1  0.00000000  0.00000000  0.89983777  1
  Nb  Nb4  1  0.66666700  0.33333300  0.16910880  1
  Nb  Nb5  1  0.00000000  0.00000000  0.08981253  1
  Co  Co6  1  0.49973747  0.99947495  0.99863084  1
  Co  Co7  1  0.83524529  0.16475471  0.75036841  1
  Co  Co8  1  0.66666700  0.33333300  0.34824786  1
  Co  Co9  1  0.32950942  0.16475471  0.75036841  1
  Co  Co10  1  0.16475471  0.83524529  0.25036841  1
  Co  Co11  1  0.66666700  0.33333300  0.87229529  1
  Co  Co12  1  0.67049058  0.83524529  0.25036841  1
  Co  Co13  1  0.00052505  0.50026253  0.99863084  1
  Co  Co14  1  0.83524529  0.67049058  0.75036841  1
  Co  Co15  1  0.50026253  0.00052505  0.49863084  1
  Co  Co16  1  0.33333300  0.66666700  0.84824786  1
  Co  Co17  1  0.33333300  0.66666700  0.12369998  1
  Co  Co18  1  0.16475471  0.32950942  0.25036841  1
  Co  Co19  1  0.49973747  0.50026253  0.99863084  1
  Co  Co20  1  0.66666700  0.33333300  0.62369998  1
  Co  Co21  1  0.99947495  0.49973747  0.49863084  1
  Co  Co22  1  0.33333300  0.66666700  0.37229529  1
  Co  Co23  1  0.50026253  0.49973747  0.49863084  1
