# generated using pymatgen
data_Ni3C
_symmetry_space_group_name_H-M   'P 1'
_cell_length_a   4.58125198
_cell_length_b   4.58125198
_cell_length_c   5.05101842
_cell_angle_alpha   63.03167403
_cell_angle_beta   63.03167403
_cell_angle_gamma   60.00000668
_symmetry_Int_Tables_number   1
_chemical_formula_structural   Ni3C
_chemical_formula_sum   'Ni6 C2'
_cell_volume   78.21361029
_cell_formula_units_Z   2
loop_
 _symmetry_equiv_pos_site_id
 _symmetry_equiv_pos_as_xyz
  1  'x, y, z'
loop_
 _atom_site_type_symbol
 _atom_site_label
 _atom_site_symmetry_multiplicity
 _atom_site_fract_x
 _atom_site_fract_y
 _atom_site_fract_z
 _atom_site_occupancy
  Ni  Ni0  1  0.42308121  0.07691879  0.75000000  1
  Ni  Ni1  1  0.07691879  0.75000000  0.75000000  1
  Ni  Ni2  1  0.75000000  0.42308121  0.75000000  1
  Ni  Ni3  1  0.92308121  0.25000000  0.25000000  1
  Ni  Ni4  1  0.25000000  0.57691879  0.25000000  1
  Ni  Ni5  1  0.57691879  0.92308121  0.25000000  1
  C  C6  1  0.50000000  0.50000000  0.50000000  1
  C  C7  1  -0.00000000  -0.00000000  -0.00000000  1
