# generated using pymatgen
data_Li3SbS4
_symmetry_space_group_name_H-M   'P 1'
_cell_length_a   6.46716099
_cell_length_b   7.50807792
_cell_length_c   6.37415233
_cell_angle_alpha   90.00000000
_cell_angle_beta   109.21909040
_cell_angle_gamma   90.00000000
_symmetry_Int_Tables_number   1
_chemical_formula_structural   Li3SbS4
_chemical_formula_sum   'Li6 Sb2 S8'
_cell_volume   292.25340231
_cell_formula_units_Z   2
loop_
 _symmetry_equiv_pos_site_id
 _symmetry_equiv_pos_as_xyz
  1  'x, y, z'
loop_
 _atom_site_type_symbol
 _atom_site_label
 _atom_site_symmetry_multiplicity
 _atom_site_fract_x
 _atom_site_fract_y
 _atom_site_fract_z
 _atom_site_occupancy
  Li  Li0  1  0.00000000  0.38697449  0.75000000  1
  Li  Li1  1  0.00000000  0.61302551  0.25000000  1
  Li  Li2  1  0.50000000  0.59865016  0.75000000  1
  Li  Li3  1  0.50000000  0.14261947  0.75000000  1
  Li  Li4  1  0.50000000  0.40134984  0.25000000  1
  Li  Li5  1  0.50000000  0.85738053  0.25000000  1
  Sb  Sb6  1  0.00000000  0.86272837  0.75000000  1
  Sb  Sb7  1  0.00000000  0.13727163  0.25000000  1
  S  S8  1  0.25105558  0.63592279  0.97831073  1
  S  S9  1  0.23541731  0.89027328  0.50013432  1
  S  S10  1  0.25105558  0.36407721  0.47831073  1
  S  S11  1  0.23541731  0.10972672  0.00013432  1
  S  S12  1  0.76458269  0.89027328  0.99986568  1
  S  S13  1  0.74894442  0.63592279  0.52168927  1
  S  S14  1  0.76458269  0.10972672  0.49986568  1
  S  S15  1  0.74894442  0.36407721  0.02168927  1
