# generated using pymatgen
data_NbO2F
_symmetry_space_group_name_H-M   'P 1'
_cell_length_a   4.00757047
_cell_length_b   5.64564120
_cell_length_c   5.64564120
_cell_angle_alpha   92.41495001
_cell_angle_beta   90.00000000
_cell_angle_gamma   90.00000000
_symmetry_Int_Tables_number   1
_chemical_formula_structural   NbO2F
_chemical_formula_sum   'Nb2 O4 F2'
_cell_volume   127.62090886
_cell_formula_units_Z   2
loop_
 _symmetry_equiv_pos_site_id
 _symmetry_equiv_pos_as_xyz
  1  'x, y, z'
loop_
 _atom_site_type_symbol
 _atom_site_label
 _atom_site_symmetry_multiplicity
 _atom_site_fract_x
 _atom_site_fract_y
 _atom_site_fract_z
 _atom_site_occupancy
  Nb  Nb0  1  0.00000000  0.47859331  0.52140669  1
  Nb  Nb1  1  0.00000000  0.00547112  0.99452888  1
  O  O2  1  0.50000000  0.99972685  0.00027315  1
  O  O3  1  0.00000000  0.25296541  0.74703459  1
  O  O4  1  0.00000000  0.74949471  0.74207964  1
  O  O5  1  0.00000000  0.25792036  0.25050529  1
  F  F6  1  0.50000000  0.50747685  0.49252315  1
  F  F7  1  0.00000000  0.74835139  0.25164861  1
