# generated using pymatgen
data_Fe(CO3)2
_symmetry_space_group_name_H-M   'P 1'
_cell_length_a   4.77759406
_cell_length_b   6.04975500
_cell_length_c   4.77759407
_cell_angle_alpha   66.74284360
_cell_angle_beta   120.00000073
_cell_angle_gamma   113.25715644
_symmetry_Int_Tables_number   1
_chemical_formula_structural   Fe(CO3)2
_chemical_formula_sum   'Fe1 C2 O6'
_cell_volume   106.43419579
_cell_formula_units_Z   1
loop_
 _symmetry_equiv_pos_site_id
 _symmetry_equiv_pos_as_xyz
  1  'x, y, z'
loop_
 _atom_site_type_symbol
 _atom_site_label
 _atom_site_symmetry_multiplicity
 _atom_site_fract_x
 _atom_site_fract_y
 _atom_site_fract_z
 _atom_site_occupancy
  Fe  Fe0  1  0.50000000  0.50000000  0.50000000  1
  C  C1  1  0.23815787  0.71447462  0.76184213  1
  C  C2  1  0.76184213  0.28552538  0.23815787  1
  O  O3  1  0.04683309  0.28394882  0.27464241  1
  O  O4  1  0.48824186  0.71605118  0.04683309  1
  O  O5  1  0.27464241  0.71605118  0.51175814  1
  O  O6  1  0.72535759  0.28394882  0.48824186  1
  O  O7  1  0.51175814  0.28394882  0.95316691  1
  O  O8  1  0.95316691  0.71605118  0.72535759  1
