# generated using pymatgen
data_TiSiRu
_symmetry_space_group_name_H-M   'P 1'
_cell_length_a   3.95415069
_cell_length_b   6.09911138
_cell_length_c   7.26835794
_cell_angle_alpha   90.00000000
_cell_angle_beta   90.00000000
_cell_angle_gamma   90.00000000
_symmetry_Int_Tables_number   1
_chemical_formula_structural   TiSiRu
_chemical_formula_sum   'Ti4 Si4 Ru4'
_cell_volume   175.28957454
_cell_formula_units_Z   4
loop_
 _symmetry_equiv_pos_site_id
 _symmetry_equiv_pos_as_xyz
  1  'x, y, z'
loop_
 _atom_site_type_symbol
 _atom_site_label
 _atom_site_symmetry_multiplicity
 _atom_site_fract_x
 _atom_site_fract_y
 _atom_site_fract_z
 _atom_site_occupancy
  Ru  Ru0  1  0.75000000  0.83487280  0.44409072  1
  Ru  Ru1  1  0.25000000  0.16512720  0.55590928  1
  Ru  Ru2  1  0.75000000  0.33487280  0.05590928  1
  Ru  Ru3  1  0.25000000  0.66512720  0.94409072  1
  Ti  Ti4  1  0.75000000  0.98027168  0.81371294  1
  Ti  Ti5  1  0.25000000  0.01972832  0.18628706  1
  Ti  Ti6  1  0.75000000  0.48027168  0.68628706  1
  Ti  Ti7  1  0.25000000  0.51972832  0.31371294  1
  Si  Si8  1  0.75000000  0.22413595  0.37584096  1
  Si  Si9  1  0.25000000  0.77586405  0.62415904  1
  Si  Si10  1  0.75000000  0.72413595  0.12415904  1
  Si  Si11  1  0.25000000  0.27586405  0.87584096  1
