# generated using pymatgen
data_Li2VF4
_symmetry_space_group_name_H-M   'P 1'
_cell_length_a   4.17262903
_cell_length_b   5.38094206
_cell_length_c   5.90032151
_cell_angle_alpha   89.99965943
_cell_angle_beta   45.00584549
_cell_angle_gamma   67.18193287
_symmetry_Int_Tables_number   1
_chemical_formula_structural   Li2VF4
_chemical_formula_sum   'Li2 V1 F4'
_cell_volume   78.34274414
_cell_formula_units_Z   1
loop_
 _symmetry_equiv_pos_site_id
 _symmetry_equiv_pos_as_xyz
  1  'x, y, z'
loop_
 _atom_site_type_symbol
 _atom_site_label
 _atom_site_symmetry_multiplicity
 _atom_site_fract_x
 _atom_site_fract_y
 _atom_site_fract_z
 _atom_site_occupancy
  Li  Li0  1  0.00472639  0.50000255  0.74760154  1
  Li  Li1  1  0.00473150  0.49999745  0.24759898  1
  V  V2  1  0.00048439  0.00000000  0.99967350  1
  F  F3  1  0.46996015  0.53092589  0.76498655  1
  F  F4  1  0.53181193  0.46907411  0.23406066  1
  F  F5  1  0.49951118  0.00000000  0.49971994  1
  F  F6  1  0.50123246  1.00000000  0.99887382  1
