# generated using pymatgen
data_Fe2CuO4
_symmetry_space_group_name_H-M   'P 1'
_cell_length_a   5.99900026
_cell_length_b   5.99900026
_cell_length_c   5.99900026
_cell_angle_alpha   119.55062985
_cell_angle_beta   119.55062985
_cell_angle_gamma   90.78011025
_symmetry_Int_Tables_number   1
_chemical_formula_structural   Fe2CuO4
_chemical_formula_sum   'Fe4 Cu2 O8'
_cell_volume   153.68020005
_cell_formula_units_Z   2
loop_
 _symmetry_equiv_pos_site_id
 _symmetry_equiv_pos_as_xyz
  1  'x, y, z'
loop_
 _atom_site_type_symbol
 _atom_site_label
 _atom_site_symmetry_multiplicity
 _atom_site_fract_x
 _atom_site_fract_y
 _atom_site_fract_z
 _atom_site_occupancy
  Fe  Fe0  1  0.87500000  0.62499432  0.24999432  1
  Fe  Fe1  1  0.37499432  0.12500000  0.74999432  1
  Fe  Fe2  1  0.37500568  0.62500000  0.25000568  1
  Fe  Fe3  1  0.37500000  0.62500568  0.75000568  1
  Cu  Cu4  1  -0.00000000  -0.00000000  -0.00000000  1
  Cu  Cu5  1  0.75000000  0.25000000  0.50000000  1
  O  O6  1  0.61110750  0.38294914  0.22815207  1
  O  O7  1  0.61705086  0.84520293  0.22815737  1
  O  O8  1  0.61704457  0.38889250  0.77184263  1
  O  O9  1  0.13295543  0.40479707  0.27184793  1
  O  O10  1  0.13889250  0.86704457  0.27184263  1
  O  O11  1  0.15479707  0.38295543  0.77184793  1
  O  O12  1  0.59520293  0.86705086  0.72815737  1
  O  O13  1  0.13294914  0.86110750  0.72815207  1
