# generated using pymatgen
data_Y2O3
_symmetry_space_group_name_H-M   'P 1'
_cell_length_a   5.82385934
_cell_length_b   5.99344157
_cell_length_c   16.84120818
_cell_angle_alpha   90.00000000
_cell_angle_beta   90.00000000
_cell_angle_gamma   90.00000000
_symmetry_Int_Tables_number   1
_chemical_formula_structural   Y2O3
_chemical_formula_sum   'Y16 O24'
_cell_volume   587.84170909
_cell_formula_units_Z   8
loop_
 _symmetry_equiv_pos_site_id
 _symmetry_equiv_pos_as_xyz
  1  'x, y, z'
loop_
 _atom_site_type_symbol
 _atom_site_label
 _atom_site_symmetry_multiplicity
 _atom_site_fract_x
 _atom_site_fract_y
 _atom_site_fract_z
 _atom_site_occupancy
  Y  Y0  1  0.00013429  0.21111638  0.07012127  1
  Y  Y1  1  0.99663492  0.76544258  0.18181037  1
  Y  Y2  1  0.00013429  0.28888362  0.57012127  1
  Y  Y3  1  0.99663492  0.73455742  0.68181037  1
  Y  Y4  1  0.50336508  0.26544258  0.18181037  1
  Y  Y5  1  0.50336508  0.23455742  0.68181037  1
  Y  Y6  1  0.49986571  0.71111638  0.07012127  1
  Y  Y7  1  0.49986571  0.78888362  0.57012127  1
  Y  Y8  1  0.50013429  0.21111638  0.42987873  1
  Y  Y9  1  0.50013429  0.28888362  0.92987873  1
  Y  Y10  1  0.49663492  0.76544258  0.31818963  1
  Y  Y11  1  0.49663492  0.73455742  0.81818963  1
  Y  Y12  1  -0.00013429  0.71111638  0.42987873  1
  Y  Y13  1  0.00336508  0.26544258  0.31818963  1
  Y  Y14  1  0.00336508  0.23455742  0.81818963  1
  Y  Y15  1  -0.00013429  0.78888362  0.92987873  1
  O  O16  1  0.14265833  0.13148522  0.20049691  1
  O  O17  1  0.14265833  0.36851478  0.70049691  1
  O  O18  1  0.14425228  0.84631869  0.05294148  1
  O  O19  1  0.14425228  0.65368131  0.55294148  1
  O  O20  1  0.20699510  0.98666516  0.37517670  1
  O  O21  1  0.20699510  0.51333484  0.87517670  1
  O  O22  1  0.29300490  0.48666516  0.37517670  1
  O  O23  1  0.29300490  0.01333484  0.87517670  1
  O  O24  1  0.35574772  0.15368131  0.55294148  1
  O  O25  1  0.35574772  0.34631869  0.05294148  1
  O  O26  1  0.35734167  0.63148522  0.20049691  1
  O  O27  1  0.35734167  0.86851478  0.70049691  1
  O  O28  1  0.64265833  0.36851478  0.79950309  1
  O  O29  1  0.64265833  0.13148522  0.29950309  1
  O  O30  1  0.64425228  0.84631869  0.44705852  1
  O  O31  1  0.64425228  0.65368131  0.94705852  1
  O  O32  1  0.70699510  0.98666516  0.12482330  1
  O  O33  1  0.70699510  0.51333484  0.62482330  1
  O  O34  1  0.79300490  0.48666516  0.12482330  1
  O  O35  1  0.79300490  0.01333484  0.62482330  1
  O  O36  1  0.85574772  0.34631869  0.44705852  1
  O  O37  1  0.85574772  0.15368131  0.94705852  1
  O  O38  1  0.85734167  0.86851478  0.79950309  1
  O  O39  1  0.85734167  0.63148522  0.29950309  1
