# generated using pymatgen
data_Mn3CuO8
_symmetry_space_group_name_H-M   'P 1'
_cell_length_a   10.10274584
_cell_length_b   10.10496762
_cell_length_c   14.27394069
_cell_angle_alpha   19.57930794
_cell_angle_beta   19.57489211
_cell_angle_gamma   33.76560959
_symmetry_Int_Tables_number   1
_chemical_formula_structural   Mn3CuO8
_chemical_formula_sum   'Mn3 Cu1 O8'
_cell_volume   141.46104057
_cell_formula_units_Z   1
loop_
 _symmetry_equiv_pos_site_id
 _symmetry_equiv_pos_as_xyz
  1  'x, y, z'
loop_
 _atom_site_type_symbol
 _atom_site_label
 _atom_site_symmetry_multiplicity
 _atom_site_fract_x
 _atom_site_fract_y
 _atom_site_fract_z
 _atom_site_occupancy
  Mn  Mn0  1  0.00002441  0.50003493  -0.00003725  1
  Mn  Mn1  1  0.49998084  -0.00002152  0.00003030  1
  Mn  Mn2  1  0.50002339  0.49996281  0.00000857  1
  Cu  Cu3  1  -0.00001603  0.00000869  0.00000576  1
  O  O4  1  0.00105290  0.00123715  0.26408940  1
  O  O5  1  0.00039143  0.49343613  0.26989865  1
  O  O6  1  0.49423662  0.00044579  0.26942726  1
  O  O7  1  0.99894531  0.99877410  0.73589944  1
  O  O8  1  0.50225052  0.50230413  0.26329921  1
  O  O9  1  0.99960482  0.50658526  0.73008220  1
  O  O10  1  0.50575705  0.99954513  0.73058895  1
  O  O11  1  0.49774774  0.49768540  0.73670751  1
