# generated using pymatgen
data_Tb2Bi2O7
_symmetry_space_group_name_H-M   'P 1'
_cell_length_a   7.73866173
_cell_length_b   7.73852123
_cell_length_c   7.73902183
_cell_angle_alpha   60.00146776
_cell_angle_beta   60.00202700
_cell_angle_gamma   59.99995182
_symmetry_Int_Tables_number   1
_chemical_formula_structural   Tb2Bi2O7
_chemical_formula_sum   'Tb4 Bi4 O14'
_cell_volume   327.72247619
_cell_formula_units_Z   2
loop_
 _symmetry_equiv_pos_site_id
 _symmetry_equiv_pos_as_xyz
  1  'x, y, z'
loop_
 _atom_site_type_symbol
 _atom_site_label
 _atom_site_symmetry_multiplicity
 _atom_site_fract_x
 _atom_site_fract_y
 _atom_site_fract_z
 _atom_site_occupancy
  Tb  Tb0  1  0.50000046  0.00000040  0.49999990  1
  Tb  Tb1  1  0.50000015  0.49999964  0.00000066  1
  Tb  Tb2  1  -0.00000022  0.49999998  0.50000019  1
  Tb  Tb3  1  0.50000003  0.50000025  0.49999972  1
  Bi  Bi4  1  -0.00000096  -0.00000029  0.00000127  1
  Bi  Bi5  1  0.50000053  0.00000003  0.99999965  1
  Bi  Bi6  1  -0.00000081  0.50000015  0.00000060  1
  Bi  Bi7  1  0.99999979  -0.00000031  0.49999969  1
  O  O8  1  0.64754980  0.10243352  0.10245708  1
  O  O9  1  0.89757932  0.35237869  0.35246060  1
  O  O10  1  0.10244320  0.64755080  0.10246174  1
  O  O11  1  0.10241927  0.10241270  0.64754512  1
  O  O12  1  0.37499803  0.37499394  0.37501171  1
  O  O13  1  0.64762232  0.10240997  0.64755512  1
  O  O14  1  0.64754189  0.64756163  0.10245931  1
  O  O15  1  0.35237720  0.89758918  0.35244589  1
  O  O16  1  0.35245784  0.35243871  0.89754033  1
  O  O17  1  0.62500131  0.62500578  0.62498894  1
  O  O18  1  0.89758159  0.89758778  0.35245372  1
  O  O19  1  0.89755748  0.35244801  0.89753746  1
  O  O20  1  0.10242228  0.64762241  0.64753907  1
  O  O21  1  0.35244950  0.89756704  0.89754223  1
