# generated using pymatgen
data_FeHO2
_symmetry_space_group_name_H-M   'P 1'
_cell_length_a   4.01510093
_cell_length_b   6.53326274
_cell_length_c   6.57843900
_cell_angle_alpha   152.45395151
_cell_angle_beta   90.00000000
_cell_angle_gamma   90.00000000
_symmetry_Int_Tables_number   1
_chemical_formula_structural   FeHO2
_chemical_formula_sum   'Fe2 H2 O4'
_cell_volume   79.80404195
_cell_formula_units_Z   2
loop_
 _symmetry_equiv_pos_site_id
 _symmetry_equiv_pos_as_xyz
  1  'x, y, z'
loop_
 _atom_site_type_symbol
 _atom_site_label
 _atom_site_symmetry_multiplicity
 _atom_site_fract_x
 _atom_site_fract_y
 _atom_site_fract_z
 _atom_site_occupancy
  Fe  Fe0  1  0.25000000  0.82311174  0.18367508  1
  Fe  Fe1  1  0.75000000  0.17688826  0.81632492  1
  H  H2  1  0.25000000  0.51246740  0.51814726  1
  H  H3  1  0.75000000  0.48753260  0.48185274  1
  O  O4  1  0.25000000  0.21098909  0.78526635  1
  O  O5  1  0.75000000  0.78901091  0.21473365  1
  O  O6  1  0.25000000  0.42948731  0.58920064  1
  O  O7  1  0.75000000  0.57051269  0.41079936  1
