# generated using pymatgen
data_FeOF
_symmetry_space_group_name_H-M   'P 1'
_cell_length_a   4.75112656
_cell_length_b   9.43724639
_cell_length_c   3.12241477
_cell_angle_alpha   90.00000000
_cell_angle_beta   90.00000000
_cell_angle_gamma   90.10589974
_symmetry_Int_Tables_number   1
_chemical_formula_structural   FeOF
_chemical_formula_sum   'Fe4 O4 F4'
_cell_volume   140.00119521
_cell_formula_units_Z   4
loop_
 _symmetry_equiv_pos_site_id
 _symmetry_equiv_pos_as_xyz
  1  'x, y, z'
loop_
 _atom_site_type_symbol
 _atom_site_label
 _atom_site_symmetry_multiplicity
 _atom_site_fract_x
 _atom_site_fract_y
 _atom_site_fract_z
 _atom_site_occupancy
  Fe  Fe0  1  0.02403317  0.98882948  0.00000000  1
  Fe  Fe1  1  0.02211349  0.48787976  0.00000000  1
  Fe  Fe2  1  0.51645662  0.27757937  0.50000000  1
  Fe  Fe3  1  0.45137737  0.73902332  0.50000000  1
  O  O4  1  0.19490009  0.40046735  0.50000000  1
  O  O5  1  0.19390421  0.90534992  0.50000000  1
  O  O6  1  0.29337702  0.65140255  0.00000000  1
  O  O7  1  0.70208752  0.35026401  0.00000000  1
  F  F8  1  0.30488457  0.15182247  0.00000000  1
  F  F9  1  0.69268934  0.84885265  0.00000000  1
  F  F10  1  0.80451576  0.09417058  0.50000000  1
  F  F11  1  0.79965885  0.60435755  0.50000000  1
