# generated using pymatgen
data_SnBi
_symmetry_space_group_name_H-M   'P 1'
_cell_length_a   6.51268484
_cell_length_b   6.51268446
_cell_length_c   6.52694649
_cell_angle_alpha   90.00000000
_cell_angle_beta   90.00000000
_cell_angle_gamma   119.04971781
_symmetry_Int_Tables_number   1
_chemical_formula_structural   SnBi
_chemical_formula_sum   'Sn4 Bi4'
_cell_volume   242.01389588
_cell_formula_units_Z   4
loop_
 _symmetry_equiv_pos_site_id
 _symmetry_equiv_pos_as_xyz
  1  'x, y, z'
loop_
 _atom_site_type_symbol
 _atom_site_label
 _atom_site_symmetry_multiplicity
 _atom_site_fract_x
 _atom_site_fract_y
 _atom_site_fract_z
 _atom_site_occupancy
  Sn  Sn0  1  0.34071231  0.34071231  0.82275746  1
  Sn  Sn1  1  0.65928769  0.65928769  0.17724254  1
  Sn  Sn2  1  0.84071231  0.84071231  0.67724254  1
  Sn  Sn3  1  0.15928769  0.15928769  0.32275746  1
  Bi  Bi4  1  0.20939260  0.79060740  0.00000000  1
  Bi  Bi5  1  0.70939260  0.29060740  0.50000000  1
  Bi  Bi6  1  0.29060740  0.70939260  0.50000000  1
  Bi  Bi7  1  0.79060740  0.20939260  0.00000000  1
