# generated using pymatgen
data_Al2CuO4
_symmetry_space_group_name_H-M   'P 1'
_cell_length_a   5.76712077
_cell_length_b   5.76712032
_cell_length_c   5.76712085
_cell_angle_alpha   60.00000265
_cell_angle_beta   60.00000524
_cell_angle_gamma   60.00000094
_symmetry_Int_Tables_number   1
_chemical_formula_structural   Al2CuO4
_chemical_formula_sum   'Al4 Cu2 O8'
_cell_volume   135.63199257
_cell_formula_units_Z   2
loop_
 _symmetry_equiv_pos_site_id
 _symmetry_equiv_pos_as_xyz
  1  'x, y, z'
loop_
 _atom_site_type_symbol
 _atom_site_label
 _atom_site_symmetry_multiplicity
 _atom_site_fract_x
 _atom_site_fract_y
 _atom_site_fract_z
 _atom_site_occupancy
  Al  Al0  1  0.50000000  -0.00000000  0.50000000  1
  Al  Al1  1  0.00000000  0.50000000  0.50000000  1
  Al  Al2  1  0.50000000  0.50000000  0.00000000  1
  Al  Al3  1  0.50000000  0.50000000  0.50000000  1
  Cu  Cu4  1  0.12500000  0.12500000  0.12500000  1
  Cu  Cu5  1  0.87500000  0.87500000  0.87500000  1
  O  O6  1  0.73529975  0.73529975  0.73529975  1
  O  O7  1  0.26470025  0.26470025  0.70589826  1
  O  O8  1  0.26470025  0.70589826  0.26470025  1
  O  O9  1  0.70589826  0.26470025  0.26470025  1
  O  O10  1  0.73529975  0.29410174  0.73529975  1
  O  O11  1  0.29410174  0.73529975  0.73529975  1
  O  O12  1  0.26470025  0.26470025  0.26470025  1
  O  O13  1  0.73529975  0.73529975  0.29410174  1
