# generated using pymatgen
data_Mg6AlZn
_symmetry_space_group_name_H-M   'P 1'
_cell_length_a   6.20132067
_cell_length_b   6.26891784
_cell_length_c   4.95408916
_cell_angle_alpha   90.00000000
_cell_angle_beta   90.00000000
_cell_angle_gamma   120.36124891
_symmetry_Int_Tables_number   1
_chemical_formula_structural   Mg6AlZn
_chemical_formula_sum   'Mg6 Al1 Zn1'
_cell_volume   166.18000521
_cell_formula_units_Z   1
loop_
 _symmetry_equiv_pos_site_id
 _symmetry_equiv_pos_as_xyz
  1  'x, y, z'
loop_
 _atom_site_type_symbol
 _atom_site_label
 _atom_site_symmetry_multiplicity
 _atom_site_fract_x
 _atom_site_fract_y
 _atom_site_fract_z
 _atom_site_occupancy
  Mg  Mg0  1  0.66728924  0.33355534  0.25000000  1
  Mg  Mg1  1  0.66728924  0.83373290  0.25000000  1
  Mg  Mg2  1  0.32810224  0.16341657  0.75000000  1
  Mg  Mg3  1  0.32810224  0.66468667  0.75000000  1
  Mg  Mg4  1  0.83804922  0.16902511  0.75000000  1
  Mg  Mg5  1  0.83926847  0.66963474  0.75000000  1
  Al  Al6  1  0.16606646  0.33303273  0.25000000  1
  Zn  Zn7  1  0.16583288  0.83291594  0.25000000  1
