# generated using pymatgen
data_Pr2CuO4
_symmetry_space_group_name_H-M   'P 1'
_cell_length_a   5.28090519
_cell_length_b   5.58346518
_cell_length_c   6.99267596
_cell_angle_alpha   90.00000000
_cell_angle_beta   112.18526073
_cell_angle_gamma   90.00000000
_symmetry_Int_Tables_number   1
_chemical_formula_structural   Pr2CuO4
_chemical_formula_sum   'Pr4 Cu2 O8'
_cell_volume   190.92001003
_cell_formula_units_Z   2
loop_
 _symmetry_equiv_pos_site_id
 _symmetry_equiv_pos_as_xyz
  1  'x, y, z'
loop_
 _atom_site_type_symbol
 _atom_site_label
 _atom_site_symmetry_multiplicity
 _atom_site_fract_x
 _atom_site_fract_y
 _atom_site_fract_z
 _atom_site_occupancy
  O  O0  1  0.18596535  0.93146847  0.37193069  1
  O  O1  1  0.81403465  0.06853153  0.62806931  1
  O  O2  1  0.31403465  0.43146847  0.62806931  1
  O  O3  1  0.68596535  0.56853153  0.37193069  1
  O  O4  1  0.26510787  0.25000000  0.03021573  1
  O  O5  1  0.23489213  0.75000000  0.96978427  1
  O  O6  1  0.76510787  0.25000000  0.03021573  1
  O  O7  1  0.73489213  0.75000000  0.96978427  1
  Cu  Cu8  1  0.00000000  0.00000000  0.00000000  1
  Cu  Cu9  1  0.50000000  0.50000000  0.00000000  1
  Pr  Pr10  1  0.36132981  0.01660415  0.72265962  1
  Pr  Pr11  1  0.63867019  0.98339585  0.27734038  1
  Pr  Pr12  1  0.13867019  0.51660415  0.27734038  1
  Pr  Pr13  1  0.86132981  0.48339585  0.72265962  1
