# generated using pymatgen
data_KMnO2
_symmetry_space_group_name_H-M   'P 1'
_cell_length_a   6.40636366
_cell_length_b   6.40646714
_cell_length_c   7.04430933
_cell_angle_alpha   117.04760379
_cell_angle_beta   117.05264083
_cell_angle_gamma   89.99849646
_symmetry_Int_Tables_number   1
_chemical_formula_structural   KMnO2
_chemical_formula_sum   'K4 Mn4 O8'
_cell_volume   221.39004630
_cell_formula_units_Z   4
loop_
 _symmetry_equiv_pos_site_id
 _symmetry_equiv_pos_as_xyz
  1  'x, y, z'
loop_
 _atom_site_type_symbol
 _atom_site_label
 _atom_site_symmetry_multiplicity
 _atom_site_fract_x
 _atom_site_fract_y
 _atom_site_fract_z
 _atom_site_occupancy
  K  K0  1  0.00088799  0.00258248  0.00535807  1
  K  K1  1  0.50464485  0.00272717  0.00567132  1
  K  K2  1  0.49649743  0.49852056  0.49332820  1
  K  K3  1  0.49665741  0.99498918  0.49355152  1
  Mn  Mn4  1  0.99328785  0.49331939  0.98679714  1
  Mn  Mn5  1  0.00589603  0.00596734  0.51201946  1
  Mn  Mn6  1  0.00570370  0.50599711  0.51163513  1
  Mn  Mn7  1  0.49372057  0.49350276  0.98714136  1
  O  O8  1  0.19085151  0.74967262  0.49924961  1
  O  O9  1  0.74986983  0.69108274  0.99971934  1
  O  O10  1  0.75007605  0.30868198  0.00012778  1
  O  O11  1  0.80791447  0.74934518  0.49861808  1
  O  O12  1  0.24154488  0.29897786  0.98309005  1
  O  O13  1  0.81529670  0.25792608  0.51569470  1
  O  O14  1  0.20001966  0.25771363  0.51528365  1
  O  O15  1  0.24181807  0.68419292  0.98366160  1
