# generated using pymatgen
data_Cu2SiO4
_symmetry_space_group_name_H-M   'P 1'
_cell_length_a   5.08760698
_cell_length_b   4.80263624
_cell_length_c   5.08788616
_cell_angle_alpha   58.01812423
_cell_angle_beta   89.99868189
_cell_angle_gamma   121.97894460
_symmetry_Int_Tables_number   1
_chemical_formula_structural   Cu2SiO4
_chemical_formula_sum   'Cu2 Si1 O4'
_cell_volume   82.36627239
_cell_formula_units_Z   1
loop_
 _symmetry_equiv_pos_site_id
 _symmetry_equiv_pos_as_xyz
  1  'x, y, z'
loop_
 _atom_site_type_symbol
 _atom_site_label
 _atom_site_symmetry_multiplicity
 _atom_site_fract_x
 _atom_site_fract_y
 _atom_site_fract_z
 _atom_site_occupancy
  Cu  Cu0  1  0.50003635  0.00007680  0.49996799  1
  Cu  Cu1  1  -0.00000326  -0.00000613  -0.00000008  1
  Si  Si2  1  0.75004762  0.49997613  0.74995422  1
  O  O3  1  0.70519343  0.79037587  0.41510551  1
  O  O4  1  0.79451768  0.20966307  0.70521134  1
  O  O5  1  0.41504077  0.20955703  0.08522344  1
  O  O6  1  0.08516739  0.79035723  0.79453757  1
