# generated using pymatgen
data_YSiPd
_symmetry_space_group_name_H-M   'P 1'
_cell_length_a   4.34064666
_cell_length_b   7.48360128
_cell_length_c   14.03210325
_cell_angle_alpha   90.00000000
_cell_angle_beta   90.00000000
_cell_angle_gamma   90.00000000
_symmetry_Int_Tables_number   1
_chemical_formula_structural   YSiPd
_chemical_formula_sum   'Y8 Si8 Pd8'
_cell_volume   455.81419595
_cell_formula_units_Z   8
loop_
 _symmetry_equiv_pos_site_id
 _symmetry_equiv_pos_as_xyz
  1  'x, y, z'
loop_
 _atom_site_type_symbol
 _atom_site_label
 _atom_site_symmetry_multiplicity
 _atom_site_fract_x
 _atom_site_fract_y
 _atom_site_fract_z
 _atom_site_occupancy
  Y  Y0  1  0.75000000  0.21005318  0.99849808  1
  Y  Y1  1  0.25000000  0.78994682  0.00150192  1
  Y  Y2  1  0.75000000  0.21005318  0.50150192  1
  Y  Y3  1  0.25000000  0.78994682  0.49849808  1
  Y  Y4  1  0.75000000  0.29243733  0.25000000  1
  Y  Y5  1  0.25000000  0.70756267  0.75000000  1
  Y  Y6  1  0.75000000  0.29961496  0.75000000  1
  Y  Y7  1  0.25000000  0.70038504  0.25000000  1
  Pd  Pd8  1  0.75000000  0.92309558  0.85787404  1
  Pd  Pd9  1  0.25000000  0.07690442  0.14212596  1
  Pd  Pd10  1  0.75000000  0.92309558  0.64212596  1
  Pd  Pd11  1  0.25000000  0.07690442  0.35787404  1
  Pd  Pd12  1  0.75000000  0.58176787  0.40569149  1
  Pd  Pd13  1  0.25000000  0.41823213  0.59430851  1
  Pd  Pd14  1  0.75000000  0.58176787  0.09430851  1
  Pd  Pd15  1  0.25000000  0.41823213  0.90569149  1
  Si  Si16  1  0.75000000  0.59162589  0.89618349  1
  Si  Si17  1  0.25000000  0.40837411  0.10381651  1
  Si  Si18  1  0.75000000  0.59162589  0.60381651  1
  Si  Si19  1  0.25000000  0.40837411  0.39618349  1
  Si  Si20  1  0.75000000  0.90950468  0.34283855  1
  Si  Si21  1  0.25000000  0.09049532  0.65716145  1
  Si  Si22  1  0.75000000  0.90950468  0.15716145  1
  Si  Si23  1  0.25000000  0.09049532  0.84283855  1
