# generated using pymatgen
data_ErInCu
_symmetry_space_group_name_H-M   'P 1'
_cell_length_a   7.40207610
_cell_length_b   7.40207610
_cell_length_c   3.94778482
_cell_angle_alpha   90.00000000
_cell_angle_beta   90.00000000
_cell_angle_gamma   120.00000001
_symmetry_Int_Tables_number   1
_chemical_formula_structural   ErInCu
_chemical_formula_sum   'Er3 In3 Cu3'
_cell_volume   187.32303935
_cell_formula_units_Z   3
loop_
 _symmetry_equiv_pos_site_id
 _symmetry_equiv_pos_as_xyz
  1  'x, y, z'
loop_
 _atom_site_type_symbol
 _atom_site_label
 _atom_site_symmetry_multiplicity
 _atom_site_fract_x
 _atom_site_fract_y
 _atom_site_fract_z
 _atom_site_occupancy
  Cu  Cu0  1  0.33333333  0.66666667  0.00000000  1
  Cu  Cu1  1  0.00000000  0.00000000  0.50000000  1
  Cu  Cu2  1  0.66666667  0.33333333  0.00000000  1
  In  In3  1  0.74519953  0.74519953  0.00000000  1
  In  In4  1  0.00000000  0.25480047  0.00000000  1
  In  In5  1  0.25480047  0.00000000  0.00000000  1
  Er  Er6  1  0.00000000  0.58921883  0.50000000  1
  Er  Er7  1  0.41078117  0.41078117  0.50000000  1
  Er  Er8  1  0.58921883  0.00000000  0.50000000  1
