# generated using pymatgen
data_BaCu13
_symmetry_space_group_name_H-M   'P 1'
_cell_length_a   8.28266357
_cell_length_b   8.28266356
_cell_length_c   8.28266356
_cell_angle_alpha   60.00000001
_cell_angle_beta   60.00000002
_cell_angle_gamma   60.00000000
_symmetry_Int_Tables_number   1
_chemical_formula_structural   BaCu13
_chemical_formula_sum   'Ba2 Cu26'
_cell_volume   401.78624521
_cell_formula_units_Z   2
loop_
 _symmetry_equiv_pos_site_id
 _symmetry_equiv_pos_as_xyz
  1  'x, y, z'
loop_
 _atom_site_type_symbol
 _atom_site_label
 _atom_site_symmetry_multiplicity
 _atom_site_fract_x
 _atom_site_fract_y
 _atom_site_fract_z
 _atom_site_occupancy
  Cu  Cu0  1  0.50000000  0.50000000  0.50000000  1
  Cu  Cu1  1  0.00000000  0.00000000  0.00000000  1
  Cu  Cu2  1  0.20575824  0.79424176  0.43538558  1
  Cu  Cu3  1  0.70575824  0.06461442  0.93538558  1
  Cu  Cu4  1  0.93538558  0.29424176  0.70575824  1
  Cu  Cu5  1  0.70575824  0.93538558  0.29424176  1
  Cu  Cu6  1  0.06461442  0.29424176  0.93538558  1
  Cu  Cu7  1  0.06461442  0.93538558  0.70575824  1
  Cu  Cu8  1  0.93538558  0.06461442  0.29424176  1
  Cu  Cu9  1  0.43538558  0.20575824  0.79424176  1
  Cu  Cu10  1  0.79424176  0.43538558  0.20575824  1
  Cu  Cu11  1  0.56461442  0.20575824  0.43538558  1
  Cu  Cu12  1  0.79424176  0.56461442  0.43538558  1
  Cu  Cu13  1  0.56461442  0.79424176  0.20575824  1
  Cu  Cu14  1  0.43538558  0.79424176  0.56461442  1
  Cu  Cu15  1  0.20575824  0.43538558  0.56461442  1
  Cu  Cu16  1  0.20575824  0.56461442  0.79424176  1
  Cu  Cu17  1  0.93538558  0.70575824  0.06461442  1
  Cu  Cu18  1  0.29424176  0.93538558  0.06461442  1
  Cu  Cu19  1  0.29424176  0.70575824  0.93538558  1
  Cu  Cu20  1  0.70575824  0.29424176  0.06461442  1
  Cu  Cu21  1  0.06461442  0.70575824  0.29424176  1
  Cu  Cu22  1  0.29424176  0.06461442  0.70575824  1
  Cu  Cu23  1  0.43538558  0.56461442  0.20575824  1
  Cu  Cu24  1  0.56461442  0.43538558  0.79424176  1
  Cu  Cu25  1  0.79424176  0.20575824  0.56461442  1
  Ba  Ba26  1  0.75000000  0.75000000  0.75000000  1
  Ba  Ba27  1  0.25000000  0.25000000  0.25000000  1
