# generated using pymatgen
data_GdTiCdSbO7
_symmetry_space_group_name_H-M   'P 1'
_cell_length_a   7.32377490
_cell_length_b   14.67220707
_cell_length_c   12.71357776
_cell_angle_alpha   29.94443116
_cell_angle_beta   54.82615625
_cell_angle_gamma   60.05543952
_symmetry_Int_Tables_number   1
_chemical_formula_structural   GdTiCdSbO7
_chemical_formula_sum   'Gd4 Ti4 Cd4 Sb4 O28'
_cell_volume   557.41252254
_cell_formula_units_Z   4
loop_
 _symmetry_equiv_pos_site_id
 _symmetry_equiv_pos_as_xyz
  1  'x, y, z'
loop_
 _atom_site_type_symbol
 _atom_site_label
 _atom_site_symmetry_multiplicity
 _atom_site_fract_x
 _atom_site_fract_y
 _atom_site_fract_z
 _atom_site_occupancy
  Cd  Cd0  1  0.49999665  0.99207581  0.00793228  1
  Cd  Cd1  1  0.00793130  0.74999617  0.49999825  1
  Cd  Cd2  1  0.00001505  0.50791270  0.99207925  1
  Cd  Cd3  1  0.99206246  0.75000218  0.00000183  1
  Gd  Gd4  1  0.00000997  0.98560937  0.01438744  1
  Gd  Gd5  1  0.49999573  0.51437472  0.98562938  1
  Gd  Gd6  1  0.01441172  0.25000972  -0.00001275  1
  Gd  Gd7  1  0.98559062  0.24999449  0.50000265  1
  O  O8  1  0.12787017  0.99712894  0.12787662  1
  O  O9  1  0.18323788  0.19639103  0.17179245  1
  O  O10  1  0.58861319  0.00073524  0.17578796  1
  O  O11  1  0.12212766  0.50287452  0.12212080  1
  O  O12  1  0.57686843  0.20187153  0.17313469  1
  O  O13  1  0.17313818  0.29813590  0.57686221  1
  O  O14  1  0.17180094  0.69856841  0.18323642  1
  O  O15  1  0.42312933  0.20186899  0.42313014  1
  O  O16  1  0.17579616  0.48488095  0.58859492  1
  O  O17  1  0.55835700  0.49926223  0.17724755  1
  O  O18  1  0.82274012  0.01511988  0.41139602  1
  O  O19  1  0.81675640  0.19639388  0.43541527  1
  O  O20  1  0.58037827  0.30360538  0.56458276  1
  O  O21  1  0.57547665  0.70049091  0.17451049  1
  O  O22  1  0.17450923  0.79951263  0.57549126  1
  O  O23  1  0.41962307  0.30360586  0.82820901  1
  O  O24  1  0.42452423  0.70048564  0.42452242  1
  O  O25  1  0.17725294  0.01512646  0.55834997  1
  O  O26  1  0.44164154  0.49926396  0.82422427  1
  O  O27  1  0.87213145  0.99712442  0.87787111  1
  O  O28  1  0.82422605  0.48486098  0.44165218  1
  O  O29  1  0.56459545  0.80142950  0.58038924  1
  O  O30  1  0.82687972  0.29812952  0.82687067  1
  O  O31  1  0.82819739  0.69856862  0.41962110  1
  O  O32  1  0.43540309  0.80142936  0.81675364  1
  O  O33  1  0.41138827  0.00073168  0.82274830  1
  O  O34  1  0.87786485  0.50288136  0.87212846  1
  O  O35  1  0.82548740  0.79951443  0.82548154  1
  Sb  Sb36  1  0.49442465  0.74999672  -0.00001660  1
  Sb  Sb37  1  0.99997950  0.00561926  0.49437604  1
  Sb  Sb38  1  0.50001364  0.49439022  0.50561277  1
  Sb  Sb39  1  0.50556895  0.75000995  0.50001369  1
  Ti  Ti40  1  0.51244386  0.24999795  0.00000031  1
  Ti  Ti41  1  0.49998123  0.01244153  0.48756194  1
  Ti  Ti42  1  0.48755277  0.24999815  0.50000816  1
  Ti  Ti43  1  1.00000684  0.48757882  0.51242393  1
