# generated using pymatgen
data_Ca2Ni7P4
_symmetry_space_group_name_H-M   'P 1'
_cell_length_a   3.68983083
_cell_length_b   9.19422597
_cell_length_c   10.35583412
_cell_angle_alpha   90.00000000
_cell_angle_beta   90.00000000
_cell_angle_gamma   90.00000000
_symmetry_Int_Tables_number   1
_chemical_formula_structural   Ca2Ni7P4
_chemical_formula_sum   'Ca4 Ni14 P8'
_cell_volume   351.32310620
_cell_formula_units_Z   2
loop_
 _symmetry_equiv_pos_site_id
 _symmetry_equiv_pos_as_xyz
  1  'x, y, z'
loop_
 _atom_site_type_symbol
 _atom_site_label
 _atom_site_symmetry_multiplicity
 _atom_site_fract_x
 _atom_site_fract_y
 _atom_site_fract_z
 _atom_site_occupancy
  Ca  Ca0  1  0.00000000  0.06060745  0.39459732  1
  Ca  Ca1  1  0.50000000  0.93939255  0.89459732  1
  Ca  Ca2  1  0.00000000  0.43765112  0.17861117  1
  Ca  Ca3  1  0.50000000  0.56234888  0.67861117  1
  Ni  Ni4  1  0.00000000  0.05939273  0.70037611  1
  Ni  Ni5  1  0.50000000  0.94060727  0.20037611  1
  Ni  Ni6  1  0.00000000  0.72857591  0.50841744  1
  Ni  Ni7  1  0.50000000  0.27142409  0.00841744  1
  Ni  Ni8  1  0.00000000  0.09535167  0.09568100  1
  Ni  Ni9  1  0.50000000  0.90464833  0.59568100  1
  Ni  Ni10  1  0.00000000  0.74815367  0.27328979  1
  Ni  Ni11  1  0.50000000  0.25184633  0.77328979  1
  Ni  Ni12  1  0.00000000  0.30472792  0.60041677  1
  Ni  Ni13  1  0.50000000  0.69527208  0.10041677  1
  Ni  Ni14  1  0.00000000  0.68394874  0.91358041  1
  Ni  Ni15  1  0.50000000  0.31605126  0.41358041  1
  Ni  Ni16  1  0.00000000  0.41527985  0.87321600  1
  Ni  Ni17  1  0.50000000  0.58472015  0.37321600  1
  P  P18  1  0.00000000  0.18069719  0.89163138  1
  P  P19  1  0.50000000  0.81930281  0.39163138  1
  P  P20  1  0.00000000  0.84350548  0.08326823  1
  P  P21  1  0.50000000  0.15649452  0.58326823  1
  P  P22  1  0.00000000  0.81240455  0.71191946  1
  P  P23  1  0.50000000  0.18759545  0.21191946  1
  P  P24  1  0.00000000  0.47864362  0.45909489  1
  P  P25  1  0.50000000  0.52135638  0.95909489  1
