# generated using pymatgen
data_Zn3GaB6PO12
_symmetry_space_group_name_H-M   'P 1'
_cell_length_a   6.65003827
_cell_length_b   6.67920479
_cell_length_c   6.67920500
_cell_angle_alpha   109.55951044
_cell_angle_beta   109.38278916
_cell_angle_gamma   109.38278970
_symmetry_Int_Tables_number   1
_chemical_formula_structural   Zn3GaB6PO12
_chemical_formula_sum   'Zn3 Ga1 B6 P1 O12'
_cell_volume   228.62545125
_cell_formula_units_Z   1
loop_
 _symmetry_equiv_pos_site_id
 _symmetry_equiv_pos_as_xyz
  1  'x, y, z'
loop_
 _atom_site_type_symbol
 _atom_site_label
 _atom_site_symmetry_multiplicity
 _atom_site_fract_x
 _atom_site_fract_y
 _atom_site_fract_z
 _atom_site_occupancy
  B  B0  1  0.24872022  0.74600382  0.49795329  1
  B  B1  1  0.24872022  0.49795329  0.74600382  1
  B  B2  1  0.50271640  0.25399618  0.75194948  1
  B  B3  1  0.50271640  0.75194948  0.25399618  1
  B  B4  1  0.75076692  0.50204671  0.24805052  1
  B  B5  1  0.75076692  0.24805052  0.50204671  1
  Ga  Ga6  1  0.65283498  0.00000000  0.00000000  1
  O  O7  1  0.00040029  0.71380949  0.43052043  1
  O  O8  1  0.43104618  1.00000000  0.72369067  1
  O  O9  1  0.29375714  0.57354459  0.57354459  1
  O  O10  1  0.28659080  0.71671093  0.28619051  1
  O  O11  1  0.28659080  0.28619051  0.71671093  1
  O  O12  1  0.43104618  0.72369067  1.00000000  1
  O  O13  1  0.72021255  0.00000000  0.42645541  1
  O  O14  1  0.56987987  0.28328907  0.56947957  1
  O  O15  1  0.56987987  0.56947957  0.28328907  1
  O  O16  1  0.70735551  0.27630933  0.27630933  1
  O  O17  1  0.72021255  0.42645541  0.00000000  1
  O  O18  1  0.00040029  0.43052043  0.71380949  1
  P  P19  1  0.99229033  0.00000000  0.00000000  1
  Zn  Zn20  1  0.99966941  0.66591265  0.00000000  1
  Zn  Zn21  1  0.33375677  0.33408735  0.33408735  1
  Zn  Zn22  1  0.99966941  0.00000000  0.66591265  1
