# generated using pymatgen
data_K3NiPCO7
_symmetry_space_group_name_H-M   'P 1'
_cell_length_a   9.62948833
_cell_length_b   6.89321099
_cell_length_c   5.60524572
_cell_angle_alpha   90.00000000
_cell_angle_beta   89.91393968
_cell_angle_gamma   90.00000000
_symmetry_Int_Tables_number   1
_chemical_formula_structural   K3NiPCO7
_chemical_formula_sum   'K6 Ni2 P2 C2 O14'
_cell_volume   372.06511175
_cell_formula_units_Z   2
loop_
 _symmetry_equiv_pos_site_id
 _symmetry_equiv_pos_as_xyz
  1  'x, y, z'
loop_
 _atom_site_type_symbol
 _atom_site_label
 _atom_site_symmetry_multiplicity
 _atom_site_fract_x
 _atom_site_fract_y
 _atom_site_fract_z
 _atom_site_occupancy
  K  K0  1  0.07195785  0.25000000  0.75957363  1
  K  K1  1  0.28656250  0.01417364  0.25564457  1
  K  K2  1  0.28656250  0.48582636  0.25564457  1
  K  K3  1  0.71343750  0.51417364  0.74435543  1
  K  K4  1  0.71343750  0.98582636  0.74435543  1
  K  K5  1  0.92804215  0.75000000  0.24042637  1
  Ni  Ni6  1  0.35380882  0.75000000  0.76356052  1
  Ni  Ni7  1  0.64619118  0.25000000  0.23643948  1
  P  P8  1  0.42445470  0.25000000  0.72984070  1
  P  P9  1  0.57554530  0.75000000  0.27015930  1
  C  C10  1  0.09035123  0.75000000  0.74131212  1
  C  C11  1  0.90964877  0.25000000  0.25868788  1
  O  O12  1  0.04347215  0.25000000  0.26155275  1
  O  O13  1  0.15950757  0.75000000  0.94163661  1
  O  O14  1  0.16377685  0.75000000  0.54503416  1
  O  O15  1  0.33001469  0.06769325  0.76148124  1
  O  O16  1  0.33001469  0.43230675  0.76148124  1
  O  O17  1  0.48592025  0.25000000  0.47215198  1
  O  O18  1  0.45652825  0.75000000  0.08498755  1
  O  O19  1  0.54347175  0.25000000  0.91501245  1
  O  O20  1  0.51407975  0.75000000  0.52784802  1
  O  O21  1  0.66998531  0.56769325  0.23851876  1
  O  O22  1  0.66998531  0.93230675  0.23851876  1
  O  O23  1  0.83622315  0.25000000  0.45496584  1
  O  O24  1  0.84049243  0.25000000  0.05836339  1
  O  O25  1  0.95652785  0.75000000  0.73844725  1
