# generated using pymatgen
data_K2SbSO4F3
_symmetry_space_group_name_H-M   'P 1'
_cell_length_a   5.72811953
_cell_length_b   9.29199131
_cell_length_c   14.35654933
_cell_angle_alpha   90.00000000
_cell_angle_beta   90.00000000
_cell_angle_gamma   90.00000000
_symmetry_Int_Tables_number   1
_chemical_formula_structural   K2SbSO4F3
_chemical_formula_sum   'K8 Sb4 S4 O16 F12'
_cell_volume   764.13648171
_cell_formula_units_Z   4
loop_
 _symmetry_equiv_pos_site_id
 _symmetry_equiv_pos_as_xyz
  1  'x, y, z'
loop_
 _atom_site_type_symbol
 _atom_site_label
 _atom_site_symmetry_multiplicity
 _atom_site_fract_x
 _atom_site_fract_y
 _atom_site_fract_z
 _atom_site_occupancy
  K  K0  1  0.98032212  0.81410738  0.11075409  1
  K  K1  1  0.01967788  0.31410738  0.38924591  1
  K  K2  1  0.49588012  0.49134846  0.19150552  1
  K  K3  1  0.50411988  0.99134846  0.30849448  1
  K  K4  1  0.00411988  0.50865154  0.69150552  1
  K  K5  1  0.48032212  0.68589262  0.88924591  1
  K  K6  1  0.99588012  0.00865154  0.80849448  1
  K  K7  1  0.51967788  0.18589262  0.61075409  1
  Sb  Sb8  1  0.46793076  0.05723212  0.02176907  1
  Sb  Sb9  1  0.96793076  0.44276788  0.97823093  1
  Sb  Sb10  1  0.03206924  0.94276788  0.52176907  1
  Sb  Sb11  1  0.53206924  0.55723212  0.47823093  1
  S  S12  1  0.97554275  0.70688849  0.33873290  1
  S  S13  1  0.52445725  0.29311151  0.83873290  1
  S  S14  1  0.47554275  0.79311151  0.66126710  1
  S  S15  1  0.02445725  0.20688849  0.16126710  1
  O  O16  1  0.34663992  0.36713271  0.78253696  1
  O  O17  1  0.57247464  0.64789607  0.63092644  1
  O  O18  1  0.07392695  0.12067822  0.07377874  1
  O  O19  1  0.92607305  0.62067822  0.42622126  1
  O  O20  1  0.92752536  0.35210393  0.13092644  1
  O  O21  1  0.74331729  0.27042619  0.78579605  1
  O  O22  1  0.65336008  0.86713271  0.71746304  1
  O  O23  1  0.57392695  0.37932178  0.92622126  1
  O  O24  1  0.15336008  0.63286729  0.28253696  1
  O  O25  1  0.42607305  0.87932178  0.57377874  1
  O  O26  1  0.75668271  0.72957381  0.28579605  1
  O  O27  1  0.25668271  0.77042619  0.71420395  1
  O  O28  1  0.42752536  0.14789607  0.86907356  1
  O  O29  1  0.84663992  0.13286729  0.21746304  1
  O  O30  1  0.24331729  0.22957381  0.21420395  1
  O  O31  1  0.07247464  0.85210393  0.36907356  1
  F  F32  1  0.54233658  0.40682361  0.37431592  1
  F  F33  1  0.74805310  0.42023704  0.54026841  1
  F  F34  1  0.71392422  0.92719945  0.96413819  1
  F  F35  1  0.04233658  0.09317639  0.62568408  1
  F  F36  1  0.25194690  0.92023704  0.95973159  1
  F  F37  1  0.78607578  0.07280055  0.46413819  1
  F  F38  1  0.95766342  0.59317639  0.87431592  1
  F  F39  1  0.28607578  0.42719945  0.53586181  1
  F  F40  1  0.24805310  0.07976296  0.45973159  1
  F  F41  1  0.75194690  0.57976296  0.04026841  1
  F  F42  1  0.45766342  0.90682361  0.12568408  1
  F  F43  1  0.21392422  0.57280055  0.03586181  1
