# generated using pymatgen
data_Cd2GeO4
_symmetry_space_group_name_H-M   'P 1'
_cell_length_a   5.28807040
_cell_length_b   6.69390877
_cell_length_c   11.40692288
_cell_angle_alpha   90.00000000
_cell_angle_beta   90.00000000
_cell_angle_gamma   90.00000000
_symmetry_Int_Tables_number   1
_chemical_formula_structural   Cd2GeO4
_chemical_formula_sum   'Cd8 Ge4 O16'
_cell_volume   403.78066857
_cell_formula_units_Z   4
loop_
 _symmetry_equiv_pos_site_id
 _symmetry_equiv_pos_as_xyz
  1  'x, y, z'
loop_
 _atom_site_type_symbol
 _atom_site_label
 _atom_site_symmetry_multiplicity
 _atom_site_fract_x
 _atom_site_fract_y
 _atom_site_fract_z
 _atom_site_occupancy
  O  O0  1  0.22007383  0.46062574  0.66448378  1
  O  O1  1  0.72007383  0.53937426  0.83551622  1
  O  O2  1  0.77992617  0.96062574  0.33551622  1
  O  O3  1  0.27992617  0.03937426  0.16448378  1
  O  O4  1  0.77992617  0.53937426  0.33551622  1
  O  O5  1  0.27992617  0.46062574  0.16448378  1
  O  O6  1  0.22007383  0.03937426  0.66448378  1
  O  O7  1  0.72007383  0.96062574  0.83551622  1
  O  O8  1  0.78971537  0.75000000  0.54670850  1
  O  O9  1  0.28971537  0.25000000  0.95329150  1
  O  O10  1  0.21028463  0.25000000  0.45329150  1
  O  O11  1  0.71028463  0.75000000  0.04670850  1
  O  O12  1  0.23341819  0.75000000  0.90292829  1
  O  O13  1  0.73341819  0.25000000  0.59707171  1
  O  O14  1  0.76658181  0.25000000  0.09707171  1
  O  O15  1  0.26658181  0.75000000  0.40292829  1
  Ge  Ge16  1  0.93306740  0.75000000  0.40202848  1
  Ge  Ge17  1  0.43306740  0.25000000  0.09797152  1
  Ge  Ge18  1  0.06693260  0.25000000  0.59797152  1
  Ge  Ge19  1  0.56693260  0.75000000  0.90202848  1
  Cd  Cd20  1  0.48979517  0.75000000  0.21962021  1
  Cd  Cd21  1  0.98979517  0.25000000  0.28037979  1
  Cd  Cd22  1  0.51020483  0.25000000  0.78037979  1
  Cd  Cd23  1  0.01020483  0.75000000  0.71962021  1
  Cd  Cd24  1  0.50000000  0.50000000  0.50000000  1
  Cd  Cd25  1  0.00000000  0.50000000  0.00000000  1
  Cd  Cd26  1  0.50000000  0.00000000  0.50000000  1
  Cd  Cd27  1  0.00000000  0.00000000  0.00000000  1
