# generated using pymatgen
data_Li4Mn3O5F3
_symmetry_space_group_name_H-M   'P 1'
_cell_length_a   2.92866852
_cell_length_b   8.00999694
_cell_length_c   6.73074392
_cell_angle_alpha   87.74283597
_cell_angle_beta   77.43429536
_cell_angle_gamma   79.46632827
_symmetry_Int_Tables_number   1
_chemical_formula_structural   Li4Mn3O5F3
_chemical_formula_sum   'Li4 Mn3 O5 F3'
_cell_volume   151.51483085
_cell_formula_units_Z   1
loop_
 _symmetry_equiv_pos_site_id
 _symmetry_equiv_pos_as_xyz
  1  'x, y, z'
loop_
 _atom_site_type_symbol
 _atom_site_label
 _atom_site_symmetry_multiplicity
 _atom_site_fract_x
 _atom_site_fract_y
 _atom_site_fract_z
 _atom_site_occupancy
  Li  Li0  1  0.74042679  0.75597476  0.76317266  1
  Li  Li1  1  0.50848400  0.51999794  0.46303507  1
  Li  Li2  1  0.24755155  0.23945377  0.26544413  1
  Li  Li3  1  0.00273967  0.00187144  0.99265021  1
  Mn  Mn4  1  0.85904071  0.38725056  0.89466702  1
  Mn  Mn5  1  0.38783537  0.85715479  0.36717447  1
  Mn  Mn6  1  0.62190739  0.12243887  0.63374636  1
  O  O7  1  0.92857920  0.70460096  0.43824065  1
  O  O8  1  0.81091963  0.03472772  0.34343301  1
  O  O9  1  0.44683817  0.19414743  0.91217722  1
  O  O10  1  0.17425078  0.96488660  0.68661084  1
  O  O11  1  0.07410129  0.27955022  0.57224719  1
  F  F12  1  0.69533069  0.39673292  0.21260670  1
  F  F13  1  0.55822576  0.84309581  0.04045268  1
  F  F14  1  0.31876999  0.57311721  0.78934281  1
