# generated using pymatgen
data_Li7Mn3(SiO6)2
_symmetry_space_group_name_H-M   'P 1'
_cell_length_a   5.08317547
_cell_length_b   4.93175369
_cell_length_c   9.78403993
_cell_angle_alpha   93.41512733
_cell_angle_beta   96.63770900
_cell_angle_gamma   58.97903368
_symmetry_Int_Tables_number   1
_chemical_formula_structural   Li7Mn3(SiO6)2
_chemical_formula_sum   'Li7 Mn3 Si2 O12'
_cell_volume   208.78718768
_cell_formula_units_Z   1
loop_
 _symmetry_equiv_pos_site_id
 _symmetry_equiv_pos_as_xyz
  1  'x, y, z'
loop_
 _atom_site_type_symbol
 _atom_site_label
 _atom_site_symmetry_multiplicity
 _atom_site_fract_x
 _atom_site_fract_y
 _atom_site_fract_z
 _atom_site_occupancy
  Li  Li0  1  0.66566401  0.66666700  0.98964806  1
  Li  Li1  1  0.91666700  0.66666700  0.75000000  1
  Li  Li2  1  0.83293558  0.34070994  0.50441490  1
  Li  Li3  1  0.32635448  0.34070994  0.99558510  1
  Li  Li4  1  0.16766899  0.66666700  0.51035194  1
  Li  Li5  1  0.50697852  0.99262306  0.50441490  1
  Li  Li6  1  0.00039842  0.99262306  0.99558510  1
  Mn  Mn7  1  0.41666700  0.66666700  0.25000000  1
  Mn  Mn8  1  0.75004101  -0.00008101  0.25000000  1
  Mn  Mn9  1  0.08329299  0.33341401  0.25000000  1
  Si  Si10  1  0.58480062  0.33039976  0.75000000  1
  Si  Si11  1  0.24853338  0.00293424  0.75000000  1
  O  O12  1  0.81954469  0.66666700  0.37341542  1
  O  O13  1  0.94056873  0.29503752  0.85141589  1
  O  O14  1  0.68265651  0.33293872  0.12910283  1
  O  O15  1  0.51106962  0.66666700  0.64590411  1
  O  O16  1  0.89276427  0.03829548  0.64858411  1
  O  O17  1  0.48440577  0.33293872  0.37089717  1
  O  O18  1  0.32226338  0.66666700  0.85409589  1
  O  O19  1  0.01378931  0.66666700  0.12658458  1
  O  O20  1  0.34892823  0.00039528  0.12910283  1
  O  O21  1  0.56894025  0.03829548  0.85141589  1
  O  O22  1  0.26439375  0.29503752  0.64858411  1
  O  O23  1  0.15067749  0.00039528  0.37089717  1
