# generated using pymatgen
data_Na4Al3Si3HO13
_symmetry_space_group_name_H-M   'P 1'
_cell_length_a   8.83298668
_cell_length_b   8.83298668
_cell_length_c   8.83298668
_cell_angle_alpha   90.34558441
_cell_angle_beta   89.65441559
_cell_angle_gamma   89.65441559
_symmetry_Int_Tables_number   1
_chemical_formula_structural   Na4Al3Si3HO13
_chemical_formula_sum   'Na8 Al6 Si6 H2 O26'
_cell_volume   689.12646830
_cell_formula_units_Z   2
loop_
 _symmetry_equiv_pos_site_id
 _symmetry_equiv_pos_as_xyz
  1  'x, y, z'
loop_
 _atom_site_type_symbol
 _atom_site_label
 _atom_site_symmetry_multiplicity
 _atom_site_fract_x
 _atom_site_fract_y
 _atom_site_fract_z
 _atom_site_occupancy
  Al  Al0  1  1.00003530  0.25013153  0.49880753  1
  Al  Al1  1  0.24986847  0.49996470  0.99880753  1
  Al  Al2  1  0.50003530  0.99880753  0.75013153  1
  Al  Al3  1  0.50119247  -0.00003530  0.25013153  1
  Al  Al4  1  0.74986847  0.49880753  -0.00003530  1
  Al  Al5  1  0.00119247  0.75013153  0.49996470  1
  H  H6  1  0.42662724  0.57337276  0.57337276  1
  H  H7  1  0.92662724  0.07337276  0.07337276  1
  Na  Na8  1  0.16806360  0.15803637  0.15818190  1
  Na  Na9  1  0.15086822  0.84913178  0.84913178  1
  Na  Na10  1  0.34196363  0.33193640  0.65818190  1
  Na  Na11  1  0.34181810  0.65803637  0.33193640  1
  Na  Na12  1  0.65086822  0.34913178  0.34913178  1
  Na  Na13  1  0.66806360  0.65818190  0.65803637  1
  Na  Na14  1  0.84196363  0.15818190  0.83193640  1
  Na  Na15  1  0.84181810  0.83193640  0.15803637  1
  O  O16  1  0.99072701  0.00927299  0.00927299  1
  O  O17  1  0.07383097  0.36325006  0.64564925  1
  O  O18  1  0.07275287  0.63524061  0.35221022  1
  O  O19  1  0.13674994  0.42616903  0.14564925  1
  O  O20  1  0.13692878  0.57375594  0.85262862  1
  O  O21  1  0.14778978  0.13524061  0.42724713  1
  O  O22  1  0.14737138  0.86307122  0.57375594  1
  O  O23  1  0.35263445  0.07064304  0.63718803  1
  O  O24  1  0.35435075  0.92616903  0.36325006  1
  O  O25  1  0.36475939  0.35221022  0.92724713  1
  O  O26  1  0.36281197  0.64736555  0.07064304  1
  O  O27  1  0.42935696  0.14736555  0.13718803  1
  O  O28  1  0.42624406  0.85262862  0.86307122  1
  O  O29  1  0.49072701  0.50927299  0.50927299  1
  O  O30  1  0.57383097  0.14564925  0.86325006  1
  O  O31  1  0.57275287  0.85221022  0.13524061  1
  O  O32  1  0.63692878  0.35262862  0.07375594  1
  O  O33  1  0.63674994  0.64564925  0.92616903  1
  O  O34  1  0.64737138  0.07375594  0.36307122  1
  O  O35  1  0.64778978  0.92724713  0.63524061  1
  O  O36  1  0.85263445  0.13718803  0.57064304  1
  O  O37  1  0.85435075  0.86325006  0.42616903  1
  O  O38  1  0.86281197  0.57064304  0.14736555  1
  O  O39  1  0.86475939  0.42724713  0.85221022  1
  O  O40  1  0.92624406  0.36307122  0.35262862  1
  O  O41  1  0.92935696  0.63718803  0.64736555  1
  Si  Si42  1  0.99969091  0.49867119  0.24976505  1
  Si  Si43  1  0.00132881  0.50030909  0.74976505  1
  Si  Si44  1  0.25023495  0.99867119  0.50030909  1
  Si  Si45  1  0.49969091  0.74976505  0.99867119  1
  Si  Si46  1  0.50132881  0.24976505  0.00030909  1
  Si  Si47  1  0.75023495  0.00030909  0.49867119  1
