# generated using pymatgen
data_AgSbS2
_symmetry_space_group_name_H-M   'P 1'
_cell_length_a   4.66159025
_cell_length_b   6.88907046
_cell_length_c   13.27129974
_cell_angle_alpha   98.38270109
_cell_angle_beta   90.00000000
_cell_angle_gamma   109.77530197
_symmetry_Int_Tables_number   1
_chemical_formula_structural   AgSbS2
_chemical_formula_sum   'Ag4 Sb4 S8'
_cell_volume   396.21868713
_cell_formula_units_Z   4
loop_
 _symmetry_equiv_pos_site_id
 _symmetry_equiv_pos_as_xyz
  1  'x, y, z'
loop_
 _atom_site_type_symbol
 _atom_site_label
 _atom_site_symmetry_multiplicity
 _atom_site_fract_x
 _atom_site_fract_y
 _atom_site_fract_z
 _atom_site_occupancy
  S  S0  1  0.30282713  0.21900759  0.91489187  1
  S  S1  1  0.08381954  0.78099241  0.58510813  1
  S  S2  1  0.69717287  0.78099241  0.08510813  1
  S  S3  1  0.91618046  0.21900759  0.41489187  1
  S  S4  1  0.49195077  0.28918799  0.19794635  1
  S  S5  1  0.79723722  0.28918799  0.69794635  1
  S  S6  1  0.50804923  0.71081201  0.80205365  1
  S  S7  1  0.20276278  0.71081201  0.30205365  1
  Ag  Ag8  1  0.50000000  0.00000000  0.00000000  1
  Ag  Ag9  1  0.99788686  0.00000000  0.75000000  1
  Ag  Ag10  1  0.50000000  0.00000000  0.50000000  1
  Ag  Ag11  1  0.00211314  0.00000000  0.25000000  1
  Sb  Sb12  1  0.28099706  0.50781540  0.62614607  1
  Sb  Sb13  1  0.77318166  0.49218460  0.87385393  1
  Sb  Sb14  1  0.71900294  0.49218460  0.37385393  1
  Sb  Sb15  1  0.22681834  0.50781540  0.12614607  1
