# generated using pymatgen
data_CsNa3PbO4
_symmetry_space_group_name_H-M   'P 1'
_cell_length_a   6.86515245
_cell_length_b   8.85020922
_cell_length_c   11.80225338
_cell_angle_alpha   82.59846483
_cell_angle_beta   76.29642223
_cell_angle_gamma   79.42313625
_symmetry_Int_Tables_number   1
_chemical_formula_structural   CsNa3PbO4
_chemical_formula_sum   'Cs4 Na12 Pb4 O16'
_cell_volume   682.09322878
_cell_formula_units_Z   4
loop_
 _symmetry_equiv_pos_site_id
 _symmetry_equiv_pos_as_xyz
  1  'x, y, z'
loop_
 _atom_site_type_symbol
 _atom_site_label
 _atom_site_symmetry_multiplicity
 _atom_site_fract_x
 _atom_site_fract_y
 _atom_site_fract_z
 _atom_site_occupancy
  Pb  Pb0  1  0.82580809  0.29202210  0.35210167  1
  Pb  Pb1  1  0.17419191  0.70797790  0.64789833  1
  Pb  Pb2  1  0.43869529  0.79552048  0.13193499  1
  Pb  Pb3  1  0.56130471  0.20447952  0.86806501  1
  Cs  Cs4  1  0.99281111  0.61748052  0.12004286  1
  Cs  Cs5  1  0.00718889  0.38251948  0.87995714  1
  Cs  Cs6  1  0.95765602  0.85811625  0.37436083  1
  Cs  Cs7  1  0.04234398  0.14188375  0.62563917  1
  Na  Na8  1  0.42925511  0.04287369  0.37608219  1
  Na  Na9  1  0.57074489  0.95712631  0.62391781  1
  Na  Na10  1  0.81498374  0.05218527  0.10583583  1
  Na  Na11  1  0.18501626  0.94781473  0.89416417  1
  Na  Na12  1  0.54021335  0.43009231  0.12586937  1
  Na  Na13  1  0.45978665  0.56990769  0.87413063  1
  Na  Na14  1  0.18727313  0.44339628  0.39727154  1
  Na  Na15  1  0.81272687  0.55660372  0.60272846  1
  Na  Na16  1  0.19534788  0.17778110  0.14624113  1
  Na  Na17  1  0.80465212  0.82221890  0.85375887  1
  Na  Na18  1  0.51939886  0.67354039  0.38627634  1
  Na  Na19  1  0.48060114  0.32645961  0.61372366  1
  O  O20  1  0.13517469  0.20042573  0.35162556  1
  O  O21  1  0.86482531  0.79957427  0.64837444  1
  O  O22  1  0.38147865  0.33254872  0.00493958  1
  O  O23  1  0.61852135  0.66745128  0.99506042  1
  O  O24  1  0.33794422  0.61214555  0.25545664  1
  O  O25  1  0.66205578  0.38785445  0.74454336  1
  O  O26  1  0.81128330  0.50950168  0.41170354  1
  O  O27  1  0.18871670  0.49049832  0.58829646  1
  O  O28  1  0.17631973  0.93675665  0.09406991  1
  O  O29  1  0.82368027  0.06324335  0.90593009  1
  O  O30  1  0.83107241  0.28770501  0.17333253  1
  O  O31  1  0.16892759  0.71229499  0.82666747  1
  O  O32  1  0.60679735  0.88808542  0.22607482  1
  O  O33  1  0.39320265  0.11191458  0.77392518  1
  O  O34  1  0.62574464  0.15921852  0.46691121  1
  O  O35  1  0.37425536  0.84078148  0.53308879  1
