# generated using pymatgen
data_PrGePt
_symmetry_space_group_name_H-M   'P 1'
_cell_length_a   4.49812719
_cell_length_b   7.72444494
_cell_length_c   14.78016153
_cell_angle_alpha   90.00000000
_cell_angle_beta   90.00000000
_cell_angle_gamma   90.00000000
_symmetry_Int_Tables_number   1
_chemical_formula_structural   PrGePt
_chemical_formula_sum   'Pr8 Ge8 Pt8'
_cell_volume   513.54463175
_cell_formula_units_Z   8
loop_
 _symmetry_equiv_pos_site_id
 _symmetry_equiv_pos_as_xyz
  1  'x, y, z'
loop_
 _atom_site_type_symbol
 _atom_site_label
 _atom_site_symmetry_multiplicity
 _atom_site_fract_x
 _atom_site_fract_y
 _atom_site_fract_z
 _atom_site_occupancy
  Pr  Pr0  1  0.75000000  0.20859313  0.99735070  1
  Pr  Pr1  1  0.25000000  0.79140687  0.00264930  1
  Pr  Pr2  1  0.75000000  0.20859313  0.50264930  1
  Pr  Pr3  1  0.25000000  0.79140687  0.49735070  1
  Pr  Pr4  1  0.75000000  0.29182293  0.25000000  1
  Pr  Pr5  1  0.25000000  0.70817707  0.75000000  1
  Pr  Pr6  1  0.75000000  0.29563522  0.75000000  1
  Pr  Pr7  1  0.25000000  0.70436478  0.25000000  1
  Pt  Pt8  1  0.75000000  0.92006060  0.85866467  1
  Pt  Pt9  1  0.25000000  0.07993940  0.14133533  1
  Pt  Pt10  1  0.75000000  0.92006060  0.64133533  1
  Pt  Pt11  1  0.25000000  0.07993940  0.35866467  1
  Pt  Pt12  1  0.75000000  0.58257037  0.40161393  1
  Pt  Pt13  1  0.25000000  0.41742963  0.59838607  1
  Pt  Pt14  1  0.75000000  0.58257037  0.09838607  1
  Pt  Pt15  1  0.25000000  0.41742963  0.90161393  1
  Ge  Ge16  1  0.75000000  0.58895008  0.89979057  1
  Ge  Ge17  1  0.25000000  0.41104992  0.10020943  1
  Ge  Ge18  1  0.75000000  0.58895008  0.60020943  1
  Ge  Ge19  1  0.25000000  0.41104992  0.39979057  1
  Ge  Ge20  1  0.75000000  0.91218039  0.34438202  1
  Ge  Ge21  1  0.25000000  0.08781961  0.65561798  1
  Ge  Ge22  1  0.75000000  0.91218039  0.15561798  1
  Ge  Ge23  1  0.25000000  0.08781961  0.84438202  1
