# generated using pymatgen
data_FePO4
_symmetry_space_group_name_H-M   'P 1'
_cell_length_a   7.50165988
_cell_length_b   7.50168887
_cell_length_c   9.38168342
_cell_angle_alpha   90.00127192
_cell_angle_beta   90.00004284
_cell_angle_gamma   59.99741724
_symmetry_Int_Tables_number   1
_chemical_formula_structural   FePO4
_chemical_formula_sum   'Fe6 P6 O24'
_cell_volume   457.21084140
_cell_formula_units_Z   6
loop_
 _symmetry_equiv_pos_site_id
 _symmetry_equiv_pos_as_xyz
  1  'x, y, z'
loop_
 _atom_site_type_symbol
 _atom_site_label
 _atom_site_symmetry_multiplicity
 _atom_site_fract_x
 _atom_site_fract_y
 _atom_site_fract_z
 _atom_site_occupancy
  Fe  Fe0  1  0.06028356  0.55482752  0.47266697  1
  Fe  Fe1  1  0.44518413  0.93973854  0.97265752  1
  Fe  Fe2  1  0.55483665  0.38490413  0.47264228  1
  Fe  Fe3  1  0.61505536  0.44519189  0.97265311  1
  Fe  Fe4  1  0.38488009  0.06026773  0.47265749  1
  Fe  Fe5  1  0.93973656  0.61507140  0.97268879  1
  O  O6  1  0.10489368  0.77512810  0.45663345  1
  O  O7  1  0.22487259  0.89510822  0.95664132  1
  O  O8  1  0.13311382  0.52191163  0.12587578  1
  O  O9  1  0.47809543  0.86689959  0.62584938  1
  O  O10  1  0.58326177  0.88839267  0.33357702  1
  O  O11  1  0.11159332  0.41673165  0.83358908  1
  O  O12  1  0.52836310  0.58324220  0.33356401  1
  O  O13  1  0.41671883  0.47165632  0.83355520  1
  O  O14  1  0.33329243  0.33334233  0.60933861  1
  O  O15  1  0.00003936  0.00000324  0.68063215  1
  O  O16  1  0.66670647  0.66664277  0.10934008  1
  O  O17  1  0.33336337  0.33332027  0.34751978  1
  O  O18  1  0.66663951  0.66667602  0.84751753  1
  O  O19  1  0.11997461  0.10485969  0.45660184  1
  O  O20  1  0.89511486  0.88001187  0.95663254  1
  O  O21  1  0.52190035  0.34499628  0.12585175  1
  O  O22  1  0.65499621  0.47811722  0.62584718  1
  O  O23  1  0.34499966  0.13311763  0.12585054  1
  O  O24  1  0.86689147  0.65501084  0.62586708  1
  O  O25  1  0.88842394  0.52832162  0.33359611  1
  O  O26  1  0.47164786  0.11160628  0.83356098  1
  O  O27  1  0.77514224  0.11997549  0.45663926  1
  O  O28  1  0.87999742  0.22486617  0.95660831  1
  O  O29  1  0.99997368  0.00003301  0.18064604  1
  P  P30  1  0.33334506  0.33333348  0.17439298  1
  P  P31  1  0.66665894  0.66667486  0.67438419  1
  P  P32  1  0.33331098  0.33333453  0.78270312  1
  P  P33  1  0.66669247  0.66665237  0.28271625  1
  P  P34  1  0.00001457  0.99998706  0.52303561  1
  P  P35  1  0.99998267  0.00000839  0.02297571  1
