# generated using pymatgen
data_Li2Fe2P2O9
_symmetry_space_group_name_H-M   'P 1'
_cell_length_a   8.28923833
_cell_length_b   5.69516657
_cell_length_c   14.71886160
_cell_angle_alpha   89.99750074
_cell_angle_beta   89.99461650
_cell_angle_gamma   90.00182342
_symmetry_Int_Tables_number   1
_chemical_formula_structural   Li2Fe2P2O9
_chemical_formula_sum   'Li8 Fe8 P8 O36'
_cell_volume   694.85674328
_cell_formula_units_Z   4
loop_
 _symmetry_equiv_pos_site_id
 _symmetry_equiv_pos_as_xyz
  1  'x, y, z'
loop_
 _atom_site_type_symbol
 _atom_site_label
 _atom_site_symmetry_multiplicity
 _atom_site_fract_x
 _atom_site_fract_y
 _atom_site_fract_z
 _atom_site_occupancy
  Li  Li0  1  0.01820272  0.25000189  0.73213741  1
  Li  Li1  1  0.06791807  0.24999996  0.11991426  1
  Li  Li2  1  0.43209324  0.74999720  0.61991025  1
  Li  Li3  1  0.48177383  0.75000293  0.23216138  1
  Li  Li4  1  0.51820966  0.24999850  0.76784559  1
  Li  Li5  1  0.56789893  0.25000463  0.38008275  1
  Li  Li6  1  0.93209592  0.75000112  0.88007680  1
  Li  Li7  1  0.98180242  0.75000088  0.26787958  1
  Fe  Fe8  1  0.00000101  0.99999405  0.49999656  1
  Fe  Fe9  1  0.00000044  0.50000553  0.49999568  1
  Fe  Fe10  1  0.20383787  0.24999045  0.92434602  1
  Fe  Fe11  1  0.29616899  0.74999778  0.42435252  1
  Fe  Fe12  1  0.50000059  0.99999903  0.00000627  1
  Fe  Fe13  1  0.50000464  0.49999813  0.00000793  1
  Fe  Fe14  1  0.70383636  0.25000361  0.57564712  1
  Fe  Fe15  1  0.79618736  0.74999079  0.07566372  1
  P  P16  1  0.17153603  0.75000172  0.07349140  1
  P  P17  1  0.20595699  0.25000430  0.33122580  1
  P  P18  1  0.29407135  0.75001439  0.83121908  1
  P  P19  1  0.32845836  0.24999687  0.57346269  1
  P  P20  1  0.67153150  0.75000496  0.42652774  1
  P  P21  1  0.70593531  0.24997853  0.16877517  1
  P  P22  1  0.79403059  0.74999650  0.66876453  1
  P  P23  1  0.82845720  0.24999726  0.92652190  1
  O  O24  1  0.99182288  0.24999756  0.97954913  1
  O  O25  1  0.06848600  0.24998885  0.40819747  1
  O  O26  1  0.06046868  0.74997639  0.41528385  1
  O  O27  1  0.12226782  0.24999864  0.24160964  1
  O  O28  1  0.14972987  0.74999817  0.17554186  1
  O  O29  1  0.18234721  0.52981051  0.84684802  1
  O  O30  1  0.18233748  0.97019346  0.84684268  1
  O  O31  1  0.23736602  0.01806179  0.54255934  1
  O  O32  1  0.23737611  0.48193441  0.54255494  1
  O  O33  1  0.26262782  0.51806747  0.04258474  1
  O  O34  1  0.26263579  0.98192196  0.04257777  1
  O  O35  1  0.31764931  0.02981416  0.34685209  1
  O  O36  1  0.31766175  0.47019308  0.34685000  1
  O  O37  1  0.35025074  0.24999579  0.67552166  1
  O  O38  1  0.37773945  0.75000636  0.74160921  1
  O  O39  1  0.43958294  0.24993186  0.91533738  1
  O  O40  1  0.43151375  0.75002040  0.90818965  1
  O  O41  1  0.50815622  0.75000202  0.47954121  1
  O  O42  1  0.49183652  0.25000046  0.52044209  1
  O  O43  1  0.56848127  0.24998089  0.09181527  1
  O  O44  1  0.56045378  0.75007173  0.08466031  1
  O  O45  1  0.62224612  0.24999474  0.25839534  1
  O  O46  1  0.64971740  0.75000614  0.32446160  1
  O  O47  1  0.68233212  0.52981659  0.65315006  1
  O  O48  1  0.68234426  0.97017851  0.65314895  1
  O  O49  1  0.73736193  0.01807737  0.95743644  1
  O  O50  1  0.73737181  0.48193713  0.95743066  1
  O  O51  1  0.76262707  0.51808172  0.45742584  1
  O  O52  1  0.76263792  0.98192631  0.45742199  1
  O  O53  1  0.81764988  0.02980394  0.15315386  1
  O  O54  1  0.81764179  0.47018052  0.15315222  1
  O  O55  1  0.85025850  0.25000488  0.82447127  1
  O  O56  1  0.87774702  0.75000199  0.75839998  1
  O  O57  1  0.93956545  0.25002737  0.58470639  1
  O  O58  1  0.93151819  0.75001297  0.59180608  1
  O  O59  1  0.00817973  0.75000283  0.02045889  1
