# generated using pymatgen
data_Li3B5(HO5)2
_symmetry_space_group_name_H-M   'P 1'
_cell_length_a   6.92498351
_cell_length_b   6.92498351
_cell_length_c   14.68827544
_cell_angle_alpha   90.00000000
_cell_angle_beta   90.00000000
_cell_angle_gamma   90.00000000
_symmetry_Int_Tables_number   1
_chemical_formula_structural   Li3B5(HO5)2
_chemical_formula_sum   'Li12 B20 H8 O40'
_cell_volume   704.38207430
_cell_formula_units_Z   4
loop_
 _symmetry_equiv_pos_site_id
 _symmetry_equiv_pos_as_xyz
  1  'x, y, z'
loop_
 _atom_site_type_symbol
 _atom_site_label
 _atom_site_symmetry_multiplicity
 _atom_site_fract_x
 _atom_site_fract_y
 _atom_site_fract_z
 _atom_site_occupancy
  Li  Li0  1  0.63210998  0.34935100  0.34360332  1
  Li  Li1  1  0.36789002  0.65064900  0.84360332  1
  Li  Li2  1  0.84935100  0.86789002  0.09360332  1
  Li  Li3  1  0.15064900  0.13210998  0.59360332  1
  Li  Li4  1  0.65064900  0.36789002  0.15639668  1
  Li  Li5  1  0.34935100  0.63210998  0.65639668  1
  Li  Li6  1  0.86789002  0.84935100  0.90639668  1
  Li  Li7  1  0.13210998  0.15064900  0.40639668  1
  Li  Li8  1  0.80484882  0.19515118  0.75000000  1
  Li  Li9  1  0.19515118  0.80484882  0.25000000  1
  Li  Li10  1  0.69515118  0.69515118  0.50000000  1
  Li  Li11  1  0.30484882  0.30484882  0.00000000  1
  B  B12  1  0.74542239  0.23822314  0.52215598  1
  B  B13  1  0.25457761  0.76177686  0.02215598  1
  B  B14  1  0.73822314  0.75457761  0.27215598  1
  B  B15  1  0.26177686  0.24542239  0.77215598  1
  B  B16  1  0.76177686  0.25457761  0.97784402  1
  B  B17  1  0.23822314  0.74542239  0.47784402  1
  B  B18  1  0.75457761  0.73822314  0.72784402  1
  B  B19  1  0.24542239  0.26177686  0.22784402  1
  B  B20  1  0.50571893  0.24473174  0.64264295  1
  B  B21  1  0.49428107  0.75526826  0.14264295  1
  B  B22  1  0.74473174  0.99428107  0.39264295  1
  B  B23  1  0.25526826  0.00571893  0.89264295  1
  B  B24  1  0.75526826  0.49428107  0.85735705  1
  B  B25  1  0.24473174  0.50571893  0.35735705  1
  B  B26  1  0.99428107  0.74473174  0.60735705  1
  B  B27  1  0.00571893  0.25526826  0.10735705  1
  B  B28  1  0.06286743  0.93713257  0.75000000  1
  B  B29  1  0.93713257  0.06286743  0.25000000  1
  B  B30  1  0.43713257  0.43713257  0.50000000  1
  B  B31  1  0.56286743  0.56286743  0.00000000  1
  H  H32  1  0.90047507  0.50903079  0.26724565  1
  H  H33  1  0.09952493  0.49096921  0.76724565  1
  H  H34  1  0.00903079  0.59952493  0.01724565  1
  H  H35  1  0.99096921  0.40047507  0.51724565  1
  H  H36  1  0.49096921  0.09952493  0.23275435  1
  H  H37  1  0.50903079  0.90047507  0.73275435  1
  H  H38  1  0.59952493  0.00903079  0.98275435  1
  H  H39  1  0.40047507  0.99096921  0.48275435  1
  O  O40  1  0.64298548  0.40324434  0.48062327  1
  O  O41  1  0.35701452  0.59675566  0.98062327  1
  O  O42  1  0.90324434  0.85701452  0.23062327  1
  O  O43  1  0.09675566  0.14298548  0.73062327  1
  O  O44  1  0.59675566  0.35701452  0.01937673  1
  O  O45  1  0.40324434  0.64298548  0.51937673  1
  O  O46  1  0.85701452  0.90324434  0.76937673  1
  O  O47  1  0.14298548  0.09675566  0.26937673  1
  O  O48  1  0.68759563  0.05067407  0.47803338  1
  O  O49  1  0.31240437  0.94932593  0.97803338  1
  O  O50  1  0.55067407  0.81240437  0.22803338  1
  O  O51  1  0.44932593  0.18759563  0.72803338  1
  O  O52  1  0.94932593  0.31240437  0.02196662  1
  O  O53  1  0.05067407  0.68759563  0.52196662  1
  O  O54  1  0.81240437  0.55067407  0.77196662  1
  O  O55  1  0.18759563  0.44932593  0.27196662  1
  O  O56  1  0.95703802  0.26263218  0.51232745  1
  O  O57  1  0.04296198  0.73736782  0.01232745  1
  O  O58  1  0.76263218  0.54296198  0.26232745  1
  O  O59  1  0.23736782  0.45703802  0.76232745  1
  O  O60  1  0.73736782  0.04296198  0.98767255  1
  O  O61  1  0.26263218  0.95703802  0.48767255  1
  O  O62  1  0.54296198  0.76263218  0.73767255  1
  O  O63  1  0.45703802  0.23736782  0.23767255  1
  O  O64  1  0.82450721  0.12655378  0.33211738  1
  O  O65  1  0.17549279  0.87344622  0.83211738  1
  O  O66  1  0.62655378  0.67549279  0.08211738  1
  O  O67  1  0.37344622  0.32450721  0.58211738  1
  O  O68  1  0.87344622  0.17549279  0.16788262  1
  O  O69  1  0.12655378  0.82450721  0.66788262  1
  O  O70  1  0.67549279  0.62655378  0.91788262  1
  O  O71  1  0.32450721  0.37344622  0.41788262  1
  O  O72  1  0.69509980  0.21918740  0.61991235  1
  O  O73  1  0.30490020  0.78081260  0.11991235  1
  O  O74  1  0.71918740  0.80490020  0.36991235  1
  O  O75  1  0.28081260  0.19509980  0.86991235  1
  O  O76  1  0.78081260  0.30490020  0.88008765  1
  O  O77  1  0.21918740  0.69509980  0.38008765  1
  O  O78  1  0.80490020  0.71918740  0.63008765  1
  O  O79  1  0.19509980  0.28081260  0.13008765  1
