# generated using pymatgen
data_Ca4TiN4
_symmetry_space_group_name_H-M   'P 1'
_cell_length_a   6.00383859
_cell_length_b   6.03935765
_cell_length_c   9.00325389
_cell_angle_alpha   71.67344664
_cell_angle_beta   79.50433236
_cell_angle_gamma   68.00648266
_symmetry_Int_Tables_number   1
_chemical_formula_structural   Ca4TiN4
_chemical_formula_sum   'Ca8 Ti2 N8'
_cell_volume   286.57181403
_cell_formula_units_Z   2
loop_
 _symmetry_equiv_pos_site_id
 _symmetry_equiv_pos_as_xyz
  1  'x, y, z'
loop_
 _atom_site_type_symbol
 _atom_site_label
 _atom_site_symmetry_multiplicity
 _atom_site_fract_x
 _atom_site_fract_y
 _atom_site_fract_z
 _atom_site_occupancy
  Ca  Ca0  1  0.23592253  0.95455048  0.60657040  1
  Ca  Ca1  1  0.77423552  0.57842550  0.17652787  1
  Ca  Ca2  1  0.73757806  0.22801887  0.98171861  1
  Ca  Ca3  1  0.27082196  0.51955270  0.42713616  1
  Ca  Ca4  1  0.76407747  0.04544952  0.39342960  1
  Ca  Ca5  1  0.22576448  0.42157450  0.82347213  1
  Ca  Ca6  1  0.72917804  0.48044730  0.57286384  1
  Ca  Ca7  1  0.26242194  0.77198113  0.01828139  1
  Ti  Ti8  1  0.71582340  0.84758224  0.75621207  1
  Ti  Ti9  1  0.28417660  0.15241776  0.24378793  1
  N  N10  1  0.96980730  0.70931139  0.60917694  1
  N  N11  1  0.51176794  0.17601469  0.63668861  1
  N  N12  1  0.03019270  0.29068861  0.39082306  1
  N  N13  1  0.51804779  0.63428106  0.80398124  1
  N  N14  1  0.11576703  0.16850269  0.07273708  1
  N  N15  1  0.48823206  0.82398531  0.36331139  1
  N  N16  1  0.48195221  0.36571894  0.19601876  1
  N  N17  1  0.88423297  0.83149731  0.92726292  1
