# generated using pymatgen
data_SmH2ClO2
_symmetry_space_group_name_H-M   'P 1'
_cell_length_a   12.81033626
_cell_length_b   3.78642605
_cell_length_c   6.33068642
_cell_angle_alpha   90.00000000
_cell_angle_beta   90.00000000
_cell_angle_gamma   90.00000000
_symmetry_Int_Tables_number   1
_chemical_formula_structural   SmH2ClO2
_chemical_formula_sum   'Sm4 H8 Cl4 O8'
_cell_volume   307.07241962
_cell_formula_units_Z   4
loop_
 _symmetry_equiv_pos_site_id
 _symmetry_equiv_pos_as_xyz
  1  'x, y, z'
loop_
 _atom_site_type_symbol
 _atom_site_label
 _atom_site_symmetry_multiplicity
 _atom_site_fract_x
 _atom_site_fract_y
 _atom_site_fract_z
 _atom_site_occupancy
  Sm  Sm0  1  0.06127029  0.75000000  0.24845237  1
  Sm  Sm1  1  0.43872971  0.25000000  0.74845237  1
  Sm  Sm2  1  0.56127029  0.75000000  0.25154763  1
  Sm  Sm3  1  0.93872971  0.25000000  0.75154763  1
  H  H4  1  0.11226087  0.75000000  0.69330640  1
  H  H5  1  0.15033722  0.25000000  0.94124973  1
  H  H6  1  0.34966278  0.75000000  0.44124973  1
  H  H7  1  0.38773913  0.25000000  0.19330640  1
  H  H8  1  0.61226087  0.75000000  0.80669360  1
  H  H9  1  0.65033722  0.25000000  0.55875027  1
  H  H10  1  0.84966278  0.75000000  0.05875027  1
  H  H11  1  0.88773913  0.25000000  0.30669360  1
  Cl  Cl12  1  0.21910414  0.25000000  0.41096567  1
  Cl  Cl13  1  0.28089586  0.75000000  0.91096567  1
  Cl  Cl14  1  0.71910414  0.25000000  0.08903433  1
  Cl  Cl15  1  0.78089586  0.75000000  0.58903433  1
  O  O16  1  0.04254478  0.75000000  0.63158778  1
  O  O17  1  0.08010032  0.25000000  0.00184475  1
  O  O18  1  0.41989968  0.75000000  0.50184475  1
  O  O19  1  0.45745522  0.25000000  0.13158778  1
  O  O20  1  0.54254478  0.75000000  0.86841222  1
  O  O21  1  0.58010032  0.25000000  0.49815525  1
  O  O22  1  0.91989968  0.75000000  0.99815525  1
  O  O23  1  0.95745522  0.25000000  0.36841222  1
