# generated using pymatgen
data_Bi2Se4Cl7
_symmetry_space_group_name_H-M   'P 1'
_cell_length_a   10.75908260
_cell_length_b   12.09464281
_cell_length_c   13.93255945
_cell_angle_alpha   75.77767783
_cell_angle_beta   86.27284150
_cell_angle_gamma   67.90074702
_symmetry_Int_Tables_number   1
_chemical_formula_structural   Bi2Se4Cl7
_chemical_formula_sum   'Bi8 Se16 Cl28'
_cell_volume   1627.56470161
_cell_formula_units_Z   4
loop_
 _symmetry_equiv_pos_site_id
 _symmetry_equiv_pos_as_xyz
  1  'x, y, z'
loop_
 _atom_site_type_symbol
 _atom_site_label
 _atom_site_symmetry_multiplicity
 _atom_site_fract_x
 _atom_site_fract_y
 _atom_site_fract_z
 _atom_site_occupancy
  Bi  Bi0  1  1.00164452  0.16776243  0.69045539  1
  Bi  Bi1  1  0.21229339  0.95275635  0.00374354  1
  Bi  Bi2  1  0.78770661  0.04724365  0.99625646  1
  Bi  Bi3  1  -0.00164452  0.83223757  0.30954461  1
  Bi  Bi4  1  0.67394784  0.06160007  0.48982253  1
  Bi  Bi5  1  0.35879565  0.15647129  0.18180157  1
  Bi  Bi6  1  0.64120435  0.84352871  0.81819843  1
  Bi  Bi7  1  0.32605216  0.93839993  0.51017747  1
  Se  Se8  1  0.74886864  0.54780501  0.41887884  1
  Se  Se9  1  0.86729194  0.39665167  0.08594355  1
  Se  Se10  1  0.25113136  0.45219499  0.58112116  1
  Se  Se11  1  0.39621528  0.30468123  0.71216258  1
  Se  Se12  1  0.85533898  0.38611671  0.34025587  1
  Se  Se13  1  0.06778431  0.51345297  0.80424797  1
  Se  Se14  1  0.93221569  0.48654703  0.19575203  1
  Se  Se15  1  0.58998634  0.42232502  0.23561061  1
  Se  Se16  1  0.13270806  0.60334833  0.91405645  1
  Se  Se17  1  0.60378472  0.69531877  0.28783742  1
  Se  Se18  1  0.41001366  0.57767498  0.76438939  1
  Se  Se19  1  0.14466102  0.61388329  0.65974413  1
  Se  Se20  1  0.35945845  0.46928212  0.91744551  1
  Se  Se21  1  0.64054155  0.53071788  0.08255449  1
  Se  Se22  1  0.53777705  0.41631510  0.68844116  1
  Se  Se23  1  0.46222295  0.58368490  0.31155884  1
  Cl  Cl24  1  0.20319904  0.22806605  0.02788550  1
  Cl  Cl25  1  0.46864827  0.01071972  0.62717329  1
  Cl  Cl26  1  0.41447804  0.91941636  0.13106039  1
  Cl  Cl27  1  0.23493269  0.79578956  0.42619930  1
  Cl  Cl28  1  0.29719166  0.38490188  0.17855155  1
  Cl  Cl29  1  0.82507695  0.87423358  0.69885289  1
  Cl  Cl30  1  0.01914359  0.94178760  0.88680738  1
  Cl  Cl31  1  0.82412503  0.09634857  0.33949810  1
  Cl  Cl32  1  0.39710375  0.80276414  0.91119663  1
  Cl  Cl33  1  0.98085641  0.05821240  0.11319262  1
  Cl  Cl34  1  0.19718251  0.15231568  0.80067539  1
  Cl  Cl35  1  0.19313792  0.75816160  0.11650133  1
  Cl  Cl36  1  0.76506731  0.20421044  0.57380070  1
  Cl  Cl37  1  0.80686208  0.24183840  0.88349867  1
  Cl  Cl38  1  0.70280834  0.61509812  0.82144845  1
  Cl  Cl39  1  0.12634433  0.20245613  0.52907531  1
  Cl  Cl40  1  0.90216438  0.40134132  0.66168103  1
  Cl  Cl41  1  0.58552196  0.08058364  0.86893961  1
  Cl  Cl42  1  0.60289625  0.19723586  0.08880337  1
  Cl  Cl43  1  0.79680096  0.77193395  0.97211450  1
  Cl  Cl44  1  0.17492305  0.12576642  0.30114711  1
  Cl  Cl45  1  0.48597194  0.27168942  0.42584786  1
  Cl  Cl46  1  0.87365567  0.79754387  0.47092469  1
  Cl  Cl47  1  0.09783562  0.59865868  0.33831897  1
  Cl  Cl48  1  0.80281749  0.84768432  0.19932461  1
  Cl  Cl49  1  0.53135173  0.98928028  0.37282671  1
  Cl  Cl50  1  0.17587497  0.90365143  0.66050190  1
  Cl  Cl51  1  0.51402806  0.72831058  0.57415214  1
