# generated using pymatgen
data_EuTa2O6
_symmetry_space_group_name_H-M   'P 1'
_cell_length_a   5.56073212
_cell_length_b   7.70077061
_cell_length_c   11.21738274
_cell_angle_alpha   90.00000000
_cell_angle_beta   90.00000000
_cell_angle_gamma   90.00000000
_symmetry_Int_Tables_number   1
_chemical_formula_structural   EuTa2O6
_chemical_formula_sum   'Eu4 Ta8 O24'
_cell_volume   480.34989412
_cell_formula_units_Z   4
loop_
 _symmetry_equiv_pos_site_id
 _symmetry_equiv_pos_as_xyz
  1  'x, y, z'
loop_
 _atom_site_type_symbol
 _atom_site_label
 _atom_site_symmetry_multiplicity
 _atom_site_fract_x
 _atom_site_fract_y
 _atom_site_fract_z
 _atom_site_occupancy
  Eu  Eu0  1  0.45628027  0.75000000  0.95777728  1
  Eu  Eu1  1  0.95628027  0.25000000  0.54222272  1
  Eu  Eu2  1  0.54371973  0.25000000  0.04222272  1
  Eu  Eu3  1  0.04371973  0.75000000  0.45777728  1
  Ta  Ta4  1  0.96029151  0.00374838  0.85866975  1
  Ta  Ta5  1  0.46029151  0.99625162  0.64133025  1
  Ta  Ta6  1  0.03970849  0.50374838  0.14133025  1
  Ta  Ta7  1  0.53970849  0.49625162  0.35866975  1
  Ta  Ta8  1  0.03970849  0.99625162  0.14133025  1
  Ta  Ta9  1  0.53970849  0.00374838  0.35866975  1
  Ta  Ta10  1  0.96029151  0.49625162  0.85866975  1
  Ta  Ta11  1  0.46029151  0.50374838  0.64133025  1
  O  O12  1  0.77625679  0.96329047  0.02352889  1
  O  O13  1  0.27625679  0.03670953  0.47647111  1
  O  O14  1  0.22374321  0.46329047  0.97647111  1
  O  O15  1  0.72374321  0.53670953  0.52352889  1
  O  O16  1  0.22374321  0.03670953  0.97647111  1
  O  O17  1  0.72374321  0.96329047  0.52352889  1
  O  O18  1  0.77625679  0.53670953  0.02352889  1
  O  O19  1  0.27625679  0.46329047  0.47647111  1
  O  O20  1  0.63481698  0.94878792  0.78697830  1
  O  O21  1  0.13481698  0.05121208  0.71302170  1
  O  O22  1  0.36518302  0.44878792  0.21302170  1
  O  O23  1  0.86518302  0.55121208  0.28697830  1
  O  O24  1  0.36518302  0.05121208  0.21302170  1
  O  O25  1  0.86518302  0.94878792  0.28697830  1
  O  O26  1  0.63481698  0.55121208  0.78697830  1
  O  O27  1  0.13481698  0.44878792  0.71302170  1
  O  O28  1  0.03889000  0.75000000  0.85488921  1
  O  O29  1  0.53889000  0.25000000  0.64511079  1
  O  O30  1  0.96111000  0.25000000  0.14511079  1
  O  O31  1  0.46111000  0.75000000  0.35488921  1
  O  O32  1  0.35847011  0.75000000  0.62644339  1
  O  O33  1  0.85847011  0.25000000  0.87355661  1
  O  O34  1  0.64152989  0.25000000  0.37355661  1
  O  O35  1  0.14152989  0.75000000  0.12644339  1
