# generated using pymatgen
data_KBO2
_symmetry_space_group_name_H-M   'P 1'
_cell_length_a   7.85257534
_cell_length_b   7.85257534
_cell_length_c   7.85257534
_cell_angle_alpha   110.30337945
_cell_angle_beta   110.30337942
_cell_angle_gamma   110.30337944
_symmetry_Int_Tables_number   1
_chemical_formula_structural   KBO2
_chemical_formula_sum   'K6 B6 O12'
_cell_volume   360.80666234
_cell_formula_units_Z   6
loop_
 _symmetry_equiv_pos_site_id
 _symmetry_equiv_pos_as_xyz
  1  'x, y, z'
loop_
 _atom_site_type_symbol
 _atom_site_label
 _atom_site_symmetry_multiplicity
 _atom_site_fract_x
 _atom_site_fract_y
 _atom_site_fract_z
 _atom_site_occupancy
  B  B0  1  0.25000000  0.36293864  0.13706136  1
  B  B1  1  0.75000000  0.63706136  0.86293864  1
  B  B2  1  0.63706136  0.86293864  0.75000000  1
  B  B3  1  0.86293864  0.75000000  0.63706136  1
  B  B4  1  0.36293864  0.13706136  0.25000000  1
  B  B5  1  0.13706136  0.25000000  0.36293864  1
  O  O6  1  0.35812465  0.25000000  0.14187535  1
  O  O7  1  0.14187535  0.35812465  0.25000000  1
  O  O8  1  0.75000000  0.85812465  0.64187535  1
  O  O9  1  0.25000000  0.14187535  0.35812465  1
  O  O10  1  0.64187535  0.75000000  0.85812465  1
  O  O11  1  0.85812465  0.64187535  0.75000000  1
  O  O12  1  0.03431694  0.25000000  0.46568306  1
  O  O13  1  0.46568306  0.03431694  0.25000000  1
  O  O14  1  0.25000000  0.46568306  0.03431694  1
  O  O15  1  0.96568306  0.75000000  0.53431694  1
  O  O16  1  0.53431694  0.96568306  0.75000000  1
  O  O17  1  0.75000000  0.53431694  0.96568306  1
  K  K18  1  0.75000000  0.30995106  0.19004894  1
  K  K19  1  0.30995106  0.19004894  0.75000000  1
  K  K20  1  0.19004894  0.75000000  0.30995106  1
  K  K21  1  0.25000000  0.69004894  0.80995106  1
  K  K22  1  0.69004894  0.80995106  0.25000000  1
  K  K23  1  0.80995106  0.25000000  0.69004894  1
