# generated using pymatgen
data_Pd16S7
_symmetry_space_group_name_H-M   'P 1'
_cell_length_a   7.84901170
_cell_length_b   7.84901170
_cell_length_c   7.84901170
_cell_angle_alpha   109.47122060
_cell_angle_beta   109.47122061
_cell_angle_gamma   109.47122066
_symmetry_Int_Tables_number   1
_chemical_formula_structural   Pd16S7
_chemical_formula_sum   'Pd16 S7'
_cell_volume   372.23999950
_cell_formula_units_Z   1
loop_
 _symmetry_equiv_pos_site_id
 _symmetry_equiv_pos_as_xyz
  1  'x, y, z'
loop_
 _atom_site_type_symbol
 _atom_site_label
 _atom_site_symmetry_multiplicity
 _atom_site_fract_x
 _atom_site_fract_y
 _atom_site_fract_z
 _atom_site_occupancy
  S  S0  1  0.50000000  0.50000000  0.00000000  1
  S  S1  1  0.50000000  0.00000000  0.50000000  1
  S  S2  1  0.00000000  0.50000000  0.50000000  1
  S  S3  1  0.00000000  0.00000000  0.68797478  1
  S  S4  1  0.00000000  0.68797478  0.00000000  1
  S  S5  1  0.68797478  0.00000000  0.00000000  1
  S  S6  1  0.31202522  0.31202522  0.31202522  1
  Pd  Pd7  1  0.58545933  0.00000000  0.24762627  1
  Pd  Pd8  1  0.00000000  0.58545933  0.24762627  1
  Pd  Pd9  1  0.66216695  0.41454067  0.41454067  1
  Pd  Pd10  1  0.41454067  0.66216695  0.41454067  1
  Pd  Pd11  1  0.75237373  0.75237373  0.33783305  1
  Pd  Pd12  1  0.77063681  0.77063681  0.77063681  1
  Pd  Pd13  1  0.22936319  0.00000000  0.00000000  1
  Pd  Pd14  1  0.00000000  0.22936319  0.00000000  1
  Pd  Pd15  1  0.00000000  0.00000000  0.22936319  1
  Pd  Pd16  1  0.24762627  0.00000000  0.58545933  1
  Pd  Pd17  1  0.75237373  0.33783305  0.75237373  1
  Pd  Pd18  1  0.33783305  0.75237373  0.75237373  1
  Pd  Pd19  1  0.00000000  0.24762627  0.58545933  1
  Pd  Pd20  1  0.24762627  0.58545933  0.00000000  1
  Pd  Pd21  1  0.58545933  0.24762627  0.00000000  1
  Pd  Pd22  1  0.41454067  0.41454067  0.66216695  1
