# generated using pymatgen
data_RbP4N7
_symmetry_space_group_name_H-M   'P 1'
_cell_length_a   4.73232660
_cell_length_b   12.43575169
_cell_length_c   10.01684143
_cell_angle_alpha   90.00000000
_cell_angle_beta   90.00000000
_cell_angle_gamma   90.00000000
_symmetry_Int_Tables_number   1
_chemical_formula_structural   RbP4N7
_chemical_formula_sum   'Rb4 P16 N28'
_cell_volume   589.49150394
_cell_formula_units_Z   4
loop_
 _symmetry_equiv_pos_site_id
 _symmetry_equiv_pos_as_xyz
  1  'x, y, z'
loop_
 _atom_site_type_symbol
 _atom_site_label
 _atom_site_symmetry_multiplicity
 _atom_site_fract_x
 _atom_site_fract_y
 _atom_site_fract_z
 _atom_site_occupancy
  Rb  Rb0  1  0.23263154  0.75000000  0.64625721  1
  Rb  Rb1  1  0.73263154  0.25000000  0.85374279  1
  Rb  Rb2  1  0.76736846  0.25000000  0.35374279  1
  Rb  Rb3  1  0.26736846  0.75000000  0.14625721  1
  P  P4  1  0.71275372  0.87027184  0.91157169  1
  P  P5  1  0.21275372  0.12972816  0.58842831  1
  P  P6  1  0.28724628  0.37027184  0.08842831  1
  P  P7  1  0.78724628  0.62972816  0.41157169  1
  P  P8  1  0.28724628  0.12972816  0.08842831  1
  P  P9  1  0.78724628  0.87027184  0.41157169  1
  P  P10  1  0.71275372  0.62972816  0.91157169  1
  P  P11  1  0.21275372  0.37027184  0.58842831  1
  P  P12  1  0.72296132  0.00023195  0.65741335  1
  P  P13  1  0.22296132  0.99976805  0.84258665  1
  P  P14  1  0.27703868  0.50023195  0.34258665  1
  P  P15  1  0.77703868  0.49976805  0.15741335  1
  P  P16  1  0.27703868  0.99976805  0.34258665  1
  P  P17  1  0.77703868  0.00023195  0.15741335  1
  P  P18  1  0.72296132  0.49976805  0.65741335  1
  P  P19  1  0.22296132  0.50023195  0.84258665  1
  N  N20  1  0.79636647  0.75000000  0.87413374  1
  N  N21  1  0.29636647  0.25000000  0.62586626  1
  N  N22  1  0.20363353  0.25000000  0.12586626  1
  N  N23  1  0.70363353  0.75000000  0.37413374  1
  N  N24  1  0.38442863  0.89320174  0.88300752  1
  N  N25  1  0.88442863  0.10679826  0.61699248  1
  N  N26  1  0.61557137  0.39320174  0.11699248  1
  N  N27  1  0.11557137  0.60679826  0.38300752  1
  N  N28  1  0.61557137  0.10679826  0.11699248  1
  N  N29  1  0.11557137  0.89320174  0.38300752  1
  N  N30  1  0.38442863  0.60679826  0.88300752  1
  N  N31  1  0.88442863  0.39320174  0.61699248  1
  N  N32  1  0.68642011  0.90070809  0.55993056  1
  N  N33  1  0.18642011  0.09929191  0.94006944  1
  N  N34  1  0.31357989  0.40070809  0.44006944  1
  N  N35  1  0.81357989  0.59929191  0.05993056  1
  N  N36  1  0.31357989  0.09929191  0.44006944  1
  N  N37  1  0.81357989  0.90070809  0.05993056  1
  N  N38  1  0.68642011  0.59929191  0.55993056  1
  N  N39  1  0.18642011  0.40070809  0.94006944  1
  N  N40  1  0.88589791  0.95627094  0.80030162  1
  N  N41  1  0.38589791  0.04372906  0.69969838  1
  N  N42  1  0.11410209  0.45627094  0.19969838  1
  N  N43  1  0.61410209  0.54372906  0.30030162  1
  N  N44  1  0.11410209  0.04372906  0.19969838  1
  N  N45  1  0.61410209  0.95627094  0.30030162  1
  N  N46  1  0.88589791  0.54372906  0.80030162  1
  N  N47  1  0.38589791  0.45627094  0.69969838  1
