# generated using pymatgen
data_LiFe2(BO3)2
_symmetry_space_group_name_H-M   'P 1'
_cell_length_a   5.25805048
_cell_length_b   5.27766265
_cell_length_c   20.12262996
_cell_angle_alpha   88.88963410
_cell_angle_beta   90.64206253
_cell_angle_gamma   61.25614409
_symmetry_Int_Tables_number   1
_chemical_formula_structural   LiFe2(BO3)2
_chemical_formula_sum   'Li4 Fe8 B8 O24'
_cell_volume   489.37332555
_cell_formula_units_Z   4
loop_
 _symmetry_equiv_pos_site_id
 _symmetry_equiv_pos_as_xyz
  1  'x, y, z'
loop_
 _atom_site_type_symbol
 _atom_site_label
 _atom_site_symmetry_multiplicity
 _atom_site_fract_x
 _atom_site_fract_y
 _atom_site_fract_z
 _atom_site_occupancy
  Li  Li0  1  0.35328203  0.66962838  0.92287906  1
  Li  Li1  1  0.33469032  0.64223492  0.17319849  1
  Li  Li2  1  0.64981787  0.34539461  0.78942037  1
  Li  Li3  1  0.65248850  0.35189457  0.54443972  1
  Fe  Fe4  1  0.98479949  0.67562884  0.80815630  1
  Fe  Fe5  1  -0.00793355  0.67493376  0.31068637  1
  Fe  Fe6  1  0.68526394  0.00618425  0.93683409  1
  Fe  Fe7  1  0.67910935  -0.01359542  0.43541041  1
  Fe  Fe8  1  0.32368178  0.99036021  0.56189555  1
  Fe  Fe9  1  0.32142882  0.02424426  0.06184507  1
  Fe  Fe10  1  0.02024100  0.33189380  0.67931103  1
  Fe  Fe11  1  0.99100351  0.31699082  0.18826876  1
  B  B12  1  0.00272343  0.34205976  0.93362531  1
  B  B13  1  0.00846125  0.33168086  0.43567718  1
  B  B14  1  0.33125379  0.00713617  0.81305673  1
  B  B15  1  0.33554940  0.00680200  0.31128764  1
  B  B16  1  0.65836143  0.00529625  0.69000749  1
  B  B17  1  0.66139314  0.99357790  0.18496059  1
  B  B18  1  -0.00007614  0.65741406  0.55856588  1
  B  B19  1  0.98653561  0.67433081  0.06313380  1
  O  O20  1  0.08936894  0.26696306  0.79605161  1
  O  O21  1  0.12053761  0.27689850  0.28945997  1
  O  O22  1  0.25216879  0.09260202  0.95692465  1
  O  O23  1  0.02723035  0.58692515  0.91319599  1
  O  O24  1  0.27993622  0.11488758  0.45498355  1
  O  O25  1  0.98101101  0.59599021  0.41219830  1
  O  O26  1  0.59520199  0.00133151  0.82912763  1
  O  O27  1  0.26169422  0.64984812  0.55923049  1
  O  O28  1  0.60262601  0.98017738  0.33295308  1
  O  O29  1  0.21037204  0.73352517  0.07134825  1
  O  O30  1  0.31373528  0.75384589  0.81902300  1
  O  O31  1  0.28803770  0.77673266  0.30896126  1
  O  O32  1  0.69433527  0.24009966  0.69827606  1
  O  O33  1  0.65096504  0.25497176  0.18315105  1
  O  O34  1  0.73986765  0.34977044  0.92962406  1
  O  O35  1  0.41399048  0.01379683  0.66333941  1
  O  O36  1  0.76982306  0.29409871  0.44208484  1
  O  O37  1  0.41808121  0.96947365  0.16329561  1
  O  O38  1  0.97098797  0.41518069  0.57707205  1
  O  O39  1  0.02469555  0.40461142  0.08149276  1
  O  O40  1  0.74685117  0.90755032  0.53600220  1
  O  O41  1  0.71945879  0.88143275  0.03739242  1
  O  O42  1  0.88132913  0.73141397  0.71515088  1
  O  O43  1  0.90847155  0.74092372  0.20775601  1
