# generated using pymatgen
data_Sc7BCl12
_symmetry_space_group_name_H-M   'P 1'
_cell_length_a   8.17692621
_cell_length_b   8.17692624
_cell_length_c   8.17692564
_cell_angle_alpha   107.46397843
_cell_angle_beta   107.46397845
_cell_angle_gamma   107.46397498
_symmetry_Int_Tables_number   1
_chemical_formula_structural   Sc7BCl12
_chemical_formula_sum   'Sc7 B1 Cl12'
_cell_volume   449.43175393
_cell_formula_units_Z   1
loop_
 _symmetry_equiv_pos_site_id
 _symmetry_equiv_pos_as_xyz
  1  'x, y, z'
loop_
 _atom_site_type_symbol
 _atom_site_label
 _atom_site_symmetry_multiplicity
 _atom_site_fract_x
 _atom_site_fract_y
 _atom_site_fract_z
 _atom_site_occupancy
  Sc  Sc0  1  0.50000000  0.50000000  0.50000000  1
  Sc  Sc1  1  0.31119661  0.02942726  0.10358012  1
  Sc  Sc2  1  0.10358012  0.31119661  0.02942726  1
  Sc  Sc3  1  0.02942726  0.10358012  0.31119661  1
  Sc  Sc4  1  0.68880339  0.97057274  0.89641988  1
  Sc  Sc5  1  0.89641988  0.68880339  0.97057274  1
  Sc  Sc6  1  0.97057274  0.89641988  0.68880339  1
  Cl  Cl7  1  0.31396784  0.92489108  0.77714758  1
  Cl  Cl8  1  0.77714758  0.31396784  0.92489108  1
  Cl  Cl9  1  0.92489108  0.77714758  0.31396784  1
  Cl  Cl10  1  0.68603216  0.07510892  0.22285242  1
  Cl  Cl11  1  0.22285242  0.68603216  0.07510892  1
  Cl  Cl12  1  0.07510892  0.22285242  0.68603216  1
  Cl  Cl13  1  0.46186026  0.38347043  0.15751914  1
  Cl  Cl14  1  0.15751914  0.46186026  0.38347043  1
  Cl  Cl15  1  0.38347043  0.15751914  0.46186026  1
  Cl  Cl16  1  0.53813974  0.61652957  0.84248086  1
  Cl  Cl17  1  0.84248086  0.53813974  0.61652957  1
  Cl  Cl18  1  0.61652957  0.84248086  0.53813974  1
  B  B19  1  0.00000000  0.00000000  0.00000000  1
