# generated using pymatgen
data_CuP4O11
_symmetry_space_group_name_H-M   'P 1'
_cell_length_a   9.39099320
_cell_length_b   9.44980937
_cell_length_c   10.73783178
_cell_angle_alpha   69.35840484
_cell_angle_beta   70.33592202
_cell_angle_gamma   89.44616970
_symmetry_Int_Tables_number   1
_chemical_formula_structural   CuP4O11
_chemical_formula_sum   'Cu4 P16 O44'
_cell_volume   833.28730257
_cell_formula_units_Z   4
loop_
 _symmetry_equiv_pos_site_id
 _symmetry_equiv_pos_as_xyz
  1  'x, y, z'
loop_
 _atom_site_type_symbol
 _atom_site_label
 _atom_site_symmetry_multiplicity
 _atom_site_fract_x
 _atom_site_fract_y
 _atom_site_fract_z
 _atom_site_occupancy
  Cu  Cu0  1  0.27117566  0.72848202  0.50240777  1
  Cu  Cu1  1  0.72882434  0.27151798  0.49759223  1
  Cu  Cu2  1  0.24534571  0.22651893  0.01485919  1
  Cu  Cu3  1  0.75465429  0.77348107  0.98514081  1
  P  P4  1  0.40511560  0.09990244  0.76007730  1
  P  P5  1  0.59549997  0.44896812  0.24839332  1
  P  P6  1  0.08088517  0.75907951  0.07337952  1
  P  P7  1  0.05461683  0.41631799  0.22443451  1
  P  P8  1  0.59378149  0.23352379  0.09602443  1
  P  P9  1  0.91911483  0.24092049  0.92662048  1
  P  P10  1  0.26495239  0.41506718  0.38625008  1
  P  P11  1  0.75794862  0.91711102  0.43543777  1
  P  P12  1  0.40450003  0.55103188  0.75160668  1
  P  P13  1  0.24205138  0.08288898  0.56456223  1
  P  P14  1  0.59488440  0.90009756  0.23992270  1
  P  P15  1  0.09043635  0.90300747  0.28395384  1
  P  P16  1  0.90956365  0.09699253  0.71604616  1
  P  P17  1  0.94538317  0.58368201  0.77556549  1
  P  P18  1  0.40621851  0.76647621  0.90397557  1
  P  P19  1  0.73504761  0.58493282  0.61374992  1
  O  O20  1  0.31941437  0.96550374  0.51826688  1
  O  O21  1  0.75027450  0.52829342  0.49994493  1
  O  O22  1  0.87630168  0.21816648  0.59883121  1
  O  O23  1  0.58489118  0.35054113  0.39583687  1
  O  O24  1  0.24972550  0.47170658  0.50005507  1
  O  O25  1  0.69720996  0.85676795  0.34085950  1
  O  O26  1  0.68058563  0.03449626  0.48173312  1
  O  O27  1  0.42109163  0.92226164  0.77696978  1
  O  O28  1  0.16699275  0.36461096  0.11905576  1
  O  O29  1  0.98261759  0.41551627  0.85721232  1
  O  O30  1  0.73848196  0.23717830  0.96251751  1
  O  O31  1  0.06598076  0.03244870  0.64904703  1
  O  O32  1  0.12369832  0.78183352  0.40116879  1
  O  O33  1  0.79443949  0.96190558  0.81307842  1
  O  O34  1  0.41510882  0.64945887  0.60416313  1
  O  O35  1  0.85997325  0.53657995  0.68326475  1
  O  O36  1  0.20556051  0.03809442  0.18692158  1
  O  O37  1  0.93401924  0.96755130  0.35095297  1
  O  O38  1  0.96882709  0.15973195  0.04578490  1
  O  O39  1  0.69097190  0.60009664  0.17231191  1
  O  O40  1  0.97026729  0.18386307  0.79895142  1
  O  O41  1  0.55575264  0.19602591  0.68337030  1
  O  O42  1  0.42069447  0.46880756  0.25215727  1
  O  O43  1  0.02973271  0.81613693  0.20104858  1
  O  O44  1  0.90516056  0.32174519  0.31778727  1
  O  O45  1  0.09483944  0.67825481  0.68221273  1
  O  O46  1  0.57930553  0.53119244  0.74784273  1
  O  O47  1  0.30876812  0.09420512  0.90493171  1
  O  O48  1  0.14002675  0.46342005  0.31673525  1
  O  O49  1  0.24981820  0.23345437  0.43177471  1
  O  O50  1  0.30279004  0.14323205  0.65914050  1
  O  O51  1  0.30902810  0.39990336  0.82768809  1
  O  O52  1  0.44424736  0.80397409  0.31662970  1
  O  O53  1  0.69123188  0.90579488  0.09506829  1
  O  O54  1  0.53879822  0.73394273  0.94639885  1
  O  O55  1  0.26151804  0.76282170  0.03748249  1
  O  O56  1  0.83300725  0.63538904  0.88094424  1
  O  O57  1  0.34746077  0.64601567  0.85607778  1
  O  O58  1  0.46120178  0.26605727  0.05360115  1
  O  O59  1  0.01738241  0.58448373  0.14278768  1
  O  O60  1  0.65253923  0.35398433  0.14392222  1
  O  O61  1  0.03117291  0.84026805  0.95421510  1
  O  O62  1  0.57890837  0.07773836  0.22303022  1
  O  O63  1  0.75018180  0.76654563  0.56822529  1
