# generated using pymatgen
data_Lu2FeB6
_symmetry_space_group_name_H-M   'P 1'
_cell_length_a   3.47444054
_cell_length_b   8.96848250
_cell_length_c   11.31674602
_cell_angle_alpha   90.00000000
_cell_angle_beta   90.00000000
_cell_angle_gamma   90.00000000
_symmetry_Int_Tables_number   1
_chemical_formula_structural   Lu2FeB6
_chemical_formula_sum   'Lu8 Fe4 B24'
_cell_volume   352.63500241
_cell_formula_units_Z   4
loop_
 _symmetry_equiv_pos_site_id
 _symmetry_equiv_pos_as_xyz
  1  'x, y, z'
loop_
 _atom_site_type_symbol
 _atom_site_label
 _atom_site_symmetry_multiplicity
 _atom_site_fract_x
 _atom_site_fract_y
 _atom_site_fract_z
 _atom_site_occupancy
  Lu  Lu0  1  0.00000000  0.82326184  0.08542382  1
  Lu  Lu1  1  0.00000000  0.17673816  0.91457618  1
  Lu  Lu2  1  0.00000000  0.32326184  0.41457618  1
  Lu  Lu3  1  0.00000000  0.67673816  0.58542382  1
  Lu  Lu4  1  0.00000000  0.44326957  0.12932375  1
  Lu  Lu5  1  0.00000000  0.55673043  0.87067625  1
  Lu  Lu6  1  0.00000000  0.94326957  0.37067625  1
  Lu  Lu7  1  0.00000000  0.05673043  0.62932375  1
  Fe  Fe8  1  0.00000000  0.13871739  0.17922429  1
  Fe  Fe9  1  0.00000000  0.86128261  0.82077571  1
  Fe  Fe10  1  0.00000000  0.63871739  0.32077571  1
  Fe  Fe11  1  0.00000000  0.36128261  0.67922429  1
  B  B12  1  0.50000000  0.05421648  0.06714644  1
  B  B13  1  0.50000000  0.94578352  0.93285356  1
  B  B14  1  0.50000000  0.55421648  0.43285356  1
  B  B15  1  0.50000000  0.44578352  0.56714644  1
  B  B16  1  0.50000000  0.24757613  0.08104244  1
  B  B17  1  0.50000000  0.75242387  0.91895756  1
  B  B18  1  0.50000000  0.74757613  0.41895756  1
  B  B19  1  0.50000000  0.25242387  0.58104244  1
  B  B20  1  0.50000000  0.29107438  0.23427879  1
  B  B21  1  0.50000000  0.70892562  0.76572121  1
  B  B22  1  0.50000000  0.79107438  0.26572121  1
  B  B23  1  0.50000000  0.20892562  0.73427879  1
  B  B24  1  0.50000000  0.13222471  0.31462907  1
  B  B25  1  0.50000000  0.86777529  0.68537093  1
  B  B26  1  0.50000000  0.63222471  0.18537093  1
  B  B27  1  0.50000000  0.36777529  0.81462907  1
  B  B28  1  0.50000000  0.48493685  0.28831700  1
  B  B29  1  0.50000000  0.51506315  0.71168300  1
  B  B30  1  0.50000000  0.98493685  0.21168300  1
  B  B31  1  0.50000000  0.01506315  0.78831700  1
  B  B32  1  0.50000000  0.10680602  0.47064346  1
  B  B33  1  0.50000000  0.89319398  0.52935654  1
  B  B34  1  0.50000000  0.60680602  0.02935654  1
  B  B35  1  0.50000000  0.39319398  0.97064346  1
