# generated using pymatgen
data_CoAsSe
_symmetry_space_group_name_H-M   'P 1'
_cell_length_a   5.77364933
_cell_length_b   5.86115907
_cell_length_c   11.53086855
_cell_angle_alpha   90.00000000
_cell_angle_beta   90.00000000
_cell_angle_gamma   90.00000000
_symmetry_Int_Tables_number   1
_chemical_formula_structural   CoAsSe
_chemical_formula_sum   'Co8 As8 Se8'
_cell_volume   390.20778737
_cell_formula_units_Z   8
loop_
 _symmetry_equiv_pos_site_id
 _symmetry_equiv_pos_as_xyz
  1  'x, y, z'
loop_
 _atom_site_type_symbol
 _atom_site_label
 _atom_site_symmetry_multiplicity
 _atom_site_fract_x
 _atom_site_fract_y
 _atom_site_fract_z
 _atom_site_occupancy
  Co  Co0  1  0.00251589  0.17526404  0.37277363  1
  Co  Co1  1  0.50251589  0.32473596  0.62722637  1
  Co  Co2  1  0.99748411  0.67526404  0.12722637  1
  Co  Co3  1  0.49748411  0.82473596  0.87277363  1
  Co  Co4  1  0.99748411  0.82473596  0.62722637  1
  Co  Co5  1  0.49748411  0.67526404  0.37277363  1
  Co  Co6  1  0.00251589  0.32473596  0.87277363  1
  Co  Co7  1  0.50251589  0.17526404  0.12722637  1
  Se  Se8  1  0.12196044  0.05724497  0.18027896  1
  Se  Se9  1  0.62196044  0.44275503  0.81972104  1
  Se  Se10  1  0.87803956  0.55724497  0.31972104  1
  Se  Se11  1  0.37803956  0.94275503  0.68027896  1
  Se  Se12  1  0.87803956  0.94275503  0.81972104  1
  Se  Se13  1  0.37803956  0.55724497  0.18027896  1
  Se  Se14  1  0.12196044  0.44275503  0.68027896  1
  Se  Se15  1  0.62196044  0.05724497  0.31972104  1
  As  As16  1  0.36634687  0.31548875  0.43510858  1
  As  As17  1  0.86634687  0.18451125  0.56489142  1
  As  As18  1  0.63365313  0.81548875  0.06489142  1
  As  As19  1  0.13365313  0.68451125  0.93510858  1
  As  As20  1  0.63365313  0.68451125  0.56489142  1
  As  As21  1  0.13365313  0.81548875  0.43510858  1
  As  As22  1  0.36634687  0.18451125  0.93510858  1
  As  As23  1  0.86634687  0.31548875  0.06489142  1
