# generated using pymatgen
data_Na5P3O10
_symmetry_space_group_name_H-M   'P 1'
_cell_length_a   5.29171382
_cell_length_b   8.57455227
_cell_length_c   11.34203449
_cell_angle_alpha   93.35067985
_cell_angle_beta   90.00000000
_cell_angle_gamma   107.97312457
_symmetry_Int_Tables_number   1
_chemical_formula_structural   Na5P3O10
_chemical_formula_sum   'Na10 P6 O20'
_cell_volume   488.59590765
_cell_formula_units_Z   2
loop_
 _symmetry_equiv_pos_site_id
 _symmetry_equiv_pos_as_xyz
  1  'x, y, z'
loop_
 _atom_site_type_symbol
 _atom_site_label
 _atom_site_symmetry_multiplicity
 _atom_site_fract_x
 _atom_site_fract_y
 _atom_site_fract_z
 _atom_site_occupancy
  O  O0  1  0.16558397  0.43507140  0.34990281  1
  O  O1  1  0.21067054  0.24101986  0.01766804  1
  O  O2  1  0.96965068  0.75898014  0.48233196  1
  O  O3  1  0.78932946  0.75898014  0.98233196  1
  O  O4  1  0.03034932  0.24101986  0.51766804  1
  O  O5  1  0.26948743  0.43507140  0.84990281  1
  O  O6  1  0.58118516  0.07525079  0.15271899  1
  O  O7  1  0.50593437  0.92474921  0.34728101  1
  O  O8  1  0.41881484  0.92474921  0.84728101  1
  O  O9  1  0.49406563  0.07525079  0.65271899  1
  O  O10  1  0.95829012  0.13172492  0.30624849  1
  O  O11  1  0.82656519  0.86827508  0.19375151  1
  O  O12  1  0.04170988  0.86827508  0.69375151  1
  O  O13  1  0.17343481  0.13172492  0.80624849  1
  O  O14  1  0.73051257  0.56492860  0.15009719  1
  O  O15  1  0.36412290  0.69669245  0.10675947  1
  O  O16  1  0.33256955  0.69669245  0.60675947  1
  O  O17  1  0.63587710  0.30330755  0.89324053  1
  O  O18  1  0.66743045  0.30330755  0.39324053  1
  O  O19  1  0.83441603  0.56492860  0.65009719  1
  Na  Na20  1  0.22188963  0.91656990  0.03788895  1
  Na  Na21  1  0.69468028  0.91656990  0.53788895  1
  Na  Na22  1  0.77811037  0.08343010  0.96211105  1
  Na  Na23  1  0.43106990  0.32055199  0.20628947  1
  Na  Na24  1  0.11051791  0.67944801  0.29371053  1
  Na  Na25  1  0.56893010  0.67944801  0.79371053  1
  Na  Na26  1  0.50000000  0.50000000  0.50000000  1
  Na  Na27  1  0.00000000  0.50000000  0.00000000  1
  Na  Na28  1  0.88948209  0.32055199  0.70628947  1
  Na  Na29  1  0.30531972  0.08343010  0.46211105  1
  P  P30  1  0.34351144  0.29357986  0.89999649  1
  P  P31  1  0.04993158  0.70642014  0.60000351  1
  P  P32  1  0.65648856  0.70642014  0.10000351  1
  P  P33  1  0.95006842  0.29357986  0.39999649  1
  P  P34  1  0.30801698  0.00000000  0.75000000  1
  P  P35  1  0.69198302  0.00000000  0.25000000  1
