# generated using pymatgen
data_Ti2CuS4
_symmetry_space_group_name_H-M   'P 1'
_cell_length_a   7.08157053
_cell_length_b   7.08157054
_cell_length_c   7.08157053
_cell_angle_alpha   59.99999999
_cell_angle_beta   59.99999997
_cell_angle_gamma   59.99999997
_symmetry_Int_Tables_number   1
_chemical_formula_structural   Ti2CuS4
_chemical_formula_sum   'Ti4 Cu2 S8'
_cell_volume   251.11563721
_cell_formula_units_Z   2
loop_
 _symmetry_equiv_pos_site_id
 _symmetry_equiv_pos_as_xyz
  1  'x, y, z'
loop_
 _atom_site_type_symbol
 _atom_site_label
 _atom_site_symmetry_multiplicity
 _atom_site_fract_x
 _atom_site_fract_y
 _atom_site_fract_z
 _atom_site_occupancy
  S  S0  1  0.74513448  0.74513448  0.74513448  1
  S  S1  1  0.25486552  0.25486552  0.73540343  1
  S  S2  1  0.25486552  0.73540343  0.25486552  1
  S  S3  1  0.73540343  0.25486552  0.25486552  1
  S  S4  1  0.74513448  0.26459657  0.74513448  1
  S  S5  1  0.26459657  0.74513448  0.74513448  1
  S  S6  1  0.25486552  0.25486552  0.25486552  1
  S  S7  1  0.74513448  0.74513448  0.26459657  1
  Ti  Ti8  1  0.50000000  0.00000000  0.50000000  1
  Ti  Ti9  1  0.00000000  0.50000000  0.50000000  1
  Ti  Ti10  1  0.50000000  0.50000000  0.00000000  1
  Ti  Ti11  1  0.50000000  0.50000000  0.50000000  1
  Cu  Cu12  1  0.87500000  0.87500000  0.87500000  1
  Cu  Cu13  1  0.12500000  0.12500000  0.12500000  1
