# generated using pymatgen
data_Nb3P
_symmetry_space_group_name_H-M   'P 1'
_cell_length_a   5.12119392
_cell_length_b   10.20231753
_cell_length_c   10.20231753
_cell_angle_alpha   90.00000000
_cell_angle_beta   90.00000000
_cell_angle_gamma   90.00000000
_symmetry_Int_Tables_number   1
_chemical_formula_structural   Nb3P
_chemical_formula_sum   'Nb24 P8'
_cell_volume   533.05116076
_cell_formula_units_Z   8
loop_
 _symmetry_equiv_pos_site_id
 _symmetry_equiv_pos_as_xyz
  1  'x, y, z'
loop_
 _atom_site_type_symbol
 _atom_site_label
 _atom_site_symmetry_multiplicity
 _atom_site_fract_x
 _atom_site_fract_y
 _atom_site_fract_z
 _atom_site_occupancy
  Nb  Nb0  1  0.72600588  0.16378285  0.65305730  1
  Nb  Nb1  1  0.22600588  0.34694270  0.66378285  1
  Nb  Nb2  1  0.22600588  0.15305730  0.83621715  1
  Nb  Nb3  1  0.72600588  0.33621715  0.84694270  1
  Nb  Nb4  1  0.27399412  0.83621715  0.34694270  1
  Nb  Nb5  1  0.77399412  0.65305730  0.33621715  1
  Nb  Nb6  1  0.77399412  0.84694270  0.16378285  1
  Nb  Nb7  1  0.27399412  0.66378285  0.15305730  1
  Nb  Nb8  1  0.51501445  0.10492894  0.26279019  1
  Nb  Nb9  1  0.01501445  0.73720981  0.60492894  1
  Nb  Nb10  1  0.01501445  0.76279019  0.89507106  1
  Nb  Nb11  1  0.51501445  0.39507106  0.23720981  1
  Nb  Nb12  1  0.48498555  0.89507106  0.73720981  1
  Nb  Nb13  1  0.98498555  0.26279019  0.39507106  1
  Nb  Nb14  1  0.98498555  0.23720981  0.10492894  1
  Nb  Nb15  1  0.48498555  0.60492894  0.76279019  1
  Nb  Nb16  1  0.23997853  0.05905640  0.53690956  1
  Nb  Nb17  1  0.73997853  0.46309044  0.55905640  1
  Nb  Nb18  1  0.73997853  0.03690956  0.94094360  1
  Nb  Nb19  1  0.23997853  0.44094360  0.96309044  1
  Nb  Nb20  1  0.76002147  0.94094360  0.46309044  1
  Nb  Nb21  1  0.26002147  0.53690956  0.44094360  1
  Nb  Nb22  1  0.26002147  0.96309044  0.05905640  1
  Nb  Nb23  1  0.76002147  0.55905640  0.03690956  1
  P  P24  1  0.01940944  0.04292003  0.27416545  1
  P  P25  1  0.51940944  0.72583455  0.54292003  1
  P  P26  1  0.51940944  0.77416545  0.95707997  1
  P  P27  1  0.01940944  0.45707997  0.22583455  1
  P  P28  1  0.98059056  0.95707997  0.72583455  1
  P  P29  1  0.48059056  0.27416545  0.45707997  1
  P  P30  1  0.48059056  0.22583455  0.04292003  1
  P  P31  1  0.98059056  0.54292003  0.77416545  1
