# generated using pymatgen
data_In2Te5
_symmetry_space_group_name_H-M   'P 1'
_cell_length_a   4.37797493
_cell_length_b   8.86301139
_cell_length_c   14.04781609
_cell_angle_alpha   89.64824513
_cell_angle_beta   88.45782304
_cell_angle_gamma   75.66460511
_symmetry_Int_Tables_number   1
_chemical_formula_structural   In2Te5
_chemical_formula_sum   'In4 Te10'
_cell_volume   527.92027742
_cell_formula_units_Z   2
loop_
 _symmetry_equiv_pos_site_id
 _symmetry_equiv_pos_as_xyz
  1  'x, y, z'
loop_
 _atom_site_type_symbol
 _atom_site_label
 _atom_site_symmetry_multiplicity
 _atom_site_fract_x
 _atom_site_fract_y
 _atom_site_fract_z
 _atom_site_occupancy
  In  In0  1  0.59699854  0.77009137  0.31010532  1
  In  In1  1  0.99712405  0.00322765  0.14380198  1
  In  In2  1  0.36441798  0.22987523  0.81033357  1
  In  In3  1  1.00049208  0.99678268  0.64354164  1
  Te  Te4  1  0.29363720  0.38760560  0.23215185  1
  Te  Te5  1  0.40163229  0.20350658  0.60308086  1
  Te  Te6  1  0.68006715  0.61249284  0.73187509  1
  Te  Te7  1  0.17988011  0.68721962  0.58508544  1
  Te  Te8  1  0.23051001  0.53494830  0.87663504  1
  Te  Te9  1  0.99343402  0.97552165  0.35202659  1
  Te  Te10  1  0.96697703  0.02408098  0.85173885  1
  Te  Te11  1  0.86774454  0.31263987  0.08545597  1
  Te  Te12  1  0.76497641  0.46536220  0.37673230  1
  Te  Te13  1  0.60630859  0.79664543  0.10283550  1
