# generated using pymatgen
data_PrPS4
_symmetry_space_group_name_H-M   'P 1'
_cell_length_a   11.09912097
_cell_length_b   11.09912096
_cell_length_c   12.52554340
_cell_angle_alpha   116.29925021
_cell_angle_beta   116.29925019
_cell_angle_gamma   90.00000001
_symmetry_Int_Tables_number   1
_chemical_formula_structural   PrPS4
_chemical_formula_sum   'Pr8 P8 S32'
_cell_volume   1202.56880701
_cell_formula_units_Z   8
loop_
 _symmetry_equiv_pos_site_id
 _symmetry_equiv_pos_as_xyz
  1  'x, y, z'
loop_
 _atom_site_type_symbol
 _atom_site_label
 _atom_site_symmetry_multiplicity
 _atom_site_fract_x
 _atom_site_fract_y
 _atom_site_fract_z
 _atom_site_occupancy
  P  P0  1  0.28714616  0.25000000  0.50000000  1
  P  P1  1  0.78714616  0.25000000  0.50000000  1
  P  P2  1  0.75000000  0.78714616  0.00000000  1
  P  P3  1  0.25000000  0.71285384  0.00000000  1
  P  P4  1  0.71285384  0.75000000  0.50000000  1
  P  P5  1  0.21285384  0.75000000  0.50000000  1
  P  P6  1  0.25000000  0.21285384  0.00000000  1
  P  P7  1  0.75000000  0.28714616  0.00000000  1
  S  S8  1  0.09207313  0.61321414  0.99741526  1
  S  S9  1  0.90534213  0.88420112  0.99741526  1
  S  S10  1  0.61321414  0.90534213  0.49741526  1
  S  S11  1  0.88420112  0.09207313  0.49741526  1
  S  S12  1  0.40792687  0.61579888  0.00258474  1
  S  S13  1  0.59465787  0.88678586  0.00258474  1
  S  S14  1  0.88678586  0.40792687  0.50258474  1
  S  S15  1  0.61579888  0.59465787  0.50258474  1
  S  S16  1  0.16144714  0.22850820  0.82562973  1
  S  S17  1  0.09712154  0.16144714  0.32562973  1
  S  S18  1  0.22850820  0.66418259  0.32562973  1
  S  S19  1  0.83581741  0.27149180  0.17437027  1
  S  S20  1  0.33855286  0.40287846  0.17437027  1
  S  S21  1  0.40287846  0.83581741  0.67437027  1
  S  S22  1  0.27149180  0.33855286  0.67437027  1
  S  S23  1  0.66418259  0.09712154  0.82562973  1
  S  S24  1  0.83855286  0.77149180  0.17437027  1
  S  S25  1  0.90287846  0.83855286  0.67437027  1
  S  S26  1  0.77149180  0.33581741  0.67437027  1
  S  S27  1  0.16418259  0.72850820  0.82562973  1
  S  S28  1  0.66144714  0.59712154  0.82562973  1
  S  S29  1  0.59712154  0.16418259  0.32562973  1
  S  S30  1  0.72850820  0.66144714  0.32562973  1
  S  S31  1  0.33581741  0.90287846  0.17437027  1
  S  S32  1  0.09465787  0.11579888  0.00258474  1
  S  S33  1  0.38678586  0.09465787  0.50258474  1
  S  S34  1  0.11579888  0.90792687  0.50258474  1
  S  S35  1  0.59207313  0.38420112  0.99741526  1
  S  S36  1  0.40534213  0.11321414  0.99741526  1
  S  S37  1  0.11321414  0.59207313  0.49741526  1
  S  S38  1  0.38420112  0.40534213  0.49741526  1
  S  S39  1  0.90792687  0.38678586  0.00258474  1
  Pr  Pr40  1  0.87500000  0.12500000  0.75000000  1
  Pr  Pr41  1  0.12500000  0.87500000  0.25000000  1
  Pr  Pr42  1  0.62500000  0.37500000  0.25000000  1
  Pr  Pr43  1  0.37500000  0.62500000  0.75000000  1
  Pr  Pr44  1  0.62500000  0.87500000  0.25000000  1
  Pr  Pr45  1  0.87500000  0.62500000  0.75000000  1
  Pr  Pr46  1  0.37500000  0.12500000  0.75000000  1
  Pr  Pr47  1  0.12500000  0.37500000  0.25000000  1
