# generated using pymatgen
data_Rb4SnSb6
_symmetry_space_group_name_H-M   'P 1'
_cell_length_a   15.30979540
_cell_length_b   15.30979537
_cell_length_c   14.74155391
_cell_angle_alpha   90.00000000
_cell_angle_beta   90.00000000
_cell_angle_gamma   120.00000003
_symmetry_Int_Tables_number   1
_chemical_formula_structural   Rb4SnSb6
_chemical_formula_sum   'Rb24 Sn6 Sb36'
_cell_volume   2992.35192842
_cell_formula_units_Z   6
loop_
 _symmetry_equiv_pos_site_id
 _symmetry_equiv_pos_as_xyz
  1  'x, y, z'
loop_
 _atom_site_type_symbol
 _atom_site_label
 _atom_site_symmetry_multiplicity
 _atom_site_fract_x
 _atom_site_fract_y
 _atom_site_fract_z
 _atom_site_occupancy
  Sb  Sb0  1  0.52042221  0.36359328  0.31601984  1
  Sb  Sb1  1  0.63640672  0.15682893  0.31601984  1
  Sb  Sb2  1  0.84317107  0.47957779  0.31601984  1
  Sb  Sb3  1  0.47957779  0.63640672  0.68398016  1
  Sb  Sb4  1  0.36359328  0.84317107  0.68398016  1
  Sb  Sb5  1  0.15682893  0.52042221  0.68398016  1
  Sn  Sn6  1  0.45468819  0.48980881  0.22937844  1
  Sn  Sn7  1  0.51019119  0.96487938  0.22937844  1
  Sn  Sn8  1  0.03512062  0.54531181  0.22937844  1
  Sn  Sn9  1  0.54531181  0.51019119  0.77062156  1
  Sn  Sn10  1  0.48980881  0.03512062  0.77062156  1
  Sn  Sn11  1  0.96487938  0.45468819  0.77062156  1
  Sb  Sb12  1  0.28437102  0.44002696  0.34576767  1
  Sb  Sb13  1  0.55997304  0.84434406  0.34576767  1
  Sb  Sb14  1  0.15565594  0.71562898  0.34576767  1
  Sb  Sb15  1  0.71562898  0.55997304  0.65423233  1
  Sb  Sb16  1  0.44002696  0.15565594  0.65423233  1
  Sb  Sb17  1  0.84434406  0.28437102  0.65423233  1
  Sb  Sb18  1  0.35619700  0.35805045  0.07746547  1
  Sb  Sb19  1  0.64194955  0.99814655  0.07746547  1
  Sb  Sb20  1  0.00185345  0.64380300  0.07746547  1
  Sb  Sb21  1  0.64380300  0.64194955  0.92253453  1
  Sb  Sb22  1  0.35805045  0.00185345  0.92253453  1
  Sb  Sb23  1  0.99814655  0.35619700  0.92253453  1
  Sb  Sb24  1  0.22747864  0.17524806  0.16331397  1
  Sb  Sb25  1  0.82475194  0.05223059  0.16331397  1
  Sb  Sb26  1  0.94776941  0.77252136  0.16331397  1
  Sb  Sb27  1  0.77252136  0.82475194  0.83668603  1
  Sb  Sb28  1  0.17524806  0.94776941  0.83668603  1
  Sb  Sb29  1  0.05223059  0.22747864  0.83668603  1
  Sb  Sb30  1  0.34116257  0.17969680  0.32834636  1
  Sb  Sb31  1  0.82030320  0.16146577  0.32834636  1
  Sb  Sb32  1  0.83853423  0.65883743  0.32834636  1
  Sb  Sb33  1  0.65883743  0.82030320  0.67165364  1
  Sb  Sb34  1  0.17969680  0.83853423  0.67165364  1
  Sb  Sb35  1  0.16146577  0.34116257  0.67165364  1
  Sb  Sb36  1  0.18015841  0.22961615  0.34278102  1
  Sb  Sb37  1  0.77038385  0.95054226  0.34278102  1
  Sb  Sb38  1  0.04945774  0.81984159  0.34278102  1
  Sb  Sb39  1  0.81984159  0.77038385  0.65721898  1
  Sb  Sb40  1  0.22961615  0.04945774  0.65721898  1
  Sb  Sb41  1  0.95054226  0.18015841  0.65721898  1
  Rb  Rb42  1  0.33333300  0.66666700  0.50048146  1
  Rb  Rb43  1  0.66666700  0.33333300  0.49951854  1
  Rb  Rb44  1  0.38656753  0.35623487  0.54556373  1
  Rb  Rb45  1  0.64376513  0.03033266  0.54556373  1
  Rb  Rb46  1  0.96966734  0.61343247  0.54556373  1
  Rb  Rb47  1  0.61343247  0.64376513  0.45443627  1
  Rb  Rb48  1  0.35623487  0.96966734  0.45443627  1
  Rb  Rb49  1  0.03033266  0.38656753  0.45443627  1
  Rb  Rb50  1  0.32888369  0.23271636  0.85132495  1
  Rb  Rb51  1  0.76728364  0.09616733  0.85132495  1
  Rb  Rb52  1  0.90383267  0.67111631  0.85132495  1
  Rb  Rb53  1  0.67111631  0.76728364  0.14867505  1
  Rb  Rb54  1  0.23271636  0.90383267  0.14867505  1
  Rb  Rb55  1  0.09616733  0.32888369  0.14867505  1
  Rb  Rb56  1  0.29755040  0.48358072  0.88103953  1
  Rb  Rb57  1  0.51641928  0.81396968  0.88103953  1
  Rb  Rb58  1  0.18603032  0.70244960  0.88103953  1
  Rb  Rb59  1  0.70244960  0.51641928  0.11896047  1
  Rb  Rb60  1  0.48358072  0.18603032  0.11896047  1
  Rb  Rb61  1  0.81396968  0.29755040  0.11896047  1
  Rb  Rb62  1  0.00000000  0.00000000  0.00000000  1
  Rb  Rb63  1  0.00000000  0.00000000  0.50000000  1
  Rb  Rb64  1  0.33333300  0.66666700  0.20424066  1
  Rb  Rb65  1  0.66666700  0.33333300  0.79575934  1
