# generated using pymatgen
data_Li6MnO4
_symmetry_space_group_name_H-M   'P 1'
_cell_length_a   6.71015527
_cell_length_b   6.71011494
_cell_length_c   4.73310856
_cell_angle_alpha   90.00020077
_cell_angle_beta   89.99999963
_cell_angle_gamma   90.00013090
_symmetry_Int_Tables_number   1
_chemical_formula_structural   Li6MnO4
_chemical_formula_sum   'Li12 Mn2 O8'
_cell_volume   213.11253484
_cell_formula_units_Z   2
loop_
 _symmetry_equiv_pos_site_id
 _symmetry_equiv_pos_as_xyz
  1  'x, y, z'
loop_
 _atom_site_type_symbol
 _atom_site_label
 _atom_site_symmetry_multiplicity
 _atom_site_fract_x
 _atom_site_fract_y
 _atom_site_fract_z
 _atom_site_occupancy
  Li  Li0  1  0.03449757  0.53450238  0.74998321  1
  Li  Li1  1  0.03451142  0.96552932  0.75002459  1
  Li  Li2  1  0.25001320  0.25001514  0.71279545  1
  Li  Li3  1  0.25000332  0.25000471  0.21279123  1
  Li  Li4  1  0.46553060  0.53450592  0.74998245  1
  Li  Li5  1  0.46552334  0.96551983  0.74997824  1
  Li  Li6  1  0.53450024  0.03450144  0.24998333  1
  Li  Li7  1  0.53450195  0.46551247  0.24998823  1
  Li  Li8  1  0.75000558  0.75000454  0.28722243  1
  Li  Li9  1  0.75001418  0.75001660  0.78721859  1
  Li  Li10  1  0.96550849  0.03449436  0.25001394  1
  Li  Li11  1  0.96551371  0.46551353  0.24998865  1
  Mn  Mn12  1  0.25001165  0.75000988  0.25001627  1
  Mn  Mn13  1  0.75000935  0.25000430  0.75002940  1
  O  O14  1  0.01658245  0.24999498  0.97280907  1
  O  O15  1  0.24999144  0.01658906  0.47279929  1
  O  O16  1  0.25001658  0.48342914  0.47279169  1
  O  O17  1  0.48342314  0.25001081  0.97279017  1
  O  O18  1  0.51658393  0.75001329  0.02719240  1
  O  O19  1  0.74999774  0.98343857  0.52719610  1
  O  O20  1  0.75000907  0.51657929  0.52719824  1
  O  O21  1  0.98343005  0.74999146  0.02720803  1
