# generated using pymatgen
data_Cs2Se5
_symmetry_space_group_name_H-M   'P 1'
_cell_length_a   7.32419801
_cell_length_b   7.67350704
_cell_length_c   19.49180141
_cell_angle_alpha   90.00000000
_cell_angle_beta   90.00000000
_cell_angle_gamma   90.00000000
_symmetry_Int_Tables_number   1
_chemical_formula_structural   Cs2Se5
_chemical_formula_sum   'Cs8 Se20'
_cell_volume   1095.48377785
_cell_formula_units_Z   4
loop_
 _symmetry_equiv_pos_site_id
 _symmetry_equiv_pos_as_xyz
  1  'x, y, z'
loop_
 _atom_site_type_symbol
 _atom_site_label
 _atom_site_symmetry_multiplicity
 _atom_site_fract_x
 _atom_site_fract_y
 _atom_site_fract_z
 _atom_site_occupancy
  Cs  Cs0  1  0.62206197  0.41721988  0.51253551  1
  Cs  Cs1  1  0.12206197  0.08278012  0.48746449  1
  Cs  Cs2  1  0.37793803  0.91721988  0.98746449  1
  Cs  Cs3  1  0.87793803  0.58278012  0.01253551  1
  Cs  Cs4  1  0.08017331  0.25043153  0.83759902  1
  Cs  Cs5  1  0.58017331  0.24956847  0.16240098  1
  Cs  Cs6  1  0.91982669  0.75043153  0.66240098  1
  Cs  Cs7  1  0.41982669  0.74956847  0.33759902  1
  Se  Se8  1  0.59818805  0.91916509  0.52193441  1
  Se  Se9  1  0.09818805  0.58083491  0.47806559  1
  Se  Se10  1  0.40181195  0.41916509  0.97806559  1
  Se  Se11  1  0.90181195  0.08083491  0.02193441  1
  Se  Se12  1  0.43421360  0.87121869  0.62408965  1
  Se  Se13  1  0.93421360  0.62878131  0.37591035  1
  Se  Se14  1  0.56578640  0.37121869  0.87591035  1
  Se  Se15  1  0.06578640  0.12878131  0.12408965  1
  Se  Se16  1  0.45538050  0.12103834  0.69759002  1
  Se  Se17  1  0.95538050  0.37896166  0.30240998  1
  Se  Se18  1  0.54461950  0.62103834  0.80240998  1
  Se  Se19  1  0.04461950  0.87896166  0.19759002  1
  Se  Se20  1  0.25447840  0.33925147  0.65073317  1
  Se  Se21  1  0.75447840  0.16074853  0.34926683  1
  Se  Se22  1  0.74552160  0.83925147  0.84926683  1
  Se  Se23  1  0.24552160  0.66074853  0.15073317  1
  Se  Se24  1  0.94819126  0.24595606  0.65743129  1
  Se  Se25  1  0.44819126  0.25404394  0.34256871  1
  Se  Se26  1  0.05180874  0.74595606  0.84256871  1
  Se  Se27  1  0.55180874  0.75404394  0.15743129  1
