# generated using pymatgen
data_Gd2Br3N
_symmetry_space_group_name_H-M   'P 1'
_cell_length_a   8.39989612
_cell_length_b   8.45896947
_cell_length_c   10.38388250
_cell_angle_alpha   106.79452770
_cell_angle_beta   104.36669562
_cell_angle_gamma   98.47095874
_symmetry_Int_Tables_number   1
_chemical_formula_structural   Gd2Br3N
_chemical_formula_sum   'Gd8 Br12 N4'
_cell_volume   664.90943589
_cell_formula_units_Z   4
loop_
 _symmetry_equiv_pos_site_id
 _symmetry_equiv_pos_as_xyz
  1  'x, y, z'
loop_
 _atom_site_type_symbol
 _atom_site_label
 _atom_site_symmetry_multiplicity
 _atom_site_fract_x
 _atom_site_fract_y
 _atom_site_fract_z
 _atom_site_occupancy
  Gd  Gd0  1  0.09960676  0.84229206  0.27094890  1
  Gd  Gd1  1  0.90039324  0.15770794  0.72905110  1
  Gd  Gd2  1  0.57413065  0.92000834  0.35922907  1
  Gd  Gd3  1  0.42586935  0.07999166  0.64077093  1
  Gd  Gd4  1  0.30034793  0.23966494  0.32254057  1
  Gd  Gd5  1  0.69965207  0.76033506  0.67745943  1
  Gd  Gd6  1  0.15293693  0.92145980  0.93981413  1
  Gd  Gd7  1  0.84706307  0.07854020  0.06018587  1
  Br  Br8  1  0.73442757  0.76376862  0.11990201  1
  Br  Br9  1  0.26557243  0.23623138  0.88009799  1
  Br  Br10  1  0.53207098  0.13962018  0.17274721  1
  Br  Br11  1  0.46792902  0.86037982  0.82725279  1
  Br  Br12  1  0.28227707  0.68838598  0.09249463  1
  Br  Br13  1  0.71772293  0.31161402  0.90750537  1
  Br  Br14  1  0.42695053  0.42518704  0.63118606  1
  Br  Br15  1  0.57304947  0.57481296  0.36881394  1
  Br  Br16  1  0.04550067  0.43706042  0.25183752  1
  Br  Br17  1  0.95449933  0.56293958  0.74816248  1
  Br  Br18  1  0.07922913  0.84371754  0.56058426  1
  Br  Br19  1  0.92077087  0.15628246  0.43941574  1
  N  N20  1  0.34842659  0.02270824  0.40531607  1
  N  N21  1  0.65157341  0.97729176  0.59468393  1
  N  N22  1  0.09855478  0.02719472  0.14732405  1
  N  N23  1  0.90144522  0.97280528  0.85267595  1
