# generated using pymatgen
data_Na6MnS4
_symmetry_space_group_name_H-M   'P 1'
_cell_length_a   9.00945714
_cell_length_b   9.00945714
_cell_length_c   6.98406863
_cell_angle_alpha   90.00000000
_cell_angle_beta   90.00000000
_cell_angle_gamma   119.99999999
_symmetry_Int_Tables_number   1
_chemical_formula_structural   Na6MnS4
_chemical_formula_sum   'Na12 Mn2 S8'
_cell_volume   490.94899731
_cell_formula_units_Z   2
loop_
 _symmetry_equiv_pos_site_id
 _symmetry_equiv_pos_as_xyz
  1  'x, y, z'
loop_
 _atom_site_type_symbol
 _atom_site_label
 _atom_site_symmetry_multiplicity
 _atom_site_fract_x
 _atom_site_fract_y
 _atom_site_fract_z
 _atom_site_occupancy
  Na  Na0  1  0.53264961  0.06529922  0.36789448  1
  Na  Na1  1  0.46735039  0.53264961  0.86789448  1
  Na  Na2  1  0.14660697  0.85339303  0.53636022  1
  Na  Na3  1  0.29321394  0.14660697  0.03636022  1
  Na  Na4  1  0.85339303  0.70678606  0.03636022  1
  Na  Na5  1  0.14660697  0.29321394  0.53636022  1
  Na  Na6  1  0.70678606  0.85339303  0.53636022  1
  Na  Na7  1  0.85339303  0.14660697  0.03636022  1
  Na  Na8  1  0.53264961  0.46735039  0.36789448  1
  Na  Na9  1  0.93470078  0.46735039  0.36789448  1
  Na  Na10  1  0.46735039  0.93470078  0.86789448  1
  Na  Na11  1  0.06529922  0.53264961  0.86789448  1
  S  S12  1  0.18688313  0.37376627  0.14269267  1
  S  S13  1  0.62623373  0.81311687  0.14269267  1
  S  S14  1  0.33333333  0.66666667  0.59577499  1
  S  S15  1  0.66666667  0.33333333  0.09577499  1
  S  S16  1  0.18688313  0.81311687  0.14269267  1
  S  S17  1  0.81311687  0.18688313  0.64269267  1
  S  S18  1  0.81311687  0.62623373  0.64269267  1
  S  S19  1  0.37376627  0.18688313  0.64269267  1
  Mn  Mn20  1  0.66666667  0.33333333  0.75088289  1
  Mn  Mn21  1  0.33333333  0.66666667  0.25088289  1
