# generated using pymatgen
data_Li4MnO3F
_symmetry_space_group_name_H-M   'P 1'
_cell_length_a   5.42276859
_cell_length_b   5.42276859
_cell_length_c   6.46028165
_cell_angle_alpha   90.00000000
_cell_angle_beta   90.00000000
_cell_angle_gamma   98.74844766
_symmetry_Int_Tables_number   1
_chemical_formula_structural   Li4MnO3F
_chemical_formula_sum   'Li8 Mn2 O6 F2'
_cell_volume   187.76352584
_cell_formula_units_Z   2
loop_
 _symmetry_equiv_pos_site_id
 _symmetry_equiv_pos_as_xyz
  1  'x, y, z'
loop_
 _atom_site_type_symbol
 _atom_site_label
 _atom_site_symmetry_multiplicity
 _atom_site_fract_x
 _atom_site_fract_y
 _atom_site_fract_z
 _atom_site_occupancy
  Li  Li0  1  0.16870617  0.84712725  0.49722746  1
  Li  Li1  1  0.15287275  0.83129383  0.99722746  1
  Li  Li2  1  0.57419508  0.88105288  0.23967293  1
  Li  Li3  1  0.11894712  0.42580492  0.73967293  1
  Li  Li4  1  0.88105288  0.57419508  0.23967293  1
  Li  Li5  1  0.42580492  0.11894712  0.73967293  1
  Li  Li6  1  0.83129383  0.15287275  0.99722746  1
  Li  Li7  1  0.84712725  0.16870617  0.49722746  1
  Mn  Mn8  1  0.36835787  0.36835787  0.28008677  1
  Mn  Mn9  1  0.63164213  0.63164213  0.78008677  1
  O  O10  1  0.32955364  0.75820091  0.75222553  1
  O  O11  1  0.24179909  0.67044636  0.25222553  1
  O  O12  1  0.78375891  0.78375891  0.01273483  1
  O  O13  1  0.21624109  0.21624109  0.51273483  1
  O  O14  1  0.67044636  0.24179909  0.25222553  1
  O  O15  1  0.75820091  0.32955364  0.75222553  1
  F  F16  1  0.20873472  0.20873472  0.97892557  1
  F  F17  1  0.79126528  0.79126528  0.47892557  1
