# generated using pymatgen
data_KP4N7
_symmetry_space_group_name_H-M   'P 1'
_cell_length_a   4.71025498
_cell_length_b   12.35929303
_cell_length_c   9.96342844
_cell_angle_alpha   90.00000000
_cell_angle_beta   90.00000000
_cell_angle_gamma   90.00000000
_symmetry_Int_Tables_number   1
_chemical_formula_structural   KP4N7
_chemical_formula_sum   'K4 P16 N28'
_cell_volume   580.02518666
_cell_formula_units_Z   4
loop_
 _symmetry_equiv_pos_site_id
 _symmetry_equiv_pos_as_xyz
  1  'x, y, z'
loop_
 _atom_site_type_symbol
 _atom_site_label
 _atom_site_symmetry_multiplicity
 _atom_site_fract_x
 _atom_site_fract_y
 _atom_site_fract_z
 _atom_site_occupancy
  K  K0  1  0.24243629  0.75000000  0.65078257  1
  K  K1  1  0.74243629  0.25000000  0.84921743  1
  K  K2  1  0.75756371  0.25000000  0.34921743  1
  K  K3  1  0.25756371  0.75000000  0.15078257  1
  P  P4  1  0.71043259  0.86969071  0.91184690  1
  P  P5  1  0.21043259  0.13030929  0.58815310  1
  P  P6  1  0.28956741  0.36969071  0.08815310  1
  P  P7  1  0.78956741  0.63030929  0.41184690  1
  P  P8  1  0.28956741  0.13030929  0.08815310  1
  P  P9  1  0.78956741  0.86969071  0.41184690  1
  P  P10  1  0.71043259  0.63030929  0.91184690  1
  P  P11  1  0.21043259  0.36969071  0.58815310  1
  P  P12  1  0.72014842  0.99970701  0.65707885  1
  P  P13  1  0.22014842  0.00029299  0.84292115  1
  P  P14  1  0.27985158  0.49970701  0.34292115  1
  P  P15  1  0.77985158  0.50029299  0.15707885  1
  P  P16  1  0.27985158  0.00029299  0.34292115  1
  P  P17  1  0.77985158  0.99970701  0.15707885  1
  P  P18  1  0.72014842  0.50029299  0.65707885  1
  P  P19  1  0.22014842  0.49970701  0.84292115  1
  N  N20  1  0.79607967  0.75000000  0.86914361  1
  N  N21  1  0.29607967  0.25000000  0.63085639  1
  N  N22  1  0.20392033  0.25000000  0.13085639  1
  N  N23  1  0.70392033  0.75000000  0.36914361  1
  N  N24  1  0.37954345  0.89278162  0.88518872  1
  N  N25  1  0.87954345  0.10721838  0.61481128  1
  N  N26  1  0.62045655  0.39278162  0.11481128  1
  N  N27  1  0.12045655  0.60721838  0.38518872  1
  N  N28  1  0.62045655  0.10721838  0.11481128  1
  N  N29  1  0.12045655  0.89278162  0.38518872  1
  N  N30  1  0.37954345  0.60721838  0.88518872  1
  N  N31  1  0.87954345  0.39278162  0.61481128  1
  N  N32  1  0.68643799  0.89755834  0.56159266  1
  N  N33  1  0.18643799  0.10244166  0.93840734  1
  N  N34  1  0.31356201  0.39755834  0.43840734  1
  N  N35  1  0.81356201  0.60244166  0.06159266  1
  N  N36  1  0.31356201  0.10244166  0.43840734  1
  N  N37  1  0.81356201  0.89755834  0.06159266  1
  N  N38  1  0.68643799  0.60244166  0.56159266  1
  N  N39  1  0.18643799  0.39755834  0.93840734  1
  N  N40  1  0.88136081  0.95776900  0.80173191  1
  N  N41  1  0.38136081  0.04223100  0.69826809  1
  N  N42  1  0.11863919  0.45776900  0.19826809  1
  N  N43  1  0.61863919  0.54223100  0.30173191  1
  N  N44  1  0.11863919  0.04223100  0.19826809  1
  N  N45  1  0.61863919  0.95776900  0.30173191  1
  N  N46  1  0.88136081  0.54223100  0.80173191  1
  N  N47  1  0.38136081  0.45776900  0.69826809  1
