# generated using pymatgen
data_BaY2O4
_symmetry_space_group_name_H-M   'P 1'
_cell_length_a   3.48858638
_cell_length_b   10.52326119
_cell_length_c   12.24543782
_cell_angle_alpha   90.00000000
_cell_angle_beta   90.00000000
_cell_angle_gamma   90.00000000
_symmetry_Int_Tables_number   1
_chemical_formula_structural   BaY2O4
_chemical_formula_sum   'Ba4 Y8 O16'
_cell_volume   449.54601076
_cell_formula_units_Z   4
loop_
 _symmetry_equiv_pos_site_id
 _symmetry_equiv_pos_as_xyz
  1  'x, y, z'
loop_
 _atom_site_type_symbol
 _atom_site_label
 _atom_site_symmetry_multiplicity
 _atom_site_fract_x
 _atom_site_fract_y
 _atom_site_fract_z
 _atom_site_occupancy
  O  O0  1  0.75000000  0.79076039  0.84086426  1
  O  O1  1  0.25000000  0.20923961  0.15913574  1
  O  O2  1  0.75000000  0.29076039  0.65913574  1
  O  O3  1  0.25000000  0.70923961  0.34086426  1
  O  O4  1  0.75000000  0.88433002  0.51846990  1
  O  O5  1  0.25000000  0.11566998  0.48153010  1
  O  O6  1  0.75000000  0.38433002  0.98153010  1
  O  O7  1  0.25000000  0.61566998  0.01846990  1
  O  O8  1  0.75000000  0.48104010  0.21708442  1
  O  O9  1  0.25000000  0.51895990  0.78291558  1
  O  O10  1  0.75000000  0.98104010  0.28291558  1
  O  O11  1  0.25000000  0.01895990  0.71708442  1
  O  O12  1  0.75000000  0.57096622  0.57412512  1
  O  O13  1  0.25000000  0.42903378  0.42587488  1
  O  O14  1  0.75000000  0.07096622  0.92587488  1
  O  O15  1  0.25000000  0.92903378  0.07412512  1
  Y  Y16  1  0.25000000  0.92659652  0.88906701  1
  Y  Y17  1  0.75000000  0.07340348  0.11093299  1
  Y  Y18  1  0.25000000  0.42659652  0.61093299  1
  Y  Y19  1  0.75000000  0.57340348  0.38906701  1
  Y  Y20  1  0.75000000  0.57775171  0.89098552  1
  Y  Y21  1  0.25000000  0.42224829  0.10901448  1
  Y  Y22  1  0.75000000  0.07775171  0.60901448  1
  Y  Y23  1  0.25000000  0.92224829  0.39098552  1
  Ba  Ba24  1  0.25000000  0.25341940  0.85105007  1
  Ba  Ba25  1  0.75000000  0.74658060  0.14894993  1
  Ba  Ba26  1  0.25000000  0.75341940  0.64894993  1
  Ba  Ba27  1  0.75000000  0.24658060  0.35105007  1
