# generated using pymatgen
data_LiCoSiO4
_symmetry_space_group_name_H-M   'P 1'
_cell_length_a   9.88455058
_cell_length_b   9.88455004
_cell_length_c   24.16783818
_cell_angle_alpha   90.00000000
_cell_angle_beta   90.00000000
_cell_angle_gamma   120.00000089
_symmetry_Int_Tables_number   1
_chemical_formula_structural   LiCoSiO4
_chemical_formula_sum   'Li24 Co24 Si24 O96'
_cell_volume   2044.94797849
_cell_formula_units_Z   24
loop_
 _symmetry_equiv_pos_site_id
 _symmetry_equiv_pos_as_xyz
  1  'x, y, z'
loop_
 _atom_site_type_symbol
 _atom_site_label
 _atom_site_symmetry_multiplicity
 _atom_site_fract_x
 _atom_site_fract_y
 _atom_site_fract_z
 _atom_site_occupancy
  Li  Li0  1  0.02280739  0.97422582  0.69549394  1
  Li  Li1  1  0.03513910  0.58438657  0.03537560  1
  Li  Li2  1  0.05936898  0.45641005  0.19190208  1
  Li  Li3  1  0.05160701  0.47452223  0.84757224  1
  Li  Li4  1  0.39704007  0.94063102  0.85856808  1
  Li  Li5  1  0.42291523  0.94839299  0.51423824  1
  Li  Li6  1  0.02577418  0.04858057  0.02882794  1
  Li  Li7  1  0.04858057  0.02280739  0.86216094  1
  Li  Li8  1  0.54924747  0.96486090  0.70204260  1
  Li  Li9  1  0.41561343  0.45075253  0.36870960  1
  Li  Li10  1  0.52547777  0.57708477  0.18090524  1
  Li  Li11  1  0.54358995  0.60295993  0.52523508  1
  Li  Li12  1  0.45641005  0.39704007  0.02523508  1
  Li  Li13  1  0.47452223  0.42291523  0.68090524  1
  Li  Li14  1  0.58438657  0.54924747  0.86870960  1
  Li  Li15  1  0.45075253  0.03513910  0.20204260  1
  Li  Li16  1  0.95141943  0.97719261  0.36216094  1
  Li  Li17  1  0.97422582  0.95141943  0.52882794  1
  Li  Li18  1  0.57708477  0.05160701  0.01423824  1
  Li  Li19  1  0.60295993  0.05936898  0.35856808  1
  Li  Li20  1  0.94839299  0.52547777  0.34757224  1
  Li  Li21  1  0.94063102  0.54358995  0.69190208  1
  Li  Li22  1  0.96486090  0.41561343  0.53537560  1
  Li  Li23  1  0.97719261  0.02577418  0.19549394  1
  Co  Co24  1  0.09814807  0.82034476  0.27090750  1
  Co  Co25  1  0.08094096  0.75204088  0.91657021  1
  Co  Co26  1  0.11623581  0.74250027  0.59290519  1
  Co  Co27  1  0.30504464  0.66558831  0.75477407  1
  Co  Co28  1  0.33441169  0.63945732  0.08810807  1
  Co  Co29  1  0.36054268  0.69495536  0.42144107  1
  Co  Co30  1  0.17965524  0.27780232  0.60424050  1
  Co  Co31  1  0.25749973  0.37373555  0.92623819  1
  Co  Co32  1  0.24795912  0.32889908  0.24990421  1
  Co  Co33  1  0.62626445  0.88376419  0.25957119  1
  Co  Co34  1  0.67110092  0.91905904  0.58323721  1
  Co  Co35  1  0.27780232  0.09814807  0.43757450  1
  Co  Co36  1  0.72219768  0.90185193  0.93757450  1
  Co  Co37  1  0.32889908  0.08094096  0.08323721  1
  Co  Co38  1  0.37373555  0.11623581  0.75957219  1
  Co  Co39  1  0.75204088  0.67110092  0.74990421  1
  Co  Co40  1  0.74250027  0.62626445  0.42623819  1
  Co  Co41  1  0.82034476  0.72219768  0.10424050  1
  Co  Co42  1  0.63945732  0.30504464  0.92144107  1
  Co  Co43  1  0.66558831  0.36054268  0.58810807  1
  Co  Co44  1  0.69495536  0.33441169  0.25477407  1
  Co  Co45  1  0.88376419  0.25749973  0.09290519  1
  Co  Co46  1  0.91905904  0.24795912  0.41657021  1
  Co  Co47  1  0.90185193  0.17965524  0.77090750  1
  Si  Si48  1  0.08639191  0.78389446  0.78820493  1
  Si  Si49  1  0.07486745  0.75025741  0.46659624  1
  Si  Si50  1  0.13566372  0.77063424  0.14157492  1
  Si  Si51  1  0.27839133  0.64463660  0.29666267  1
  Si  Si52  1  0.36624527  0.72160867  0.96332967  1
  Si  Si53  1  0.35536340  0.63375473  0.62999667  1
  Si  Si54  1  0.22936576  0.36503049  0.47490892  1
  Si  Si55  1  0.21610554  0.30249745  0.12153793  1
  Si  Si56  1  0.24974259  0.32461004  0.79992924  1
  Si  Si57  1  0.63496951  0.86433628  0.80824192  1
  Si  Si58  1  0.67538996  0.92513255  0.13326224  1
  Si  Si59  1  0.69750255  0.91360809  0.45487093  1
  Si  Si60  1  0.30249745  0.08639191  0.95487093  1
  Si  Si61  1  0.32461004  0.07486745  0.63326224  1
  Si  Si62  1  0.36503049  0.13566372  0.30824192  1
  Si  Si63  1  0.75025741  0.67538996  0.29992924  1
  Si  Si64  1  0.78389446  0.69750255  0.62153793  1
  Si  Si65  1  0.77063424  0.63496951  0.97490892  1
  Si  Si66  1  0.64463660  0.36624527  0.12999667  1
  Si  Si67  1  0.63375473  0.27839133  0.46332967  1
  Si  Si68  1  0.72160867  0.35536340  0.79666267  1
  Si  Si69  1  0.86433628  0.22936576  0.64157492  1
  Si  Si70  1  0.92513255  0.24974259  0.96659624  1
  Si  Si71  1  0.91360809  0.21610554  0.28820493  1
  O  O72  1  0.02260866  0.76183262  0.08981157  1
  O  O73  1  0.09902983  0.92839601  0.47146946  1
  O  O74  1  0.02027595  0.67662034  0.84499615  1
  O  O75  1  0.13359238  0.96260902  0.92611640  1
  O  O76  1  0.03945779  0.75017247  0.19870943  1
  O  O77  1  0.00961262  0.66133497  0.52641111  1
  O  O78  1  0.23741634  0.95325856  0.80670767  1
  O  O79  1  0.12897929  0.67192767  0.30639507  1
  O  O80  1  0.12481979  0.68033580  0.74461737  1
  O  O81  1  0.29600058  0.94482732  0.58498420  1
  O  O82  1  0.30162525  0.94004883  0.13837358  1
  O  O83  1  0.17492035  0.62823505  0.13510494  1
  O  O84  1  0.24908832  0.77103042  0.45714508  1
  O  O85  1  0.18767011  0.60910573  0.60830140  1
  O  O86  1  0.05995117  0.36157642  0.47170758  1
  O  O87  1  0.27686212  0.76764160  0.91596638  1
  O  O88  1  0.05517268  0.35117226  0.91831820  1
  O  O89  1  0.04674144  0.28415779  0.14004067  1
  O  O90  1  0.03739098  0.17098336  0.25944940  1
  O  O91  1  0.07160399  0.17063382  0.80480346  1
  O  O92  1  0.26593776  0.67619135  0.02129559  1
  O  O93  1  0.23235840  0.50922151  0.24929938  1
  O  O94  1  0.32380865  0.58974641  0.35462959  1
  O  O95  1  0.22896958  0.47805690  0.79047808  1
  O  O96  1  0.41025359  0.73406224  0.68796259  1
  O  O97  1  0.42143562  0.81232989  0.27496740  1
  O  O98  1  0.45331570  0.82507965  0.80177194  1
  O  O99  1  0.31966420  0.44448400  0.07795037  1
  O  O100  1  0.32807233  0.45705262  0.63972807  1
  O  O101  1  0.37176495  0.54668430  0.46843894  1
  O  O102  1  0.24982753  0.28928432  0.53204343  1
  O  O103  1  0.39089427  0.57856438  0.94163440  1
  O  O104  1  0.49077849  0.72313788  0.58263238  1
  O  O105  1  0.54294738  0.87102071  0.97306207  1
  O  O106  1  0.55551600  0.87518021  0.41128437  1
  O  O107  1  0.17098336  0.13359238  0.09278240  1
  O  O108  1  0.23816738  0.26077704  0.42314457  1
  O  O109  1  0.32337966  0.34365561  0.17832915  1
  O  O110  1  0.17063382  0.09902983  0.63813646  1
  O  O111  1  0.33866503  0.34827865  0.85974411  1
  O  O112  1  0.52194310  0.75091168  0.12381108  1
  O  O113  1  0.28415779  0.23741634  0.97337467  1
  O  O114  1  0.65172135  0.99038738  0.19307811  1
  O  O115  1  0.35117226  0.29600058  0.75165120  1
  O  O116  1  0.36157642  0.30162525  0.30504058  1
  O  O117  1  0.65634439  0.97972405  0.51166315  1
  O  O118  1  0.71071568  0.96054221  0.86537643  1
  O  O119  1  0.26077704  0.02260866  0.25647857  1
  O  O120  1  0.73922296  0.97739134  0.75647857  1
  O  O121  1  0.28928432  0.03945779  0.36537643  1
  O  O122  1  0.34365561  0.02027595  0.01166315  1
  O  O123  1  0.63842358  0.69837475  0.80504058  1
  O  O124  1  0.64882774  0.70399942  0.25165120  1
  O  O125  1  0.34827865  0.00961262  0.69307811  1
  O  O126  1  0.71584221  0.76258366  0.47337467  1
  O  O127  1  0.47805690  0.24908832  0.62381108  1
  O  O128  1  0.66133497  0.65172135  0.35974411  1
  O  O129  1  0.82936618  0.90097017  0.13813646  1
  O  O130  1  0.67662034  0.65634439  0.67832915  1
  O  O131  1  0.76183262  0.73922296  0.92314457  1
  O  O132  1  0.82901664  0.86640762  0.59278240  1
  O  O133  1  0.44448400  0.12481979  0.91128437  1
  O  O134  1  0.45705262  0.12897929  0.47306207  1
  O  O135  1  0.50922151  0.27686212  0.08263238  1
  O  O136  1  0.60910573  0.42143562  0.44163440  1
  O  O137  1  0.75017247  0.71071568  0.03204343  1
  O  O138  1  0.62823505  0.45331570  0.96843894  1
  O  O139  1  0.67192767  0.54294738  0.13972807  1
  O  O140  1  0.68033580  0.55551600  0.57795037  1
  O  O141  1  0.54668430  0.17492035  0.30177194  1
  O  O142  1  0.57856438  0.18767011  0.77496740  1
  O  O143  1  0.58974641  0.26593776  0.18796259  1
  O  O144  1  0.77103042  0.52194310  0.29047808  1
  O  O145  1  0.67619135  0.41025359  0.85462959  1
  O  O146  1  0.76764160  0.49077849  0.74929938  1
  O  O147  1  0.73406224  0.32380865  0.52129559  1
  O  O148  1  0.92839601  0.82936618  0.30480346  1
  O  O149  1  0.96260902  0.82901664  0.75944940  1
  O  O150  1  0.95325856  0.71584221  0.64004067  1
  O  O151  1  0.94482732  0.64882774  0.41831820  1
  O  O152  1  0.72313788  0.23235840  0.41596638  1
  O  O153  1  0.94004883  0.63842358  0.97170758  1
  O  O154  1  0.81232989  0.39089427  0.10830140  1
  O  O155  1  0.75091168  0.22896958  0.95714508  1
  O  O156  1  0.82507965  0.37176495  0.63510494  1
  O  O157  1  0.69837475  0.05995117  0.63837358  1
  O  O158  1  0.70399942  0.05517268  0.08498420  1
  O  O159  1  0.87518021  0.31966420  0.24461737  1
  O  O160  1  0.87102071  0.32807233  0.80639507  1
  O  O161  1  0.76258366  0.04674144  0.30670767  1
  O  O162  1  0.99038738  0.33866503  0.02641111  1
  O  O163  1  0.96054221  0.24982753  0.69870943  1
  O  O164  1  0.86640762  0.03739098  0.42611640  1
  O  O165  1  0.97972405  0.32337966  0.34499615  1
  O  O166  1  0.90097017  0.07160399  0.97146946  1
  O  O167  1  0.97739134  0.23816738  0.58981157  1
