# generated using pymatgen
data_Th(Re2Si)2
_symmetry_space_group_name_H-M   'P 1'
_cell_length_a   4.17274661
_cell_length_b   7.28461885
_cell_length_c   15.65862820
_cell_angle_alpha   90.00000000
_cell_angle_beta   90.00000000
_cell_angle_gamma   90.00000000
_symmetry_Int_Tables_number   1
_chemical_formula_structural   Th(Re2Si)2
_chemical_formula_sum   'Th4 Re16 Si8'
_cell_volume   475.97326403
_cell_formula_units_Z   4
loop_
 _symmetry_equiv_pos_site_id
 _symmetry_equiv_pos_as_xyz
  1  'x, y, z'
loop_
 _atom_site_type_symbol
 _atom_site_label
 _atom_site_symmetry_multiplicity
 _atom_site_fract_x
 _atom_site_fract_y
 _atom_site_fract_z
 _atom_site_occupancy
  Th  Th0  1  0.00000000  0.58511049  0.11811187  1
  Th  Th1  1  0.00000000  0.41488951  0.88188813  1
  Th  Th2  1  0.50000000  0.08511049  0.38188813  1
  Th  Th3  1  0.50000000  0.91488951  0.61811187  1
  Re  Re4  1  0.00000000  0.14251345  0.05078466  1
  Re  Re5  1  0.00000000  0.85748655  0.94921534  1
  Re  Re6  1  0.50000000  0.64251345  0.44921534  1
  Re  Re7  1  0.50000000  0.35748655  0.55078466  1
  Re  Re8  1  0.00000000  0.73871524  0.32168502  1
  Re  Re9  1  0.00000000  0.26128476  0.67831498  1
  Re  Re10  1  0.50000000  0.23871524  0.17831498  1
  Re  Re11  1  0.50000000  0.76128476  0.82168502  1
  Re  Re12  1  0.00000000  0.42935763  0.41913859  1
  Re  Re13  1  0.00000000  0.57064237  0.58086141  1
  Re  Re14  1  0.50000000  0.92935763  0.08086141  1
  Re  Re15  1  0.50000000  0.07064237  0.91913859  1
  Re  Re16  1  0.00000000  0.99579008  0.20570719  1
  Re  Re17  1  0.00000000  0.00420992  0.79429281  1
  Re  Re18  1  0.50000000  0.49579008  0.29429281  1
  Re  Re19  1  0.50000000  0.50420992  0.70570719  1
  Si  Si20  1  0.00000000  0.82874871  0.47536065  1
  Si  Si21  1  0.00000000  0.17125129  0.52463935  1
  Si  Si22  1  0.50000000  0.32874871  0.02463935  1
  Si  Si23  1  0.50000000  0.67125129  0.97536065  1
  Si  Si24  1  0.00000000  0.30180449  0.27242192  1
  Si  Si25  1  0.00000000  0.69819551  0.72757808  1
  Si  Si26  1  0.50000000  0.80180449  0.22757808  1
  Si  Si27  1  0.50000000  0.19819551  0.77242192  1
