# generated using pymatgen
data_Np(BH4)4
_symmetry_space_group_name_H-M   'P 1'
_cell_length_a   6.28437863
_cell_length_b   8.74357267
_cell_length_c   8.74357267
_cell_angle_alpha   90.00000000
_cell_angle_beta   90.00000000
_cell_angle_gamma   90.00000000
_symmetry_Int_Tables_number   1
_chemical_formula_structural   Np(BH4)4
_chemical_formula_sum   'Np2 B8 H32'
_cell_volume   480.44114240
_cell_formula_units_Z   2
loop_
 _symmetry_equiv_pos_site_id
 _symmetry_equiv_pos_as_xyz
  1  'x, y, z'
loop_
 _atom_site_type_symbol
 _atom_site_label
 _atom_site_symmetry_multiplicity
 _atom_site_fract_x
 _atom_site_fract_y
 _atom_site_fract_z
 _atom_site_occupancy
  Np  Np0  1  0.00000000  0.00000000  0.00000000  1
  Np  Np1  1  0.50000000  0.50000000  0.50000000  1
  B  B2  1  0.22653496  0.00000000  0.22941817  1
  B  B3  1  0.72653496  0.27058183  0.50000000  1
  B  B4  1  0.72653496  0.72941817  0.50000000  1
  B  B5  1  0.22653496  0.00000000  0.77058183  1
  B  B6  1  0.27346504  0.50000000  0.27058183  1
  B  B7  1  0.27346504  0.50000000  0.72941817  1
  B  B8  1  0.77346504  0.22941817  0.00000000  1
  B  B9  1  0.77346504  0.77058183  0.00000000  1
  H  H10  1  0.33888172  0.00000000  0.33991471  1
  H  H11  1  0.83888172  0.16008529  0.50000000  1
  H  H12  1  0.83888172  0.83991471  0.50000000  1
  H  H13  1  0.33888172  0.00000000  0.66008529  1
  H  H14  1  0.16111828  0.50000000  0.16008529  1
  H  H15  1  0.16111828  0.50000000  0.83991471  1
  H  H16  1  0.66111828  0.33991471  0.00000000  1
  H  H17  1  0.66111828  0.66008529  0.00000000  1
  H  H18  1  0.03013024  0.00000000  0.25762112  1
  H  H19  1  0.53013024  0.24237888  0.50000000  1
  H  H20  1  0.53013024  0.75762112  0.50000000  1
  H  H21  1  0.03013024  0.00000000  0.74237888  1
  H  H22  1  0.46986976  0.50000000  0.24237888  1
  H  H23  1  0.46986976  0.50000000  0.75762112  1
  H  H24  1  0.96986976  0.25762112  0.00000000  1
  H  H25  1  0.96986976  0.74237888  0.00000000  1
  H  H26  1  0.25191320  0.11361901  0.14287479  1
  H  H27  1  0.75191320  0.35712521  0.61361901  1
  H  H28  1  0.75191320  0.64287479  0.38638099  1
  H  H29  1  0.25191320  0.88638099  0.85712521  1
  H  H30  1  0.24808680  0.61361901  0.35712521  1
  H  H31  1  0.24808680  0.38638099  0.64287479  1
  H  H32  1  0.74808680  0.14287479  0.11361901  1
  H  H33  1  0.74808680  0.85712521  0.88638099  1
  H  H34  1  0.24808680  0.38638099  0.35712521  1
  H  H35  1  0.74808680  0.14287479  0.88638099  1
  H  H36  1  0.74808680  0.85712521  0.11361901  1
  H  H37  1  0.24808680  0.61361901  0.64287479  1
  H  H38  1  0.25191320  0.88638099  0.14287479  1
  H  H39  1  0.25191320  0.11361901  0.85712521  1
  H  H40  1  0.75191320  0.35712521  0.38638099  1
  H  H41  1  0.75191320  0.64287479  0.61361901  1
