# generated using pymatgen
data_Na4Ga3Si3B(HO3)4
_symmetry_space_group_name_H-M   'P 1'
_cell_length_a   9.04077794
_cell_length_b   9.04077794
_cell_length_c   9.04077794
_cell_angle_alpha   90.00000000
_cell_angle_beta   90.00000000
_cell_angle_gamma   90.00000000
_symmetry_Int_Tables_number   1
_chemical_formula_structural   Na4Ga3Si3B(HO3)4
_chemical_formula_sum   'Na8 Ga6 Si6 B2 H8 O24'
_cell_volume   738.95400392
_cell_formula_units_Z   2
loop_
 _symmetry_equiv_pos_site_id
 _symmetry_equiv_pos_as_xyz
  1  'x, y, z'
loop_
 _atom_site_type_symbol
 _atom_site_label
 _atom_site_symmetry_multiplicity
 _atom_site_fract_x
 _atom_site_fract_y
 _atom_site_fract_z
 _atom_site_occupancy
  B  B0  1  0.00000000  0.00000000  0.00000000  1
  B  B1  1  0.50000000  0.50000000  0.50000000  1
  Ga  Ga2  1  0.75000000  0.00000000  0.50000000  1
  Ga  Ga3  1  0.00000000  0.50000000  0.75000000  1
  Ga  Ga4  1  0.25000000  0.00000000  0.50000000  1
  Ga  Ga5  1  0.50000000  0.25000000  0.00000000  1
  Ga  Ga6  1  0.50000000  0.75000000  0.00000000  1
  Ga  Ga7  1  0.00000000  0.50000000  0.25000000  1
  H  H8  1  0.57851341  0.57851341  0.42148659  1
  H  H9  1  0.57851341  0.42148659  0.57851341  1
  H  H10  1  0.07851341  0.07851341  0.92148659  1
  H  H11  1  0.07851341  0.92148659  0.07851341  1
  H  H12  1  0.42148659  0.57851341  0.57851341  1
  H  H13  1  0.42148659  0.42148659  0.42148659  1
  H  H14  1  0.92148659  0.92148659  0.92148659  1
  H  H15  1  0.92148659  0.07851341  0.07851341  1
  Na  Na16  1  0.82788112  0.82788112  0.17211888  1
  Na  Na17  1  0.82788112  0.17211888  0.82788112  1
  Na  Na18  1  0.17211888  0.82788112  0.82788112  1
  Na  Na19  1  0.17211888  0.17211888  0.17211888  1
  Na  Na20  1  0.32788112  0.32788112  0.67211888  1
  Na  Na21  1  0.32788112  0.67211888  0.32788112  1
  Na  Na22  1  0.67211888  0.32788112  0.32788112  1
  Na  Na23  1  0.67211888  0.67211888  0.67211888  1
  O  O24  1  0.57360252  0.86601761  0.15120316  1
  O  O25  1  0.57360252  0.13398239  0.84879684  1
  O  O26  1  0.84879684  0.57360252  0.13398239  1
  O  O27  1  0.84879684  0.42639748  0.86601761  1
  O  O28  1  0.86601761  0.15120316  0.57360252  1
  O  O29  1  0.86601761  0.84879684  0.42639748  1
  O  O30  1  0.07360252  0.34879684  0.63398239  1
  O  O31  1  0.07360252  0.65120316  0.36601761  1
  O  O32  1  0.13398239  0.84879684  0.57360252  1
  O  O33  1  0.13398239  0.15120316  0.42639748  1
  O  O34  1  0.15120316  0.57360252  0.86601761  1
  O  O35  1  0.15120316  0.42639748  0.13398239  1
  O  O36  1  0.34879684  0.36601761  0.92639748  1
  O  O37  1  0.34879684  0.63398239  0.07360252  1
  O  O38  1  0.36601761  0.07360252  0.65120316  1
  O  O39  1  0.36601761  0.92639748  0.34879684  1
  O  O40  1  0.42639748  0.86601761  0.84879684  1
  O  O41  1  0.42639748  0.13398239  0.15120316  1
  O  O42  1  0.63398239  0.07360252  0.34879684  1
  O  O43  1  0.63398239  0.92639748  0.65120316  1
  O  O44  1  0.65120316  0.36601761  0.07360252  1
  O  O45  1  0.65120316  0.63398239  0.92639748  1
  O  O46  1  0.92639748  0.34879684  0.36601761  1
  O  O47  1  0.92639748  0.65120316  0.63398239  1
  Si  Si48  1  0.75000000  0.50000000  0.00000000  1
  Si  Si49  1  0.00000000  0.75000000  0.50000000  1
  Si  Si50  1  0.25000000  0.50000000  0.00000000  1
  Si  Si51  1  0.50000000  0.00000000  0.25000000  1
  Si  Si52  1  0.50000000  0.00000000  0.75000000  1
  Si  Si53  1  0.00000000  0.25000000  0.50000000  1
