# generated using pymatgen
data_K2LiInAs2
_symmetry_space_group_name_H-M   'P 1'
_cell_length_a   6.45444505
_cell_length_b   10.23677467
_cell_length_c   10.23677434
_cell_angle_alpha   100.99963490
_cell_angle_beta   90.00000000
_cell_angle_gamma   90.00000000
_symmetry_Int_Tables_number   1
_chemical_formula_structural   K2LiInAs2
_chemical_formula_sum   'K8 Li4 In4 As8'
_cell_volume   663.94529221
_cell_formula_units_Z   4
loop_
 _symmetry_equiv_pos_site_id
 _symmetry_equiv_pos_as_xyz
  1  'x, y, z'
loop_
 _atom_site_type_symbol
 _atom_site_label
 _atom_site_symmetry_multiplicity
 _atom_site_fract_x
 _atom_site_fract_y
 _atom_site_fract_z
 _atom_site_occupancy
  K  K0  1  0.75000000  0.42629877  0.07370123  1
  K  K1  1  0.25000000  0.07370123  0.42629877  1
  K  K2  1  0.25000000  0.57370123  0.92629877  1
  K  K3  1  0.75000000  0.92629877  0.57370123  1
  K  K4  1  0.77569312  0.32673134  0.67326866  1
  K  K5  1  0.27569312  0.17326866  0.82673134  1
  K  K6  1  0.22430688  0.67326866  0.32673134  1
  K  K7  1  0.72430688  0.82673134  0.17326866  1
  As  As8  1  0.75000000  0.64909055  0.85090945  1
  As  As9  1  0.25000000  0.85090945  0.64909055  1
  As  As10  1  0.25000000  0.35090945  0.14909055  1
  As  As11  1  0.75000000  0.14909055  0.35090945  1
  As  As12  1  0.76928855  0.09800679  0.90199321  1
  As  As13  1  0.26928855  0.40199321  0.59800679  1
  As  As14  1  0.23071145  0.90199321  0.09800679  1
  As  As15  1  0.73071145  0.59800679  0.40199321  1
  In  In16  1  0.00000000  0.13152675  0.13152675  1
  In  In17  1  0.50000000  0.36847325  0.36847325  1
  In  In18  1  0.00000000  0.86847325  0.86847325  1
  In  In19  1  0.50000000  0.63152675  0.63152675  1
  Li  Li20  1  0.00000000  0.37965930  0.37965930  1
  Li  Li21  1  0.50000000  0.12034070  0.12034070  1
  Li  Li22  1  0.00000000  0.62034070  0.62034070  1
  Li  Li23  1  0.50000000  0.87965930  0.87965930  1
