# generated using pymatgen
data_SmGePt
_symmetry_space_group_name_H-M   'P 1'
_cell_length_a   4.45630410
_cell_length_b   7.66142828
_cell_length_c   14.44398205
_cell_angle_alpha   90.00000000
_cell_angle_beta   90.00000000
_cell_angle_gamma   90.00000000
_symmetry_Int_Tables_number   1
_chemical_formula_structural   SmGePt
_chemical_formula_sum   'Sm8 Ge8 Pt8'
_cell_volume   493.14144123
_cell_formula_units_Z   8
loop_
 _symmetry_equiv_pos_site_id
 _symmetry_equiv_pos_as_xyz
  1  'x, y, z'
loop_
 _atom_site_type_symbol
 _atom_site_label
 _atom_site_symmetry_multiplicity
 _atom_site_fract_x
 _atom_site_fract_y
 _atom_site_fract_z
 _atom_site_occupancy
  Sm  Sm0  1  0.75000000  0.20918487  0.99789488  1
  Sm  Sm1  1  0.25000000  0.79081513  0.00210512  1
  Sm  Sm2  1  0.75000000  0.20918487  0.50210512  1
  Sm  Sm3  1  0.25000000  0.79081513  0.49789488  1
  Sm  Sm4  1  0.75000000  0.29219742  0.25000000  1
  Sm  Sm5  1  0.25000000  0.70780258  0.75000000  1
  Sm  Sm6  1  0.75000000  0.29511326  0.75000000  1
  Sm  Sm7  1  0.25000000  0.70488674  0.25000000  1
  Pt  Pt8  1  0.75000000  0.92045670  0.85859716  1
  Pt  Pt9  1  0.25000000  0.07954330  0.14140284  1
  Pt  Pt10  1  0.75000000  0.92045670  0.64140284  1
  Pt  Pt11  1  0.25000000  0.07954330  0.35859716  1
  Pt  Pt12  1  0.75000000  0.58281821  0.40177516  1
  Pt  Pt13  1  0.25000000  0.41718179  0.59822484  1
  Pt  Pt14  1  0.75000000  0.58281821  0.09822484  1
  Pt  Pt15  1  0.25000000  0.41718179  0.90177516  1
  Ge  Ge16  1  0.75000000  0.58938355  0.89911185  1
  Ge  Ge17  1  0.25000000  0.41061645  0.10088815  1
  Ge  Ge18  1  0.75000000  0.58938355  0.60088815  1
  Ge  Ge19  1  0.25000000  0.41061645  0.39911185  1
  Ge  Ge20  1  0.75000000  0.91119952  0.34533246  1
  Ge  Ge21  1  0.25000000  0.08880048  0.65466754  1
  Ge  Ge22  1  0.75000000  0.91119952  0.15466754  1
  Ge  Ge23  1  0.25000000  0.08880048  0.84533246  1
