# generated using pymatgen
data_Ba2ReO5
_symmetry_space_group_name_H-M   'P 1'
_cell_length_a   5.75669448
_cell_length_b   7.45428790
_cell_length_c   11.72035135
_cell_angle_alpha   90.00000000
_cell_angle_beta   90.00000000
_cell_angle_gamma   90.00000000
_symmetry_Int_Tables_number   1
_chemical_formula_structural   Ba2ReO5
_chemical_formula_sum   'Ba8 Re4 O20'
_cell_volume   502.94439698
_cell_formula_units_Z   4
loop_
 _symmetry_equiv_pos_site_id
 _symmetry_equiv_pos_as_xyz
  1  'x, y, z'
loop_
 _atom_site_type_symbol
 _atom_site_label
 _atom_site_symmetry_multiplicity
 _atom_site_fract_x
 _atom_site_fract_y
 _atom_site_fract_z
 _atom_site_occupancy
  Ba  Ba0  1  0.75000000  0.97761575  0.78519399  1
  Ba  Ba1  1  0.25000000  0.02238425  0.21480601  1
  Ba  Ba2  1  0.75000000  0.47761575  0.71480601  1
  Ba  Ba3  1  0.25000000  0.52238425  0.28519399  1
  Ba  Ba4  1  0.75000000  0.66499400  0.08030454  1
  Ba  Ba5  1  0.25000000  0.33500600  0.91969546  1
  Ba  Ba6  1  0.75000000  0.16499400  0.41969546  1
  Ba  Ba7  1  0.25000000  0.83500600  0.58030454  1
  Re  Re8  1  0.75000000  0.66884605  0.43725712  1
  Re  Re9  1  0.25000000  0.33115395  0.56274288  1
  Re  Re10  1  0.75000000  0.16884605  0.06274288  1
  Re  Re11  1  0.25000000  0.83115395  0.93725712  1
  O  O12  1  0.01228671  0.67788822  0.88497034  1
  O  O13  1  0.51228671  0.32211178  0.11502966  1
  O  O14  1  0.48771329  0.17788822  0.61502966  1
  O  O15  1  0.98771329  0.82211178  0.38497034  1
  O  O16  1  0.98771329  0.32211178  0.11502966  1
  O  O17  1  0.48771329  0.67788822  0.88497034  1
  O  O18  1  0.51228671  0.82211178  0.38497034  1
  O  O19  1  0.01228671  0.17788822  0.61502966  1
  O  O20  1  0.00000000  0.00000000  0.00000000  1
  O  O21  1  0.50000000  0.00000000  0.00000000  1
  O  O22  1  0.50000000  0.50000000  0.50000000  1
  O  O23  1  0.00000000  0.50000000  0.50000000  1
  O  O24  1  0.75000000  0.77835954  0.59003242  1
  O  O25  1  0.25000000  0.22164046  0.40996758  1
  O  O26  1  0.75000000  0.27835954  0.90996758  1
  O  O27  1  0.25000000  0.72164046  0.09003242  1
  O  O28  1  0.75000000  0.52175486  0.30697965  1
  O  O29  1  0.25000000  0.47824514  0.69302035  1
  O  O30  1  0.75000000  0.02175486  0.19302035  1
  O  O31  1  0.25000000  0.97824514  0.80697965  1
