# generated using pymatgen
data_Li8MnCr3O12
_symmetry_space_group_name_H-M   'P 1'
_cell_length_a   4.98382694
_cell_length_b   4.96459961
_cell_length_c   8.41195766
_cell_angle_alpha   89.52890199
_cell_angle_beta   89.68114793
_cell_angle_gamma   90.07115518
_symmetry_Int_Tables_number   1
_chemical_formula_structural   Li8MnCr3O12
_chemical_formula_sum   'Li8 Mn1 Cr3 O12'
_cell_volume   208.12415874
_cell_formula_units_Z   1
loop_
 _symmetry_equiv_pos_site_id
 _symmetry_equiv_pos_as_xyz
  1  'x, y, z'
loop_
 _atom_site_type_symbol
 _atom_site_label
 _atom_site_symmetry_multiplicity
 _atom_site_fract_x
 _atom_site_fract_y
 _atom_site_fract_z
 _atom_site_occupancy
  Li  Li0  1  0.00463352  0.49764450  0.22931477  1
  Li  Li1  1  0.99903088  0.50017176  0.91910543  1
  Li  Li2  1  0.00315272  0.00051449  0.25462138  1
  Li  Li3  1  0.99966020  0.00447171  0.56729839  1
  Li  Li4  1  0.50210975  0.50083862  0.75438716  1
  Li  Li5  1  0.49908859  0.50065161  0.06673706  1
  Li  Li6  1  0.50290956  0.99898920  0.72949615  1
  Li  Li7  1  0.49526456  0.99793021  0.41804355  1
  Mn  Mn8  1  0.99837264  0.00020297  0.90599936  1
  Cr  Cr9  1  0.51076505  0.49892108  0.40684351  1
  Cr  Cr10  1  0.00440725  0.50740687  0.58661141  1
  Cr  Cr11  1  0.49657044  0.00205152  0.08317813  1
  O  O12  1  0.14829193  0.74729749  0.74411090  1
  O  O13  1  0.16497453  0.77954568  0.06790966  1
  O  O14  1  0.16936083  0.71290002  0.41945790  1
  O  O15  1  0.32957194  0.28083150  0.56384614  1
  O  O16  1  0.32690418  0.21190144  0.91696145  1
  O  O17  1  0.35500175  0.24128006  0.23980069  1
  O  O18  1  0.63263399  0.74628678  0.24130165  1
  O  O19  1  0.67281279  0.78776291  0.91868559  1
  O  O20  1  0.67339296  0.72301583  0.56869936  1
  O  O21  1  0.82755894  0.28667048  0.42106563  1
  O  O22  1  0.83042972  0.21952801  0.06747794  1
  O  O23  1  0.85316928  0.25317326  0.74239479  1
