# generated using pymatgen
data_LiMnOF2
_symmetry_space_group_name_H-M   'P 1'
_cell_length_a   5.38036681
_cell_length_b   7.07809185
_cell_length_c   5.54916060
_cell_angle_alpha   90.00000000
_cell_angle_beta   90.00000000
_cell_angle_gamma   90.00000000
_symmetry_Int_Tables_number   1
_chemical_formula_structural   LiMnOF2
_chemical_formula_sum   'Li4 Mn4 O4 F8'
_cell_volume   211.32718745
_cell_formula_units_Z   4
loop_
 _symmetry_equiv_pos_site_id
 _symmetry_equiv_pos_as_xyz
  1  'x, y, z'
loop_
 _atom_site_type_symbol
 _atom_site_label
 _atom_site_symmetry_multiplicity
 _atom_site_fract_x
 _atom_site_fract_y
 _atom_site_fract_z
 _atom_site_occupancy
  Li  Li0  1  0.04001607  0.25000000  0.05127777  1
  Li  Li1  1  0.45998393  0.75000000  0.55127777  1
  Li  Li2  1  0.54001607  0.25000000  0.44872223  1
  Li  Li3  1  0.95998393  0.75000000  0.94872223  1
  Mn  Mn4  1  0.00000000  0.00000000  0.50000000  1
  Mn  Mn5  1  0.00000000  0.50000000  0.50000000  1
  Mn  Mn6  1  0.50000000  0.00000000  0.00000000  1
  Mn  Mn7  1  0.50000000  0.50000000  0.00000000  1
  O  O8  1  0.06761248  0.75000000  0.60083129  1
  O  O9  1  0.43238752  0.25000000  0.10083129  1
  O  O10  1  0.56761248  0.75000000  0.89916871  1
  O  O11  1  0.93238752  0.25000000  0.39916871  1
  F  F12  1  0.17459355  0.56215173  0.14579056  1
  F  F13  1  0.17459355  0.93784827  0.14579056  1
  F  F14  1  0.32540645  0.06215173  0.64579056  1
  F  F15  1  0.32540645  0.43784827  0.64579056  1
  F  F16  1  0.67459355  0.93784827  0.35420944  1
  F  F17  1  0.67459355  0.56215173  0.35420944  1
  F  F18  1  0.82540645  0.06215173  0.85420944  1
  F  F19  1  0.82540645  0.43784827  0.85420944  1
