# generated using pymatgen
data_Sc3Zn17
_symmetry_space_group_name_H-M   'P 1'
_cell_length_a   11.95203119
_cell_length_b   11.95203059
_cell_length_c   11.95203094
_cell_angle_alpha   109.47122121
_cell_angle_beta   109.47122020
_cell_angle_gamma   109.47121969
_symmetry_Int_Tables_number   1
_chemical_formula_structural   Sc3Zn17
_chemical_formula_sum   'Sc12 Zn68'
_cell_volume   1314.32641378
_cell_formula_units_Z   4
loop_
 _symmetry_equiv_pos_site_id
 _symmetry_equiv_pos_as_xyz
  1  'x, y, z'
loop_
 _atom_site_type_symbol
 _atom_site_label
 _atom_site_symmetry_multiplicity
 _atom_site_fract_x
 _atom_site_fract_y
 _atom_site_fract_z
 _atom_site_occupancy
  Sc  Sc0  1  0.11189518  0.30007721  0.81181797  1
  Sc  Sc1  1  0.30007721  0.18818203  0.48825924  1
  Sc  Sc2  1  0.81181797  0.11189518  0.30007721  1
  Sc  Sc3  1  0.81181797  0.51174076  0.69992279  1
  Sc  Sc4  1  0.69992279  0.18818203  0.88810482  1
  Sc  Sc5  1  0.48825924  0.30007721  0.18818203  1
  Sc  Sc6  1  0.18818203  0.48825924  0.30007721  1
  Sc  Sc7  1  0.51174076  0.69992279  0.81181797  1
  Sc  Sc8  1  0.30007721  0.81181797  0.11189518  1
  Sc  Sc9  1  0.18818203  0.88810482  0.69992279  1
  Sc  Sc10  1  0.88810482  0.69992279  0.18818203  1
  Sc  Sc11  1  0.69992279  0.81181797  0.51174076  1
  Zn  Zn12  1  0.68408653  0.54467212  0.46027911  1
  Zn  Zn13  1  1.00000000  0.40438842  0.40438842  1
  Zn  Zn14  1  0.59611348  0.94170129  0.34558781  1
  Zn  Zn15  1  0.22380742  0.13941441  0.68408653  1
  Zn  Zn16  1  0.40438842  0.00000000  0.40438842  1
  Zn  Zn17  1  0.77619258  0.46027911  0.91560699  1
  Zn  Zn18  1  0.90971662  0.23093604  0.14065266  1
  Zn  Zn19  1  0.59561158  1.00000000  0.59561158  1
  Zn  Zn20  1  0.00000000  0.00000000  0.31539508  1
  Zn  Zn21  1  0.13941441  0.91560699  0.45532788  1
  Zn  Zn22  1  0.86058559  0.08439301  0.54467212  1
  Zn  Zn23  1  0.40388652  0.74947434  0.34558781  1
  Zn  Zn24  1  0.23093604  0.32121943  0.09028338  1
  Zn  Zn25  1  0.45532788  0.53972089  0.31591347  1
  Zn  Zn26  1  0.69012264  0.19012264  0.50000000  1
  Zn  Zn27  1  0.53972089  0.08439301  0.22380742  1
  Zn  Zn28  1  0.53972089  0.31591347  0.45532788  1
  Zn  Zn29  1  0.19012264  0.50000000  0.69012264  1
  Zn  Zn30  1  0.31539508  0.31539508  0.31539508  1
  Zn  Zn31  1  0.59561158  0.59561158  1.00000000  1
  Zn  Zn32  1  1.00000000  0.68460492  1.00000000  1
  Zn  Zn33  1  0.76906396  0.67878057  0.90971662  1
  Zn  Zn34  1  0.65441219  0.59611348  0.25052566  1
  Zn  Zn35  1  0.50000000  0.30987736  0.80987736  1
  Zn  Zn36  1  0.85934734  0.09028338  0.76906396  1
  Zn  Zn37  1  0.65441219  0.40388652  0.05829871  1
  Zn  Zn38  1  0.31591347  0.45532788  0.53972089  1
  Zn  Zn39  1  0.46027911  0.68408653  0.54467212  1
  Zn  Zn40  1  0.67878057  0.90971662  0.76906396  1
  Zn  Zn41  1  0.23093604  0.14065266  0.90971662  1
  Zn  Zn42  1  0.31591347  0.77619258  0.86058559  1
  Zn  Zn43  1  0.00000000  0.59561158  0.59561158  1
  Zn  Zn44  1  0.46027911  0.91560699  0.77619258  1
  Zn  Zn45  1  0.91560699  0.45532788  0.13941441  1
  Zn  Zn46  1  0.40388652  0.05829871  0.65441219  1
  Zn  Zn47  1  0.30987736  0.80987736  0.50000000  1
  Zn  Zn48  1  0.00000000  0.31539508  0.00000000  1
  Zn  Zn49  1  0.34558781  0.59611348  0.94170129  1
  Zn  Zn50  1  0.14065266  0.90971662  0.23093604  1
  Zn  Zn51  1  0.54467212  0.86058559  0.08439301  1
  Zn  Zn52  1  0.45532788  0.13941441  0.91560699  1
  Zn  Zn53  1  0.59611348  0.25052566  0.65441219  1
  Zn  Zn54  1  0.31539508  1.00000000  1.00000000  1
  Zn  Zn55  1  0.00000000  0.00000000  0.68460492  1
  Zn  Zn56  1  0.22380742  0.53972089  0.08439301  1
  Zn  Zn57  1  0.68408653  0.22380742  0.13941441  1
  Zn  Zn58  1  0.68460492  0.00000000  0.00000000  1
  Zn  Zn59  1  0.25052566  0.65441219  0.59611348  1
  Zn  Zn60  1  0.77619258  0.86058559  0.31591347  1
  Zn  Zn61  1  0.50000000  0.69012264  0.19012264  1
  Zn  Zn62  1  0.40438842  0.40438842  0.00000000  1
  Zn  Zn63  1  0.94170129  0.34558781  0.59611348  1
  Zn  Zn64  1  0.74947434  0.34558781  0.40388652  1
  Zn  Zn65  1  0.05829871  0.65441219  0.40388652  1
  Zn  Zn66  1  0.80987736  0.50000000  0.30987736  1
  Zn  Zn67  1  0.90971662  0.76906396  0.67878057  1
  Zn  Zn68  1  0.86058559  0.31591347  0.77619258  1
  Zn  Zn69  1  0.09028338  0.23093604  0.32121943  1
  Zn  Zn70  1  0.13941441  0.68408653  0.22380742  1
  Zn  Zn71  1  0.32121943  0.09028338  0.23093604  1
  Zn  Zn72  1  0.54467212  0.46027911  0.68408653  1
  Zn  Zn73  1  0.08439301  0.54467212  0.86058559  1
  Zn  Zn74  1  0.76906396  0.85934734  0.09028338  1
  Zn  Zn75  1  0.08439301  0.22380742  0.53972089  1
  Zn  Zn76  1  0.34558781  0.40388652  0.74947434  1
  Zn  Zn77  1  0.09028338  0.76906396  0.85934734  1
  Zn  Zn78  1  0.68460492  0.68460492  0.68460492  1
  Zn  Zn79  1  0.91560699  0.77619258  0.46027911  1
