# generated using pymatgen
data_SrLaMnRuO6
_symmetry_space_group_name_H-M   'P 1'
_cell_length_a   5.63924532
_cell_length_b   5.63924540
_cell_length_c   5.63924540
_cell_angle_alpha   61.08732826
_cell_angle_beta   61.08732337
_cell_angle_gamma   61.08732329
_symmetry_Int_Tables_number   1
_chemical_formula_structural   SrLaMnRuO6
_chemical_formula_sum   'Sr1 La1 Mn1 Ru1 O6'
_cell_volume   129.91231899
_cell_formula_units_Z   1
loop_
 _symmetry_equiv_pos_site_id
 _symmetry_equiv_pos_as_xyz
  1  'x, y, z'
loop_
 _atom_site_type_symbol
 _atom_site_label
 _atom_site_symmetry_multiplicity
 _atom_site_fract_x
 _atom_site_fract_y
 _atom_site_fract_z
 _atom_site_occupancy
  La  La0  1  0.74721790  0.74721790  0.74721790  1
  Mn  Mn1  1  0.49752648  0.49752648  0.49752648  1
  O  O2  1  0.15652691  0.76690530  0.32621311  1
  O  O3  1  0.32621311  0.15652691  0.76690530  1
  O  O4  1  0.24223939  0.69203308  0.82605140  1
  O  O5  1  0.76690530  0.32621311  0.15652691  1
  O  O6  1  0.69203308  0.82605140  0.24223939  1
  O  O7  1  0.82605140  0.24223939  0.69203308  1
  Ru  Ru8  1  0.99840787  0.99840787  0.99840787  1
  Sr  Sr9  1  0.24687855  0.24687855  0.24687855  1
