# generated using pymatgen
data_As2Pb2O5
_symmetry_space_group_name_H-M   'P 1'
_cell_length_a   5.86084330
_cell_length_b   8.76315331
_cell_length_c   13.84023390
_cell_angle_alpha   107.25562143
_cell_angle_beta   90.00000000
_cell_angle_gamma   90.00000000
_symmetry_Int_Tables_number   1
_chemical_formula_structural   As2Pb2O5
_chemical_formula_sum   'As8 Pb8 O20'
_cell_volume   678.83333020
_cell_formula_units_Z   4
loop_
 _symmetry_equiv_pos_site_id
 _symmetry_equiv_pos_as_xyz
  1  'x, y, z'
loop_
 _atom_site_type_symbol
 _atom_site_label
 _atom_site_symmetry_multiplicity
 _atom_site_fract_x
 _atom_site_fract_y
 _atom_site_fract_z
 _atom_site_occupancy
  Pb  Pb0  1  0.65840340  0.97795817  0.12234304  1
  Pb  Pb1  1  0.15840340  0.52204183  0.37765696  1
  Pb  Pb2  1  0.34159660  0.02204183  0.87765696  1
  Pb  Pb3  1  0.84159660  0.47795817  0.62234304  1
  Pb  Pb4  1  0.33725189  0.44799585  0.79608314  1
  Pb  Pb5  1  0.83725189  0.05200415  0.70391686  1
  Pb  Pb6  1  0.66274811  0.55200415  0.20391686  1
  Pb  Pb7  1  0.16274811  0.94799585  0.29608314  1
  As  As8  1  0.12649377  0.67908650  0.06304404  1
  As  As9  1  0.62649377  0.82091350  0.43695596  1
  As  As10  1  0.87350623  0.32091350  0.93695596  1
  As  As11  1  0.37350623  0.17908650  0.56304404  1
  As  As12  1  0.87795774  0.75503219  0.86920185  1
  As  As13  1  0.37795774  0.74496781  0.63079815  1
  As  As14  1  0.12204226  0.24496781  0.13079815  1
  As  As15  1  0.62204226  0.25503219  0.36920185  1
  O  O16  1  0.33258344  0.79984672  0.14626496  1
  O  O17  1  0.83258344  0.70015328  0.35373504  1
  O  O18  1  0.66741656  0.20015328  0.85373504  1
  O  O19  1  0.16741656  0.29984672  0.64626496  1
  O  O20  1  0.87677596  0.75898892  0.13693570  1
  O  O21  1  0.37677596  0.74101108  0.36306430  1
  O  O22  1  0.12322404  0.24101108  0.86306430  1
  O  O23  1  0.62322404  0.25898892  0.63693570  1
  O  O24  1  0.11325736  0.78853981  0.96576365  1
  O  O25  1  0.61325736  0.71146019  0.53423635  1
  O  O26  1  0.88674264  0.21146019  0.03423635  1
  O  O27  1  0.38674264  0.28853981  0.46576365  1
  O  O28  1  0.95545735  0.55540471  0.79364883  1
  O  O29  1  0.45545735  0.94459529  0.70635117  1
  O  O30  1  0.04454265  0.44459529  0.20635117  1
  O  O31  1  0.54454265  0.05540471  0.29364883  1
  O  O32  1  0.00616046  0.87104930  0.79870163  1
  O  O33  1  0.50616046  0.62895070  0.70129837  1
  O  O34  1  0.99383954  0.12895070  0.20129837  1
  O  O35  1  0.49383954  0.37104930  0.29870163  1
