# generated using pymatgen
data_AsSeI
_symmetry_space_group_name_H-M   'P 1'
_cell_length_a   4.01476887
_cell_length_b   9.58112838
_cell_length_c   10.36151360
_cell_angle_alpha   87.47247763
_cell_angle_beta   90.00000000
_cell_angle_gamma   90.00000000
_symmetry_Int_Tables_number   1
_chemical_formula_structural   AsSeI
_chemical_formula_sum   'As4 Se4 I4'
_cell_volume   398.17840371
_cell_formula_units_Z   4
loop_
 _symmetry_equiv_pos_site_id
 _symmetry_equiv_pos_as_xyz
  1  'x, y, z'
loop_
 _atom_site_type_symbol
 _atom_site_label
 _atom_site_symmetry_multiplicity
 _atom_site_fract_x
 _atom_site_fract_y
 _atom_site_fract_z
 _atom_site_occupancy
  As  As0  1  0.88303669  0.64444205  0.86540799  1
  As  As1  1  0.11696331  0.35555795  0.13459201  1
  As  As2  1  0.61696331  0.14444205  0.36540799  1
  As  As3  1  0.38303669  0.85555795  0.63459201  1
  Se  Se4  1  0.92782378  0.89411589  0.80259974  1
  Se  Se5  1  0.57217622  0.39411589  0.30259974  1
  Se  Se6  1  0.42782378  0.60588411  0.69740026  1
  Se  Se7  1  0.07217622  0.10588411  0.19740026  1
  I  I8  1  0.54927252  0.29421968  0.92692306  1
  I  I9  1  0.95072748  0.79421968  0.42692306  1
  I  I10  1  0.04927252  0.20578032  0.57307694  1
  I  I11  1  0.45072748  0.70578032  0.07307694  1
