# generated using pymatgen
data_BaZr2F10
_symmetry_space_group_name_H-M   'P 1'
_cell_length_a   6.22372029
_cell_length_b   8.53377180
_cell_length_c   8.91695856
_cell_angle_alpha   84.00921855
_cell_angle_beta   73.36859823
_cell_angle_gamma   68.61380924
_symmetry_Int_Tables_number   1
_chemical_formula_structural   BaZr2F10
_chemical_formula_sum   'Ba2 Zr4 F20'
_cell_volume   422.53749521
_cell_formula_units_Z   2
loop_
 _symmetry_equiv_pos_site_id
 _symmetry_equiv_pos_as_xyz
  1  'x, y, z'
loop_
 _atom_site_type_symbol
 _atom_site_label
 _atom_site_symmetry_multiplicity
 _atom_site_fract_x
 _atom_site_fract_y
 _atom_site_fract_z
 _atom_site_occupancy
  Ba  Ba0  1  0.56973769  0.36052462  0.25000000  1
  Ba  Ba1  1  0.43026231  0.63947538  0.75000000  1
  Zr  Zr2  1  0.65823756  0.80951709  0.09648731  1
  Zr  Zr3  1  0.03224534  0.80951709  0.40351269  1
  Zr  Zr4  1  0.34176244  0.19048291  0.90351269  1
  Zr  Zr5  1  0.96775466  0.19048291  0.59648731  1
  F  F6  1  0.86287261  0.08424918  0.42611374  1
  F  F7  1  0.55287821  0.08424918  0.07388626  1
  F  F8  1  0.13712739  0.91575082  0.57388626  1
  F  F9  1  0.44712179  0.91575082  0.92611374  1
  F  F10  1  0.30338694  0.89322612  0.25000000  1
  F  F11  1  0.69661306  0.10677388  0.75000000  1
  F  F12  1  0.80072818  0.89854364  0.25000000  1
  F  F13  1  0.19927182  0.10145636  0.75000000  1
  F  F14  1  0.02878398  0.22659304  0.06416689  1
  F  F15  1  0.24462298  0.22659304  0.43583311  1
  F  F16  1  0.97121602  0.77340696  0.93583311  1
  F  F17  1  0.75537702  0.77340696  0.56416689  1
  F  F18  1  0.73976774  0.38557517  0.50167016  1
  F  F19  1  0.37465709  0.38557517  0.99832984  1
  F  F20  1  0.26023226  0.61442483  0.49832984  1
  F  F21  1  0.62534291  0.61442483  0.00167016  1
  F  F22  1  0.70406178  0.62765541  0.25916109  1
  F  F23  1  0.16828280  0.62765541  0.24083891  1
  F  F24  1  0.29593822  0.37234459  0.74083891  1
  F  F25  1  0.83171720  0.37234459  0.75916109  1
