# generated using pymatgen
data_Ba3V4O13
_symmetry_space_group_name_H-M   'P 1'
_cell_length_a   9.10753150
_cell_length_b   9.29444355
_cell_length_c   10.43472344
_cell_angle_alpha   109.04519310
_cell_angle_beta   90.00000000
_cell_angle_gamma   119.33696384
_symmetry_Int_Tables_number   1
_chemical_formula_structural   Ba3V4O13
_chemical_formula_sum   'Ba6 V8 O26'
_cell_volume   714.03403559
_cell_formula_units_Z   2
loop_
 _symmetry_equiv_pos_site_id
 _symmetry_equiv_pos_as_xyz
  1  'x, y, z'
loop_
 _atom_site_type_symbol
 _atom_site_label
 _atom_site_symmetry_multiplicity
 _atom_site_fract_x
 _atom_site_fract_y
 _atom_site_fract_z
 _atom_site_occupancy
  O  O0  1  0.56753821  0.00000000  0.75000000  1
  O  O1  1  0.43246179  0.00000000  0.25000000  1
  O  O2  1  0.27910449  0.28940171  0.16630711  1
  O  O3  1  0.98970378  0.71059829  0.33369289  1
  O  O4  1  0.72089551  0.71059829  0.83369189  1
  O  O5  1  0.01029722  0.28940071  0.66630711  1
  O  O6  1  0.14264564  0.95663562  0.96055099  1
  O  O7  1  0.18601002  0.04336438  0.53944901  1
  O  O8  1  0.85735436  0.04336438  0.03944901  1
  O  O9  1  0.81398998  0.95663562  0.46055099  1
  O  O10  1  0.21538656  0.24824773  0.88733292  1
  O  O11  1  0.96713784  0.75175127  0.61266608  1
  O  O12  1  0.78461444  0.75175127  0.11266708  1
  O  O13  1  0.03286216  0.24824873  0.38733392  1
  O  O14  1  0.72868353  0.23089587  0.49460054  1
  O  O15  1  0.49778866  0.76910413  0.00539946  1
  O  O16  1  0.27131547  0.76910413  0.50539846  1
  O  O17  1  0.50221134  0.23089587  0.99460054  1
  O  O18  1  0.48775909  0.32636708  0.43620016  1
  O  O19  1  0.16139201  0.67363292  0.06379984  1
  O  O20  1  0.61674319  0.33648583  0.77136493  1
  O  O21  1  0.83860699  0.32636708  0.93620016  1
  O  O22  1  0.71974264  0.33648583  0.27136393  1
  O  O23  1  0.38325681  0.66351317  0.22863507  1
  O  O24  1  0.28025736  0.66351417  0.72863607  1
  O  O25  1  0.51224091  0.67363392  0.56379984  1
  V  V26  1  0.62941790  0.22462912  0.86488436  1
  V  V27  1  0.40478778  0.77536988  0.63511564  1
  V  V28  1  0.37058210  0.77537088  0.13511464  1
  V  V29  1  0.59521122  0.22463012  0.36488436  1
  V  V30  1  0.27971729  0.17906377  0.99826234  1
  V  V31  1  0.10065452  0.82093623  0.50173766  1
  V  V32  1  0.72028171  0.82093623  0.00173766  1
  V  V33  1  0.89934548  0.17906277  0.49826234  1
  Ba  Ba34  1  0.11098325  0.00000000  0.25000000  1
  Ba  Ba35  1  0.88901575  0.00000000  0.75000000  1
  Ba  Ba36  1  0.96861351  0.59509651  0.80985217  1
  Ba  Ba37  1  0.37351700  0.40490249  0.69014783  1
  Ba  Ba38  1  0.03138649  0.40490349  0.19014783  1
  Ba  Ba39  1  0.62648300  0.59509751  0.30985217  1
