# generated using pymatgen
data_HS9N
_symmetry_space_group_name_H-M   'P 1'
_cell_length_a   5.58199565
_cell_length_b   14.27271520
_cell_length_c   15.19126728
_cell_angle_alpha   90.00000000
_cell_angle_beta   90.00000000
_cell_angle_gamma   90.00000000
_symmetry_Int_Tables_number   1
_chemical_formula_structural   HS9N
_chemical_formula_sum   'H4 S36 N4'
_cell_volume   1210.29182139
_cell_formula_units_Z   4
loop_
 _symmetry_equiv_pos_site_id
 _symmetry_equiv_pos_as_xyz
  1  'x, y, z'
loop_
 _atom_site_type_symbol
 _atom_site_label
 _atom_site_symmetry_multiplicity
 _atom_site_fract_x
 _atom_site_fract_y
 _atom_site_fract_z
 _atom_site_occupancy
  S  S0  1  0.32034723  0.53656574  0.75000000  1
  S  S1  1  0.82034723  0.96343426  0.25000000  1
  S  S2  1  0.17965277  0.03656574  0.75000000  1
  S  S3  1  0.67965277  0.46343426  0.25000000  1
  S  S4  1  0.14794436  0.47793585  0.64158772  1
  S  S5  1  0.64794436  0.02206415  0.35841228  1
  S  S6  1  0.35205564  0.97793585  0.85841228  1
  S  S7  1  0.85205564  0.52206415  0.14158772  1
  S  S8  1  0.85205564  0.52206415  0.35841228  1
  S  S9  1  0.35205564  0.97793585  0.64158772  1
  S  S10  1  0.64794436  0.02206415  0.14158772  1
  S  S11  1  0.14794436  0.47793585  0.85841228  1
  S  S12  1  0.36928504  0.39705694  0.56544224  1
  S  S13  1  0.86928504  0.10294306  0.43455776  1
  S  S14  1  0.13071496  0.89705694  0.93455776  1
  S  S15  1  0.63071496  0.60294306  0.06544224  1
  S  S16  1  0.63071496  0.60294306  0.43455776  1
  S  S17  1  0.13071496  0.89705694  0.56544224  1
  S  S18  1  0.86928504  0.10294306  0.06544224  1
  S  S19  1  0.36928504  0.39705694  0.93455776  1
  S  S20  1  0.37153361  0.26032183  0.61415358  1
  S  S21  1  0.87153361  0.23967817  0.38584642  1
  S  S22  1  0.12846639  0.76032183  0.88584642  1
  S  S23  1  0.62846639  0.73967817  0.11415358  1
  S  S24  1  0.62846639  0.73967817  0.38584642  1
  S  S25  1  0.12846639  0.76032183  0.61415358  1
  S  S26  1  0.87153361  0.23967817  0.11415358  1
  S  S27  1  0.37153361  0.26032183  0.88584642  1
  S  S28  1  0.72052882  0.23432745  0.65105443  1
  S  S29  1  0.22052882  0.26567255  0.34894557  1
  S  S30  1  0.77947118  0.73432745  0.84894557  1
  S  S31  1  0.27947118  0.76567255  0.15105443  1
  S  S32  1  0.27947118  0.76567255  0.34894557  1
  S  S33  1  0.77947118  0.73432745  0.65105443  1
  S  S34  1  0.22052882  0.26567255  0.15105443  1
  S  S35  1  0.72052882  0.23432745  0.84894557  1
  N  N36  1  0.77899276  0.28144149  0.75000000  1
  N  N37  1  0.27899276  0.21855851  0.25000000  1
  N  N38  1  0.72100724  0.78144149  0.75000000  1
  N  N39  1  0.22100724  0.71855851  0.25000000  1
  H  H40  1  0.83121993  0.35022835  0.75000000  1
  H  H41  1  0.33121993  0.14977165  0.25000000  1
  H  H42  1  0.66878007  0.85022835  0.75000000  1
  H  H43  1  0.16878007  0.64977165  0.25000000  1
