# generated using pymatgen
data_Nd(Re2Si)2
_symmetry_space_group_name_H-M   'P 1'
_cell_length_a   4.16268686
_cell_length_b   7.38983048
_cell_length_c   15.47299513
_cell_angle_alpha   90.00000000
_cell_angle_beta   90.00000000
_cell_angle_gamma   90.00000000
_symmetry_Int_Tables_number   1
_chemical_formula_structural   Nd(Re2Si)2
_chemical_formula_sum   'Nd4 Re16 Si8'
_cell_volume   475.97331700
_cell_formula_units_Z   4
loop_
 _symmetry_equiv_pos_site_id
 _symmetry_equiv_pos_as_xyz
  1  'x, y, z'
loop_
 _atom_site_type_symbol
 _atom_site_label
 _atom_site_symmetry_multiplicity
 _atom_site_fract_x
 _atom_site_fract_y
 _atom_site_fract_z
 _atom_site_occupancy
  Nd  Nd0  1  0.00000000  0.57626324  0.11856910  1
  Nd  Nd1  1  0.00000000  0.42373676  0.88143090  1
  Nd  Nd2  1  0.50000000  0.07626324  0.38143090  1
  Nd  Nd3  1  0.50000000  0.92373676  0.61856910  1
  Re  Re4  1  0.00000000  0.13747846  0.05183442  1
  Re  Re5  1  0.00000000  0.86252154  0.94816558  1
  Re  Re6  1  0.50000000  0.63747846  0.44816558  1
  Re  Re7  1  0.50000000  0.36252154  0.55183442  1
  Re  Re8  1  0.00000000  0.73027145  0.32126935  1
  Re  Re9  1  0.00000000  0.26972855  0.67873065  1
  Re  Re10  1  0.50000000  0.23027145  0.17873065  1
  Re  Re11  1  0.50000000  0.76972855  0.82126935  1
  Re  Re12  1  0.00000000  0.43075917  0.41790118  1
  Re  Re13  1  0.00000000  0.56924083  0.58209882  1
  Re  Re14  1  0.50000000  0.93075917  0.08209882  1
  Re  Re15  1  0.50000000  0.06924083  0.91790118  1
  Re  Re16  1  0.00000000  0.98655735  0.20628207  1
  Re  Re17  1  0.00000000  0.01344265  0.79371793  1
  Re  Re18  1  0.50000000  0.48655735  0.29371793  1
  Re  Re19  1  0.50000000  0.51344265  0.70628207  1
  Si  Si20  1  0.00000000  0.82799396  0.47616426  1
  Si  Si21  1  0.00000000  0.17200604  0.52383574  1
  Si  Si22  1  0.50000000  0.32799396  0.02383574  1
  Si  Si23  1  0.50000000  0.67200604  0.97616426  1
  Si  Si24  1  0.00000000  0.28802549  0.27278457  1
  Si  Si25  1  0.00000000  0.71197451  0.72721543  1
  Si  Si26  1  0.50000000  0.78802549  0.22721543  1
  Si  Si27  1  0.50000000  0.21197451  0.77278457  1
