# generated using pymatgen
data_Lu2CoB6
_symmetry_space_group_name_H-M   'P 1'
_cell_length_a   3.48902299
_cell_length_b   8.98372741
_cell_length_c   11.32477144
_cell_angle_alpha   90.00000000
_cell_angle_beta   90.00000000
_cell_angle_gamma   90.00000000
_symmetry_Int_Tables_number   1
_chemical_formula_structural   Lu2CoB6
_chemical_formula_sum   'Lu8 Co4 B24'
_cell_volume   354.96852231
_cell_formula_units_Z   4
loop_
 _symmetry_equiv_pos_site_id
 _symmetry_equiv_pos_as_xyz
  1  'x, y, z'
loop_
 _atom_site_type_symbol
 _atom_site_label
 _atom_site_symmetry_multiplicity
 _atom_site_fract_x
 _atom_site_fract_y
 _atom_site_fract_z
 _atom_site_occupancy
  Co  Co0  1  0.00000000  0.13991781  0.17944361  1
  Co  Co1  1  0.00000000  0.86008219  0.82055639  1
  Co  Co2  1  0.00000000  0.63991781  0.32055639  1
  Co  Co3  1  0.00000000  0.36008219  0.67944361  1
  Lu  Lu4  1  0.00000000  0.82379342  0.08531008  1
  Lu  Lu5  1  0.00000000  0.17620658  0.91468992  1
  Lu  Lu6  1  0.00000000  0.32379342  0.41468992  1
  Lu  Lu7  1  0.00000000  0.67620658  0.58531008  1
  Lu  Lu8  1  0.00000000  0.44359782  0.12910754  1
  Lu  Lu9  1  0.00000000  0.55640218  0.87089246  1
  Lu  Lu10  1  0.00000000  0.94359782  0.37089246  1
  Lu  Lu11  1  0.00000000  0.05640218  0.62910754  1
  B  B12  1  0.50000000  0.05367371  0.06635831  1
  B  B13  1  0.50000000  0.94632629  0.93364169  1
  B  B14  1  0.50000000  0.55367371  0.43364169  1
  B  B15  1  0.50000000  0.44632629  0.56635831  1
  B  B16  1  0.50000000  0.24766761  0.08130737  1
  B  B17  1  0.50000000  0.75233239  0.91869263  1
  B  B18  1  0.50000000  0.74766761  0.41869263  1
  B  B19  1  0.50000000  0.25233239  0.58130737  1
  B  B20  1  0.50000000  0.29313496  0.23600153  1
  B  B21  1  0.50000000  0.70686504  0.76399847  1
  B  B22  1  0.50000000  0.79313496  0.26399847  1
  B  B23  1  0.50000000  0.20686504  0.73600153  1
  B  B24  1  0.50000000  0.13394390  0.31591288  1
  B  B25  1  0.50000000  0.86605610  0.68408712  1
  B  B26  1  0.50000000  0.63394390  0.18408712  1
  B  B27  1  0.50000000  0.36605610  0.81591288  1
  B  B28  1  0.50000000  0.48538639  0.28850008  1
  B  B29  1  0.50000000  0.51461361  0.71149992  1
  B  B30  1  0.50000000  0.98538639  0.21149992  1
  B  B31  1  0.50000000  0.01461361  0.78850008  1
  B  B32  1  0.50000000  0.10701147  0.47103468  1
  B  B33  1  0.50000000  0.89298853  0.52896532  1
  B  B34  1  0.50000000  0.60701147  0.02896532  1
  B  B35  1  0.50000000  0.39298853  0.97103468  1
