# generated using pymatgen
data_UHg3(TeCl3)2
_symmetry_space_group_name_H-M   'P 1'
_cell_length_a   7.02615546
_cell_length_b   8.08207754
_cell_length_c   14.05187138
_cell_angle_alpha   90.00000000
_cell_angle_beta   91.92752836
_cell_angle_gamma   90.00000000
_symmetry_Int_Tables_number   1
_chemical_formula_structural   UHg3(TeCl3)2
_chemical_formula_sum   'U2 Hg6 Te4 Cl12'
_cell_volume   797.49712771
_cell_formula_units_Z   2
loop_
 _symmetry_equiv_pos_site_id
 _symmetry_equiv_pos_as_xyz
  1  'x, y, z'
loop_
 _atom_site_type_symbol
 _atom_site_label
 _atom_site_symmetry_multiplicity
 _atom_site_fract_x
 _atom_site_fract_y
 _atom_site_fract_z
 _atom_site_occupancy
  U  U0  1  -0.00000000  0.00000000  -0.00000000  1
  U  U1  1  -0.00000000  0.50000000  0.50000000  1
  Hg  Hg2  1  0.50546539  0.21213585  0.75925104  1
  Hg  Hg3  1  0.49453461  0.71213585  0.74074896  1
  Hg  Hg4  1  0.49453461  0.78786415  0.24074896  1
  Hg  Hg5  1  0.50546539  0.28786415  0.25925104  1
  Hg  Hg6  1  0.50000000  0.00000000  0.50000000  1
  Hg  Hg7  1  0.50000000  0.50000000  -0.00000000  1
  Te  Te8  1  0.69752249  0.53208493  0.17003798  1
  Te  Te9  1  0.69752249  0.96791507  0.67003798  1
  Te  Te10  1  0.30247751  0.03208493  0.32996202  1
  Te  Te11  1  0.30247751  0.46791507  0.82996202  1
  Cl  Cl12  1  0.69132398  0.66085477  0.44063636  1
  Cl  Cl13  1  0.84246654  0.45250051  0.66434090  1
  Cl  Cl14  1  0.15753346  0.95250051  0.83565910  1
  Cl  Cl15  1  0.15085731  0.77595031  0.56975552  1
  Cl  Cl16  1  0.84246654  0.04749949  0.16434090  1
  Cl  Cl17  1  0.15085731  0.72404969  0.06975552  1
  Cl  Cl18  1  0.30867602  0.33914523  0.55936364  1
  Cl  Cl19  1  0.15753346  0.54749949  0.33565910  1
  Cl  Cl20  1  0.84914269  0.22404969  0.43024448  1
  Cl  Cl21  1  0.30867602  0.16085477  0.05936364  1
  Cl  Cl22  1  0.84914269  0.27595031  0.93024448  1
  Cl  Cl23  1  0.69132398  0.83914523  0.94063636  1
