# generated using pymatgen
data_Li2Ni12P7
_symmetry_space_group_name_H-M   'P 1'
_cell_length_a   8.99837670
_cell_length_b   8.99837706
_cell_length_c   3.53217975
_cell_angle_alpha   90.00000000
_cell_angle_beta   90.00000000
_cell_angle_gamma   119.99999869
_symmetry_Int_Tables_number   1
_chemical_formula_structural   Li2Ni12P7
_chemical_formula_sum   'Li2 Ni12 P7'
_cell_volume   247.68618928
_cell_formula_units_Z   1
loop_
 _symmetry_equiv_pos_site_id
 _symmetry_equiv_pos_as_xyz
  1  'x, y, z'
loop_
 _atom_site_type_symbol
 _atom_site_label
 _atom_site_symmetry_multiplicity
 _atom_site_fract_x
 _atom_site_fract_y
 _atom_site_fract_z
 _atom_site_occupancy
  Ni  Ni0  1  0.43431841  0.06114320  0.00000000  1
  Ni  Ni1  1  0.62682479  0.56568159  0.00000000  1
  Ni  Ni2  1  0.93885680  0.37317521  0.00000000  1
  Ni  Ni3  1  0.15918258  0.27749522  0.00000000  1
  Ni  Ni4  1  0.11831265  0.84081742  0.00000000  1
  Ni  Ni5  1  0.72250478  0.88168735  0.00000000  1
  Ni  Ni6  1  0.38437990  0.43528859  0.50000000  1
  Ni  Ni7  1  0.05090869  0.61562010  0.50000000  1
  Ni  Ni8  1  0.56471141  0.94909131  0.50000000  1
  Ni  Ni9  1  0.21959459  0.09362640  0.50000000  1
  Ni  Ni10  1  0.87403180  0.78040541  0.50000000  1
  Ni  Ni11  1  0.90637360  0.12596820  0.50000000  1
  P  P12  1  0.00000000  0.00000000  0.00000000  1
  P  P13  1  0.41806506  0.29500298  0.00000000  1
  P  P14  1  0.87693792  0.58193494  0.00000000  1
  P  P15  1  0.70499702  0.12306208  0.00000000  1
  P  P16  1  0.12011788  0.41279093  0.50000000  1
  P  P17  1  0.29267305  0.87988212  0.50000000  1
  P  P18  1  0.58720907  0.70732695  0.50000000  1
  Li  Li19  1  0.33333300  0.66666700  0.00000000  1
  Li  Li20  1  0.66666700  0.33333300  0.50000000  1
