# generated using pymatgen
data_Al(BH4)3
_symmetry_space_group_name_H-M   'P 1'
_cell_length_a   6.37663122
_cell_length_b   6.47226190
_cell_length_c   18.61153962
_cell_angle_alpha   90.00000000
_cell_angle_beta   90.00000000
_cell_angle_gamma   90.00000000
_symmetry_Int_Tables_number   1
_chemical_formula_structural   Al(BH4)3
_chemical_formula_sum   'Al4 B12 H48'
_cell_volume   768.12108198
_cell_formula_units_Z   4
loop_
 _symmetry_equiv_pos_site_id
 _symmetry_equiv_pos_as_xyz
  1  'x, y, z'
loop_
 _atom_site_type_symbol
 _atom_site_label
 _atom_site_symmetry_multiplicity
 _atom_site_fract_x
 _atom_site_fract_y
 _atom_site_fract_z
 _atom_site_occupancy
  Al  Al0  1  0.79043094  0.84428616  0.12970506  1
  Al  Al1  1  0.29043094  0.15571384  0.87029494  1
  Al  Al2  1  0.79043094  0.65571384  0.62970506  1
  Al  Al3  1  0.29043094  0.34428616  0.37029494  1
  B  B4  1  0.51528458  0.51889865  0.58344590  1
  B  B5  1  0.93625371  0.50605727  0.71976577  1
  B  B6  1  0.01528458  0.48110135  0.41655410  1
  B  B7  1  0.51528458  0.98110135  0.08344590  1
  B  B8  1  0.01528458  0.01889865  0.91655410  1
  B  B9  1  0.93625371  0.99394273  0.21976577  1
  B  B10  1  0.42735189  0.43413493  0.91146829  1
  B  B11  1  0.92735189  0.56586507  0.08853171  1
  B  B12  1  0.92735189  0.93413493  0.58853171  1
  B  B13  1  0.42735189  0.06586507  0.41146829  1
  B  B14  1  0.43625371  0.00605727  0.78023423  1
  B  B15  1  0.43625371  0.49394273  0.28023423  1
  H  H16  1  0.01102695  0.16553706  0.87130283  1
  H  H17  1  0.08362421  0.00037348  0.61617210  1
  H  H18  1  0.20100789  0.97493231  0.93535461  1
  H  H19  1  0.47906385  0.53433386  0.34523550  1
  H  H20  1  0.86730670  0.34898483  0.74466785  1
  H  H21  1  0.70100789  0.02506769  0.06464539  1
  H  H22  1  0.78931893  0.86231248  0.22510547  1
  H  H23  1  0.01102695  0.33446294  0.37130283  1
  H  H24  1  0.28931893  0.36231248  0.27489453  1
  H  H25  1  0.34824888  0.52103152  0.96157305  1
  H  H26  1  0.36730670  0.65101517  0.25533215  1
  H  H27  1  0.44564950  0.13123523  0.11291247  1
  H  H28  1  0.93307721  0.08674139  0.96959918  1
  H  H29  1  0.58362421  0.99962652  0.38382790  1
  H  H30  1  0.58979572  0.08571517  0.75515769  1
  H  H31  1  0.94564950  0.86876477  0.88708753  1
  H  H32  1  0.08979572  0.58571517  0.74484231  1
  H  H33  1  0.94564950  0.63123523  0.38708753  1
  H  H34  1  0.34824888  0.97896848  0.46157305  1
  H  H35  1  0.84824888  0.02103152  0.53842695  1
  H  H36  1  0.58362421  0.50037348  0.88382790  1
  H  H37  1  0.36730670  0.84898483  0.75533215  1
  H  H38  1  0.47906385  0.96566614  0.84523550  1
  H  H39  1  0.08979572  0.91428483  0.24484231  1
  H  H40  1  0.28931893  0.13768752  0.77489453  1
  H  H41  1  0.47238374  0.24619956  0.43377675  1
  H  H42  1  0.47238374  0.25380044  0.93377675  1
  H  H43  1  0.58979572  0.41428483  0.25515769  1
  H  H44  1  0.44564950  0.36876477  0.61291247  1
  H  H45  1  0.43307721  0.91325861  0.03040082  1
  H  H46  1  0.70100789  0.47493231  0.56464539  1
  H  H47  1  0.93307721  0.41325861  0.46959918  1
  H  H48  1  0.43307721  0.58674139  0.53040082  1
  H  H49  1  0.97906385  0.03433386  0.15476450  1
  H  H50  1  0.84824888  0.47896848  0.03842695  1
  H  H51  1  0.86730670  0.15101517  0.24466785  1
  H  H52  1  0.97238374  0.75380044  0.56622325  1
  H  H53  1  0.51102695  0.83446294  0.12869717  1
  H  H54  1  0.78931893  0.63768752  0.72510547  1
  H  H55  1  0.51102695  0.66553706  0.62869717  1
  H  H56  1  0.78847531  0.92891458  0.63752901  1
  H  H57  1  0.28847531  0.42891458  0.86247099  1
  H  H58  1  0.97906385  0.46566614  0.65476450  1
  H  H59  1  0.78847531  0.57108542  0.13752901  1
  H  H60  1  0.20100789  0.52506769  0.43535461  1
  H  H61  1  0.08362421  0.49962652  0.11617210  1
  H  H62  1  0.28847531  0.07108542  0.36247099  1
  H  H63  1  0.97238374  0.74619956  0.06622325  1
