# generated using pymatgen
data_Li8Nb(FeO4)3
_symmetry_space_group_name_H-M   'P 1'
_cell_length_a   5.00596950
_cell_length_b   5.69461602
_cell_length_c   7.58213811
_cell_angle_alpha   80.35664289
_cell_angle_beta   90.05679751
_cell_angle_gamma   90.04974282
_symmetry_Int_Tables_number   1
_chemical_formula_structural   Li8Nb(FeO4)3
_chemical_formula_sum   'Li8 Nb1 Fe3 O12'
_cell_volume   213.09019549
_cell_formula_units_Z   1
loop_
 _symmetry_equiv_pos_site_id
 _symmetry_equiv_pos_as_xyz
  1  'x, y, z'
loop_
 _atom_site_type_symbol
 _atom_site_label
 _atom_site_symmetry_multiplicity
 _atom_site_fract_x
 _atom_site_fract_y
 _atom_site_fract_z
 _atom_site_occupancy
  Li  Li0  1  0.49375807  0.15925205  0.32906894  1
  Li  Li1  1  0.49765661  0.16750101  0.84840012  1
  Li  Li2  1  0.99541912  0.36383160  0.18097031  1
  Li  Li3  1  0.99965789  0.35646100  0.69516492  1
  Li  Li4  1  0.00241231  0.68180267  0.32499700  1
  Li  Li5  1  0.00618286  0.67704066  0.83670728  1
  Li  Li6  1  0.50111841  0.87304309  0.17004548  1
  Li  Li7  1  0.50323678  0.87813095  0.69228746  1
  Nb  Nb8  1  0.50102052  0.51967146  0.50931886  1
  Fe  Fe9  1  0.99958578  0.01930838  0.00982182  1
  Fe  Fe10  1  0.50027134  0.51947368  0.00981627  1
  Fe  Fe11  1  0.99947335  0.01983642  0.50965416  1
  O  O12  1  0.85615967  0.01521802  0.25293980  1
  O  O13  1  0.14331622  0.02310578  0.76610952  1
  O  O14  1  0.31352793  0.19647547  0.08062250  1
  O  O15  1  0.67278625  0.19602765  0.58170376  1
  O  O16  1  0.17659338  0.34490245  0.43823937  1
  O  O17  1  0.82080273  0.33066520  0.93925733  1
  O  O18  1  0.64219411  0.51640584  0.26016181  1
  O  O19  1  0.35907563  0.52190349  0.75917530  1
  O  O20  1  0.17928753  0.70765154  0.07978242  1
  O  O21  1  0.82455565  0.69248128  0.58091792  1
  O  O22  1  0.32638106  0.84090485  0.43739471  1
  O  O23  1  0.68603480  0.84201946  0.93868795  1
