# generated using pymatgen
data_Ca3(GeP2)2
_symmetry_space_group_name_H-M   'P 1'
_cell_length_a   7.08852172
_cell_length_b   7.14861705
_cell_length_c   17.57216778
_cell_angle_alpha   90.00000000
_cell_angle_beta   90.00000000
_cell_angle_gamma   111.74353665
_symmetry_Int_Tables_number   1
_chemical_formula_structural   Ca3(GeP2)2
_chemical_formula_sum   'Ca12 Ge8 P16'
_cell_volume   827.08332417
_cell_formula_units_Z   4
loop_
 _symmetry_equiv_pos_site_id
 _symmetry_equiv_pos_as_xyz
  1  'x, y, z'
loop_
 _atom_site_type_symbol
 _atom_site_label
 _atom_site_symmetry_multiplicity
 _atom_site_fract_x
 _atom_site_fract_y
 _atom_site_fract_z
 _atom_site_occupancy
  P  P0  1  0.74626138  0.50165826  0.56587665  1
  P  P1  1  0.27684211  0.96555663  0.31494950  1
  P  P2  1  0.77684211  0.96555663  0.18505050  1
  P  P3  1  0.72315789  0.03444337  0.68505050  1
  P  P4  1  0.22749028  0.51251567  0.69683630  1
  P  P5  1  0.27250972  0.48748433  0.19683630  1
  P  P6  1  0.77250972  0.48748433  0.30316370  1
  P  P7  1  0.72749028  0.51251567  0.80316370  1
  P  P8  1  0.74841689  0.00354474  0.94131317  1
  P  P9  1  0.22315789  0.03444337  0.81494950  1
  P  P10  1  0.75158311  0.99645526  0.44131317  1
  P  P11  1  0.25158311  0.99645526  0.05868683  1
  P  P12  1  0.75373862  0.49834174  0.06587665  1
  P  P13  1  0.25373862  0.49834174  0.43412335  1
  P  P14  1  0.24626138  0.50165826  0.93412335  1
  P  P15  1  0.24841689  0.00354474  0.55868683  1
  Ca  Ca16  1  0.98801548  0.78507713  0.68305003  1
  Ca  Ca17  1  0.51198452  0.21492287  0.18305003  1
  Ca  Ca18  1  0.98824570  0.74258223  0.93988285  1
  Ca  Ca19  1  0.48801548  0.78507713  0.81694997  1
  Ca  Ca20  1  0.00409189  0.26241946  0.56023829  1
  Ca  Ca21  1  0.49590811  0.73758054  0.06023829  1
  Ca  Ca22  1  0.99590811  0.73758054  0.43976171  1
  Ca  Ca23  1  0.50409189  0.26241946  0.93976171  1
  Ca  Ca24  1  0.48824570  0.74258223  0.56011715  1
  Ca  Ca25  1  0.01175430  0.25741777  0.06011715  1
  Ca  Ca26  1  0.51175430  0.25741777  0.43988285  1
  Ca  Ca27  1  0.01198452  0.21492287  0.31694997  1
  Ge  Ge28  1  0.96979197  0.79094944  0.12550097  1
  Ge  Ge29  1  0.03020803  0.20905056  0.87449903  1
  Ge  Ge30  1  0.46979197  0.79094944  0.37449903  1
  Ge  Ge31  1  0.91530105  0.31955727  0.75755062  1
  Ge  Ge32  1  0.58469895  0.68044273  0.25755062  1
  Ge  Ge33  1  0.08469895  0.68044273  0.24244938  1
  Ge  Ge34  1  0.41530105  0.31955727  0.74244938  1
  Ge  Ge35  1  0.53020803  0.20905056  0.62550097  1
