# generated using pymatgen
data_Rb3Ge4Au
_symmetry_space_group_name_H-M   'P 1'
_cell_length_a   6.22931223
_cell_length_b   6.99908666
_cell_length_c   12.72092709
_cell_angle_alpha   90.00000000
_cell_angle_beta   90.00000000
_cell_angle_gamma   90.00000000
_symmetry_Int_Tables_number   1
_chemical_formula_structural   Rb3Ge4Au
_chemical_formula_sum   'Rb6 Ge8 Au2'
_cell_volume   554.62601143
_cell_formula_units_Z   2
loop_
 _symmetry_equiv_pos_site_id
 _symmetry_equiv_pos_as_xyz
  1  'x, y, z'
loop_
 _atom_site_type_symbol
 _atom_site_label
 _atom_site_symmetry_multiplicity
 _atom_site_fract_x
 _atom_site_fract_y
 _atom_site_fract_z
 _atom_site_occupancy
  Ge  Ge0  1  0.32963998  0.75000000  0.35925318  1
  Ge  Ge1  1  0.32963998  0.75000000  0.14074682  1
  Ge  Ge2  1  0.05984787  0.55220639  0.25000000  1
  Ge  Ge3  1  0.05984787  0.94779361  0.25000000  1
  Ge  Ge4  1  0.94015213  0.05220639  0.75000000  1
  Ge  Ge5  1  0.94015213  0.44779361  0.75000000  1
  Ge  Ge6  1  0.67036002  0.25000000  0.64074682  1
  Ge  Ge7  1  0.67036002  0.25000000  0.85925318  1
  Rb  Rb8  1  0.42424712  0.75000000  0.75000000  1
  Rb  Rb9  1  0.57575288  0.25000000  0.25000000  1
  Rb  Rb10  1  0.16653054  0.25000000  0.01408509  1
  Rb  Rb11  1  0.16653054  0.25000000  0.48591491  1
  Rb  Rb12  1  0.83346946  0.75000000  0.98591491  1
  Rb  Rb13  1  0.83346946  0.75000000  0.51408509  1
  Au  Au14  1  0.69311879  0.75000000  0.25000000  1
  Au  Au15  1  0.30688121  0.25000000  0.75000000  1
