# generated using pymatgen
data_Y5Ge3
_symmetry_space_group_name_H-M   'P 1'
_cell_length_a   8.53007815
_cell_length_b   8.53007816
_cell_length_c   6.44094349
_cell_angle_alpha   90.00000000
_cell_angle_beta   90.00000000
_cell_angle_gamma   120.00000001
_symmetry_Int_Tables_number   1
_chemical_formula_structural   Y5Ge3
_chemical_formula_sum   'Y10 Ge6'
_cell_volume   405.86924257
_cell_formula_units_Z   2
loop_
 _symmetry_equiv_pos_site_id
 _symmetry_equiv_pos_as_xyz
  1  'x, y, z'
loop_
 _atom_site_type_symbol
 _atom_site_label
 _atom_site_symmetry_multiplicity
 _atom_site_fract_x
 _atom_site_fract_y
 _atom_site_fract_z
 _atom_site_occupancy
  Ge  Ge0  1  0.39376514  0.00000000  0.75000000  1
  Ge  Ge1  1  0.39376514  0.39376514  0.25000000  1
  Ge  Ge2  1  0.00000000  0.60623486  0.25000000  1
  Ge  Ge3  1  0.00000000  0.39376514  0.75000000  1
  Ge  Ge4  1  0.60623486  0.60623486  0.75000000  1
  Ge  Ge5  1  0.60623486  0.00000000  0.25000000  1
  Y  Y6  1  0.00000000  0.75769423  0.75000000  1
  Y  Y7  1  0.00000000  0.24230577  0.25000000  1
  Y  Y8  1  0.75769423  0.75769423  0.25000000  1
  Y  Y9  1  0.75769423  0.00000000  0.75000000  1
  Y  Y10  1  0.24230577  0.24230577  0.75000000  1
  Y  Y11  1  0.24230577  0.00000000  0.25000000  1
  Y  Y12  1  0.33333333  0.66666667  0.50000000  1
  Y  Y13  1  0.66666667  0.33333333  0.00000000  1
  Y  Y14  1  0.66666667  0.33333333  0.50000000  1
  Y  Y15  1  0.33333333  0.66666667  0.00000000  1
