# generated using pymatgen
data_Ba2SnSe3F2
_symmetry_space_group_name_H-M   'P 1'
_cell_length_a   6.49112612
_cell_length_b   6.56806509
_cell_length_c   20.11879512
_cell_angle_alpha   90.00000000
_cell_angle_beta   90.00000000
_cell_angle_gamma   90.00000000
_symmetry_Int_Tables_number   1
_chemical_formula_structural   Ba2SnSe3F2
_chemical_formula_sum   'Ba8 Sn4 Se12 F8'
_cell_volume   857.74750491
_cell_formula_units_Z   4
loop_
 _symmetry_equiv_pos_site_id
 _symmetry_equiv_pos_as_xyz
  1  'x, y, z'
loop_
 _atom_site_type_symbol
 _atom_site_label
 _atom_site_symmetry_multiplicity
 _atom_site_fract_x
 _atom_site_fract_y
 _atom_site_fract_z
 _atom_site_occupancy
  F  F0  1  0.49850473  0.25384225  0.00127567  1
  F  F1  1  0.99850473  0.24615775  0.49872433  1
  F  F2  1  0.50149527  0.74615775  0.50127567  1
  F  F3  1  0.49850473  0.25384225  0.49872433  1
  F  F4  1  0.99850473  0.24615775  0.00127567  1
  F  F5  1  0.00149527  0.75384225  0.50127567  1
  F  F6  1  0.50149527  0.74615775  0.99872433  1
  F  F7  1  0.00149527  0.75384225  0.99872433  1
  Se  Se8  1  0.74220423  0.51410043  0.86476375  1
  Se  Se9  1  0.74646012  0.52306627  0.25000000  1
  Se  Se10  1  0.75353988  0.02306627  0.75000000  1
  Se  Se11  1  0.25353988  0.47693373  0.75000000  1
  Se  Se12  1  0.24220423  0.98589957  0.63523625  1
  Se  Se13  1  0.75779577  0.01410043  0.13523625  1
  Se  Se14  1  0.25779577  0.48589957  0.36476375  1
  Se  Se15  1  0.25779577  0.48589957  0.13523625  1
  Se  Se16  1  0.74220423  0.51410043  0.63523625  1
  Se  Se17  1  0.24220423  0.98589957  0.86476375  1
  Se  Se18  1  0.24646012  0.97693373  0.25000000  1
  Se  Se19  1  0.75779577  0.01410043  0.36476375  1
  Sn  Sn20  1  0.14529938  0.59063677  0.25000000  1
  Sn  Sn21  1  0.64529938  0.90936323  0.25000000  1
  Sn  Sn22  1  0.35470062  0.09063677  0.75000000  1
  Sn  Sn23  1  0.85470062  0.40936323  0.75000000  1
  Ba  Ba24  1  0.24570378  0.49532618  0.57285504  1
  Ba  Ba25  1  0.74570378  0.00467382  0.92714496  1
  Ba  Ba26  1  0.25429622  0.99532618  0.42714496  1
  Ba  Ba27  1  0.75429622  0.50467382  0.07285504  1
  Ba  Ba28  1  0.75429622  0.50467382  0.42714496  1
  Ba  Ba29  1  0.25429622  0.99532618  0.07285504  1
  Ba  Ba30  1  0.74570378  0.00467382  0.57285504  1
  Ba  Ba31  1  0.24570378  0.49532618  0.92714496  1
