# generated using pymatgen
data_Sr5As3O12F
_symmetry_space_group_name_H-M   'P 1'
_cell_length_a   10.16641615
_cell_length_b   10.16641615
_cell_length_c   7.49606954
_cell_angle_alpha   90.00000000
_cell_angle_beta   90.00000000
_cell_angle_gamma   120.00000000
_symmetry_Int_Tables_number   1
_chemical_formula_structural   Sr5As3O12F
_chemical_formula_sum   'Sr10 As6 O24 F2'
_cell_volume   670.96521345
_cell_formula_units_Z   2
loop_
 _symmetry_equiv_pos_site_id
 _symmetry_equiv_pos_as_xyz
  1  'x, y, z'
loop_
 _atom_site_type_symbol
 _atom_site_label
 _atom_site_symmetry_multiplicity
 _atom_site_fract_x
 _atom_site_fract_y
 _atom_site_fract_z
 _atom_site_occupancy
  O  O0  1  0.67835383  0.51414478  0.75000000  1
  O  O1  1  0.46992997  0.87466362  0.75000000  1
  O  O2  1  0.34249813  0.25155234  0.43357903  1
  O  O3  1  0.09094579  0.34249813  0.93357903  1
  O  O4  1  0.25155234  0.90905421  0.93357903  1
  O  O5  1  0.74844766  0.09094579  0.43357903  1
  O  O6  1  0.90905421  0.65750187  0.43357903  1
  O  O7  1  0.65750187  0.74844766  0.93357903  1
  O  O8  1  0.65750187  0.74844766  0.56642097  1
  O  O9  1  0.90905421  0.65750187  0.06642097  1
  O  O10  1  0.74844766  0.09094579  0.06642097  1
  O  O11  1  0.25155234  0.90905421  0.56642097  1
  O  O12  1  0.12533638  0.59526635  0.75000000  1
  O  O13  1  0.34249813  0.25155234  0.06642097  1
  O  O14  1  0.40473365  0.53007003  0.75000000  1
  O  O15  1  0.87466362  0.40473365  0.25000000  1
  O  O16  1  0.32164617  0.48585522  0.25000000  1
  O  O17  1  0.83579096  0.32164617  0.75000000  1
  O  O18  1  0.48585522  0.16420904  0.75000000  1
  O  O19  1  0.51414478  0.83579096  0.25000000  1
  O  O20  1  0.16420904  0.67835383  0.25000000  1
  O  O21  1  0.09094579  0.34249813  0.56642097  1
  O  O22  1  0.59526635  0.46992997  0.25000000  1
  O  O23  1  0.53007003  0.12533638  0.25000000  1
  F  F24  1  0.00000000  0.00000000  0.25000000  1
  F  F25  1  0.00000000  0.00000000  0.75000000  1
  As  As26  1  0.63087522  0.02989920  0.25000000  1
  As  As27  1  0.97010080  0.60097602  0.25000000  1
  As  As28  1  0.60097602  0.63087522  0.75000000  1
  As  As29  1  0.36912478  0.97010080  0.75000000  1
  As  As30  1  0.02989920  0.39902398  0.75000000  1
  As  As31  1  0.39902398  0.36912478  0.25000000  1
  Sr  Sr32  1  0.75202378  0.75860094  0.25000000  1
  Sr  Sr33  1  0.00657716  0.24797622  0.25000000  1
  Sr  Sr34  1  0.75860094  0.00657716  0.75000000  1
  Sr  Sr35  1  0.99342284  0.75202378  0.75000000  1
  Sr  Sr36  1  0.24797622  0.24139906  0.75000000  1
  Sr  Sr37  1  0.24139906  0.99342284  0.25000000  1
  Sr  Sr38  1  0.33333333  0.66666667  0.49941595  1
  Sr  Sr39  1  0.66666667  0.33333333  0.99941595  1
  Sr  Sr40  1  0.66666667  0.33333333  0.50058405  1
  Sr  Sr41  1  0.33333333  0.66666667  0.00058405  1
