# generated using pymatgen
data_K3Na(SeO4)2
_symmetry_space_group_name_H-M   'P 1'
_cell_length_a   5.98114518
_cell_length_b   5.98253899
_cell_length_c   15.41041971
_cell_angle_alpha   89.86870653
_cell_angle_beta   90.00000000
_cell_angle_gamma   119.99229337
_symmetry_Int_Tables_number   1
_chemical_formula_structural   K3Na(SeO4)2
_chemical_formula_sum   'K6 Na2 Se4 O16'
_cell_volume   477.58115524
_cell_formula_units_Z   2
loop_
 _symmetry_equiv_pos_site_id
 _symmetry_equiv_pos_as_xyz
  1  'x, y, z'
loop_
 _atom_site_type_symbol
 _atom_site_label
 _atom_site_symmetry_multiplicity
 _atom_site_fract_x
 _atom_site_fract_y
 _atom_site_fract_z
 _atom_site_occupancy
  O  O0  1  0.77101672  0.63025778  0.59435972  1
  O  O1  1  0.14075894  0.36974222  0.90564028  1
  O  O2  1  0.22898328  0.36974222  0.40564028  1
  O  O3  1  0.85924106  0.63025778  0.09435972  1
  O  O4  1  0.32458546  0.17002031  0.61799945  1
  O  O5  1  0.15456514  0.82997969  0.88200055  1
  O  O6  1  0.67541454  0.82997969  0.38200055  1
  O  O7  1  0.84543486  0.17002031  0.11799945  1
  O  O8  1  0.77332423  0.17889188  0.57698485  1
  O  O9  1  0.59443234  0.82110812  0.92301515  1
  O  O10  1  0.22667577  0.82110812  0.42301515  1
  O  O11  1  0.40556766  0.17889188  0.07698485  1
  O  O12  1  0.61296348  0.33614589  0.23758858  1
  O  O13  1  0.27681759  0.66385411  0.26241142  1
  O  O14  1  0.38703652  0.66385411  0.76241142  1
  O  O15  1  0.72318241  0.33614589  0.73758858  1
  Na  Na16  1  0.00000000  0.00000000  0.50000000  1
  Na  Na17  1  0.00000000  0.00000000  0.00000000  1
  K  K18  1  0.94719471  0.00000000  0.75000000  1
  K  K19  1  0.05280529  0.00000000  0.25000000  1
  K  K20  1  0.64389429  0.33922254  0.90694730  1
  K  K21  1  0.30467175  0.66077746  0.59305270  1
  K  K22  1  0.35610571  0.66077746  0.09305270  1
  K  K23  1  0.69532825  0.33922254  0.40694730  1
  Se  Se24  1  0.64556704  0.32862394  0.63377508  1
  Se  Se25  1  0.31694311  0.67137606  0.86622492  1
  Se  Se26  1  0.35443296  0.67137606  0.36622492  1
  Se  Se27  1  0.68305689  0.32862394  0.13377508  1
