# generated using pymatgen
data_Cs3SbSe4
_symmetry_space_group_name_H-M   'P 1'
_cell_length_a   10.42683000
_cell_length_b   10.86888049
_cell_length_c   12.19263883
_cell_angle_alpha   90.00000000
_cell_angle_beta   90.00000000
_cell_angle_gamma   90.00000000
_symmetry_Int_Tables_number   1
_chemical_formula_structural   Cs3SbSe4
_chemical_formula_sum   'Cs12 Sb4 Se16'
_cell_volume   1381.76699730
_cell_formula_units_Z   4
loop_
 _symmetry_equiv_pos_site_id
 _symmetry_equiv_pos_as_xyz
  1  'x, y, z'
loop_
 _atom_site_type_symbol
 _atom_site_label
 _atom_site_symmetry_multiplicity
 _atom_site_fract_x
 _atom_site_fract_y
 _atom_site_fract_z
 _atom_site_occupancy
  Se  Se0  1  0.64755044  0.96837258  0.07840315  1
  Se  Se1  1  0.14755044  0.53162742  0.42159685  1
  Se  Se2  1  0.85244956  0.46837258  0.92159685  1
  Se  Se3  1  0.35244956  0.03162742  0.57840315  1
  Se  Se4  1  0.35244956  0.03162742  0.92159685  1
  Se  Se5  1  0.85244956  0.46837258  0.57840315  1
  Se  Se6  1  0.14755044  0.53162742  0.07840315  1
  Se  Se7  1  0.64755044  0.96837258  0.42159685  1
  Se  Se8  1  0.01522222  0.08580661  0.75000000  1
  Se  Se9  1  0.80870758  0.25023690  0.25000000  1
  Se  Se10  1  0.48477778  0.58580661  0.25000000  1
  Se  Se11  1  0.98477778  0.91419339  0.25000000  1
  Se  Se12  1  0.19129242  0.74976310  0.75000000  1
  Se  Se13  1  0.69129242  0.75023690  0.75000000  1
  Se  Se14  1  0.30870758  0.24976310  0.25000000  1
  Se  Se15  1  0.51522222  0.41419339  0.75000000  1
  Sb  Sb16  1  0.76983215  0.02168059  0.25000000  1
  Sb  Sb17  1  0.73016785  0.52168059  0.75000000  1
  Sb  Sb18  1  0.26983215  0.47831941  0.25000000  1
  Sb  Sb19  1  0.23016785  0.97831941  0.75000000  1
  Cs  Cs20  1  0.05729131  0.19734983  0.04376634  1
  Cs  Cs21  1  0.64371412  0.07928029  0.75000000  1
  Cs  Cs22  1  0.35628588  0.92071971  0.25000000  1
  Cs  Cs23  1  0.85628588  0.57928029  0.25000000  1
  Cs  Cs24  1  0.14371412  0.42071971  0.75000000  1
  Cs  Cs25  1  0.55729131  0.30265017  0.45623366  1
  Cs  Cs26  1  0.44270869  0.69734983  0.95623366  1
  Cs  Cs27  1  0.94270869  0.80265017  0.54376634  1
  Cs  Cs28  1  0.94270869  0.80265017  0.95623366  1
  Cs  Cs29  1  0.44270869  0.69734983  0.54376634  1
  Cs  Cs30  1  0.55729131  0.30265017  0.04376634  1
  Cs  Cs31  1  0.05729131  0.19734983  0.45623366  1
