# generated using pymatgen
data_Li2VOF3
_symmetry_space_group_name_H-M   'P 1'
_cell_length_a   5.01875811
_cell_length_b   11.59613319
_cell_length_c   5.17862356
_cell_angle_alpha   90.00014508
_cell_angle_beta   90.00733597
_cell_angle_gamma   89.99936895
_symmetry_Int_Tables_number   1
_chemical_formula_structural   Li2VOF3
_chemical_formula_sum   'Li8 V4 O4 F12'
_cell_volume   301.38650247
_cell_formula_units_Z   4
loop_
 _symmetry_equiv_pos_site_id
 _symmetry_equiv_pos_as_xyz
  1  'x, y, z'
loop_
 _atom_site_type_symbol
 _atom_site_label
 _atom_site_symmetry_multiplicity
 _atom_site_fract_x
 _atom_site_fract_y
 _atom_site_fract_z
 _atom_site_occupancy
  Li  Li0  1  0.00000467  0.20797448  0.75000742  1
  Li  Li1  1  0.00000543  0.35209074  0.24999491  1
  Li  Li2  1  0.99999864  0.62752423  0.74999863  1
  Li  Li3  1  0.99999886  0.77840046  0.25000317  1
  Li  Li4  1  0.49999442  0.27835763  0.24999337  1
  Li  Li5  1  0.50000388  0.70809308  0.74999515  1
  Li  Li6  1  0.50000375  0.85211448  0.25000278  1
  Li  Li7  1  0.49999660  0.12751609  0.75000294  1
  V  V8  1  0.99998930  0.07152410  0.25000438  1
  V  V9  1  -0.00000468  0.94276888  0.74999985  1
  V  V10  1  0.50000207  0.57155762  0.24999782  1
  V  V11  1  0.49999108  0.44270631  0.74999329  1
  O  O12  1  0.20025424  0.06046255  0.57126582  1
  O  O13  1  0.29987059  0.56043026  0.57128536  1
  O  O14  1  0.70013924  0.56042715  0.92871967  1
  O  O15  1  0.79975939  0.06046651  0.92872137  1
  F  F16  1  0.22459349  0.93974335  0.08681776  1
  F  F17  1  0.22229161  0.19741889  0.07824763  1
  F  F18  1  0.21668843  0.81225621  0.57015358  1
  F  F19  1  0.28332262  0.31217780  0.57008892  1
  F  F20  1  0.27772401  0.69748144  0.07826138  1
  F  F21  1  0.27539568  0.43971760  0.08673867  1
  F  F22  1  0.72459639  0.43971882  0.41324960  1
  F  F23  1  0.71667948  0.31218037  0.92990901  1
  F  F24  1  0.72228802  0.69748645  0.42175104  1
  F  F25  1  0.77770634  0.19741696  0.42174549  1
  F  F26  1  0.78331884  0.81225334  0.92985118  1
  F  F27  1  0.77538759  0.93973817  0.41319979  1
