# generated using pymatgen
data_La6Ni6P17
_symmetry_space_group_name_H-M   'P 1'
_cell_length_a   8.82586486
_cell_length_b   8.82586486
_cell_length_c   8.82586486
_cell_angle_alpha   109.47122061
_cell_angle_beta   109.47122061
_cell_angle_gamma   109.47122069
_symmetry_Int_Tables_number   1
_chemical_formula_structural   La6Ni6P17
_chemical_formula_sum   'La6 Ni6 P17'
_cell_volume   529.23667117
_cell_formula_units_Z   1
loop_
 _symmetry_equiv_pos_site_id
 _symmetry_equiv_pos_as_xyz
  1  'x, y, z'
loop_
 _atom_site_type_symbol
 _atom_site_label
 _atom_site_symmetry_multiplicity
 _atom_site_fract_x
 _atom_site_fract_y
 _atom_site_fract_z
 _atom_site_occupancy
  P  P0  1  0.00000000  0.00000000  0.00000000  1
  P  P1  1  0.00000000  0.00000000  0.57229913  1
  P  P2  1  0.00000000  0.57229913  0.00000000  1
  P  P3  1  0.57229913  0.00000000  0.00000000  1
  P  P4  1  0.42770087  0.42770087  0.42770087  1
  P  P5  1  0.23204502  0.23204502  0.59840453  1
  P  P6  1  0.63364048  0.40159547  0.63364048  1
  P  P7  1  0.40159547  0.63364048  0.63364048  1
  P  P8  1  0.00000000  0.36635952  0.76795498  1
  P  P9  1  0.36635952  0.00000000  0.76795498  1
  P  P10  1  0.76795498  0.00000000  0.36635952  1
  P  P11  1  0.23204502  0.59840453  0.23204502  1
  P  P12  1  0.63364048  0.63364048  0.40159547  1
  P  P13  1  0.36635952  0.76795498  0.00000000  1
  P  P14  1  0.76795498  0.36635952  0.00000000  1
  P  P15  1  0.00000000  0.76795498  0.36635952  1
  P  P16  1  0.59840453  0.23204502  0.23204502  1
  Ni  Ni17  1  0.50000000  0.75000000  0.25000000  1
  Ni  Ni18  1  0.25000000  0.75000000  0.50000000  1
  Ni  Ni19  1  0.75000000  0.25000000  0.50000000  1
  Ni  Ni20  1  0.25000000  0.50000000  0.75000000  1
  Ni  Ni21  1  0.75000000  0.50000000  0.25000000  1
  Ni  Ni22  1  0.50000000  0.25000000  0.75000000  1
  La  La23  1  0.00000000  0.71039192  0.71039192  1
  La  La24  1  0.71039192  0.71039192  0.00000000  1
  La  La25  1  0.28960808  0.28960808  0.00000000  1
  La  La26  1  0.28960808  0.00000000  0.28960808  1
  La  La27  1  0.71039192  0.00000000  0.71039192  1
  La  La28  1  0.00000000  0.28960808  0.28960808  1
