# generated using pymatgen
data_CaTiGeO5
_symmetry_space_group_name_H-M   'P 1'
_cell_length_a   6.77137991
_cell_length_b   7.27788887
_cell_length_c   8.96593773
_cell_angle_alpha   90.00000000
_cell_angle_beta   90.00000000
_cell_angle_gamma   114.30346595
_symmetry_Int_Tables_number   1
_chemical_formula_structural   CaTiGeO5
_chemical_formula_sum   'Ca4 Ti4 Ge4 O20'
_cell_volume   402.69574581
_cell_formula_units_Z   4
loop_
 _symmetry_equiv_pos_site_id
 _symmetry_equiv_pos_as_xyz
  1  'x, y, z'
loop_
 _atom_site_type_symbol
 _atom_site_label
 _atom_site_symmetry_multiplicity
 _atom_site_fract_x
 _atom_site_fract_y
 _atom_site_fract_z
 _atom_site_occupancy
  O  O0  1  0.85324390  0.10714020  0.45871681  1
  O  O1  1  0.14675610  0.39285980  0.95871681  1
  O  O2  1  0.14675610  0.89285980  0.54128319  1
  O  O3  1  0.85324390  0.60714020  0.04128319  1
  O  O4  1  0.64569610  0.89496711  0.03989724  1
  O  O5  1  0.35430390  0.60503289  0.53989724  1
  O  O6  1  0.35430390  0.10503289  0.96010276  1
  O  O7  1  0.64569610  0.39496711  0.46010276  1
  O  O8  1  0.05721400  0.58015332  0.30594247  1
  O  O9  1  0.94278600  0.91984668  0.80594247  1
  O  O10  1  0.94278600  0.41984668  0.69405753  1
  O  O11  1  0.05721400  0.08015332  0.19405753  1
  O  O12  1  0.75101790  0.74975006  0.31694471  1
  O  O13  1  0.24898210  0.75024994  0.81694471  1
  O  O14  1  0.24898210  0.25024994  0.68305529  1
  O  O15  1  0.75101790  0.24975006  0.18305529  1
  O  O16  1  0.43968851  0.91600152  0.30606291  1
  O  O17  1  0.56031149  0.58399848  0.80606291  1
  O  O18  1  0.56031149  0.08399848  0.69393709  1
  O  O19  1  0.43968851  0.41600152  0.19393709  1
  Ca  Ca20  1  0.25015059  0.24363506  0.42490436  1
  Ca  Ca21  1  0.74984941  0.25636494  0.92490436  1
  Ca  Ca22  1  0.74984941  0.75636494  0.57509564  1
  Ca  Ca23  1  0.25015059  0.74363506  0.07509564  1
  Ti  Ti24  1  0.74901169  0.01425856  0.24593483  1
  Ti  Ti25  1  0.25098831  0.48574144  0.74593483  1
  Ti  Ti26  1  0.25098831  0.98574144  0.75406517  1
  Ti  Ti27  1  0.74901169  0.51425856  0.25406517  1
  Ge  Ge28  1  0.24855410  0.74768368  0.43162188  1
  Ge  Ge29  1  0.75144590  0.75231632  0.93162188  1
  Ge  Ge30  1  0.75144590  0.25231632  0.56837812  1
  Ge  Ge31  1  0.24855410  0.24768368  0.06837812  1
