# generated using pymatgen
data_Hf2CuGe4
_symmetry_space_group_name_H-M   'P 1'
_cell_length_a   3.79489250
_cell_length_b   3.81999636
_cell_length_c   16.68011316
_cell_angle_alpha   96.57521962
_cell_angle_beta   90.00000000
_cell_angle_gamma   90.00000000
_symmetry_Int_Tables_number   1
_chemical_formula_structural   Hf2CuGe4
_chemical_formula_sum   'Hf4 Cu2 Ge8'
_cell_volume   240.21236601
_cell_formula_units_Z   2
loop_
 _symmetry_equiv_pos_site_id
 _symmetry_equiv_pos_as_xyz
  1  'x, y, z'
loop_
 _atom_site_type_symbol
 _atom_site_label
 _atom_site_symmetry_multiplicity
 _atom_site_fract_x
 _atom_site_fract_y
 _atom_site_fract_z
 _atom_site_occupancy
  Cu  Cu0  1  0.75000000  0.74989261  0.49978522  1
  Cu  Cu1  1  0.25000000  0.25010739  0.50021478  1
  Ge  Ge2  1  0.25000000  0.11326525  0.22653051  1
  Ge  Ge3  1  0.75000000  0.88673475  0.77346949  1
  Ge  Ge4  1  0.25000000  0.79859960  0.59719921  1
  Ge  Ge5  1  0.75000000  0.20140040  0.40280079  1
  Ge  Ge6  1  0.75000000  0.47210763  0.94421527  1
  Ge  Ge7  1  0.25000000  0.52789237  0.05578473  1
  Ge  Ge8  1  0.75000000  0.61294222  0.22588444  1
  Ge  Ge9  1  0.25000000  0.38705778  0.77411556  1
  Hf  Hf10  1  0.25000000  0.67774585  0.35549169  1
  Hf  Hf11  1  0.75000000  0.32225415  0.64450831  1
  Hf  Hf12  1  0.25000000  0.95265617  0.90531233  1
  Hf  Hf13  1  0.75000000  0.04734383  0.09468767  1
