# generated using pymatgen
data_KNa2GaO3
_symmetry_space_group_name_H-M   'P 1'
_cell_length_a   6.24559778
_cell_length_b   6.56647384
_cell_length_c   10.34757099
_cell_angle_alpha   90.00000000
_cell_angle_beta   90.00000000
_cell_angle_gamma   90.00000000
_symmetry_Int_Tables_number   1
_chemical_formula_structural   KNa2GaO3
_chemical_formula_sum   'K4 Na8 Ga4 O12'
_cell_volume   424.36997095
_cell_formula_units_Z   4
loop_
 _symmetry_equiv_pos_site_id
 _symmetry_equiv_pos_as_xyz
  1  'x, y, z'
loop_
 _atom_site_type_symbol
 _atom_site_label
 _atom_site_symmetry_multiplicity
 _atom_site_fract_x
 _atom_site_fract_y
 _atom_site_fract_z
 _atom_site_occupancy
  O  O0  1  0.25000000  0.21363987  0.67010887  1
  O  O1  1  0.50000000  0.00000000  0.00000000  1
  O  O2  1  0.00000000  0.00000000  0.00000000  1
  O  O3  1  0.25000000  0.67480620  0.14075790  1
  O  O4  1  0.75000000  0.32519380  0.85924210  1
  O  O5  1  0.25000000  0.17480620  0.35924210  1
  O  O6  1  0.75000000  0.82519380  0.64075790  1
  O  O7  1  0.75000000  0.28636013  0.17010887  1
  O  O8  1  0.00000000  0.50000000  0.50000000  1
  O  O9  1  0.50000000  0.50000000  0.50000000  1
  O  O10  1  0.75000000  0.78636013  0.32989113  1
  O  O11  1  0.25000000  0.71363987  0.82989113  1
  Na  Na12  1  0.49333769  0.49246847  0.26905908  1
  Na  Na13  1  0.50666231  0.00753153  0.76905908  1
  Na  Na14  1  0.49333769  0.99246847  0.23094092  1
  Na  Na15  1  0.00666231  0.49246847  0.26905908  1
  Na  Na16  1  0.50666231  0.50753153  0.73094092  1
  Na  Na17  1  0.99333769  0.50753153  0.73094092  1
  Na  Na18  1  0.99333769  0.00753153  0.76905908  1
  Na  Na19  1  0.00666231  0.99246847  0.23094092  1
  K  K20  1  0.75000000  0.15953627  0.47410579  1
  K  K21  1  0.25000000  0.34046373  0.97410579  1
  K  K22  1  0.25000000  0.84046373  0.52589421  1
  K  K23  1  0.75000000  0.65953627  0.02589421  1
  Ga  Ga24  1  0.25000000  0.33011004  0.50795139  1
  Ga  Ga25  1  0.25000000  0.83011004  0.99204861  1
  Ga  Ga26  1  0.75000000  0.16988996  0.00795139  1
  Ga  Ga27  1  0.75000000  0.66988996  0.49204861  1
