# generated using pymatgen
data_Li3MnO2F
_symmetry_space_group_name_H-M   'P 1'
_cell_length_a   9.02142920
_cell_length_b   9.98299786
_cell_length_c   3.55471689
_cell_angle_alpha   90.00000000
_cell_angle_beta   90.00000000
_cell_angle_gamma   90.00000000
_symmetry_Int_Tables_number   1
_chemical_formula_structural   Li3MnO2F
_chemical_formula_sum   'Li12 Mn4 O8 F4'
_cell_volume   320.14103221
_cell_formula_units_Z   4
loop_
 _symmetry_equiv_pos_site_id
 _symmetry_equiv_pos_as_xyz
  1  'x, y, z'
loop_
 _atom_site_type_symbol
 _atom_site_label
 _atom_site_symmetry_multiplicity
 _atom_site_fract_x
 _atom_site_fract_y
 _atom_site_fract_z
 _atom_site_occupancy
  Li  Li0  1  0.09568973  0.34393162  0.50000000  1
  Li  Li1  1  0.15351917  0.57269607  0.00000000  1
  Li  Li2  1  0.16705749  0.18024634  0.00000000  1
  Li  Li3  1  0.33294251  0.68024634  0.50000000  1
  Li  Li4  1  0.34648083  0.07269607  0.50000000  1
  Li  Li5  1  0.40431027  0.84393162  0.00000000  1
  Li  Li6  1  0.59568973  0.15606838  0.00000000  1
  Li  Li7  1  0.65351917  0.92730393  0.50000000  1
  Li  Li8  1  0.66705749  0.31975366  0.50000000  1
  Li  Li9  1  0.83294251  0.81975366  0.00000000  1
  Li  Li10  1  0.84648083  0.42730393  0.00000000  1
  Li  Li11  1  0.90431027  0.65606838  0.50000000  1
  Mn  Mn12  1  0.11530392  0.89796768  0.50000000  1
  Mn  Mn13  1  0.38469608  0.39796768  0.00000000  1
  Mn  Mn14  1  0.61530392  0.60203232  0.00000000  1
  Mn  Mn15  1  0.88469608  0.10203232  0.50000000  1
  O  O16  1  0.10616320  0.11629868  0.50000000  1
  O  O17  1  0.16984441  0.37810730  0.00000000  1
  O  O18  1  0.33015559  0.87810730  0.50000000  1
  O  O19  1  0.39383680  0.61629868  0.00000000  1
  O  O20  1  0.60616320  0.38370132  0.00000000  1
  O  O21  1  0.66984441  0.12189270  0.50000000  1
  O  O22  1  0.83015559  0.62189270  0.00000000  1
  O  O23  1  0.89383680  0.88370132  0.50000000  1
  F  F24  1  0.11752207  0.64544074  0.50000000  1
  F  F25  1  0.38247793  0.14544074  0.00000000  1
  F  F26  1  0.61752207  0.85455926  0.00000000  1
  F  F27  1  0.88247793  0.35455926  0.50000000  1
