# generated using pymatgen
data_SrGaSiH
_symmetry_space_group_name_H-M   'P 1'
_cell_length_a   4.20209480
_cell_length_b   4.20209366
_cell_length_c   4.94781903
_cell_angle_alpha   89.99871092
_cell_angle_beta   90.00124571
_cell_angle_gamma   120.00069086
_symmetry_Int_Tables_number   1
_chemical_formula_structural   SrGaSiH
_chemical_formula_sum   'Sr1 Ga1 Si1 H1'
_cell_volume   75.66115888
_cell_formula_units_Z   1
loop_
 _symmetry_equiv_pos_site_id
 _symmetry_equiv_pos_as_xyz
  1  'x, y, z'
loop_
 _atom_site_type_symbol
 _atom_site_label
 _atom_site_symmetry_multiplicity
 _atom_site_fract_x
 _atom_site_fract_y
 _atom_site_fract_z
 _atom_site_occupancy
  Sr  Sr0  1  0.00000131  0.99999569  0.99685827  1
  Ga  Ga1  1  0.66667653  0.33332347  0.54767590  1
  Si  Si2  1  0.33334471  0.66665629  0.44404200  1
  H  H3  1  0.66667445  0.33332255  0.90832384  1
