# generated using pymatgen
data_Nb2Tl4S11
_symmetry_space_group_name_H-M   'P 1'
_cell_length_a   8.15813075
_cell_length_b   9.19623144
_cell_length_c   13.50160417
_cell_angle_alpha   72.24291020
_cell_angle_beta   89.04470803
_cell_angle_gamma   85.03771276
_symmetry_Int_Tables_number   1
_chemical_formula_structural   Nb2Tl4S11
_chemical_formula_sum   'Nb4 Tl8 S22'
_cell_volume   961.02036976
_cell_formula_units_Z   2
loop_
 _symmetry_equiv_pos_site_id
 _symmetry_equiv_pos_as_xyz
  1  'x, y, z'
loop_
 _atom_site_type_symbol
 _atom_site_label
 _atom_site_symmetry_multiplicity
 _atom_site_fract_x
 _atom_site_fract_y
 _atom_site_fract_z
 _atom_site_occupancy
  S  S0  1  0.99265116  0.28833419  0.46659526  1
  S  S1  1  0.00734884  0.71166581  0.53340474  1
  S  S2  1  0.38613748  0.19170985  0.37161474  1
  S  S3  1  0.61386252  0.80829015  0.62838526  1
  S  S4  1  0.95316671  0.36117503  0.75145568  1
  S  S5  1  0.04683329  0.63882497  0.24854432  1
  S  S6  1  0.89928226  0.51047346  0.18859577  1
  S  S7  1  0.10071774  0.48952654  0.81140423  1
  S  S8  1  0.60939643  0.57591332  0.64625068  1
  S  S9  1  0.39060357  0.42408668  0.35374932  1
  S  S10  1  0.63967164  0.12827034  0.66758242  1
  S  S11  1  0.36032836  0.87172966  0.33241758  1
  S  S12  1  0.27173817  0.04334591  0.04448427  1
  S  S13  1  0.72826183  0.95665409  0.95551573  1
  S  S14  1  0.48371391  0.68386843  0.88198321  1
  S  S15  1  0.51628609  0.31613157  0.11801679  1
  S  S16  1  0.27071414  0.39651994  0.11363832  1
  S  S17  1  0.72928586  0.60348006  0.88636168  1
  S  S18  1  0.04228960  0.13685353  0.25219914  1
  S  S19  1  0.95771040  0.86314647  0.74780086  1
  S  S20  1  0.41973530  0.06996446  0.74427869  1
  S  S21  1  0.58026470  0.93003554  0.25572131  1
  Nb  Nb22  1  0.87666469  0.63965155  0.69291250  1
  Nb  Nb23  1  0.12333531  0.36034845  0.30708750  1
  Nb  Nb24  1  0.66764722  0.88750848  0.81014093  1
  Nb  Nb25  1  0.33235278  0.11249152  0.18985907  1
  Tl  Tl26  1  0.76748590  0.57832201  0.41585087  1
  Tl  Tl27  1  0.23251410  0.42167799  0.58414913  1
  Tl  Tl28  1  0.50049819  0.73730315  0.11074777  1
  Tl  Tl29  1  0.49950181  0.26269685  0.88925223  1
  Tl  Tl30  1  0.78665917  0.03273843  0.42452347  1
  Tl  Tl31  1  0.21334083  0.96726157  0.57547653  1
  Tl  Tl32  1  0.95179813  0.24133819  0.02452992  1
  Tl  Tl33  1  0.04820187  0.75866181  0.97547008  1
