# generated using pymatgen
data_Li4Mn(OF)2
_symmetry_space_group_name_H-M   'P 1'
_cell_length_a   6.13956392
_cell_length_b   5.04185936
_cell_length_c   6.09674358
_cell_angle_alpha   90.00000000
_cell_angle_beta   100.19392412
_cell_angle_gamma   90.00000000
_symmetry_Int_Tables_number   1
_chemical_formula_structural   Li4Mn(OF)2
_chemical_formula_sum   'Li8 Mn2 O4 F4'
_cell_volume   185.74446832
_cell_formula_units_Z   2
loop_
 _symmetry_equiv_pos_site_id
 _symmetry_equiv_pos_as_xyz
  1  'x, y, z'
loop_
 _atom_site_type_symbol
 _atom_site_label
 _atom_site_symmetry_multiplicity
 _atom_site_fract_x
 _atom_site_fract_y
 _atom_site_fract_z
 _atom_site_occupancy
  Li  Li0  1  0.07623912  0.47591237  0.83577273  1
  Li  Li1  1  0.20418211  0.99055470  0.60817433  1
  Li  Li2  1  0.29581789  0.49055470  0.39182567  1
  Li  Li3  1  0.42376088  0.97591237  0.16422727  1
  Li  Li4  1  0.57623912  0.02408763  0.83577273  1
  Li  Li5  1  0.70418211  0.50944530  0.60817433  1
  Li  Li6  1  0.79581789  0.00944530  0.39182567  1
  Li  Li7  1  0.92376088  0.52408763  0.16422727  1
  Mn  Mn8  1  0.00000000  0.00000000  0.00000000  1
  Mn  Mn9  1  0.50000000  0.50000000  0.00000000  1
  O  O10  1  0.20524238  0.68553909  0.11809840  1
  O  O11  1  0.29475762  0.18553909  0.88190160  1
  O  O12  1  0.70524238  0.81446091  0.11809840  1
  O  O13  1  0.79475762  0.31446091  0.88190160  1
  F  F14  1  0.05318031  0.23563374  0.38035986  1
  F  F15  1  0.44681969  0.73563374  0.61964014  1
  F  F16  1  0.55318031  0.26436626  0.38035986  1
  F  F17  1  0.94681969  0.76436626  0.61964014  1
