# generated using pymatgen
data_K3Bi(AsSe2)6
_symmetry_space_group_name_H-M   'P 1'
_cell_length_a   9.89219750
_cell_length_b   9.88923818
_cell_length_c   7.96230123
_cell_angle_alpha   89.98333034
_cell_angle_beta   90.00812269
_cell_angle_gamma   120.03950171
_symmetry_Int_Tables_number   1
_chemical_formula_structural   K3Bi(AsSe2)6
_chemical_formula_sum   'K3 Bi1 As6 Se12'
_cell_volume   674.29792994
_cell_formula_units_Z   1
loop_
 _symmetry_equiv_pos_site_id
 _symmetry_equiv_pos_as_xyz
  1  'x, y, z'
loop_
 _atom_site_type_symbol
 _atom_site_label
 _atom_site_symmetry_multiplicity
 _atom_site_fract_x
 _atom_site_fract_y
 _atom_site_fract_z
 _atom_site_occupancy
  K  K0  1  0.00000000  0.00000000  0.00000000  1
  K  K1  1  0.33209781  0.66785965  0.83457354  1
  K  K2  1  0.66790119  0.33214035  0.16542646  1
  Bi  Bi3  1  0.00000000  0.00000000  0.50000000  1
  As  As4  1  0.29704011  0.84296144  0.36904130  1
  As  As5  1  0.15752030  0.45453999  0.36837402  1
  As  As6  1  0.54559361  0.70285402  0.36852049  1
  As  As7  1  0.70295889  0.15703856  0.63095870  1
  As  As8  1  0.84247970  0.54545901  0.63162698  1
  As  As9  1  0.45440639  0.29714498  0.63148051  1
  Se  Se10  1  0.27600123  0.06324571  0.28633409  1
  Se  Se11  1  0.93702995  0.21279938  0.28635747  1
  Se  Se12  1  0.78697450  0.72395477  0.28627132  1
  Se  Se13  1  0.72399877  0.93675429  0.71366591  1
  Se  Se14  1  0.06296905  0.78720162  0.71364253  1
  Se  Se15  1  0.21302650  0.27604523  0.71372968  1
  Se  Se16  1  0.53244593  0.90558648  0.19958649  1
  Se  Se17  1  0.09451842  0.62742656  0.19962272  1
  Se  Se18  1  0.37267821  0.46778850  0.19860452  1
  Se  Se19  1  0.46755407  0.09441252  0.80041451  1
  Se  Se20  1  0.90548158  0.37257444  0.80037628  1
  Se  Se21  1  0.62732179  0.53221050  0.80139648  1
