# generated using pymatgen
data_Sr8Al7
_symmetry_space_group_name_H-M   'P 1'
_cell_length_a   12.76189535
_cell_length_b   12.76189535
_cell_length_c   12.76189535
_cell_angle_alpha   90.00000000
_cell_angle_beta   90.00000000
_cell_angle_gamma   90.00000000
_symmetry_Int_Tables_number   1
_chemical_formula_structural   Sr8Al7
_chemical_formula_sum   'Sr32 Al28'
_cell_volume   2078.47850254
_cell_formula_units_Z   4
loop_
 _symmetry_equiv_pos_site_id
 _symmetry_equiv_pos_as_xyz
  1  'x, y, z'
loop_
 _atom_site_type_symbol
 _atom_site_label
 _atom_site_symmetry_multiplicity
 _atom_site_fract_x
 _atom_site_fract_y
 _atom_site_fract_z
 _atom_site_occupancy
  Al  Al0  1  0.43081612  0.43081612  0.43081612  1
  Al  Al1  1  0.06918388  0.56918388  0.93081612  1
  Al  Al2  1  0.93081612  0.06918388  0.56918388  1
  Al  Al3  1  0.56918388  0.93081612  0.06918388  1
  Al  Al4  1  0.75311262  0.19041799  0.57645064  1
  Al  Al5  1  0.57645064  0.75311262  0.19041799  1
  Al  Al6  1  0.19041799  0.57645064  0.75311262  1
  Al  Al7  1  0.30958201  0.42354936  0.25311262  1
  Al  Al8  1  0.07645064  0.74688738  0.80958201  1
  Al  Al9  1  0.80958201  0.07645064  0.74688738  1
  Al  Al10  1  0.92354936  0.24688738  0.69041799  1
  Al  Al11  1  0.42354936  0.25311262  0.30958201  1
  Al  Al12  1  0.69041799  0.92354936  0.24688738  1
  Al  Al13  1  0.25311262  0.30958201  0.42354936  1
  Al  Al14  1  0.24688738  0.69041799  0.92354936  1
  Al  Al15  1  0.74688738  0.80958201  0.07645064  1
  Al  Al16  1  0.75231980  0.68492934  0.58068836  1
  Al  Al17  1  0.58068836  0.75231980  0.68492934  1
  Al  Al18  1  0.68492934  0.58068836  0.75231980  1
  Al  Al19  1  0.81507066  0.41931164  0.25231980  1
  Al  Al20  1  0.08068836  0.74768020  0.31507066  1
  Al  Al21  1  0.31507066  0.08068836  0.74768020  1
  Al  Al22  1  0.91931164  0.24768020  0.18492934  1
  Al  Al23  1  0.41931164  0.25231980  0.81507066  1
  Al  Al24  1  0.18492934  0.91931164  0.24768020  1
  Al  Al25  1  0.25231980  0.81507066  0.41931164  1
  Al  Al26  1  0.24768020  0.18492934  0.91931164  1
  Al  Al27  1  0.74768020  0.31507066  0.08068836  1
  Sr  Sr28  1  0.81312475  0.81312475  0.81312475  1
  Sr  Sr29  1  0.68687525  0.18687525  0.31312475  1
  Sr  Sr30  1  0.31312475  0.68687525  0.18687525  1
  Sr  Sr31  1  0.18687525  0.31312475  0.68687525  1
  Sr  Sr32  1  0.18462400  0.18462400  0.18462400  1
  Sr  Sr33  1  0.31537600  0.81537600  0.68462400  1
  Sr  Sr34  1  0.68462400  0.31537600  0.81537600  1
  Sr  Sr35  1  0.81537600  0.68462400  0.31537600  1
  Sr  Sr36  1  0.80348638  0.55966142  0.00591518  1
  Sr  Sr37  1  0.00591518  0.80348638  0.55966142  1
  Sr  Sr38  1  0.55966142  0.00591518  0.80348638  1
  Sr  Sr39  1  0.94033858  0.99408482  0.30348638  1
  Sr  Sr40  1  0.50591518  0.69651362  0.44033858  1
  Sr  Sr41  1  0.44033858  0.50591518  0.69651362  1
  Sr  Sr42  1  0.49408482  0.19651362  0.05966142  1
  Sr  Sr43  1  0.99408482  0.30348638  0.94033858  1
  Sr  Sr44  1  0.05966142  0.49408482  0.19651362  1
  Sr  Sr45  1  0.30348638  0.94033858  0.99408482  1
  Sr  Sr46  1  0.19651362  0.05966142  0.49408482  1
  Sr  Sr47  1  0.69651362  0.44033858  0.50591518  1
  Sr  Sr48  1  0.52273311  0.70501791  0.93597557  1
  Sr  Sr49  1  0.93597557  0.52273311  0.70501791  1
  Sr  Sr50  1  0.70501791  0.93597557  0.52273311  1
  Sr  Sr51  1  0.79498209  0.06402443  0.02273311  1
  Sr  Sr52  1  0.43597557  0.97726689  0.29498209  1
  Sr  Sr53  1  0.29498209  0.43597557  0.97726689  1
  Sr  Sr54  1  0.56402443  0.47726689  0.20501791  1
  Sr  Sr55  1  0.06402443  0.02273311  0.79498209  1
  Sr  Sr56  1  0.20501791  0.56402443  0.47726689  1
  Sr  Sr57  1  0.02273311  0.79498209  0.06402443  1
  Sr  Sr58  1  0.47726689  0.20501791  0.56402443  1
  Sr  Sr59  1  0.97726689  0.29498209  0.43597557  1
