# generated using pymatgen
data_KTbGeS4
_symmetry_space_group_name_H-M   'P 1'
_cell_length_a   6.55904241
_cell_length_b   6.73267766
_cell_length_c   8.78293302
_cell_angle_alpha   90.00000000
_cell_angle_beta   107.29027802
_cell_angle_gamma   90.00000000
_symmetry_Int_Tables_number   1
_chemical_formula_structural   KTbGeS4
_chemical_formula_sum   'K2 Tb2 Ge2 S8'
_cell_volume   370.32698306
_cell_formula_units_Z   2
loop_
 _symmetry_equiv_pos_site_id
 _symmetry_equiv_pos_as_xyz
  1  'x, y, z'
loop_
 _atom_site_type_symbol
 _atom_site_label
 _atom_site_symmetry_multiplicity
 _atom_site_fract_x
 _atom_site_fract_y
 _atom_site_fract_z
 _atom_site_occupancy
  S  S0  1  0.97488967  0.36689448  0.28210580  1
  S  S1  1  0.56990849  0.10113201  0.83083220  1
  S  S2  1  0.43463796  0.53103660  0.57203259  1
  S  S3  1  0.56536204  0.03103660  0.42796741  1
  S  S4  1  0.43009151  0.60113201  0.16916780  1
  S  S5  1  0.97981000  0.37374078  0.69835276  1
  S  S6  1  0.02511033  0.86689448  0.71789420  1
  S  S7  1  0.02019000  0.87374078  0.30164724  1
  K  K8  1  0.26939834  0.12013364  0.06599350  1
  K  K9  1  0.73060166  0.62013364  0.93400650  1
  Ge  Ge10  1  0.77436388  0.10304847  0.67236725  1
  Ge  Ge11  1  0.22563612  0.60304847  0.32763275  1
  Tb  Tb12  1  0.77209476  0.63828402  0.44969047  1
  Tb  Tb13  1  0.22790524  0.13828402  0.55030953  1
