# generated using pymatgen
data_Ca2SnN2
_symmetry_space_group_name_H-M   'P 1'
_cell_length_a   6.19494901
_cell_length_b   11.27816516
_cell_length_c   12.13042793
_cell_angle_alpha   90.00000000
_cell_angle_beta   90.00000000
_cell_angle_gamma   24.45716855
_symmetry_Int_Tables_number   1
_chemical_formula_structural   Ca2SnN2
_chemical_formula_sum   'Ca8 Sn4 N8'
_cell_volume   350.88610143
_cell_formula_units_Z   4
loop_
 _symmetry_equiv_pos_site_id
 _symmetry_equiv_pos_as_xyz
  1  'x, y, z'
loop_
 _atom_site_type_symbol
 _atom_site_label
 _atom_site_symmetry_multiplicity
 _atom_site_fract_x
 _atom_site_fract_y
 _atom_site_fract_z
 _atom_site_occupancy
  Ca  Ca0  1  -0.00000000  0.46070013  0.86244498  1
  Ca  Ca1  1  0.00000000  0.53929987  0.13755502  1
  Ca  Ca2  1  0.00000000  0.03929987  0.36244498  1
  Ca  Ca3  1  -0.00000000  0.96070013  0.63755502  1
  Ca  Ca4  1  -0.00000000  0.13837193  0.95417446  1
  Ca  Ca5  1  0.00000000  0.86162807  0.04582554  1
  Ca  Ca6  1  0.00000000  0.36162807  0.45417446  1
  Ca  Ca7  1  -0.00000000  0.63837193  0.54582554  1
  Sn  Sn8  1  0.00000000  0.25708403  0.68557224  1
  Sn  Sn9  1  -0.00000000  0.74291597  0.31442776  1
  Sn  Sn10  1  -0.00000000  0.24291597  0.18557224  1
  Sn  Sn11  1  0.00000000  0.75708403  0.81442776  1
  N  N12  1  0.00000000  0.43833804  0.64055592  1
  N  N13  1  -0.00000000  0.56166196  0.35944408  1
  N  N14  1  -0.00000000  0.06166196  0.14055592  1
  N  N15  1  0.00000000  0.93833804  0.85944408  1
  N  N16  1  -0.00000000  0.15115736  0.54527124  1
  N  N17  1  0.00000000  0.84884264  0.45472876  1
  N  N18  1  0.00000000  0.34884264  0.04527124  1
  N  N19  1  -0.00000000  0.65115736  0.95472876  1
