# generated using pymatgen
data_CaGeO3
_symmetry_space_group_name_H-M   'P 1'
_cell_length_a   7.38223341
_cell_length_b   7.63253017
_cell_length_c   8.25030150
_cell_angle_alpha   103.50140557
_cell_angle_beta   95.00802461
_cell_angle_gamma   90.14422712
_symmetry_Int_Tables_number   1
_chemical_formula_structural   CaGeO3
_chemical_formula_sum   'Ca6 Ge6 O18'
_cell_volume   450.16591027
_cell_formula_units_Z   6
loop_
 _symmetry_equiv_pos_site_id
 _symmetry_equiv_pos_as_xyz
  1  'x, y, z'
loop_
 _atom_site_type_symbol
 _atom_site_label
 _atom_site_symmetry_multiplicity
 _atom_site_fract_x
 _atom_site_fract_y
 _atom_site_fract_z
 _atom_site_occupancy
  O  O0  1  0.74255976  0.18128909  0.73362817  1
  O  O1  1  0.25744024  0.81871091  0.26637183  1
  O  O2  1  0.77188775  0.37066855  0.46828145  1
  O  O3  1  0.22811225  0.62933145  0.53171855  1
  O  O4  1  0.77182092  0.86425189  0.46203998  1
  O  O5  1  0.22817908  0.13574811  0.53796002  1
  O  O6  1  0.58032644  0.87116389  0.76003906  1
  O  O7  1  0.41967356  0.12883611  0.23996094  1
  O  O8  1  0.97446354  0.92583783  0.80714505  1
  O  O9  1  0.02553646  0.07416217  0.19285495  1
  O  O10  1  0.57855111  0.50215674  0.77010886  1
  O  O11  1  0.42144889  0.49784326  0.22989114  1
  O  O12  1  0.68244500  0.27283002  0.09955415  1
  O  O13  1  0.31755500  0.72716998  0.90044585  1
  O  O14  1  0.28761794  0.22673801  0.92159913  1
  O  O15  1  0.71238206  0.77326199  0.07840087  1
  O  O16  1  0.02606415  0.52431496  0.18871425  1
  O  O17  1  0.97393585  0.47568504  0.81128575  1
  Ca  Ca18  1  0.96869757  0.24734601  0.98965983  1
  Ca  Ca19  1  0.03130243  0.75265399  0.01034017  1
  Ca  Ca20  1  0.26102710  0.92666757  0.70939256  1
  Ca  Ca21  1  0.73897290  0.07333243  0.29060744  1
  Ca  Ca22  1  0.25786300  0.42727319  0.70492992  1
  Ca  Ca23  1  0.74213700  0.57272681  0.29507008  1
  Ge  Ge24  1  0.22238621  0.05525024  0.32268523  1
  Ge  Ge25  1  0.77761379  0.94474976  0.67731477  1
  Ge  Ge26  1  0.22391529  0.60733602  0.31881374  1
  Ge  Ge27  1  0.77608471  0.39266398  0.68118626  1
  Ge  Ge28  1  0.44534342  0.27473958  0.09669403  1
  Ge  Ge29  1  0.55465658  0.72526042  0.90330597  1
