# generated using pymatgen
data_Sm2ReO5
_symmetry_space_group_name_H-M   'P 1'
_cell_length_a   5.82761343
_cell_length_b   8.69738711
_cell_length_c   8.69738711
_cell_angle_alpha   90.00000000
_cell_angle_beta   90.00000000
_cell_angle_gamma   90.00000000
_symmetry_Int_Tables_number   1
_chemical_formula_structural   Sm2ReO5
_chemical_formula_sum   'Sm8 Re4 O20'
_cell_volume   440.82715202
_cell_formula_units_Z   4
loop_
 _symmetry_equiv_pos_site_id
 _symmetry_equiv_pos_as_xyz
  1  'x, y, z'
loop_
 _atom_site_type_symbol
 _atom_site_label
 _atom_site_symmetry_multiplicity
 _atom_site_fract_x
 _atom_site_fract_y
 _atom_site_fract_z
 _atom_site_occupancy
  O  O0  1  0.39908967  0.84045010  0.95010267  1
  O  O1  1  0.39908967  0.54989733  0.84045010  1
  O  O2  1  0.39908967  0.95010267  0.65954990  1
  O  O3  1  0.39908967  0.65954990  0.54989733  1
  O  O4  1  0.60091033  0.15954990  0.04989733  1
  O  O5  1  0.60091033  0.45010267  0.15954990  1
  O  O6  1  0.60091033  0.04989733  0.34045010  1
  O  O7  1  0.60091033  0.34045010  0.45010267  1
  O  O8  1  0.90190965  0.65745243  0.94994105  1
  O  O9  1  0.90190965  0.55005895  0.65745243  1
  O  O10  1  0.90190965  0.94994105  0.84254757  1
  O  O11  1  0.90190965  0.84254757  0.55005895  1
  O  O12  1  0.00000000  0.25000000  0.75000000  1
  O  O13  1  0.00000000  0.75000000  0.25000000  1
  O  O14  1  0.50000000  0.25000000  0.75000000  1
  O  O15  1  0.50000000  0.75000000  0.25000000  1
  O  O16  1  0.09809035  0.15745243  0.44994105  1
  O  O17  1  0.09809035  0.05005895  0.15745243  1
  O  O18  1  0.09809035  0.44994105  0.34254757  1
  O  O19  1  0.09809035  0.34254757  0.05005895  1
  Sm  Sm20  1  0.24978938  0.40049389  0.60834901  1
  Sm  Sm21  1  0.24978938  0.89165099  0.40049389  1
  Sm  Sm22  1  0.24978938  0.60834901  0.09950611  1
  Sm  Sm23  1  0.24978938  0.09950611  0.89165099  1
  Sm  Sm24  1  0.75021062  0.90049389  0.10834901  1
  Sm  Sm25  1  0.75021062  0.39165099  0.90049389  1
  Sm  Sm26  1  0.75021062  0.10834901  0.59950611  1
  Sm  Sm27  1  0.75021062  0.59950611  0.39165099  1
  Re  Re28  1  0.15061951  0.25000000  0.25000000  1
  Re  Re29  1  0.84938049  0.75000000  0.75000000  1
  Re  Re30  1  0.54023781  0.25000000  0.25000000  1
  Re  Re31  1  0.45976219  0.75000000  0.75000000  1
