# generated using pymatgen
data_K2RuO4
_symmetry_space_group_name_H-M   'P 1'
_cell_length_a   6.46549574
_cell_length_b   8.08104480
_cell_length_c   10.63925676
_cell_angle_alpha   90.00000000
_cell_angle_beta   90.00000000
_cell_angle_gamma   90.00000000
_symmetry_Int_Tables_number   1
_chemical_formula_structural   K2RuO4
_chemical_formula_sum   'K8 Ru4 O16'
_cell_volume   555.87946938
_cell_formula_units_Z   4
loop_
 _symmetry_equiv_pos_site_id
 _symmetry_equiv_pos_as_xyz
  1  'x, y, z'
loop_
 _atom_site_type_symbol
 _atom_site_label
 _atom_site_symmetry_multiplicity
 _atom_site_fract_x
 _atom_site_fract_y
 _atom_site_fract_z
 _atom_site_occupancy
  O  O0  1  0.47472020  0.24955704  0.69402809  1
  O  O1  1  0.97472020  0.75044296  0.30597191  1
  O  O2  1  0.02527980  0.74955704  0.80597191  1
  O  O3  1  0.52527980  0.25044296  0.19402809  1
  O  O4  1  0.52527980  0.75044296  0.30597191  1
  O  O5  1  0.02527980  0.24955704  0.69402809  1
  O  O6  1  0.97472020  0.25044296  0.19402809  1
  O  O7  1  0.47472020  0.74955704  0.80597191  1
  O  O8  1  0.25000000  0.48625068  0.53359294  1
  O  O9  1  0.75000000  0.51374932  0.46640706  1
  O  O10  1  0.25000000  0.98625068  0.96640706  1
  O  O11  1  0.75000000  0.01374932  0.03359294  1
  O  O12  1  0.75000000  0.86855798  0.52910305  1
  O  O13  1  0.25000000  0.13144202  0.47089695  1
  O  O14  1  0.75000000  0.36855798  0.97089695  1
  O  O15  1  0.25000000  0.63144202  0.02910305  1
  K  K16  1  0.25000000  0.98962294  0.22427544  1
  K  K17  1  0.75000000  0.01037706  0.77572456  1
  K  K18  1  0.25000000  0.48962294  0.27572456  1
  K  K19  1  0.75000000  0.51037706  0.72427544  1
  K  K20  1  0.25000000  0.80997423  0.56954117  1
  K  K21  1  0.75000000  0.19002577  0.43045883  1
  K  K22  1  0.25000000  0.30997423  0.93045883  1
  K  K23  1  0.75000000  0.69002577  0.06954117  1
  Ru  Ru24  1  0.25000000  0.78184415  0.90369800  1
  Ru  Ru25  1  0.75000000  0.21815585  0.09630200  1
  Ru  Ru26  1  0.25000000  0.28184415  0.59630200  1
  Ru  Ru27  1  0.75000000  0.71815585  0.40369800  1
