# generated using pymatgen
data_Li3V(SiO3)3
_symmetry_space_group_name_H-M   'P 1'
_cell_length_a   12.73911283
_cell_length_b   11.79932645
_cell_length_c   5.37557192
_cell_angle_alpha   90.00000000
_cell_angle_beta   90.00000000
_cell_angle_gamma   90.00000000
_symmetry_Int_Tables_number   1
_chemical_formula_structural   Li3V(SiO3)3
_chemical_formula_sum   'Li12 V4 Si12 O36'
_cell_volume   808.01807842
_cell_formula_units_Z   4
loop_
 _symmetry_equiv_pos_site_id
 _symmetry_equiv_pos_as_xyz
  1  'x, y, z'
loop_
 _atom_site_type_symbol
 _atom_site_label
 _atom_site_symmetry_multiplicity
 _atom_site_fract_x
 _atom_site_fract_y
 _atom_site_fract_z
 _atom_site_occupancy
  Li  Li0  1  0.00000000  0.06233334  0.17078210  1
  Li  Li1  1  0.00000000  0.39739960  0.81971307  1
  Li  Li2  1  0.00000000  0.85819408  0.15884075  1
  Li  Li3  1  0.00000000  0.59937034  0.67373726  1
  Li  Li4  1  0.24639670  0.16648680  0.67344090  1
  Li  Li5  1  0.25360330  0.66648680  0.32655910  1
  Li  Li6  1  0.50000000  0.56233334  0.82921790  1
  Li  Li7  1  0.50000000  0.09937034  0.32626274  1
  Li  Li8  1  0.50000000  0.35819408  0.84115925  1
  Li  Li9  1  0.50000000  0.89739960  0.18028693  1
  Li  Li10  1  0.74639670  0.66648680  0.32655910  1
  Li  Li11  1  0.75360330  0.16648680  0.67344090  1
  V  V12  1  0.22643429  0.95567884  0.12659562  1
  V  V13  1  0.27356571  0.45567884  0.87340438  1
  V  V14  1  0.72643429  0.45567884  0.87340438  1
  V  V15  1  0.77356571  0.95567884  0.12659562  1
  Si  Si16  1  0.11328921  0.83583558  0.64938352  1
  Si  Si17  1  0.11696623  0.46253668  0.36036853  1
  Si  Si18  1  0.18885318  0.23706101  0.16311675  1
  Si  Si19  1  0.31114682  0.73706101  0.83688325  1
  Si  Si20  1  0.38303377  0.96253668  0.63963147  1
  Si  Si21  1  0.38671079  0.33583558  0.35061648  1
  Si  Si22  1  0.61328921  0.33583558  0.35061648  1
  Si  Si23  1  0.61696623  0.96253668  0.63963147  1
  Si  Si24  1  0.68885318  0.73706101  0.83688325  1
  Si  Si25  1  0.81114682  0.23706101  0.16311675  1
  Si  Si26  1  0.88303377  0.46253668  0.36036853  1
  Si  Si27  1  0.88671079  0.83583558  0.64938352  1
  O  O28  1  0.00000000  0.51518363  0.27527557  1
  O  O29  1  0.00000000  0.76109938  0.63579045  1
  O  O30  1  0.10931702  0.90386160  0.91008184  1
  O  O31  1  0.12186966  0.90614404  0.39528214  1
  O  O32  1  0.10833383  0.32510745  0.30771156  1
  O  O33  1  0.12607951  0.48644432  0.65984925  1
  O  O34  1  0.20397594  0.52327230  0.18697567  1
  O  O35  1  0.20375340  0.73416304  0.65548461  1
  O  O36  1  0.14408595  0.10994368  0.16290240  1
  O  O37  1  0.21316106  0.29103547  0.89134528  1
  O  O38  1  0.28683894  0.79103547  0.10865472  1
  O  O39  1  0.35591405  0.60994368  0.83709760  1
  O  O40  1  0.29624660  0.23416304  0.34451539  1
  O  O41  1  0.29602406  0.02327230  0.81302433  1
  O  O42  1  0.37392049  0.98644432  0.34015075  1
  O  O43  1  0.39166617  0.82510745  0.69228844  1
  O  O44  1  0.37813034  0.40614404  0.60471786  1
  O  O45  1  0.39068298  0.40386160  0.08991816  1
  O  O46  1  0.50000000  0.26109938  0.36420955  1
  O  O47  1  0.50000000  0.01518363  0.72472443  1
  O  O48  1  0.60931702  0.40386160  0.08991816  1
  O  O49  1  0.62186966  0.40614404  0.60471786  1
  O  O50  1  0.60833383  0.82510745  0.69228844  1
  O  O51  1  0.62607951  0.98644432  0.34015075  1
  O  O52  1  0.70397594  0.02327230  0.81302433  1
  O  O53  1  0.70375340  0.23416304  0.34451539  1
  O  O54  1  0.64408595  0.60994368  0.83709760  1
  O  O55  1  0.71316106  0.79103547  0.10865472  1
  O  O56  1  0.78683894  0.29103547  0.89134528  1
  O  O57  1  0.85591405  0.10994368  0.16290240  1
  O  O58  1  0.79624660  0.73416304  0.65548461  1
  O  O59  1  0.79602406  0.52327230  0.18697567  1
  O  O60  1  0.87392049  0.48644432  0.65984925  1
  O  O61  1  0.89166617  0.32510745  0.30771156  1
  O  O62  1  0.87813034  0.90614404  0.39528214  1
  O  O63  1  0.89068298  0.90386160  0.91008184  1
