# generated using pymatgen
data_Ta3VS6
_symmetry_space_group_name_H-M   'P 1'
_cell_length_a   5.77765377
_cell_length_b   5.77776247
_cell_length_c   12.25022433
_cell_angle_alpha   90.00427726
_cell_angle_beta   90.00000002
_cell_angle_gamma   119.99937418
_symmetry_Int_Tables_number   1
_chemical_formula_structural   Ta3VS6
_chemical_formula_sum   'Ta6 V2 S12'
_cell_volume   354.15110984
_cell_formula_units_Z   2
loop_
 _symmetry_equiv_pos_site_id
 _symmetry_equiv_pos_as_xyz
  1  'x, y, z'
loop_
 _atom_site_type_symbol
 _atom_site_label
 _atom_site_symmetry_multiplicity
 _atom_site_fract_x
 _atom_site_fract_y
 _atom_site_fract_z
 _atom_site_occupancy
  Ta  Ta0  1  0.99984100  1.00000000  0.50000000  1
  Ta  Ta1  1  0.00021153  0.00000000  0.00000000  1
  Ta  Ta2  1  0.66678564  0.33338803  0.00233932  1
  Ta  Ta3  1  0.33339762  0.66661197  0.99766068  1
  Ta  Ta4  1  0.33324244  0.66666377  0.50233312  1
  Ta  Ta5  1  0.66657867  0.33333623  0.49766688  1
  V  V6  1  0.66664766  0.33332543  0.74999038  1
  V  V7  1  0.33332223  0.66667457  0.25000962  1
  S  S8  1  0.66826035  0.00203824  0.62857861  1
  S  S9  1  0.33358209  0.33158935  0.62857190  1
  S  S10  1  0.99786219  0.66643262  0.62857599  1
  S  S11  1  0.66622211  0.99796176  0.37142139  1
  S  S12  1  0.00199274  0.66841065  0.37142810  1
  S  S13  1  0.33142957  0.33356738  0.37142401  1
  S  S14  1  0.33182214  0.99796818  0.12858921  1
  S  S15  1  0.66643740  0.66855385  0.12858629  1
  S  S16  1  0.00218174  0.33363637  0.12858315  1
  S  S17  1  0.33385397  0.00203182  0.87141079  1
  S  S18  1  0.99788356  0.33144615  0.87141371  1
  S  S19  1  0.66854536  0.66636363  0.87141685  1
