# generated using pymatgen
data_RbAg2SbS4
_symmetry_space_group_name_H-M   'P 1'
_cell_length_a   6.74775743
_cell_length_b   6.74775742
_cell_length_c   16.95756394
_cell_angle_alpha   90.00000000
_cell_angle_beta   90.00000000
_cell_angle_gamma   119.99999998
_symmetry_Int_Tables_number   1
_chemical_formula_structural   RbAg2SbS4
_chemical_formula_sum   'Rb3 Ag6 Sb3 S12'
_cell_volume   668.67181678
_cell_formula_units_Z   3
loop_
 _symmetry_equiv_pos_site_id
 _symmetry_equiv_pos_as_xyz
  1  'x, y, z'
loop_
 _atom_site_type_symbol
 _atom_site_label
 _atom_site_symmetry_multiplicity
 _atom_site_fract_x
 _atom_site_fract_y
 _atom_site_fract_z
 _atom_site_occupancy
  S  S0  1  0.66898404  0.76353515  0.32758405  1
  S  S1  1  0.23646485  0.90544889  0.99425071  1
  S  S2  1  0.09455111  0.33101596  0.66091738  1
  S  S3  1  0.90544889  0.23646485  0.00574929  1
  S  S4  1  0.33101596  0.09455111  0.33908262  1
  S  S5  1  0.76353515  0.66898404  0.67241595  1
  S  S6  1  0.97301404  0.49953764  0.44669053  1
  S  S7  1  0.49953764  0.97301404  0.55330947  1
  S  S8  1  0.52652360  0.02698596  0.78002386  1
  S  S9  1  0.47347640  0.50046236  0.88664281  1
  S  S10  1  0.02698596  0.52652360  0.21997614  1
  S  S11  1  0.50046236  0.47347640  0.11335719  1
  Rb  Rb12  1  0.00000000  0.55919190  0.83333333  1
  Rb  Rb13  1  0.55919190  0.00000000  0.16666667  1
  Rb  Rb14  1  0.44080810  0.44080810  0.50000000  1
  Ag  Ag15  1  0.90708622  0.59381177  0.07231436  1
  Ag  Ag16  1  0.68672555  0.09291378  0.40564769  1
  Ag  Ag17  1  0.40618823  0.31327445  0.73898103  1
  Ag  Ag18  1  0.09291378  0.68672555  0.59435231  1
  Ag  Ag19  1  0.59381177  0.90708622  0.92768564  1
  Ag  Ag20  1  0.31327445  0.40618823  0.26101897  1
  Sb  Sb21  1  0.72107154  0.00000000  0.66666667  1
  Sb  Sb22  1  0.00000000  0.72107154  0.33333333  1
  Sb  Sb23  1  0.27892846  0.27892846  0.00000000  1
