# generated using pymatgen
data_Sr(ScS2)2
_symmetry_space_group_name_H-M   'P 1'
_cell_length_a   3.80434035
_cell_length_b   11.72611899
_cell_length_c   13.74470303
_cell_angle_alpha   90.00000000
_cell_angle_beta   90.00000000
_cell_angle_gamma   90.00000000
_symmetry_Int_Tables_number   1
_chemical_formula_structural   Sr(ScS2)2
_chemical_formula_sum   'Sr4 Sc8 S16'
_cell_volume   613.15323120
_cell_formula_units_Z   4
loop_
 _symmetry_equiv_pos_site_id
 _symmetry_equiv_pos_as_xyz
  1  'x, y, z'
loop_
 _atom_site_type_symbol
 _atom_site_label
 _atom_site_symmetry_multiplicity
 _atom_site_fract_x
 _atom_site_fract_y
 _atom_site_fract_z
 _atom_site_occupancy
  S  S0  1  0.25000000  0.08612809  0.07500190  1
  S  S1  1  0.75000000  0.91387191  0.92499810  1
  S  S2  1  0.25000000  0.58612809  0.42499810  1
  S  S3  1  0.75000000  0.41387191  0.57500190  1
  S  S4  1  0.25000000  0.97214190  0.71566815  1
  S  S5  1  0.75000000  0.02785810  0.28433185  1
  S  S6  1  0.25000000  0.47214190  0.78433185  1
  S  S7  1  0.75000000  0.52785810  0.21566815  1
  S  S8  1  0.25000000  0.37739294  0.02687989  1
  S  S9  1  0.75000000  0.62260706  0.97312011  1
  S  S10  1  0.25000000  0.87739294  0.47312011  1
  S  S11  1  0.75000000  0.12260706  0.52687989  1
  S  S12  1  0.75000000  0.20364632  0.83987053  1
  S  S13  1  0.25000000  0.79635368  0.16012947  1
  S  S14  1  0.75000000  0.70364632  0.66012947  1
  S  S15  1  0.25000000  0.29635368  0.33987053  1
  Sc  Sc16  1  0.25000000  0.05999506  0.89052249  1
  Sc  Sc17  1  0.75000000  0.94000494  0.10947751  1
  Sc  Sc18  1  0.25000000  0.55999506  0.60947751  1
  Sc  Sc19  1  0.75000000  0.44000494  0.39052249  1
  Sc  Sc20  1  0.25000000  0.08076572  0.40148504  1
  Sc  Sc21  1  0.75000000  0.91923428  0.59851496  1
  Sc  Sc22  1  0.25000000  0.58076572  0.09851496  1
  Sc  Sc23  1  0.75000000  0.41923428  0.90148504  1
  Sr  Sr24  1  0.25000000  0.73908997  0.83353936  1
  Sr  Sr25  1  0.75000000  0.26091003  0.16646064  1
  Sr  Sr26  1  0.25000000  0.23908997  0.66646064  1
  Sr  Sr27  1  0.75000000  0.76091003  0.33353936  1
