# generated using pymatgen
data_Na2GeN2
_symmetry_space_group_name_H-M   'P 1'
_cell_length_a   11.25750598
_cell_length_b   11.32068672
_cell_length_c   16.68070747
_cell_angle_alpha   90.00000000
_cell_angle_beta   90.00000000
_cell_angle_gamma   90.00000000
_symmetry_Int_Tables_number   1
_chemical_formula_structural   Na2GeN2
_chemical_formula_sum   'Na64 Ge32 N64'
_cell_volume   2125.83437200
_cell_formula_units_Z   32
loop_
 _symmetry_equiv_pos_site_id
 _symmetry_equiv_pos_as_xyz
  1  'x, y, z'
loop_
 _atom_site_type_symbol
 _atom_site_label
 _atom_site_symmetry_multiplicity
 _atom_site_fract_x
 _atom_site_fract_y
 _atom_site_fract_z
 _atom_site_occupancy
  Na  Na0  1  0.90123243  0.85019070  0.87881842  1
  Na  Na1  1  0.40123243  0.64980930  0.12118158  1
  Na  Na2  1  0.09876757  0.35019070  0.62118158  1
  Na  Na3  1  0.59876757  0.14980930  0.37881842  1
  Na  Na4  1  0.09876757  0.14980930  0.12118158  1
  Na  Na5  1  0.59876757  0.35019070  0.87881842  1
  Na  Na6  1  0.90123243  0.64980930  0.37881842  1
  Na  Na7  1  0.40123243  0.85019070  0.62118158  1
  Na  Na8  1  0.10272075  0.04555975  0.98011056  1
  Na  Na9  1  0.60272075  0.45444025  0.01988944  1
  Na  Na10  1  0.89727925  0.54555975  0.51988944  1
  Na  Na11  1  0.39727925  0.95444025  0.48011056  1
  Na  Na12  1  0.89727925  0.95444025  0.01988944  1
  Na  Na13  1  0.39727925  0.54555975  0.98011056  1
  Na  Na14  1  0.10272075  0.45444025  0.48011056  1
  Na  Na15  1  0.60272075  0.04555975  0.51988944  1
  Na  Na16  1  0.31783830  0.83110910  0.76507533  1
  Na  Na17  1  0.81783830  0.66889090  0.23492467  1
  Na  Na18  1  0.68216170  0.33110910  0.73492467  1
  Na  Na19  1  0.18216170  0.16889090  0.26507533  1
  Na  Na20  1  0.68216170  0.16889090  0.23492467  1
  Na  Na21  1  0.18216170  0.33110910  0.76507533  1
  Na  Na22  1  0.31783830  0.66889090  0.26507533  1
  Na  Na23  1  0.81783830  0.83110910  0.73492467  1
  Na  Na24  1  0.63011222  0.93020786  0.97056354  1
  Na  Na25  1  0.13011222  0.56979214  0.02943646  1
  Na  Na26  1  0.36988778  0.43020786  0.52943646  1
  Na  Na27  1  0.86988778  0.06979214  0.47056354  1
  Na  Na28  1  0.36988778  0.06979214  0.02943646  1
  Na  Na29  1  0.86988778  0.43020786  0.97056354  1
  Na  Na30  1  0.63011222  0.56979214  0.47056354  1
  Na  Na31  1  0.13011222  0.93020786  0.52943646  1
  Na  Na32  1  0.36138763  0.28657621  0.87801559  1
  Na  Na33  1  0.86138763  0.21342379  0.12198441  1
  Na  Na34  1  0.63861237  0.78657621  0.62198441  1
  Na  Na35  1  0.13861237  0.71342379  0.37801559  1
  Na  Na36  1  0.63861237  0.71342379  0.12198441  1
  Na  Na37  1  0.13861237  0.78657621  0.87801559  1
  Na  Na38  1  0.36138763  0.21342379  0.37801559  1
  Na  Na39  1  0.86138763  0.28657621  0.62198441  1
  Na  Na40  1  0.29579274  0.10837242  0.72010670  1
  Na  Na41  1  0.79579274  0.39162758  0.27989330  1
  Na  Na42  1  0.70420726  0.60837242  0.77989330  1
  Na  Na43  1  0.20420726  0.89162758  0.22010670  1
  Na  Na44  1  0.70420726  0.89162758  0.27989330  1
  Na  Na45  1  0.20420726  0.60837242  0.72010670  1
  Na  Na46  1  0.29579274  0.39162758  0.22010670  1
  Na  Na47  1  0.79579274  0.10837242  0.77989330  1
  Na  Na48  1  0.28141611  0.01394391  0.87343049  1
  Na  Na49  1  0.78141611  0.48605609  0.12656951  1
  Na  Na50  1  0.71858389  0.51394391  0.62656951  1
  Na  Na51  1  0.21858389  0.98605609  0.37343049  1
  Na  Na52  1  0.71858389  0.98605609  0.12656951  1
  Na  Na53  1  0.21858389  0.51394391  0.87343049  1
  Na  Na54  1  0.28141611  0.48605609  0.37343049  1
  Na  Na55  1  0.78141611  0.01394391  0.62656951  1
  Na  Na56  1  0.94309223  0.60936786  0.87172479  1
  Na  Na57  1  0.44309223  0.89063214  0.12827521  1
  Na  Na58  1  0.05690777  0.10936786  0.62827521  1
  Na  Na59  1  0.55690777  0.39063214  0.37172479  1
  Na  Na60  1  0.05690777  0.39063214  0.12827521  1
  Na  Na61  1  0.55690777  0.10936786  0.87172479  1
  Na  Na62  1  0.94309223  0.89063214  0.37172479  1
  Na  Na63  1  0.44309223  0.60936786  0.62827521  1
  Ge  Ge64  1  0.85762005  0.18153511  0.94004707  1
  Ge  Ge65  1  0.35762005  0.31846489  0.05995293  1
  Ge  Ge66  1  0.14237995  0.68153511  0.55995293  1
  Ge  Ge67  1  0.64237995  0.81846489  0.44004707  1
  Ge  Ge68  1  0.14237995  0.81846489  0.05995293  1
  Ge  Ge69  1  0.64237995  0.68153511  0.94004707  1
  Ge  Ge70  1  0.85762005  0.31846489  0.44004707  1
  Ge  Ge71  1  0.35762005  0.18153511  0.55995293  1
  Ge  Ge72  1  0.10749345  0.30315758  0.94157302  1
  Ge  Ge73  1  0.60749345  0.19684242  0.05842698  1
  Ge  Ge74  1  0.89250655  0.80315758  0.55842698  1
  Ge  Ge75  1  0.39250655  0.69684242  0.44157302  1
  Ge  Ge76  1  0.89250655  0.69684242  0.05842698  1
  Ge  Ge77  1  0.39250655  0.80315758  0.94157302  1
  Ge  Ge78  1  0.10749345  0.19684242  0.44157302  1
  Ge  Ge79  1  0.60749345  0.30315758  0.55842698  1
  Ge  Ge80  1  0.92808713  0.35505200  0.80219432  1
  Ge  Ge81  1  0.42808713  0.14494800  0.19780568  1
  Ge  Ge82  1  0.07191287  0.85505200  0.69780568  1
  Ge  Ge83  1  0.57191287  0.64494800  0.30219432  1
  Ge  Ge84  1  0.07191287  0.64494800  0.19780568  1
  Ge  Ge85  1  0.57191287  0.85505200  0.80219432  1
  Ge  Ge86  1  0.92808713  0.14494800  0.30219432  1
  Ge  Ge87  1  0.42808713  0.35505200  0.69780568  1
  Ge  Ge88  1  0.05034263  0.10611871  0.81442117  1
  Ge  Ge89  1  0.55034263  0.39388129  0.18557883  1
  Ge  Ge90  1  0.94965737  0.60611871  0.68557883  1
  Ge  Ge91  1  0.44965737  0.89388129  0.31442117  1
  Ge  Ge92  1  0.94965737  0.89388129  0.18557883  1
  Ge  Ge93  1  0.44965737  0.60611871  0.81442117  1
  Ge  Ge94  1  0.05034263  0.39388129  0.31442117  1
  Ge  Ge95  1  0.55034263  0.10611871  0.68557883  1
  N  N96  1  0.93065081  0.05251321  0.88586752  1
  N  N97  1  0.43065081  0.44748679  0.11413248  1
  N  N98  1  0.06934919  0.55251321  0.61413248  1
  N  N99  1  0.56934919  0.94748679  0.38586752  1
  N  N100  1  0.06934919  0.94748679  0.11413248  1
  N  N101  1  0.56934919  0.55251321  0.88586752  1
  N  N102  1  0.93065081  0.44748679  0.38586752  1
  N  N103  1  0.43065081  0.05251321  0.61413248  1
  N  N104  1  0.73378181  0.11595357  0.00436984  1
  N  N105  1  0.23378181  0.38404643  0.99563016  1
  N  N106  1  0.26621819  0.61595357  0.49563016  1
  N  N107  1  0.76621819  0.88404643  0.50436984  1
  N  N108  1  0.26621819  0.88404643  0.99563016  1
  N  N109  1  0.76621819  0.61595357  0.00436984  1
  N  N110  1  0.73378181  0.38404643  0.50436984  1
  N  N111  1  0.23378181  0.11595357  0.49563016  1
  N  N112  1  0.04164998  0.42104087  0.87261101  1
  N  N113  1  0.54164998  0.07895913  0.12738899  1
  N  N114  1  0.95835002  0.92104087  0.62738899  1
  N  N115  1  0.45835002  0.57895913  0.37261101  1
  N  N116  1  0.95835002  0.57895913  0.12738899  1
  N  N117  1  0.45835002  0.92104087  0.87261101  1
  N  N118  1  0.04164998  0.07895913  0.37261101  1
  N  N119  1  0.54164998  0.42104087  0.62738899  1
  N  N120  1  0.13395753  0.97519761  0.76648637  1
  N  N121  1  0.63395753  0.52480239  0.23351363  1
  N  N122  1  0.86604247  0.47519761  0.73351363  1
  N  N123  1  0.36604247  0.02480239  0.26648637  1
  N  N124  1  0.86604247  0.02480239  0.23351363  1
  N  N125  1  0.36604247  0.47519761  0.76648637  1
  N  N126  1  0.13395753  0.52480239  0.26648637  1
  N  N127  1  0.63395753  0.97519761  0.73351363  1
  N  N128  1  0.17339105  0.18239344  0.87560676  1
  N  N129  1  0.67339105  0.31760656  0.12439324  1
  N  N130  1  0.82660895  0.68239344  0.62439324  1
  N  N131  1  0.32660895  0.81760656  0.37560676  1
  N  N132  1  0.82660895  0.81760656  0.12439324  1
  N  N133  1  0.32660895  0.68239344  0.87560676  1
  N  N134  1  0.17339105  0.31760656  0.37560676  1
  N  N135  1  0.67339105  0.18239344  0.62439324  1
  N  N136  1  0.79896360  0.29281269  0.86404434  1
  N  N137  1  0.29896360  0.20718731  0.13595566  1
  N  N138  1  0.20103640  0.79281269  0.63595566  1
  N  N139  1  0.70103640  0.70718731  0.36404434  1
  N  N140  1  0.20103640  0.70718731  0.13595566  1
  N  N141  1  0.70103640  0.79281269  0.86404434  1
  N  N142  1  0.79896360  0.20718731  0.36404434  1
  N  N143  1  0.29896360  0.29281269  0.63595566  1
  N  N144  1  0.99161589  0.22464837  0.73976964  1
  N  N145  1  0.49161589  0.27535163  0.26023036  1
  N  N146  1  0.00838411  0.72464837  0.76023036  1
  N  N147  1  0.50838411  0.77535163  0.23976964  1
  N  N148  1  0.00838411  0.77535163  0.26023036  1
  N  N149  1  0.50838411  0.72464837  0.73976964  1
  N  N150  1  0.99161589  0.27535163  0.23976964  1
  N  N151  1  0.49161589  0.22464837  0.76023036  1
  N  N152  1  0.98295141  0.24712332  0.00931897  1
  N  N153  1  0.48295141  0.25287668  0.99068103  1
  N  N154  1  0.01704859  0.74712332  0.49068103  1
  N  N155  1  0.51704859  0.75287668  0.50931897  1
  N  N156  1  0.01704859  0.75287668  0.99068103  1
  N  N157  1  0.51704859  0.74712332  0.00931897  1
  N  N158  1  0.98295141  0.25287668  0.50931897  1
  N  N159  1  0.48295141  0.24712332  0.49068103  1
