# generated using pymatgen
data_Ge3Sb2O9
_symmetry_space_group_name_H-M   'P 1'
_cell_length_a   7.19718485
_cell_length_b   7.19718485
_cell_length_c   10.05123757
_cell_angle_alpha   90.00000000
_cell_angle_beta   90.00000000
_cell_angle_gamma   119.99999996
_symmetry_Int_Tables_number   1
_chemical_formula_structural   Ge3Sb2O9
_chemical_formula_sum   'Ge6 Sb4 O18'
_cell_volume   450.89506729
_cell_formula_units_Z   2
loop_
 _symmetry_equiv_pos_site_id
 _symmetry_equiv_pos_as_xyz
  1  'x, y, z'
loop_
 _atom_site_type_symbol
 _atom_site_label
 _atom_site_symmetry_multiplicity
 _atom_site_fract_x
 _atom_site_fract_y
 _atom_site_fract_z
 _atom_site_occupancy
  O  O0  1  0.66507455  0.09574605  0.89552426  1
  O  O1  1  0.56932851  0.66507455  0.39552426  1
  O  O2  1  0.09574605  0.43067149  0.39552426  1
  O  O3  1  0.90425395  0.56932851  0.89552426  1
  O  O4  1  0.43067149  0.33492545  0.89552426  1
  O  O5  1  0.33492545  0.90425395  0.39552426  1
  O  O6  1  0.33492545  0.90425395  0.10447574  1
  O  O7  1  0.43067149  0.33492545  0.60447574  1
  O  O8  1  0.90425395  0.56932851  0.60447574  1
  O  O9  1  0.09574605  0.43067149  0.10447574  1
  O  O10  1  0.56932851  0.66507455  0.10447574  1
  O  O11  1  0.66507455  0.09574605  0.60447574  1
  O  O12  1  0.73655164  0.80755893  0.75000000  1
  O  O13  1  0.92899272  0.73655164  0.25000000  1
  O  O14  1  0.80755893  0.07100728  0.25000000  1
  O  O15  1  0.19244107  0.92899272  0.75000000  1
  O  O16  1  0.07100728  0.26344836  0.75000000  1
  O  O17  1  0.26344836  0.19244107  0.25000000  1
  Ge  Ge18  1  0.20871993  0.92188945  0.25000000  1
  Ge  Ge19  1  0.28683049  0.20871993  0.75000000  1
  Ge  Ge20  1  0.92188945  0.71316951  0.75000000  1
  Ge  Ge21  1  0.07811055  0.28683049  0.25000000  1
  Ge  Ge22  1  0.79128007  0.07811055  0.75000000  1
  Ge  Ge23  1  0.71316951  0.79128007  0.25000000  1
  Sb  Sb24  1  0.66666667  0.33333333  0.49664596  1
  Sb  Sb25  1  0.33333333  0.66666667  0.99664596  1
  Sb  Sb26  1  0.33333333  0.66666667  0.50335404  1
  Sb  Sb27  1  0.66666667  0.33333333  0.00335404  1
