# generated using pymatgen
data_Cs2LiCr(CN)6
_symmetry_space_group_name_H-M   'P 1'
_cell_length_a   7.65155837
_cell_length_b   7.67663414
_cell_length_c   10.87706858
_cell_angle_alpha   90.00000000
_cell_angle_beta   90.10701535
_cell_angle_gamma   90.00000000
_symmetry_Int_Tables_number   1
_chemical_formula_structural   Cs2LiCr(CN)6
_chemical_formula_sum   'Cs4 Li2 Cr2 C12 N12'
_cell_volume   638.89846978
_cell_formula_units_Z   2
loop_
 _symmetry_equiv_pos_site_id
 _symmetry_equiv_pos_as_xyz
  1  'x, y, z'
loop_
 _atom_site_type_symbol
 _atom_site_label
 _atom_site_symmetry_multiplicity
 _atom_site_fract_x
 _atom_site_fract_y
 _atom_site_fract_z
 _atom_site_occupancy
  Li  Li0  1  0.00000000  0.00000000  0.50000000  1
  Li  Li1  1  0.50000000  0.50000000  0.00000000  1
  Cs  Cs2  1  0.49948688  0.00718082  0.25039288  1
  Cs  Cs3  1  1.00051312  0.50718082  0.24960712  1
  Cs  Cs4  1  0.50051312  0.99281918  0.74960712  1
  Cs  Cs5  1  -0.00051312  0.49281918  0.75039288  1
  Cr  Cr6  1  0.00000000  0.00000000  0.00000000  1
  Cr  Cr7  1  0.50000000  0.50000000  0.50000000  1
  C  C8  1  0.16621973  0.20731492  1.00015557  1
  C  C9  1  0.33378027  0.70731492  0.49984443  1
  C  C10  1  0.83378027  0.79268508  -0.00015557  1
  C  C11  1  0.66621973  0.29268508  0.50015557  1
  C  C12  1  0.79225197  0.16607001  0.99883633  1
  C  C13  1  0.70774803  0.66607001  0.50116367  1
  C  C14  1  0.20774803  0.83392999  0.00116367  1
  C  C15  1  0.29225197  0.33392999  0.49883633  1
  C  C16  1  1.00077410  1.00037355  0.81268807  1
  C  C17  1  0.49922590  0.50037355  0.68731193  1
  C  C18  1  -0.00077410  -0.00037355  0.18731193  1
  C  C19  1  0.50077410  0.49962645  0.31268807  1
  N  N20  1  0.26189116  0.32715440  0.99988506  1
  N  N21  1  0.23810884  0.82715440  0.50011494  1
  N  N22  1  0.73810884  0.67284560  0.00011494  1
  N  N23  1  0.76189116  0.17284560  0.49988506  1
  N  N24  1  0.67267152  0.26231431  0.99789635  1
  N  N25  1  0.82732848  0.76231431  0.50210365  1
  N  N26  1  0.32732848  0.73768569  0.00210365  1
  N  N27  1  0.17267152  0.23768569  0.49789635  1
  N  N28  1  0.99826002  0.99779098  0.29538849  1
  N  N29  1  0.50173998  0.49779098  0.20461151  1
  N  N30  1  0.00173998  0.00220902  0.70461151  1
  N  N31  1  0.49826002  0.50220902  0.79538849  1
