# generated using pymatgen
data_FePHO5
_symmetry_space_group_name_H-M   'P 1'
_cell_length_a   5.32016009
_cell_length_b   7.36043437
_cell_length_c   5.25427926
_cell_angle_alpha   109.41265246
_cell_angle_beta   97.22300670
_cell_angle_gamma   106.76919034
_symmetry_Int_Tables_number   1
_chemical_formula_structural   FePHO5
_chemical_formula_sum   'Fe2 P2 H2 O10'
_cell_volume   180.11897897
_cell_formula_units_Z   2
loop_
 _symmetry_equiv_pos_site_id
 _symmetry_equiv_pos_as_xyz
  1  'x, y, z'
loop_
 _atom_site_type_symbol
 _atom_site_label
 _atom_site_symmetry_multiplicity
 _atom_site_fract_x
 _atom_site_fract_y
 _atom_site_fract_z
 _atom_site_occupancy
  Fe  Fe0  1  0.00000000  0.50000000  0.00000000  1
  Fe  Fe1  1  0.00000000  0.00000000  0.00000000  1
  P  P2  1  0.34828196  0.22883932  0.66715433  1
  P  P3  1  0.65171804  0.77116068  0.33284567  1
  H  H4  1  0.02790033  0.32602407  0.35102044  1
  H  H5  1  0.97209967  0.67397593  0.64897956  1
  O  O6  1  0.03341724  0.72659904  0.85480555  1
  O  O7  1  0.19295233  0.38147200  0.70987581  1
  O  O8  1  0.34645091  0.66056745  0.29148586  1
  O  O9  1  0.23476985  0.06514541  0.36705540  1
  O  O10  1  0.31912078  0.12273303  0.87830665  1
  O  O11  1  0.68087922  0.87726697  0.12169335  1
  O  O12  1  0.76523015  0.93485459  0.63294460  1
  O  O13  1  0.65354909  0.33943255  0.70851414  1
  O  O14  1  0.80704767  0.61852800  0.29012419  1
  O  O15  1  0.96658276  0.27340096  0.14519445  1
