# generated using pymatgen
data_Mn5O3F5
_symmetry_space_group_name_H-M   'P 1'
_cell_length_a   6.38152111
_cell_length_b   6.38152093
_cell_length_c   6.38152140
_cell_angle_alpha   60.40423172
_cell_angle_beta   60.40423007
_cell_angle_gamma   60.40422425
_symmetry_Int_Tables_number   1
_chemical_formula_structural   Mn5O3F5
_chemical_formula_sum   'Mn5 O3 F5'
_cell_volume   185.44263371
_cell_formula_units_Z   1
loop_
 _symmetry_equiv_pos_site_id
 _symmetry_equiv_pos_as_xyz
  1  'x, y, z'
loop_
 _atom_site_type_symbol
 _atom_site_label
 _atom_site_symmetry_multiplicity
 _atom_site_fract_x
 _atom_site_fract_y
 _atom_site_fract_z
 _atom_site_occupancy
  Mn  Mn0  1  0.37124823  0.37124823  0.37124823  1
  Mn  Mn1  1  0.38057914  0.38057914  0.88500821  1
  Mn  Mn2  1  0.38057914  0.88500821  0.38057914  1
  Mn  Mn3  1  0.88500821  0.38057914  0.38057914  1
  Mn  Mn4  1  0.97998725  0.97998725  0.97998725  1
  O  O5  1  0.13050269  0.59308714  0.13050269  1
  O  O6  1  0.13050269  0.13050269  0.59308714  1
  O  O7  1  0.59308714  0.13050269  0.13050269  1
  F  F8  1  0.12396112  0.12396112  0.12396112  1
  F  F9  1  0.18490551  0.61004523  0.61004523  1
  F  F10  1  0.61004523  0.61004523  0.18490551  1
  F  F11  1  0.61004523  0.18490551  0.61004523  1
  F  F12  1  0.61688743  0.61688743  0.61688743  1
