# generated using pymatgen
data_Sr2SnS3F2
_symmetry_space_group_name_H-M   'P 1'
_cell_length_a   6.01420019
_cell_length_b   6.03468229
_cell_length_c   19.09462967
_cell_angle_alpha   90.00000000
_cell_angle_beta   90.00000000
_cell_angle_gamma   90.00000000
_symmetry_Int_Tables_number   1
_chemical_formula_structural   Sr2SnS3F2
_chemical_formula_sum   'Sr8 Sn4 S12 F8'
_cell_volume   693.01642925
_cell_formula_units_Z   4
loop_
 _symmetry_equiv_pos_site_id
 _symmetry_equiv_pos_as_xyz
  1  'x, y, z'
loop_
 _atom_site_type_symbol
 _atom_site_label
 _atom_site_symmetry_multiplicity
 _atom_site_fract_x
 _atom_site_fract_y
 _atom_site_fract_z
 _atom_site_occupancy
  F  F0  1  0.50091044  0.74771361  0.50024096  1
  F  F1  1  0.00091044  0.75228639  0.99975904  1
  F  F2  1  0.99908956  0.24771361  0.49975904  1
  F  F3  1  0.49908956  0.25228639  0.00024096  1
  F  F4  1  0.49908956  0.25228639  0.49975904  1
  F  F5  1  0.99908956  0.24771361  0.00024096  1
  F  F6  1  0.00091044  0.75228639  0.50024096  1
  F  F7  1  0.50091044  0.74771361  0.99975904  1
  S  S8  1  0.74345647  0.51388800  0.63305825  1
  S  S9  1  0.24345647  0.98611200  0.86694175  1
  S  S10  1  0.75654353  0.01388800  0.36694175  1
  S  S11  1  0.25654353  0.48611200  0.13305825  1
  S  S12  1  0.25130264  0.47639516  0.75000000  1
  S  S13  1  0.75130264  0.02360484  0.75000000  1
  S  S14  1  0.24869736  0.97639516  0.25000000  1
  S  S15  1  0.74869736  0.52360484  0.25000000  1
  S  S16  1  0.74345647  0.51388800  0.86694175  1
  S  S17  1  0.24345647  0.98611200  0.63305825  1
  S  S18  1  0.75654353  0.01388800  0.13305825  1
  S  S19  1  0.25654353  0.48611200  0.36694175  1
  Sr  Sr20  1  0.24693198  0.49765080  0.92631678  1
  Sr  Sr21  1  0.74693198  0.00234920  0.57368322  1
  Sr  Sr22  1  0.25306802  0.99765080  0.07368322  1
  Sr  Sr23  1  0.75306802  0.50234920  0.42631678  1
  Sr  Sr24  1  0.24693198  0.49765080  0.57368322  1
  Sr  Sr25  1  0.74693198  0.00234920  0.92631678  1
  Sr  Sr26  1  0.25306802  0.99765080  0.42631678  1
  Sr  Sr27  1  0.75306802  0.50234920  0.07368322  1
  Sn  Sn28  1  0.84300107  0.42556621  0.75000000  1
  Sn  Sn29  1  0.34300107  0.07443379  0.75000000  1
  Sn  Sn30  1  0.65699893  0.92556621  0.25000000  1
  Sn  Sn31  1  0.15699893  0.57443379  0.25000000  1
