# generated using pymatgen
data_Li2Th(AsO4)2
_symmetry_space_group_name_H-M   'P 1'
_cell_length_a   5.69576150
_cell_length_b   9.23357993
_cell_length_c   14.04225896
_cell_angle_alpha   90.00000000
_cell_angle_beta   90.00000000
_cell_angle_gamma   106.21589515
_symmetry_Int_Tables_number   1
_chemical_formula_structural   Li2Th(AsO4)2
_chemical_formula_sum   'Li8 Th4 As8 O32'
_cell_volume   709.13339593
_cell_formula_units_Z   4
loop_
 _symmetry_equiv_pos_site_id
 _symmetry_equiv_pos_as_xyz
  1  'x, y, z'
loop_
 _atom_site_type_symbol
 _atom_site_label
 _atom_site_symmetry_multiplicity
 _atom_site_fract_x
 _atom_site_fract_y
 _atom_site_fract_z
 _atom_site_occupancy
  Li  Li0  1  0.91449370  0.10382521  0.74937406  1
  Li  Li1  1  0.58550630  0.89617479  0.24937406  1
  Li  Li2  1  0.08550630  0.89617479  0.25062594  1
  Li  Li3  1  0.41449370  0.10382521  0.75062594  1
  Li  Li4  1  0.21006457  0.22764229  0.56432227  1
  Li  Li5  1  0.28993543  0.77235771  0.06432227  1
  Li  Li6  1  0.78993543  0.77235771  0.43567773  1
  Li  Li7  1  0.71006457  0.22764229  0.93567773  1
  Th  Th8  1  0.43381898  0.61907082  0.63570339  1
  Th  Th9  1  0.06618102  0.38092918  0.13570339  1
  Th  Th10  1  0.56618102  0.38092918  0.36429661  1
  Th  Th11  1  0.93381898  0.61907082  0.86429661  1
  As  As12  1  0.09417000  0.85381935  0.62613024  1
  As  As13  1  0.40583000  0.14618065  0.12613024  1
  As  As14  1  0.90583000  0.14618065  0.37386976  1
  As  As15  1  0.59417000  0.85381935  0.87386976  1
  As  As16  1  0.77213656  0.36983159  0.63277026  1
  As  As17  1  0.72786344  0.63016841  0.13277026  1
  As  As18  1  0.22786344  0.63016841  0.36722974  1
  As  As19  1  0.27213656  0.36983159  0.86722974  1
  O  O20  1  0.72395796  0.50072912  0.71547714  1
  O  O21  1  0.77604204  0.49927088  0.21547714  1
  O  O22  1  0.27604204  0.49927088  0.28452286  1
  O  O23  1  0.22395796  0.50072912  0.78452286  1
  O  O24  1  0.81117022  0.77651557  0.57565726  1
  O  O25  1  0.68882978  0.22348443  0.07565726  1
  O  O26  1  0.18882978  0.22348443  0.42434274  1
  O  O27  1  0.31117022  0.77651557  0.92434274  1
  O  O28  1  0.14589647  0.75653062  0.72709785  1
  O  O29  1  0.35410353  0.24346938  0.22709785  1
  O  O30  1  0.85410353  0.24346938  0.27290215  1
  O  O31  1  0.64589647  0.75653062  0.77290215  1
  O  O32  1  0.70437171  0.19584327  0.68031931  1
  O  O33  1  0.79562829  0.80415673  0.18031931  1
  O  O34  1  0.29562829  0.80415673  0.31968069  1
  O  O35  1  0.20437171  0.19584327  0.81968069  1
  O  O36  1  0.31023645  0.81078359  0.55525016  1
  O  O37  1  0.18976355  0.18921641  0.05525016  1
  O  O38  1  0.68976355  0.18921641  0.44474984  1
  O  O39  1  0.81023645  0.81078359  0.94474984  1
  O  O40  1  0.54735512  0.39353983  0.55429028  1
  O  O41  1  0.95264488  0.60646017  0.05429028  1
  O  O42  1  0.45264488  0.60646017  0.44570972  1
  O  O43  1  0.04735512  0.39353983  0.94570972  1
  O  O44  1  0.06829832  0.42139627  0.59208980  1
  O  O45  1  0.43170168  0.57860373  0.09208980  1
  O  O46  1  0.93170168  0.57860373  0.40791020  1
  O  O47  1  0.56829832  0.42139627  0.90791020  1
  O  O48  1  0.13909535  0.03980742  0.65231664  1
  O  O49  1  0.36090465  0.96019258  0.15231664  1
  O  O50  1  0.86090465  0.96019258  0.34768336  1
  O  O51  1  0.63909535  0.03980742  0.84768336  1
