# generated using pymatgen
data_CeNiSb
_symmetry_space_group_name_H-M   'P 1'
_cell_length_a   4.10546764
_cell_length_b   4.33396607
_cell_length_c   4.33392871
_cell_angle_alpha   119.99826324
_cell_angle_beta   90.00000000
_cell_angle_gamma   90.00000000
_symmetry_Int_Tables_number   1
_chemical_formula_structural   CeNiSb
_chemical_formula_sum   'Ce1 Ni1 Sb1'
_cell_volume   66.78333999
_cell_formula_units_Z   1
loop_
 _symmetry_equiv_pos_site_id
 _symmetry_equiv_pos_as_xyz
  1  'x, y, z'
loop_
 _atom_site_type_symbol
 _atom_site_label
 _atom_site_symmetry_multiplicity
 _atom_site_fract_x
 _atom_site_fract_y
 _atom_site_fract_z
 _atom_site_occupancy
  Ce  Ce0  1  -0.00000000  0.99999227  -0.00000478  1
  Ni  Ni1  1  0.50000000  0.33329386  0.66668816  1
  Sb  Sb2  1  0.50000000  0.66661387  0.33331662  1
