# generated using pymatgen
data_BaZnCO3F2
_symmetry_space_group_name_H-M   'P 1'
_cell_length_a   4.92015307
_cell_length_b   4.92015307
_cell_length_c   10.13364395
_cell_angle_alpha   90.00000000
_cell_angle_beta   90.00000000
_cell_angle_gamma   120.00000005
_symmetry_Int_Tables_number   1
_chemical_formula_structural   BaZnCO3F2
_chemical_formula_sum   'Ba2 Zn2 C2 O6 F4'
_cell_volume   212.44841770
_cell_formula_units_Z   2
loop_
 _symmetry_equiv_pos_site_id
 _symmetry_equiv_pos_as_xyz
  1  'x, y, z'
loop_
 _atom_site_type_symbol
 _atom_site_label
 _atom_site_symmetry_multiplicity
 _atom_site_fract_x
 _atom_site_fract_y
 _atom_site_fract_z
 _atom_site_occupancy
  C  C0  1  0.33333333  0.66666667  0.75000000  1
  C  C1  1  0.66666667  0.33333333  0.25000000  1
  O  O2  1  0.89686949  0.62070902  0.25000000  1
  O  O3  1  0.27616047  0.89686949  0.75000000  1
  O  O4  1  0.72383953  0.10313051  0.25000000  1
  O  O5  1  0.10313051  0.37929098  0.75000000  1
  O  O6  1  0.37929098  0.27616047  0.25000000  1
  O  O7  1  0.62070902  0.72383953  0.75000000  1
  F  F8  1  0.33333333  0.66666667  0.45208501  1
  F  F9  1  0.66666667  0.33333333  0.95208501  1
  F  F10  1  0.33333333  0.66666667  0.04791499  1
  F  F11  1  0.66666667  0.33333333  0.54791499  1
  Zn  Zn12  1  0.66666667  0.33333333  0.75000000  1
  Zn  Zn13  1  0.33333333  0.66666667  0.25000000  1
  Ba  Ba14  1  0.00000000  0.00000000  0.50000000  1
  Ba  Ba15  1  0.00000000  0.00000000  0.00000000  1
