# generated using pymatgen
data_NbPb2Se2ClO8
_symmetry_space_group_name_H-M   'P 1'
_cell_length_a   5.50400069
_cell_length_b   8.75776038
_cell_length_c   10.99775744
_cell_angle_alpha   112.27708151
_cell_angle_beta   90.00000000
_cell_angle_gamma   90.00000000
_symmetry_Int_Tables_number   1
_chemical_formula_structural   NbPb2Se2ClO8
_chemical_formula_sum   'Nb2 Pb4 Se4 Cl2 O16'
_cell_volume   490.55427844
_cell_formula_units_Z   2
loop_
 _symmetry_equiv_pos_site_id
 _symmetry_equiv_pos_as_xyz
  1  'x, y, z'
loop_
 _atom_site_type_symbol
 _atom_site_label
 _atom_site_symmetry_multiplicity
 _atom_site_fract_x
 _atom_site_fract_y
 _atom_site_fract_z
 _atom_site_occupancy
  Nb  Nb0  1  0.98303874  0.34116817  0.93238536  1
  Nb  Nb1  1  0.48303874  0.65883183  0.06761464  1
  Pb  Pb2  1  0.43336301  0.18532214  0.20381925  1
  Pb  Pb3  1  0.93336301  0.81467786  0.79618075  1
  Pb  Pb4  1  0.47748174  0.69153189  0.48272650  1
  Pb  Pb5  1  0.97748174  0.30846811  0.51727350  1
  Se  Se6  1  0.98448424  0.88306367  0.20155552  1
  Se  Se7  1  0.48448424  0.11693633  0.79844448  1
  Se  Se8  1  0.98905808  0.48405879  0.27327884  1
  Se  Se9  1  0.48905808  0.51594121  0.72672116  1
  Cl  Cl10  1  0.50452526  0.13886107  0.45223608  1
  Cl  Cl11  1  0.00452526  0.86113893  0.54776392  1
  O  O12  1  0.19776867  0.82531812  0.07126401  1
  O  O13  1  0.69776867  0.17468188  0.92873599  1
  O  O14  1  0.71290932  0.87616177  0.11585158  1
  O  O15  1  0.21290932  0.12383823  0.88414842  1
  O  O16  1  0.03604518  0.08942457  0.26581165  1
  O  O17  1  0.53604518  0.91057543  0.73418835  1
  O  O18  1  0.21423350  0.43943765  0.36915705  1
  O  O19  1  0.71423350  0.56056235  0.63084295  1
  O  O20  1  0.73650467  0.42097170  0.33552055  1
  O  O21  1  0.23650467  0.57902830  0.66447945  1
  O  O22  1  0.05379038  0.31920277  0.12888240  1
  O  O23  1  0.55379038  0.68079723  0.87111760  1
  O  O24  1  0.78904038  0.53108571  0.03649397  1
  O  O25  1  0.28904038  0.46891429  0.96350603  1
  O  O26  1  0.92313684  0.32685236  0.76687464  1
  O  O27  1  0.42313684  0.67314764  0.23312536  1
