# generated using pymatgen
data_HoGe2Ir
_symmetry_space_group_name_H-M   'P 1'
_cell_length_a   4.26397262
_cell_length_b   8.90516327
_cell_length_c   9.46833568
_cell_angle_alpha   118.05118936
_cell_angle_beta   103.01288227
_cell_angle_gamma   90.00000001
_symmetry_Int_Tables_number   1
_chemical_formula_structural   HoGe2Ir
_chemical_formula_sum   'Ho4 Ge8 Ir4'
_cell_volume   306.79020016
_cell_formula_units_Z   4
loop_
 _symmetry_equiv_pos_site_id
 _symmetry_equiv_pos_as_xyz
  1  'x, y, z'
loop_
 _atom_site_type_symbol
 _atom_site_label
 _atom_site_symmetry_multiplicity
 _atom_site_fract_x
 _atom_site_fract_y
 _atom_site_fract_z
 _atom_site_occupancy
  Ge  Ge0  1  0.20143063  0.04886846  0.40286126  1
  Ge  Ge1  1  0.79856937  0.95113154  0.59713874  1
  Ge  Ge2  1  0.79856937  0.64600720  0.59713874  1
  Ge  Ge3  1  0.20143063  0.35399280  0.40286126  1
  Ge  Ge4  1  0.57670724  0.57670724  0.15341448  1
  Ge  Ge5  1  0.42224328  0.92224328  0.84448655  1
  Ge  Ge6  1  0.57775672  0.07775672  0.15551345  1
  Ge  Ge7  1  0.42329276  0.42329276  0.84658552  1
  Ho  Ho8  1  0.20486942  0.70486942  0.40973883  1
  Ho  Ho9  1  0.00000000  0.26268034  0.00000000  1
  Ho  Ho10  1  0.79513058  0.29513058  0.59026117  1
  Ho  Ho11  1  0.00000000  0.73731966  0.00000000  1
  Ir  Ir12  1  0.35485566  0.60540848  0.70971132  1
  Ir  Ir13  1  0.64514434  0.39459152  0.29028868  1
  Ir  Ir14  1  0.64514434  0.89569715  0.29028868  1
  Ir  Ir15  1  0.35485566  0.10430285  0.70971132  1
