# generated using pymatgen
data_Li2Mn3(BO3)4
_symmetry_space_group_name_H-M   'P 1'
_cell_length_a   5.11349349
_cell_length_b   9.06315174
_cell_length_c   10.56007014
_cell_angle_alpha   90.00000000
_cell_angle_beta   100.26953464
_cell_angle_gamma   90.00000000
_symmetry_Int_Tables_number   1
_chemical_formula_structural   Li2Mn3(BO3)4
_chemical_formula_sum   'Li4 Mn6 B8 O24'
_cell_volume   481.55957203
_cell_formula_units_Z   2
loop_
 _symmetry_equiv_pos_site_id
 _symmetry_equiv_pos_as_xyz
  1  'x, y, z'
loop_
 _atom_site_type_symbol
 _atom_site_label
 _atom_site_symmetry_multiplicity
 _atom_site_fract_x
 _atom_site_fract_y
 _atom_site_fract_z
 _atom_site_occupancy
  Li  Li0  1  0.10261976  0.96501297  0.61082859  1
  Li  Li1  1  0.30510604  0.46548640  0.37649542  1
  Li  Li2  1  0.60261976  0.53498703  0.11082859  1
  Li  Li3  1  0.80510604  0.03451360  0.87649542  1
  Mn  Mn4  1  0.11974957  0.30326294  0.12215041  1
  Mn  Mn5  1  0.20269008  0.96399917  0.12356820  1
  Mn  Mn6  1  0.37198194  0.78935210  0.38581712  1
  Mn  Mn7  1  0.61974957  0.19673706  0.62215041  1
  Mn  Mn8  1  0.70269008  0.53600083  0.62356820  1
  Mn  Mn9  1  0.87198194  0.71064790  0.88581712  1
  B  B10  1  0.17909503  0.29861456  0.60923891  1
  B  B11  1  0.13515517  0.63522590  0.13698681  1
  B  B12  1  0.33527620  0.80731951  0.90806824  1
  B  B13  1  0.35332848  0.14032402  0.35319655  1
  B  B14  1  0.63515517  0.86477410  0.63698681  1
  B  B15  1  0.67909503  0.20138544  0.10923891  1
  B  B16  1  0.85332848  0.35967598  0.85319655  1
  B  B17  1  0.83527620  0.69268049  0.40806824  1
  O  O18  1  0.06971159  0.35262223  0.94956200  1
  O  O19  1  0.08410609  0.65117147  0.39622199  1
  O  O20  1  0.14865210  0.90988522  0.94269171  1
  O  O21  1  0.22698499  0.26655730  0.30324198  1
  O  O22  1  0.26743467  0.00184962  0.30435376  1
  O  O23  1  0.23999514  0.66672574  0.88655118  1
  O  O24  1  0.26083613  0.15518732  0.63752688  1
  O  O25  1  0.39470489  0.38359988  0.58496718  1
  O  O26  1  0.26162899  0.50165082  0.17007049  1
  O  O27  1  0.28977976  0.75927632  0.18513032  1
  O  O28  1  0.38718484  0.84801663  0.56661710  1
  O  O29  1  0.42251953  0.15864782  0.09991217  1
  O  O30  1  0.58410609  0.84882853  0.89622199  1
  O  O31  1  0.56971159  0.14737777  0.44956200  1
  O  O32  1  0.64865210  0.59011478  0.44269171  1
  O  O33  1  0.72698499  0.23344270  0.80324198  1
  O  O34  1  0.76743467  0.49815038  0.80435376  1
  O  O35  1  0.73999514  0.83327426  0.38655118  1
  O  O36  1  0.76083613  0.34481268  0.13752688  1
  O  O37  1  0.76162899  0.99834918  0.67007049  1
  O  O38  1  0.78977976  0.74072368  0.68513032  1
  O  O39  1  0.89470489  0.11640012  0.08496718  1
  O  O40  1  0.92251953  0.34135218  0.59991217  1
  O  O41  1  0.88718484  0.65198337  0.06661710  1
