# generated using pymatgen
data_Li2VSi3O8
_symmetry_space_group_name_H-M   'P 1'
_cell_length_a   8.04996311
_cell_length_b   8.04996812
_cell_length_c   8.05035660
_cell_angle_alpha   90.00001160
_cell_angle_beta   90.00002221
_cell_angle_gamma   90.00007744
_symmetry_Int_Tables_number   1
_chemical_formula_structural   Li2VSi3O8
_chemical_formula_sum   'Li8 V4 Si12 O32'
_cell_volume   521.67877692
_cell_formula_units_Z   4
loop_
 _symmetry_equiv_pos_site_id
 _symmetry_equiv_pos_as_xyz
  1  'x, y, z'
loop_
 _atom_site_type_symbol
 _atom_site_label
 _atom_site_symmetry_multiplicity
 _atom_site_fract_x
 _atom_site_fract_y
 _atom_site_fract_z
 _atom_site_occupancy
  Li  Li0  1  0.00878872  0.00879236  0.00878980  1
  Li  Li1  1  0.24120330  0.24120994  0.24120994  1
  Li  Li2  1  0.25879555  0.75879814  0.74121178  1
  Li  Li3  1  0.49121091  0.99121250  0.50879330  1
  Li  Li4  1  0.50878771  0.49121020  0.99121301  1
  Li  Li5  1  0.74120274  0.25879682  0.75879397  1
  Li  Li6  1  0.75879580  0.74120773  0.25879697  1
  Li  Li7  1  0.99120869  0.50879509  0.49121339  1
  V  V8  1  0.12503307  0.87498377  0.37498219  1
  V  V9  1  0.37496659  0.12502998  0.87497302  1
  V  V10  1  0.62502215  0.62502564  0.62502952  1
  V  V11  1  0.87498116  0.37498524  0.12502612  1
  Si  Si12  1  0.11012828  0.13986245  0.62500305  1
  Si  Si13  1  0.12500063  0.38985865  0.86016904  1
  Si  Si14  1  0.13984591  0.62500141  0.11016018  1
  Si  Si15  1  0.36015023  0.37499999  0.61016052  1
  Si  Si16  1  0.37499927  0.61014136  0.36017526  1
  Si  Si17  1  0.38987221  0.86014401  0.12500022  1
  Si  Si18  1  0.61013043  0.36014635  0.37500600  1
  Si  Si19  1  0.62500143  0.11014062  0.13983163  1
  Si  Si20  1  0.63984517  0.87500124  0.88984654  1
  Si  Si21  1  0.86015492  0.12499967  0.38984641  1
  Si  Si22  1  0.87499973  0.88986211  0.63982757  1
  Si  Si23  1  0.88987013  0.63985921  0.87499974  1
  O  O24  1  0.08016330  0.13796461  0.40160916  1
  O  O25  1  0.09838838  0.91983530  0.63794463  1
  O  O26  1  0.12088728  0.62089295  0.87912336  1
  O  O27  1  0.11205938  0.16983018  0.84838903  1
  O  O28  1  0.13796262  0.40161451  0.08017110  1
  O  O29  1  0.12910956  0.37088911  0.62912322  1
  O  O30  1  0.15161679  0.61206213  0.33017785  1
  O  O31  1  0.16982723  0.84838617  0.11208411  1
  O  O32  1  0.33017336  0.15161685  0.61208078  1
  O  O33  1  0.34838362  0.38794012  0.83017852  1
  O  O34  1  0.37089094  0.62911454  0.12912550  1
  O  O35  1  0.36203599  0.59839155  0.58017173  1
  O  O36  1  0.38794255  0.83017346  0.34839273  1
  O  O37  1  0.37911480  0.37911455  0.37912313  1
  O  O38  1  0.40161054  0.08016794  0.13794632  1
  O  O39  1  0.41984106  0.86203819  0.90161565  1
  O  O40  1  0.58016485  0.36204160  0.59839111  1
  O  O41  1  0.59838875  0.58016672  0.36206118  1
  O  O42  1  0.62088558  0.87911442  0.12088385  1
  O  O43  1  0.61205863  0.33017330  0.15161545  1
  O  O44  1  0.63796470  0.09838945  0.91983405  1
  O  O45  1  0.62910907  0.12911737  0.37088047  1
  O  O46  1  0.65161657  0.88794646  0.66982676  1
  O  O47  1  0.66982820  0.65161802  0.88792456  1
  O  O48  1  0.83017288  0.34838758  0.38791903  1
  O  O49  1  0.84838305  0.11205969  0.16982334  1
  O  O50  1  0.87089164  0.87088948  0.87088082  1
  O  O51  1  0.86203685  0.90161554  0.41983235  1
  O  O52  1  0.88794021  0.66983285  0.65161616  1
  O  O53  1  0.87911006  0.12089219  0.62088040  1
  O  O54  1  0.90161016  0.41983698  0.86205772  1
  O  O55  1  0.91983769  0.63796071  0.09839473  1
