# generated using pymatgen
data_Sr3SmRhO6
_symmetry_space_group_name_H-M   'P 1'
_cell_length_a   6.90137949
_cell_length_b   6.90137948
_cell_length_c   6.90137949
_cell_angle_alpha   91.85553570
_cell_angle_beta   91.85553566
_cell_angle_gamma   91.85553575
_symmetry_Int_Tables_number   1
_chemical_formula_structural   Sr3SmRhO6
_chemical_formula_sum   'Sr6 Sm2 Rh2 O12'
_cell_volume   328.17754700
_cell_formula_units_Z   2
loop_
 _symmetry_equiv_pos_site_id
 _symmetry_equiv_pos_as_xyz
  1  'x, y, z'
loop_
 _atom_site_type_symbol
 _atom_site_label
 _atom_site_symmetry_multiplicity
 _atom_site_fract_x
 _atom_site_fract_y
 _atom_site_fract_z
 _atom_site_occupancy
  O  O0  1  0.79162173  0.58637168  0.45176315  1
  O  O1  1  0.58637168  0.45176315  0.79162173  1
  O  O2  1  0.45176315  0.79162173  0.58637168  1
  O  O3  1  0.04823685  0.91362832  0.70837827  1
  O  O4  1  0.91362832  0.70837827  0.04823685  1
  O  O5  1  0.70837827  0.04823685  0.91362832  1
  O  O6  1  0.20837827  0.41362832  0.54823685  1
  O  O7  1  0.41362832  0.54823685  0.20837827  1
  O  O8  1  0.54823685  0.20837827  0.41362832  1
  O  O9  1  0.95176315  0.08637168  0.29162173  1
  O  O10  1  0.29162173  0.95176315  0.08637168  1
  O  O11  1  0.08637168  0.29162173  0.95176315  1
  Sr  Sr12  1  0.61911620  0.88088380  0.25000000  1
  Sr  Sr13  1  0.25000000  0.61911620  0.88088380  1
  Sr  Sr14  1  0.88088380  0.25000000  0.61911620  1
  Sr  Sr15  1  0.38088380  0.11911620  0.75000000  1
  Sr  Sr16  1  0.11911620  0.75000000  0.38088380  1
  Sr  Sr17  1  0.75000000  0.38088380  0.11911620  1
  Rh  Rh18  1  0.50000000  0.50000000  0.50000000  1
  Rh  Rh19  1  0.00000000  0.00000000  0.00000000  1
  Sm  Sm20  1  0.75000000  0.75000000  0.75000000  1
  Sm  Sm21  1  0.25000000  0.25000000  0.25000000  1
