# generated using pymatgen
data_Ag3AsS4
_symmetry_space_group_name_H-M   'P 1'
_cell_length_a   6.68988532
_cell_length_b   7.03246323
_cell_length_c   7.95420441
_cell_angle_alpha   90.00000000
_cell_angle_beta   90.00000000
_cell_angle_gamma   90.00000000
_symmetry_Int_Tables_number   1
_chemical_formula_structural   Ag3AsS4
_chemical_formula_sum   'Ag6 As2 S8'
_cell_volume   374.21646382
_cell_formula_units_Z   2
loop_
 _symmetry_equiv_pos_site_id
 _symmetry_equiv_pos_as_xyz
  1  'x, y, z'
loop_
 _atom_site_type_symbol
 _atom_site_label
 _atom_site_symmetry_multiplicity
 _atom_site_fract_x
 _atom_site_fract_y
 _atom_site_fract_z
 _atom_site_occupancy
  S  S0  1  0.39069060  0.66528069  0.27042778  1
  S  S1  1  0.89069060  0.33471931  0.22957222  1
  S  S2  1  0.89069060  0.33471931  0.77042778  1
  S  S3  1  0.39069060  0.66528069  0.72957222  1
  S  S4  1  0.32983622  0.18352656  0.00000000  1
  S  S5  1  0.87448949  0.88654403  0.00000000  1
  S  S6  1  0.82983622  0.81647344  0.50000000  1
  S  S7  1  0.37448949  0.11345597  0.50000000  1
  As  As8  1  0.49773522  0.81952089  0.50000000  1
  As  As9  1  0.99773522  0.18047911  0.00000000  1
  Ag  Ag10  1  0.98852862  0.14915711  0.50000000  1
  Ag  Ag11  1  0.01296463  0.68355760  0.75932370  1
  Ag  Ag12  1  0.51296463  0.31644240  0.74067630  1
  Ag  Ag13  1  0.48852862  0.85084289  0.00000000  1
  Ag  Ag14  1  0.51296463  0.31644240  0.25932370  1
  Ag  Ag15  1  0.01296463  0.68355760  0.24067630  1
