# generated using pymatgen
data_BaNd2BeO5
_symmetry_space_group_name_H-M   'P 1'
_cell_length_a   6.77191543
_cell_length_b   7.46121936
_cell_length_c   9.85398847
_cell_angle_alpha   90.82586577
_cell_angle_beta   90.00000000
_cell_angle_gamma   90.00000000
_symmetry_Int_Tables_number   1
_chemical_formula_structural   BaNd2BeO5
_chemical_formula_sum   'Ba4 Nd8 Be4 O20'
_cell_volume   497.83825605
_cell_formula_units_Z   4
loop_
 _symmetry_equiv_pos_site_id
 _symmetry_equiv_pos_as_xyz
  1  'x, y, z'
loop_
 _atom_site_type_symbol
 _atom_site_label
 _atom_site_symmetry_multiplicity
 _atom_site_fract_x
 _atom_site_fract_y
 _atom_site_fract_z
 _atom_site_occupancy
  Be  Be0  1  0.80713269  0.73846673  0.90342632  1
  Be  Be1  1  0.69286731  0.73846673  0.40342632  1
  Be  Be2  1  0.19286731  0.26153327  0.09657368  1
  Be  Be3  1  0.30713269  0.26153327  0.59657368  1
  O  O4  1  0.63072274  0.71990730  0.23175104  1
  O  O5  1  0.13072274  0.28009270  0.26824896  1
  O  O6  1  0.36927726  0.28009270  0.76824896  1
  O  O7  1  0.86927726  0.71990730  0.73175104  1
  O  O8  1  0.16500341  0.71485244  0.28475419  1
  O  O9  1  0.66500341  0.28514756  0.21524581  1
  O  O10  1  0.83499659  0.28514756  0.71524581  1
  O  O11  1  0.33499659  0.71485244  0.78475419  1
  O  O12  1  0.01771280  0.71908189  0.99035676  1
  O  O13  1  0.48228720  0.71908189  0.49035676  1
  O  O14  1  0.98228720  0.28091811  0.00964324  1
  O  O15  1  0.51771280  0.28091811  0.50964324  1
  O  O16  1  0.19228939  0.06897138  0.56159538  1
  O  O17  1  0.69228939  0.93102862  0.93840462  1
  O  O18  1  0.80771061  0.93102862  0.43840462  1
  O  O19  1  0.30771061  0.06897138  0.06159538  1
  O  O20  1  0.82137395  0.55876481  0.43413035  1
  O  O21  1  0.32137395  0.44123519  0.06586965  1
  O  O22  1  0.17862605  0.44123519  0.56586965  1
  O  O23  1  0.67862605  0.55876481  0.93413035  1
  Ba  Ba24  1  0.58197974  0.97966795  0.67320697  1
  Ba  Ba25  1  0.08197974  0.02033205  0.82679303  1
  Ba  Ba26  1  0.41802026  0.02033205  0.32679303  1
  Ba  Ba27  1  0.91802026  0.97966795  0.17320697  1
  Nd  Nd28  1  0.41718148  0.47944959  0.32357964  1
  Nd  Nd29  1  0.91718148  0.52055041  0.17642036  1
  Nd  Nd30  1  0.58281852  0.52055041  0.67642036  1
  Nd  Nd31  1  0.08281852  0.47944959  0.82357964  1
  Nd  Nd32  1  0.09066026  0.74297837  0.52052919  1
  Nd  Nd33  1  0.59066026  0.25702163  0.97947081  1
  Nd  Nd34  1  0.90933974  0.25702163  0.47947081  1
  Nd  Nd35  1  0.40933974  0.74297837  0.02052919  1
