# generated using pymatgen
data_SrTa2O6
_symmetry_space_group_name_H-M   'P 1'
_cell_length_a   5.67642043
_cell_length_b   7.71147994
_cell_length_c   11.17368755
_cell_angle_alpha   90.00000000
_cell_angle_beta   90.00000000
_cell_angle_gamma   90.00000000
_symmetry_Int_Tables_number   1
_chemical_formula_structural   SrTa2O6
_chemical_formula_sum   'Sr4 Ta8 O24'
_cell_volume   489.11255478
_cell_formula_units_Z   4
loop_
 _symmetry_equiv_pos_site_id
 _symmetry_equiv_pos_as_xyz
  1  'x, y, z'
loop_
 _atom_site_type_symbol
 _atom_site_label
 _atom_site_symmetry_multiplicity
 _atom_site_fract_x
 _atom_site_fract_y
 _atom_site_fract_z
 _atom_site_occupancy
  O  O0  1  0.13655886  0.25000000  0.12964842  1
  O  O1  1  0.63655886  0.75000000  0.37035158  1
  O  O2  1  0.86344114  0.75000000  0.87035158  1
  O  O3  1  0.36344114  0.25000000  0.62964842  1
  O  O4  1  0.97043880  0.75000000  0.14546547  1
  O  O5  1  0.47043880  0.25000000  0.35453453  1
  O  O6  1  0.02956120  0.25000000  0.85453453  1
  O  O7  1  0.52956120  0.75000000  0.64546547  1
  O  O8  1  0.28108493  0.96669374  0.47621946  1
  O  O9  1  0.78108493  0.03330626  0.02378054  1
  O  O10  1  0.71891507  0.46669374  0.52378054  1
  O  O11  1  0.21891507  0.53330626  0.97621946  1
  O  O12  1  0.64318295  0.45195028  0.78535886  1
  O  O13  1  0.14318295  0.54804972  0.71464114  1
  O  O14  1  0.35681705  0.95195028  0.21464114  1
  O  O15  1  0.85681705  0.04804972  0.28535886  1
  O  O16  1  0.35681705  0.54804972  0.21464114  1
  O  O17  1  0.85681705  0.45195028  0.28535886  1
  O  O18  1  0.64318295  0.04804972  0.78535886  1
  O  O19  1  0.14318295  0.95195028  0.71464114  1
  O  O20  1  0.78108493  0.46669374  0.02378054  1
  O  O21  1  0.28108493  0.53330626  0.47621946  1
  O  O22  1  0.21891507  0.96669374  0.97621946  1
  O  O23  1  0.71891507  0.03330626  0.52378054  1
  Sr  Sr24  1  0.96174590  0.75000000  0.53997274  1
  Sr  Sr25  1  0.46174590  0.25000000  0.96002726  1
  Sr  Sr26  1  0.03825410  0.25000000  0.46002726  1
  Sr  Sr27  1  0.53825410  0.75000000  0.03997274  1
  Ta  Ta28  1  0.46530378  0.49570582  0.64214843  1
  Ta  Ta29  1  0.96530378  0.50429418  0.85785157  1
  Ta  Ta30  1  0.53469622  0.99570582  0.35785157  1
  Ta  Ta31  1  0.03469622  0.00429418  0.14214843  1
  Ta  Ta32  1  0.53469622  0.50429418  0.35785157  1
  Ta  Ta33  1  0.03469622  0.49570582  0.14214843  1
  Ta  Ta34  1  0.46530378  0.00429418  0.64214843  1
  Ta  Ta35  1  0.96530378  0.99570582  0.85785157  1
