# generated using pymatgen
data_CsGaTe2
_symmetry_space_group_name_H-M   'P 1'
_cell_length_a   8.57666492
_cell_length_b   8.57666492
_cell_length_c   18.31801609
_cell_angle_alpha   83.28645489
_cell_angle_beta   83.28645488
_cell_angle_gamma   89.97610300
_symmetry_Int_Tables_number   1
_chemical_formula_structural   CsGaTe2
_chemical_formula_sum   'Cs8 Ga8 Te16'
_cell_volume   1328.92276125
_cell_formula_units_Z   8
loop_
 _symmetry_equiv_pos_site_id
 _symmetry_equiv_pos_as_xyz
  1  'x, y, z'
loop_
 _atom_site_type_symbol
 _atom_site_label
 _atom_site_symmetry_multiplicity
 _atom_site_fract_x
 _atom_site_fract_y
 _atom_site_fract_z
 _atom_site_occupancy
  Ga  Ga0  1  0.91494696  0.29254880  0.32889327  1
  Ga  Ga1  1  0.70719956  0.57952385  0.17163268  1
  Ga  Ga2  1  0.42047615  0.29280044  0.32836732  1
  Ga  Ga3  1  0.29280044  0.42047615  0.82836732  1
  Ga  Ga4  1  0.57952385  0.70719956  0.67163268  1
  Ga  Ga5  1  0.70745120  0.08505304  0.17110673  1
  Ga  Ga6  1  0.08505304  0.70745120  0.67110673  1
  Ga  Ga7  1  0.29254880  0.91494696  0.82889327  1
  Te  Te8  1  0.57246713  0.94748655  0.75036980  1
  Te  Te9  1  0.05251345  0.42753287  0.74963020  1
  Te  Te10  1  0.42753287  0.05251345  0.24963020  1
  Te  Te11  1  0.42720203  0.57279797  0.25000000  1
  Te  Te12  1  0.94748655  0.57246713  0.25036980  1
  Te  Te13  1  0.05239974  0.94760026  0.75000000  1
  Te  Te14  1  0.94760026  0.05239974  0.25000000  1
  Te  Te15  1  0.57279797  0.42720203  0.75000000  1
  Te  Te16  1  0.35557630  0.72995250  0.58037809  1
  Te  Te17  1  0.27004750  0.64442370  0.91962191  1
  Te  Te18  1  0.64442370  0.27004750  0.41962191  1
  Te  Te19  1  0.72995250  0.35557630  0.08037809  1
  Te  Te20  1  0.27034801  0.14608692  0.91750409  1
  Te  Te21  1  0.85391308  0.72965199  0.58249591  1
  Te  Te22  1  0.72965199  0.85391308  0.08249591  1
  Te  Te23  1  0.14608692  0.27034801  0.41750409  1
  Cs  Cs24  1  0.14964828  0.77529643  0.40058162  1
  Cs  Cs25  1  0.22470357  0.85035172  0.09941838  1
  Cs  Cs26  1  0.85035172  0.22470357  0.59941838  1
  Cs  Cs27  1  0.77529643  0.14964828  0.90058162  1
  Cs  Cs28  1  0.22278142  0.34802356  0.10828089  1
  Cs  Cs29  1  0.65197644  0.77721858  0.39171911  1
  Cs  Cs30  1  0.77721858  0.65197644  0.89171911  1
  Cs  Cs31  1  0.34802356  0.22278142  0.60828089  1
