# generated using pymatgen
data_Tl3B3S10
_symmetry_space_group_name_H-M   'P 1'
_cell_length_a   7.04996441
_cell_length_b   7.99545519
_cell_length_c   13.96633768
_cell_angle_alpha   102.91384077
_cell_angle_beta   93.25886866
_cell_angle_gamma   95.98971680
_symmetry_Int_Tables_number   1
_chemical_formula_structural   Tl3B3S10
_chemical_formula_sum   'Tl6 B6 S20'
_cell_volume   760.53490788
_cell_formula_units_Z   2
loop_
 _symmetry_equiv_pos_site_id
 _symmetry_equiv_pos_as_xyz
  1  'x, y, z'
loop_
 _atom_site_type_symbol
 _atom_site_label
 _atom_site_symmetry_multiplicity
 _atom_site_fract_x
 _atom_site_fract_y
 _atom_site_fract_z
 _atom_site_occupancy
  B  B0  1  0.63261253  0.08482091  0.91117887  1
  B  B1  1  0.36738747  0.91517909  0.08882113  1
  B  B2  1  0.74026132  0.27595746  0.75879928  1
  B  B3  1  0.25973868  0.72404254  0.24120072  1
  B  B4  1  0.89610325  0.38294510  0.58594658  1
  B  B5  1  0.10389675  0.61705490  0.41405342  1
  S  S6  1  0.07539843  0.78578509  0.33759158  1
  S  S7  1  0.92460157  0.21421491  0.66240842  1
  S  S8  1  0.16966150  0.74990024  0.11378889  1
  S  S9  1  0.83033850  0.25009976  0.88621111  1
  S  S10  1  0.32862754  0.50576612  0.38258517  1
  S  S11  1  0.67137246  0.49423388  0.61741483  1
  S  S12  1  0.29736818  0.48586467  0.23098859  1
  S  S13  1  0.70263182  0.51413533  0.76901141  1
  S  S14  1  0.50930793  0.85758946  0.28128843  1
  S  S15  1  0.49069207  0.14241054  0.71871157  1
  S  S16  1  0.47866827  0.05856510  0.21225994  1
  S  S17  1  0.52133173  0.94143490  0.78774006  1
  S  S18  1  0.53544462  0.77351242  0.01388221  1
  S  S19  1  0.46455538  0.22648758  0.98611779  1
  S  S20  1  0.24202274  0.05448240  0.01543991  1
  S  S21  1  0.75797726  0.94551760  0.98456009  1
  S  S22  1  0.13850419  0.73220163  0.55027017  1
  S  S23  1  0.86149581  0.26779837  0.44972983  1
  S  S24  1  0.13557605  0.52763508  0.62308407  1
  S  S25  1  0.86442395  0.47236492  0.37691593  1
  Tl  Tl26  1  0.00932749  0.87482772  0.79713232  1
  Tl  Tl27  1  0.99067251  0.12517228  0.20286768  1
  Tl  Tl28  1  0.27355244  0.43696964  0.84289458  1
  Tl  Tl29  1  0.72644756  0.56303036  0.15710542  1
  Tl  Tl30  1  0.68197950  0.81346468  0.51593381  1
  Tl  Tl31  1  0.31802050  0.18653532  0.48406619  1
