# generated using pymatgen
data_K2Li3GaO4
_symmetry_space_group_name_H-M   'P 1'
_cell_length_a   5.60825570
_cell_length_b   8.90846736
_cell_length_c   10.44516887
_cell_angle_alpha   90.00000000
_cell_angle_beta   98.79995382
_cell_angle_gamma   90.00000000
_symmetry_Int_Tables_number   1
_chemical_formula_structural   K2Li3GaO4
_chemical_formula_sum   'K8 Li12 Ga4 O16'
_cell_volume   515.70773064
_cell_formula_units_Z   4
loop_
 _symmetry_equiv_pos_site_id
 _symmetry_equiv_pos_as_xyz
  1  'x, y, z'
loop_
 _atom_site_type_symbol
 _atom_site_label
 _atom_site_symmetry_multiplicity
 _atom_site_fract_x
 _atom_site_fract_y
 _atom_site_fract_z
 _atom_site_occupancy
  Li  Li0  1  0.41625640  0.26146995  0.79901262  1
  Li  Li1  1  0.08374360  0.76146995  0.70098738  1
  Li  Li2  1  0.58374360  0.73853005  0.20098738  1
  Li  Li3  1  0.91625640  0.23853005  0.29901262  1
  Li  Li4  1  0.60939539  0.03528327  0.70276636  1
  Li  Li5  1  0.89060461  0.53528327  0.79723364  1
  Li  Li6  1  0.39060461  0.96471673  0.29723364  1
  Li  Li7  1  0.10939539  0.46471673  0.20276636  1
  Li  Li8  1  0.30164886  0.49102840  0.93014308  1
  Li  Li9  1  0.19835114  0.99102840  0.56985692  1
  Li  Li10  1  0.69835114  0.50897160  0.06985692  1
  Li  Li11  1  0.80164886  0.00897160  0.43014308  1
  O  O12  1  0.10808887  0.32222400  0.85757015  1
  O  O13  1  0.39191113  0.82222400  0.64242985  1
  O  O14  1  0.89191113  0.67777600  0.14242985  1
  O  O15  1  0.60808887  0.17777600  0.35757015  1
  O  O16  1  0.38576197  0.18989437  0.61823776  1
  O  O17  1  0.11423803  0.68989437  0.88176224  1
  O  O18  1  0.61423803  0.81010563  0.38176224  1
  O  O19  1  0.88576197  0.31010563  0.11823776  1
  O  O20  1  0.66749094  0.10904013  0.88496063  1
  O  O21  1  0.83250906  0.60904013  0.61503937  1
  O  O22  1  0.33250906  0.89095987  0.11503937  1
  O  O23  1  0.16749094  0.39095987  0.38496063  1
  O  O24  1  0.11815582  0.05136664  0.37650827  1
  O  O25  1  0.38184418  0.55136664  0.12349173  1
  O  O26  1  0.88184418  0.94863336  0.62349173  1
  O  O27  1  0.61815582  0.44863336  0.87650827  1
  K  K28  1  0.84626621  0.99278584  0.13731437  1
  K  K29  1  0.65373379  0.49278584  0.36268563  1
  K  K30  1  0.15373379  0.00721416  0.86268563  1
  K  K31  1  0.34626621  0.50721416  0.63731437  1
  K  K32  1  0.11087690  0.72786580  0.39078916  1
  K  K33  1  0.38912310  0.22786580  0.10921084  1
  K  K34  1  0.88912310  0.27213420  0.60921084  1
  K  K35  1  0.61087690  0.77213420  0.89078916  1
  Ga  Ga36  1  0.83370577  0.28855852  0.93649215  1
  Ga  Ga37  1  0.66629423  0.78855852  0.56350785  1
  Ga  Ga38  1  0.16629423  0.71144148  0.06350785  1
  Ga  Ga39  1  0.33370577  0.21144148  0.43649215  1
