# generated using pymatgen
data_Al6Cd4TeO12
_symmetry_space_group_name_H-M   'P 1'
_cell_length_a   7.86202960
_cell_length_b   7.86202960
_cell_length_c   7.86202960
_cell_angle_alpha   109.47122060
_cell_angle_beta   109.47122062
_cell_angle_gamma   109.47122067
_symmetry_Int_Tables_number   1
_chemical_formula_structural   Al6Cd4TeO12
_chemical_formula_sum   'Al6 Cd4 Te1 O12'
_cell_volume   374.09519759
_cell_formula_units_Z   1
loop_
 _symmetry_equiv_pos_site_id
 _symmetry_equiv_pos_as_xyz
  1  'x, y, z'
loop_
 _atom_site_type_symbol
 _atom_site_label
 _atom_site_symmetry_multiplicity
 _atom_site_fract_x
 _atom_site_fract_y
 _atom_site_fract_z
 _atom_site_occupancy
  O  O0  1  0.43547348  0.72206984  0.00000000  1
  O  O1  1  0.27793016  0.27793016  0.71340364  1
  O  O2  1  0.56452652  0.28659636  0.56452652  1
  O  O3  1  0.28659636  0.56452652  0.56452652  1
  O  O4  1  0.72206984  0.00000000  0.43547348  1
  O  O5  1  0.27793016  0.71340364  0.27793016  1
  O  O6  1  0.71340364  0.27793016  0.27793016  1
  O  O7  1  0.00000000  0.72206984  0.43547348  1
  O  O8  1  0.72206984  0.43547348  0.00000000  1
  O  O9  1  0.00000000  0.43547348  0.72206984  1
  O  O10  1  0.56452652  0.56452652  0.28659636  1
  O  O11  1  0.43547348  0.00000000  0.72206984  1
  Al  Al12  1  0.25000000  0.75000000  0.50000000  1
  Al  Al13  1  0.75000000  0.25000000  0.50000000  1
  Al  Al14  1  0.25000000  0.50000000  0.75000000  1
  Al  Al15  1  0.75000000  0.50000000  0.25000000  1
  Al  Al16  1  0.50000000  0.25000000  0.75000000  1
  Al  Al17  1  0.50000000  0.75000000  0.25000000  1
  Cd  Cd18  1  0.35858638  0.35858638  0.35858638  1
  Cd  Cd19  1  0.00000000  0.00000000  0.64141362  1
  Cd  Cd20  1  0.64141362  0.00000000  0.00000000  1
  Cd  Cd21  1  0.00000000  0.64141362  0.00000000  1
  Te  Te22  1  0.00000000  0.00000000  0.00000000  1
