# generated using pymatgen
data_Sm3IrO7
_symmetry_space_group_name_H-M   'P 1'
_cell_length_a   6.56706063
_cell_length_b   6.56706062
_cell_length_c   7.52813810
_cell_angle_alpha   90.00000000
_cell_angle_beta   90.00000000
_cell_angle_gamma   110.64195853
_symmetry_Int_Tables_number   1
_chemical_formula_structural   Sm3IrO7
_chemical_formula_sum   'Sm6 Ir2 O14'
_cell_volume   303.81794643
_cell_formula_units_Z   2
loop_
 _symmetry_equiv_pos_site_id
 _symmetry_equiv_pos_as_xyz
  1  'x, y, z'
loop_
 _atom_site_type_symbol
 _atom_site_label
 _atom_site_symmetry_multiplicity
 _atom_site_fract_x
 _atom_site_fract_y
 _atom_site_fract_z
 _atom_site_occupancy
  O  O0  1  0.59188988  0.59188988  0.75000000  1
  O  O1  1  0.40811012  0.40811012  0.25000000  1
  O  O2  1  0.11012050  0.84498159  0.75000000  1
  O  O3  1  0.88987950  0.15501841  0.25000000  1
  O  O4  1  0.84498159  0.11012050  0.75000000  1
  O  O5  1  0.15501841  0.88987950  0.25000000  1
  O  O6  1  0.18431787  0.43867829  0.96231255  1
  O  O7  1  0.81568213  0.56132171  0.46231255  1
  O  O8  1  0.43867829  0.18431787  0.96231255  1
  O  O9  1  0.56132171  0.81568213  0.46231255  1
  O  O10  1  0.18431787  0.43867829  0.53768745  1
  O  O11  1  0.81568213  0.56132171  0.03768745  1
  O  O12  1  0.56132171  0.81568213  0.03768745  1
  O  O13  1  0.43867829  0.18431787  0.53768745  1
  Sm  Sm14  1  0.00000000  0.00000000  0.00000000  1
  Sm  Sm15  1  0.00000000  0.00000000  0.50000000  1
  Sm  Sm16  1  0.92523506  0.47842244  0.75000000  1
  Sm  Sm17  1  0.07476494  0.52157756  0.25000000  1
  Sm  Sm18  1  0.47842244  0.92523506  0.75000000  1
  Sm  Sm19  1  0.52157756  0.07476494  0.25000000  1
  Ir  Ir20  1  0.50000000  0.50000000  0.00000000  1
  Ir  Ir21  1  0.50000000  0.50000000  0.50000000  1
