# generated using pymatgen
data_Sr4TiP4
_symmetry_space_group_name_H-M   'P 1'
_cell_length_a   12.65158144
_cell_length_b   12.65158144
_cell_length_c   12.65158144
_cell_angle_alpha   90.00000000
_cell_angle_beta   90.00000000
_cell_angle_gamma   90.00000000
_symmetry_Int_Tables_number   1
_chemical_formula_structural   Sr4TiP4
_chemical_formula_sum   'Sr32 Ti8 P32'
_cell_volume   2025.04391786
_cell_formula_units_Z   8
loop_
 _symmetry_equiv_pos_site_id
 _symmetry_equiv_pos_as_xyz
  1  'x, y, z'
loop_
 _atom_site_type_symbol
 _atom_site_label
 _atom_site_symmetry_multiplicity
 _atom_site_fract_x
 _atom_site_fract_y
 _atom_site_fract_z
 _atom_site_occupancy
  P  P0  1  0.89124517  0.89124517  0.89124517  1
  P  P1  1  0.60875483  0.39124517  0.60875483  1
  P  P2  1  0.39124517  0.60875483  0.60875483  1
  P  P3  1  0.60875483  0.60875483  0.39124517  1
  P  P4  1  0.89124517  0.10875483  0.10875483  1
  P  P5  1  0.10875483  0.10875483  0.89124517  1
  P  P6  1  0.10875483  0.89124517  0.10875483  1
  P  P7  1  0.39124517  0.39124517  0.39124517  1
  P  P8  1  0.64573485  0.89254440  0.61478687  1
  P  P9  1  0.64573485  0.10745560  0.38521313  1
  P  P10  1  0.89254440  0.61478687  0.64573485  1
  P  P11  1  0.10745560  0.61478687  0.35426515  1
  P  P12  1  0.61478687  0.64573485  0.89254440  1
  P  P13  1  0.38521313  0.35426515  0.89254440  1
  P  P14  1  0.85426515  0.88521313  0.39254440  1
  P  P15  1  0.85426515  0.11478687  0.60745560  1
  P  P16  1  0.14573485  0.88521313  0.60745560  1
  P  P17  1  0.11478687  0.60745560  0.85426515  1
  P  P18  1  0.60745560  0.14573485  0.88521313  1
  P  P19  1  0.60745560  0.85426515  0.11478687  1
  P  P20  1  0.88521313  0.39254440  0.85426515  1
  P  P21  1  0.39254440  0.85426515  0.88521313  1
  P  P22  1  0.88521313  0.60745560  0.14573485  1
  P  P23  1  0.11478687  0.39254440  0.14573485  1
  P  P24  1  0.39254440  0.14573485  0.11478687  1
  P  P25  1  0.38521313  0.64573485  0.10745560  1
  P  P26  1  0.61478687  0.35426515  0.10745560  1
  P  P27  1  0.89254440  0.38521313  0.35426515  1
  P  P28  1  0.10745560  0.38521313  0.64573485  1
  P  P29  1  0.35426515  0.10745560  0.61478687  1
  P  P30  1  0.35426515  0.89254440  0.38521313  1
  P  P31  1  0.14573485  0.11478687  0.39254440  1
  Ti  Ti32  1  0.50000000  0.50000000  0.50000000  1
  Ti  Ti33  1  0.00000000  0.00000000  0.00000000  1
  Ti  Ti34  1  0.75000000  0.00000000  0.50000000  1
  Ti  Ti35  1  0.50000000  0.75000000  0.00000000  1
  Ti  Ti36  1  0.50000000  0.25000000  0.00000000  1
  Ti  Ti37  1  0.00000000  0.50000000  0.25000000  1
  Ti  Ti38  1  0.00000000  0.50000000  0.75000000  1
  Ti  Ti39  1  0.25000000  0.00000000  0.50000000  1
  Sr  Sr40  1  0.14839486  0.14839486  0.14839486  1
  Sr  Sr41  1  0.35160514  0.64839486  0.35160514  1
  Sr  Sr42  1  0.64839486  0.35160514  0.35160514  1
  Sr  Sr43  1  0.35160514  0.35160514  0.64839486  1
  Sr  Sr44  1  0.14839486  0.85160514  0.85160514  1
  Sr  Sr45  1  0.85160514  0.85160514  0.14839486  1
  Sr  Sr46  1  0.85160514  0.14839486  0.85160514  1
  Sr  Sr47  1  0.64839486  0.64839486  0.64839486  1
  Sr  Sr48  1  0.90631672  0.86256390  0.64808170  1
  Sr  Sr49  1  0.90631672  0.13743610  0.35191830  1
  Sr  Sr50  1  0.86256390  0.64808170  0.90631672  1
  Sr  Sr51  1  0.13743610  0.64808170  0.09368328  1
  Sr  Sr52  1  0.64808170  0.90631672  0.86256390  1
  Sr  Sr53  1  0.35191830  0.09368328  0.86256390  1
  Sr  Sr54  1  0.59368328  0.85191830  0.36256390  1
  Sr  Sr55  1  0.59368328  0.14808170  0.63743610  1
  Sr  Sr56  1  0.40631672  0.85191830  0.63743610  1
  Sr  Sr57  1  0.14808170  0.63743610  0.59368328  1
  Sr  Sr58  1  0.63743610  0.40631672  0.85191830  1
  Sr  Sr59  1  0.63743610  0.59368328  0.14808170  1
  Sr  Sr60  1  0.85191830  0.36256390  0.59368328  1
  Sr  Sr61  1  0.36256390  0.59368328  0.85191830  1
  Sr  Sr62  1  0.85191830  0.63743610  0.40631672  1
  Sr  Sr63  1  0.14808170  0.36256390  0.40631672  1
  Sr  Sr64  1  0.36256390  0.40631672  0.14808170  1
  Sr  Sr65  1  0.35191830  0.90631672  0.13743610  1
  Sr  Sr66  1  0.64808170  0.09368328  0.13743610  1
  Sr  Sr67  1  0.86256390  0.35191830  0.09368328  1
  Sr  Sr68  1  0.13743610  0.35191830  0.90631672  1
  Sr  Sr69  1  0.09368328  0.13743610  0.64808170  1
  Sr  Sr70  1  0.09368328  0.86256390  0.35191830  1
  Sr  Sr71  1  0.40631672  0.14808170  0.36256390  1
