# generated using pymatgen
data_Cs3Na2SnP3
_symmetry_space_group_name_H-M   'P 1'
_cell_length_a   6.92294760
_cell_length_b   10.88369145
_cell_length_c   16.55818276
_cell_angle_alpha   90.00000000
_cell_angle_beta   90.00000000
_cell_angle_gamma   108.54457017
_symmetry_Int_Tables_number   1
_chemical_formula_structural   Cs3Na2SnP3
_chemical_formula_sum   'Cs12 Na8 Sn4 P12'
_cell_volume   1182.83273888
_cell_formula_units_Z   4
loop_
 _symmetry_equiv_pos_site_id
 _symmetry_equiv_pos_as_xyz
  1  'x, y, z'
loop_
 _atom_site_type_symbol
 _atom_site_label
 _atom_site_symmetry_multiplicity
 _atom_site_fract_x
 _atom_site_fract_y
 _atom_site_fract_z
 _atom_site_occupancy
  Na  Na0  1  0.08060378  0.16120756  0.00000000  1
  Na  Na1  1  0.41939622  0.83879244  0.50000000  1
  Na  Na2  1  0.91939622  0.83879244  0.00000000  1
  Na  Na3  1  0.58060378  0.16120756  0.50000000  1
  Na  Na4  1  0.24590290  0.49180580  0.00000000  1
  Na  Na5  1  0.25409710  0.50819420  0.50000000  1
  Na  Na6  1  0.75409710  0.50819420  0.00000000  1
  Na  Na7  1  0.74590290  0.49180580  0.50000000  1
  P  P8  1  0.56109902  0.68586067  0.90869467  1
  P  P9  1  0.12476165  0.68586067  0.09130533  1
  P  P10  1  0.93890098  0.31413933  0.40869467  1
  P  P11  1  0.62476165  0.68586067  0.40869467  1
  P  P12  1  0.43890098  0.31413933  0.09130533  1
  P  P13  1  0.87523835  0.31413933  0.90869467  1
  P  P14  1  0.06109902  0.68586067  0.59130533  1
  P  P15  1  0.20078088  0.00000000  0.41763329  1
  P  P16  1  0.70078088  0.00000000  0.08236671  1
  P  P17  1  0.29921912  0.00000000  0.91763329  1
  P  P18  1  0.37523835  0.31413933  0.59130533  1
  P  P19  1  0.79921912  0.00000000  0.58236671  1
  Sn  Sn20  1  0.41260313  0.82520626  0.00000000  1
  Sn  Sn21  1  0.08739687  0.17479374  0.50000000  1
  Sn  Sn22  1  0.58739687  0.17479374  0.00000000  1
  Sn  Sn23  1  0.91260313  0.82520626  0.50000000  1
  Cs  Cs24  1  0.60725552  0.66583539  0.17271181  1
  Cs  Cs25  1  0.89274448  0.33416461  0.67271181  1
  Cs  Cs26  1  0.05857987  0.66583539  0.82728819  1
  Cs  Cs27  1  0.39274448  0.33416461  0.82728819  1
  Cs  Cs28  1  0.55857987  0.66583539  0.67271181  1
  Cs  Cs29  1  0.10725552  0.66583539  0.32728819  1
  Cs  Cs30  1  0.94142013  0.33416461  0.17271181  1
  Cs  Cs31  1  0.26749148  0.00000000  0.67865453  1
  Cs  Cs32  1  0.76749148  0.00000000  0.82134547  1
  Cs  Cs33  1  0.23250852  0.00000000  0.17865453  1
  Cs  Cs34  1  0.73250852  0.00000000  0.32134547  1
  Cs  Cs35  1  0.44142013  0.33416461  0.32728819  1
