# generated using pymatgen
data_RbBaPO4
_symmetry_space_group_name_H-M   'P 1'
_cell_length_a   5.80588131
_cell_length_b   7.94987622
_cell_length_c   10.26222749
_cell_angle_alpha   90.00000000
_cell_angle_beta   90.00000000
_cell_angle_gamma   90.00000000
_symmetry_Int_Tables_number   1
_chemical_formula_structural   RbBaPO4
_chemical_formula_sum   'Rb4 Ba4 P4 O16'
_cell_volume   473.66375956
_cell_formula_units_Z   4
loop_
 _symmetry_equiv_pos_site_id
 _symmetry_equiv_pos_as_xyz
  1  'x, y, z'
loop_
 _atom_site_type_symbol
 _atom_site_label
 _atom_site_symmetry_multiplicity
 _atom_site_fract_x
 _atom_site_fract_y
 _atom_site_fract_z
 _atom_site_occupancy
  O  O0  1  0.97106083  0.29102201  0.84152336  1
  O  O1  1  0.47106083  0.70897799  0.15847664  1
  O  O2  1  0.52893917  0.79102201  0.65847664  1
  O  O3  1  0.02893917  0.20897799  0.34152336  1
  O  O4  1  0.02893917  0.70897799  0.15847664  1
  O  O5  1  0.52893917  0.29102201  0.84152336  1
  O  O6  1  0.47106083  0.20897799  0.34152336  1
  O  O7  1  0.97106083  0.79102201  0.65847664  1
  O  O8  1  0.25000000  0.96670818  0.08148169  1
  O  O9  1  0.75000000  0.03329182  0.91851831  1
  O  O10  1  0.25000000  0.46670818  0.41851831  1
  O  O11  1  0.75000000  0.53329182  0.58148169  1
  O  O12  1  0.75000000  0.80031314  0.44314052  1
  O  O13  1  0.25000000  0.19968686  0.55685948  1
  O  O14  1  0.75000000  0.30031314  0.05685948  1
  O  O15  1  0.25000000  0.69968686  0.94314052  1
  P  P16  1  0.25000000  0.77026936  0.08582424  1
  P  P17  1  0.75000000  0.22973064  0.91417576  1
  P  P18  1  0.25000000  0.27026936  0.41417576  1
  P  P19  1  0.75000000  0.72973064  0.58582424  1
  Rb  Rb20  1  0.75000000  0.15629720  0.58426657  1
  Rb  Rb21  1  0.25000000  0.34370280  0.08426657  1
  Rb  Rb22  1  0.25000000  0.84370280  0.41573343  1
  Rb  Rb23  1  0.75000000  0.65629720  0.91573343  1
  Ba  Ba24  1  0.25000000  0.50075468  0.69170799  1
  Ba  Ba25  1  0.25000000  0.00075468  0.80829201  1
  Ba  Ba26  1  0.75000000  0.99924532  0.19170799  1
  Ba  Ba27  1  0.75000000  0.49924532  0.30829201  1
