# generated using pymatgen
data_KSmF4
_symmetry_space_group_name_H-M   'P 1'
_cell_length_a   3.72132924
_cell_length_b   6.23498871
_cell_length_c   15.72907104
_cell_angle_alpha   90.00000000
_cell_angle_beta   90.00000000
_cell_angle_gamma   90.00000000
_symmetry_Int_Tables_number   1
_chemical_formula_structural   KSmF4
_chemical_formula_sum   'K4 Sm4 F16'
_cell_volume   364.95291825
_cell_formula_units_Z   4
loop_
 _symmetry_equiv_pos_site_id
 _symmetry_equiv_pos_as_xyz
  1  'x, y, z'
loop_
 _atom_site_type_symbol
 _atom_site_label
 _atom_site_symmetry_multiplicity
 _atom_site_fract_x
 _atom_site_fract_y
 _atom_site_fract_z
 _atom_site_occupancy
  F  F0  1  0.25000000  0.40809891  0.19037871  1
  F  F1  1  0.75000000  0.59190109  0.80962129  1
  F  F2  1  0.25000000  0.90809891  0.30962129  1
  F  F3  1  0.75000000  0.09190109  0.69037871  1
  F  F4  1  0.75000000  0.10574468  0.13263552  1
  F  F5  1  0.25000000  0.89425532  0.86736448  1
  F  F6  1  0.75000000  0.60574468  0.36736448  1
  F  F7  1  0.25000000  0.39425532  0.63263552  1
  F  F8  1  0.75000000  0.13372067  0.96416864  1
  F  F9  1  0.25000000  0.86627933  0.03583136  1
  F  F10  1  0.75000000  0.63372067  0.53583136  1
  F  F11  1  0.25000000  0.36627933  0.46416864  1
  F  F12  1  0.25000000  0.99515165  0.55724521  1
  F  F13  1  0.75000000  0.00484835  0.44275479  1
  F  F14  1  0.25000000  0.49515165  0.94275479  1
  F  F15  1  0.75000000  0.50484835  0.05724521  1
  K  K16  1  0.75000000  0.22228423  0.29790567  1
  K  K17  1  0.25000000  0.77771577  0.70209433  1
  K  K18  1  0.75000000  0.72228423  0.20209433  1
  K  K19  1  0.25000000  0.27771577  0.79790567  1
  Sm  Sm20  1  0.25000000  0.24865621  0.05985482  1
  Sm  Sm21  1  0.75000000  0.75134379  0.94014518  1
  Sm  Sm22  1  0.25000000  0.74865621  0.44014518  1
  Sm  Sm23  1  0.75000000  0.25134379  0.55985482  1
