# generated using pymatgen
data_Lu2OsPd
_symmetry_space_group_name_H-M   'P 1'
_cell_length_a   4.77278760
_cell_length_b   4.77277833
_cell_length_c   4.77276626
_cell_angle_alpha   60.00000197
_cell_angle_beta   60.00047818
_cell_angle_gamma   59.99849224
_symmetry_Int_Tables_number   1
_chemical_formula_structural   Lu2OsPd
_chemical_formula_sum   'Lu2 Os1 Pd1'
_cell_volume   76.87677684
_cell_formula_units_Z   1
loop_
 _symmetry_equiv_pos_site_id
 _symmetry_equiv_pos_as_xyz
  1  'x, y, z'
loop_
 _atom_site_type_symbol
 _atom_site_label
 _atom_site_symmetry_multiplicity
 _atom_site_fract_x
 _atom_site_fract_y
 _atom_site_fract_z
 _atom_site_occupancy
  Lu  Lu0  1  0.00000863  0.99999354  0.99998982  1
  Lu  Lu1  1  0.49998844  0.49999378  0.50000847  1
  Os  Os2  1  0.25000708  0.25000079  0.24999966  1
  Pd  Pd3  1  0.74999586  0.75001189  0.75000205  1
