# generated using pymatgen
data_SrCdP2O7
_symmetry_space_group_name_H-M   'P 1'
_cell_length_a   5.50838641
_cell_length_b   8.67225454
_cell_length_c   13.15695618
_cell_angle_alpha   90.00000000
_cell_angle_beta   90.17067521
_cell_angle_gamma   90.00000000
_symmetry_Int_Tables_number   1
_chemical_formula_structural   SrCdP2O7
_chemical_formula_sum   'Sr4 Cd4 P8 O28'
_cell_volume   628.50670572
_cell_formula_units_Z   4
loop_
 _symmetry_equiv_pos_site_id
 _symmetry_equiv_pos_as_xyz
  1  'x, y, z'
loop_
 _atom_site_type_symbol
 _atom_site_label
 _atom_site_symmetry_multiplicity
 _atom_site_fract_x
 _atom_site_fract_y
 _atom_site_fract_z
 _atom_site_occupancy
  O  O0  1  0.87369534  0.11641962  0.59342380  1
  O  O1  1  0.62630466  0.61641962  0.90657620  1
  O  O2  1  0.12630466  0.88358038  0.40657620  1
  O  O3  1  0.37369534  0.38358038  0.09342380  1
  O  O4  1  0.43431290  0.17446735  0.54353213  1
  O  O5  1  0.06568710  0.67446735  0.95646787  1
  O  O6  1  0.56568710  0.82553265  0.45646787  1
  O  O7  1  0.93431290  0.32553265  0.04353213  1
  O  O8  1  0.78369963  0.21333872  0.41545951  1
  O  O9  1  0.71630037  0.71333872  0.08454049  1
  O  O10  1  0.21630037  0.78666128  0.58454049  1
  O  O11  1  0.28369963  0.28666128  0.91545951  1
  O  O12  1  0.99462141  0.44656394  0.72148576  1
  O  O13  1  0.50537859  0.94656394  0.77851424  1
  O  O14  1  0.00537859  0.55343606  0.27851424  1
  O  O15  1  0.49462141  0.05343606  0.22148576  1
  O  O16  1  0.24395804  0.10666592  0.06189963  1
  O  O17  1  0.25604196  0.60666592  0.43810037  1
  O  O18  1  0.75604196  0.89333408  0.93810037  1
  O  O19  1  0.74395804  0.39333408  0.56189963  1
  O  O20  1  0.16907757  0.86302060  0.15904218  1
  O  O21  1  0.33092243  0.36302060  0.34095782  1
  O  O22  1  0.83092243  0.13697940  0.84095782  1
  O  O23  1  0.66907757  0.63697940  0.65904218  1
  O  O24  1  0.04094140  0.11172747  0.23691294  1
  O  O25  1  0.45905860  0.61172747  0.26308706  1
  O  O26  1  0.95905860  0.88827253  0.76308706  1
  O  O27  1  0.54094140  0.38827253  0.73691294  1
  P  P28  1  0.70282395  0.21637552  0.52673656  1
  P  P29  1  0.79717605  0.71637552  0.97326344  1
  P  P30  1  0.29717605  0.78362448  0.47326344  1
  P  P31  1  0.20282395  0.28362448  0.02673656  1
  P  P32  1  0.74201189  0.46883585  0.67510732  1
  P  P33  1  0.75798811  0.96883585  0.82489268  1
  P  P34  1  0.25798811  0.53116415  0.32489268  1
  P  P35  1  0.24201189  0.03116415  0.17510732  1
  Sr  Sr36  1  0.71690395  0.32416072  0.22985183  1
  Sr  Sr37  1  0.78309605  0.82416072  0.27014817  1
  Sr  Sr38  1  0.28309605  0.67583928  0.77014817  1
  Sr  Sr39  1  0.21690395  0.17583928  0.72985183  1
  Cd  Cd40  1  0.68672457  0.35536382  0.90636962  1
  Cd  Cd41  1  0.81327543  0.85536382  0.59363038  1
  Cd  Cd42  1  0.31327543  0.64463618  0.09363038  1
  Cd  Cd43  1  0.18672457  0.14463618  0.40636962  1
