# generated using pymatgen
data_La2SiSeO4
_symmetry_space_group_name_H-M   'P 1'
_cell_length_a   6.34057083
_cell_length_b   7.37623766
_cell_length_c   11.28834065
_cell_angle_alpha   90.00000000
_cell_angle_beta   90.00000000
_cell_angle_gamma   90.00000000
_symmetry_Int_Tables_number   1
_chemical_formula_structural   La2SiSeO4
_chemical_formula_sum   'La8 Si4 Se4 O16'
_cell_volume   527.95069533
_cell_formula_units_Z   4
loop_
 _symmetry_equiv_pos_site_id
 _symmetry_equiv_pos_as_xyz
  1  'x, y, z'
loop_
 _atom_site_type_symbol
 _atom_site_label
 _atom_site_symmetry_multiplicity
 _atom_site_fract_x
 _atom_site_fract_y
 _atom_site_fract_z
 _atom_site_occupancy
  O  O0  1  0.26947203  0.07788009  0.46768154  1
  O  O1  1  0.26947203  0.42211991  0.53231846  1
  O  O2  1  0.73052797  0.57788009  0.03231846  1
  O  O3  1  0.73052797  0.92211991  0.96768154  1
  O  O4  1  0.73052797  0.92211991  0.53231846  1
  O  O5  1  0.73052797  0.57788009  0.46768154  1
  O  O6  1  0.26947203  0.42211991  0.96768154  1
  O  O7  1  0.26947203  0.07788009  0.03231846  1
  O  O8  1  0.04514410  0.76816659  0.38403186  1
  O  O9  1  0.04514410  0.76816659  0.11596814  1
  O  O10  1  0.95485590  0.26816659  0.11596814  1
  O  O11  1  0.95485590  0.23183341  0.88403186  1
  O  O12  1  0.95485590  0.23183341  0.61596814  1
  O  O13  1  0.95485590  0.26816659  0.38403186  1
  O  O14  1  0.04514410  0.73183341  0.88403186  1
  O  O15  1  0.04514410  0.73183341  0.61596814  1
  Si  Si16  1  0.11397981  0.25000000  0.00000000  1
  Si  Si17  1  0.88602019  0.75000000  0.00000000  1
  Si  Si18  1  0.88602019  0.75000000  0.50000000  1
  Si  Si19  1  0.11397981  0.25000000  0.50000000  1
  Se  Se20  1  0.57378428  0.61031415  0.75000000  1
  Se  Se21  1  0.57378428  0.88968585  0.25000000  1
  Se  Se22  1  0.42621572  0.11031415  0.75000000  1
  Se  Se23  1  0.42621572  0.38968585  0.25000000  1
  La  La24  1  0.39133119  0.75000000  0.50000000  1
  La  La25  1  0.39133119  0.75000000  0.00000000  1
  La  La26  1  0.60866881  0.25000000  0.50000000  1
  La  La27  1  0.60866881  0.25000000  0.00000000  1
  La  La28  1  0.87204235  0.96223688  0.75000000  1
  La  La29  1  0.87204235  0.53776312  0.25000000  1
  La  La30  1  0.12795765  0.46223688  0.75000000  1
  La  La31  1  0.12795765  0.03776312  0.25000000  1
