# generated using pymatgen
data_KThCuS3
_symmetry_space_group_name_H-M   'P 1'
_cell_length_a   4.09134963
_cell_length_b   7.35165561
_cell_length_c   10.58797390
_cell_angle_alpha   90.00000000
_cell_angle_beta   90.00000000
_cell_angle_gamma   106.15640881
_symmetry_Int_Tables_number   1
_chemical_formula_structural   KThCuS3
_chemical_formula_sum   'K2 Th2 Cu2 S6'
_cell_volume   305.88948031
_cell_formula_units_Z   2
loop_
 _symmetry_equiv_pos_site_id
 _symmetry_equiv_pos_as_xyz
  1  'x, y, z'
loop_
 _atom_site_type_symbol
 _atom_site_label
 _atom_site_symmetry_multiplicity
 _atom_site_fract_x
 _atom_site_fract_y
 _atom_site_fract_z
 _atom_site_occupancy
  S  S0  1  0.62378005  0.24756010  0.93074646  1
  S  S1  1  0.37621995  0.75243990  0.06925354  1
  S  S2  1  0.93565892  0.87131785  0.75000000  1
  S  S3  1  0.06434108  0.12868215  0.25000000  1
  S  S4  1  0.37621995  0.75243990  0.43074646  1
  S  S5  1  0.62378005  0.24756010  0.56925354  1
  K  K6  1  0.74430153  0.48860305  0.25000000  1
  K  K7  1  0.25569847  0.51139695  0.75000000  1
  Cu  Cu8  1  0.46961091  0.93922182  0.25000000  1
  Cu  Cu9  1  0.53038909  0.06077818  0.75000000  1
  Th  Th10  1  0.00000000  0.00000000  0.00000000  1
  Th  Th11  1  0.00000000  0.00000000  0.50000000  1
