# generated using pymatgen
data_Sm(ZnP)3
_symmetry_space_group_name_H-M   'P 1'
_cell_length_a   4.03370855
_cell_length_b   4.03370854
_cell_length_c   20.00945876
_cell_angle_alpha   90.00000000
_cell_angle_beta   90.00000000
_cell_angle_gamma   119.99999998
_symmetry_Int_Tables_number   1
_chemical_formula_structural   Sm(ZnP)3
_chemical_formula_sum   'Sm2 Zn6 P6'
_cell_volume   281.95188588
_cell_formula_units_Z   2
loop_
 _symmetry_equiv_pos_site_id
 _symmetry_equiv_pos_as_xyz
  1  'x, y, z'
loop_
 _atom_site_type_symbol
 _atom_site_label
 _atom_site_symmetry_multiplicity
 _atom_site_fract_x
 _atom_site_fract_y
 _atom_site_fract_z
 _atom_site_occupancy
  P  P0  1  0.66666667  0.33333333  0.75000000  1
  P  P1  1  0.33333333  0.66666667  0.25000000  1
  P  P2  1  0.33333333  0.66666667  0.58605476  1
  P  P3  1  0.66666667  0.33333333  0.08605476  1
  P  P4  1  0.66666667  0.33333333  0.41394524  1
  P  P5  1  0.33333333  0.66666667  0.91394524  1
  Zn  Zn6  1  0.66666667  0.33333333  0.25000000  1
  Zn  Zn7  1  0.33333333  0.66666667  0.75000000  1
  Zn  Zn8  1  0.66666667  0.33333333  0.62888507  1
  Zn  Zn9  1  0.33333333  0.66666667  0.12888507  1
  Zn  Zn10  1  0.33333333  0.66666667  0.37111493  1
  Zn  Zn11  1  0.66666667  0.33333333  0.87111493  1
  Sm  Sm12  1  0.00000000  0.00000000  0.50000000  1
  Sm  Sm13  1  0.00000000  0.00000000  0.00000000  1
