# generated using pymatgen
data_K2RbLuV2O8
_symmetry_space_group_name_H-M   'P 1'
_cell_length_a   5.96356397
_cell_length_b   5.96356397
_cell_length_c   7.76894073
_cell_angle_alpha   90.00000000
_cell_angle_beta   90.00000000
_cell_angle_gamma   119.99999918
_symmetry_Int_Tables_number   1
_chemical_formula_structural   K2RbLuV2O8
_chemical_formula_sum   'K2 Rb1 Lu1 V2 O8'
_cell_volume   239.27879189
_cell_formula_units_Z   1
loop_
 _symmetry_equiv_pos_site_id
 _symmetry_equiv_pos_as_xyz
  1  'x, y, z'
loop_
 _atom_site_type_symbol
 _atom_site_label
 _atom_site_symmetry_multiplicity
 _atom_site_fract_x
 _atom_site_fract_y
 _atom_site_fract_z
 _atom_site_occupancy
  K  K0  1  0.66666700  0.33333300  0.29852189  1
  K  K1  1  0.33333300  0.66666700  0.70147811  1
  Rb  Rb2  1  -0.00000000  -0.00000000  -0.00000000  1
  Lu  Lu3  1  -0.00000000  -0.00000000  0.50000000  1
  V  V4  1  0.66666700  0.33333300  0.74562782  1
  V  V5  1  0.33333300  0.66666700  0.25437218  1
  O  O6  1  0.66666700  0.33333300  0.96236709  1
  O  O7  1  0.33333300  0.66666700  0.03763291  1
  O  O8  1  0.82767632  0.65535264  0.66838485  1
  O  O9  1  0.17232368  0.34464736  0.33161515  1
  O  O10  1  0.82767632  0.17232368  0.66838485  1
  O  O11  1  0.17232368  0.82767632  0.33161515  1
  O  O12  1  0.34464736  0.17232368  0.66838485  1
  O  O13  1  0.65535264  0.82767632  0.33161515  1
