# generated using pymatgen
data_Ba(SmTe2)2
_symmetry_space_group_name_H-M   'P 1'
_cell_length_a   4.56134321
_cell_length_b   13.93043312
_cell_length_c   16.55769083
_cell_angle_alpha   90.00000000
_cell_angle_beta   90.00000000
_cell_angle_gamma   90.00000000
_symmetry_Int_Tables_number   1
_chemical_formula_structural   Ba(SmTe2)2
_chemical_formula_sum   'Ba4 Sm8 Te16'
_cell_volume   1052.10028875
_cell_formula_units_Z   4
loop_
 _symmetry_equiv_pos_site_id
 _symmetry_equiv_pos_as_xyz
  1  'x, y, z'
loop_
 _atom_site_type_symbol
 _atom_site_label
 _atom_site_symmetry_multiplicity
 _atom_site_fract_x
 _atom_site_fract_y
 _atom_site_fract_z
 _atom_site_occupancy
  Te  Te0  1  0.25000000  0.97386920  0.71635243  1
  Te  Te1  1  0.75000000  0.02613080  0.28364757  1
  Te  Te2  1  0.25000000  0.47386920  0.78364757  1
  Te  Te3  1  0.75000000  0.52613080  0.21635243  1
  Te  Te4  1  0.25000000  0.86985475  0.47110908  1
  Te  Te5  1  0.75000000  0.13014525  0.52889092  1
  Te  Te6  1  0.25000000  0.36985475  0.02889092  1
  Te  Te7  1  0.75000000  0.63014525  0.97110908  1
  Te  Te8  1  0.25000000  0.79421801  0.16664159  1
  Te  Te9  1  0.75000000  0.20578199  0.83335841  1
  Te  Te10  1  0.25000000  0.29421801  0.33335841  1
  Te  Te11  1  0.75000000  0.70578199  0.66664159  1
  Te  Te12  1  0.75000000  0.91042895  0.92166352  1
  Te  Te13  1  0.25000000  0.08957105  0.07833648  1
  Te  Te14  1  0.75000000  0.41042895  0.57833648  1
  Te  Te15  1  0.25000000  0.58957105  0.42166352  1
  Ba  Ba16  1  0.75000000  0.76042405  0.33179107  1
  Ba  Ba17  1  0.25000000  0.23957595  0.66820893  1
  Ba  Ba18  1  0.75000000  0.26042405  0.16820893  1
  Ba  Ba19  1  0.25000000  0.73957595  0.83179107  1
  Sm  Sm20  1  0.25000000  0.58039684  0.09699886  1
  Sm  Sm21  1  0.75000000  0.41960316  0.90300114  1
  Sm  Sm22  1  0.25000000  0.08039684  0.40300114  1
  Sm  Sm23  1  0.75000000  0.91960316  0.59699886  1
  Sm  Sm24  1  0.75000000  0.43735551  0.39110572  1
  Sm  Sm25  1  0.25000000  0.56264449  0.60889428  1
  Sm  Sm26  1  0.75000000  0.93735551  0.10889428  1
  Sm  Sm27  1  0.25000000  0.06264449  0.89110572  1
