# generated using pymatgen
data_CsKNa2Li12(SiO4)4
_symmetry_space_group_name_H-M   'P 1'
_cell_length_a   6.45199743
_cell_length_b   8.53285575
_cell_length_c   8.53285575
_cell_angle_alpha   81.78226336
_cell_angle_beta   67.78594585
_cell_angle_gamma   67.78594580
_symmetry_Int_Tables_number   1
_chemical_formula_structural   CsKNa2Li12(SiO4)4
_chemical_formula_sum   'Cs1 K1 Na2 Li12 Si4 O16'
_cell_volume   402.62115373
_cell_formula_units_Z   1
loop_
 _symmetry_equiv_pos_site_id
 _symmetry_equiv_pos_as_xyz
  1  'x, y, z'
loop_
 _atom_site_type_symbol
 _atom_site_label
 _atom_site_symmetry_multiplicity
 _atom_site_fract_x
 _atom_site_fract_y
 _atom_site_fract_z
 _atom_site_occupancy
  Li  Li0  1  0.92633502  0.36320772  0.78412224  1
  Li  Li1  1  0.28954274  0.78412224  0.63679228  1
  Li  Li2  1  0.07366498  0.63679228  0.21587776  1
  Li  Li3  1  0.71045726  0.21587776  0.36320772  1
  Li  Li4  1  0.85339318  0.12873359  0.64593507  1
  Li  Li5  1  0.49932826  0.35406493  0.12873359  1
  Li  Li6  1  0.14660682  0.87126641  0.35406493  1
  Li  Li7  1  0.62806185  0.87126641  0.35406493  1
  Li  Li8  1  0.37193815  0.12873359  0.64593507  1
  Li  Li9  1  0.01787322  0.35406493  0.12873359  1
  Li  Li10  1  0.50067174  0.64593507  0.87126641  1
  Li  Li11  1  0.98212678  0.64593507  0.87126641  1
  O  O12  1  0.37869667  0.70105732  0.11176749  1
  O  O13  1  0.07975399  0.11176749  0.29894268  1
  O  O14  1  0.19152147  0.29894268  0.88823251  1
  O  O15  1  0.49046416  0.88823251  0.70105732  1
  O  O16  1  0.92024601  0.88823251  0.70105732  1
  O  O17  1  0.62130333  0.29894268  0.88823251  1
  O  O18  1  0.50953584  0.11176749  0.29894268  1
  O  O19  1  0.80847853  0.70105732  0.11176749  1
  O  O20  1  0.43908587  0.72270993  0.39911833  1
  O  O21  1  0.83820420  0.60088167  0.72270993  1
  O  O22  1  0.16179580  0.39911833  0.27729007  1
  O  O23  1  0.56091413  0.27729007  0.60088167  1
  O  O24  1  0.10034312  0.22736019  0.57195356  1
  O  O25  1  0.67229668  0.42804644  0.22736019  1
  O  O26  1  0.32770332  0.57195356  0.77263981  1
  O  O27  1  0.89965688  0.77263981  0.42804644  1
  Na  Na28  1  0.25000000  0.50000000  0.50000000  1
  Na  Na29  1  0.75000000  0.50000000  0.50000000  1
  Si  Si30  1  0.78538116  0.79312419  0.63611349  1
  Si  Si31  1  0.21461884  0.20687581  0.36388651  1
  Si  Si32  1  0.42149465  0.36388651  0.79312419  1
  Si  Si33  1  0.57850535  0.63611349  0.20687581  1
  K  K34  1  0.50000000  0.00000000  0.00000000  1
  Cs  Cs35  1  0.00000000  0.00000000  0.00000000  1
