# generated using pymatgen
data_GdNi4B
_symmetry_space_group_name_H-M   'P 1'
_cell_length_a   5.01725106
_cell_length_b   5.00552882
_cell_length_c   6.96987859
_cell_angle_alpha   90.00000000
_cell_angle_beta   90.00000000
_cell_angle_gamma   120.07749442
_symmetry_Int_Tables_number   1
_chemical_formula_structural   GdNi4B
_chemical_formula_sum   'Gd2 Ni8 B2'
_cell_volume   151.47186778
_cell_formula_units_Z   2
loop_
 _symmetry_equiv_pos_site_id
 _symmetry_equiv_pos_as_xyz
  1  'x, y, z'
loop_
 _atom_site_type_symbol
 _atom_site_label
 _atom_site_symmetry_multiplicity
 _atom_site_fract_x
 _atom_site_fract_y
 _atom_site_fract_z
 _atom_site_occupancy
  Gd  Gd0  1  0.99998929  0.00000000  0.00000000  1
  Gd  Gd1  1  -0.00000071  1.00000000  0.50000000  1
  Ni  Ni2  1  0.33430859  0.66868618  -0.00000000  1
  Ni  Ni3  1  0.66562241  0.33131382  0.00000000  1
  Ni  Ni4  1  0.49999256  0.00000000  0.29267296  1
  Ni  Ni5  1  0.49998984  0.50000805  0.29271325  1
  Ni  Ni6  1  0.99998179  0.49999195  0.29271325  1
  Ni  Ni7  1  0.49999256  0.00000000  0.70732704  1
  Ni  Ni8  1  0.49998984  0.50000805  0.70728675  1
  Ni  Ni9  1  0.99998179  0.49999195  0.70728675  1
  B  B10  1  0.33281973  0.66568742  0.50000000  1
  B  B11  1  0.66713230  0.33431258  0.50000000  1
