# generated using pymatgen
data_Mn5O3F5
_symmetry_space_group_name_H-M   'P 1'
_cell_length_a   6.19234341
_cell_length_b   6.32867115
_cell_length_c   6.29993740
_cell_angle_alpha   119.84992680
_cell_angle_beta   89.99999918
_cell_angle_gamma   62.26533705
_symmetry_Int_Tables_number   1
_chemical_formula_structural   Mn5O3F5
_chemical_formula_sum   'Mn5 O3 F5'
_cell_volume   180.70076643
_cell_formula_units_Z   1
loop_
 _symmetry_equiv_pos_site_id
 _symmetry_equiv_pos_as_xyz
  1  'x, y, z'
loop_
 _atom_site_type_symbol
 _atom_site_label
 _atom_site_symmetry_multiplicity
 _atom_site_fract_x
 _atom_site_fract_y
 _atom_site_fract_z
 _atom_site_occupancy
  Mn  Mn0  1  0.12477457  0.25074050  0.62536975  1
  Mn  Mn1  1  0.23164876  0.54608115  0.27304058  1
  Mn  Mn2  1  0.63617200  0.75309651  0.61588001  1
  Mn  Mn3  1  0.63617200  0.75309651  0.13721650  1
  Mn  Mn4  1  0.99047205  0.97698774  0.98849437  1
  O  O5  1  0.38906040  0.78844336  0.39422168  1
  O  O6  1  0.85486216  0.71393858  0.85696929  1
  O  O7  1  0.85622020  0.73538184  0.36769042  1
  F  F8  1  0.36758357  0.24254307  0.87677492  1
  F  F9  1  0.36758357  0.24254307  0.36576815  1
  F  F10  1  0.38922762  0.77159211  0.88579656  1
  F  F11  1  0.87803705  0.25750078  0.87845509  1
  F  F12  1  0.87803705  0.25750078  0.37904569  1
