# generated using pymatgen
data_MgNi2P
_symmetry_space_group_name_H-M   'P 1'
_cell_length_a   5.02481532
_cell_length_b   6.34828078
_cell_length_c   6.43095447
_cell_angle_alpha   90.00000000
_cell_angle_beta   90.00000000
_cell_angle_gamma   90.00000000
_symmetry_Int_Tables_number   1
_chemical_formula_structural   MgNi2P
_chemical_formula_sum   'Mg4 Ni8 P4'
_cell_volume   205.14062126
_cell_formula_units_Z   4
loop_
 _symmetry_equiv_pos_site_id
 _symmetry_equiv_pos_as_xyz
  1  'x, y, z'
loop_
 _atom_site_type_symbol
 _atom_site_label
 _atom_site_symmetry_multiplicity
 _atom_site_fract_x
 _atom_site_fract_y
 _atom_site_fract_z
 _atom_site_occupancy
  Mg  Mg0  1  0.12628847  0.75000000  0.48176960  1
  Mg  Mg1  1  0.62628847  0.25000000  0.01823040  1
  Mg  Mg2  1  0.87371153  0.25000000  0.51823040  1
  Mg  Mg3  1  0.37371153  0.75000000  0.98176960  1
  P  P4  1  0.12269800  0.25000000  0.87434231  1
  P  P5  1  0.37730200  0.25000000  0.37434231  1
  P  P6  1  0.87730200  0.75000000  0.12565769  1
  P  P7  1  0.62269800  0.75000000  0.62565769  1
  Ni  Ni8  1  0.60016884  0.94707682  0.32467764  1
  Ni  Ni9  1  0.60016884  0.55292318  0.32467764  1
  Ni  Ni10  1  0.89983116  0.94707682  0.82467764  1
  Ni  Ni11  1  0.39983116  0.05292318  0.67532236  1
  Ni  Ni12  1  0.10016884  0.05292318  0.17532236  1
  Ni  Ni13  1  0.39983116  0.44707682  0.67532236  1
  Ni  Ni14  1  0.89983116  0.55292318  0.82467764  1
  Ni  Ni15  1  0.10016884  0.44707682  0.17532236  1
