# generated using pymatgen
data_K3Sm(PO4)2
_symmetry_space_group_name_H-M   'P 1'
_cell_length_a   5.73040034
_cell_length_b   7.56000845
_cell_length_c   9.57348030
_cell_angle_alpha   91.11727348
_cell_angle_beta   90.00000000
_cell_angle_gamma   90.00000000
_symmetry_Int_Tables_number   1
_chemical_formula_structural   K3Sm(PO4)2
_chemical_formula_sum   'K6 Sm2 P4 O16'
_cell_volume   414.66226579
_cell_formula_units_Z   2
loop_
 _symmetry_equiv_pos_site_id
 _symmetry_equiv_pos_as_xyz
  1  'x, y, z'
loop_
 _atom_site_type_symbol
 _atom_site_label
 _atom_site_symmetry_multiplicity
 _atom_site_fract_x
 _atom_site_fract_y
 _atom_site_fract_z
 _atom_site_occupancy
  O  O0  1  0.75000000  0.56718737  0.10246457  1
  O  O1  1  0.47193836  0.15089564  0.83935142  1
  O  O2  1  0.97193836  0.84910436  0.16064858  1
  O  O3  1  0.52806164  0.84910436  0.16064858  1
  O  O4  1  0.75000000  0.28255510  0.57522426  1
  O  O5  1  0.25000000  0.71744490  0.42477574  1
  O  O6  1  0.75000000  0.98707751  0.45582497  1
  O  O7  1  0.25000000  0.01292249  0.54417503  1
  O  O8  1  0.02813406  0.75878795  0.65603847  1
  O  O9  1  0.52813406  0.24121205  0.34396153  1
  O  O10  1  0.97186594  0.24121205  0.34396153  1
  O  O11  1  0.47186594  0.75878795  0.65603847  1
  O  O12  1  0.25000000  0.17725802  0.06923045  1
  O  O13  1  0.75000000  0.82274198  0.93076955  1
  O  O14  1  0.25000000  0.43281263  0.89753543  1
  O  O15  1  0.02806164  0.15089564  0.83935142  1
  P  P16  1  0.75000000  0.18871687  0.42813776  1
  P  P17  1  0.75000000  0.76964476  0.08754488  1
  P  P18  1  0.25000000  0.23035524  0.91245512  1
  P  P19  1  0.25000000  0.81128313  0.57186224  1
  K  K20  1  0.25000000  0.50520991  0.19062312  1
  K  K21  1  0.75000000  0.49479009  0.80937688  1
  K  K22  1  0.25000000  0.35913156  0.59025433  1
  K  K23  1  0.75000000  0.64086844  0.40974567  1
  K  K24  1  0.75000000  0.20467023  0.08390319  1
  K  K25  1  0.25000000  0.79532977  0.91609681  1
  Sm  Sm26  1  0.25000000  0.00575558  0.28939896  1
  Sm  Sm27  1  0.75000000  0.99424442  0.71060104  1
