# generated using pymatgen
data_KV13O20
_symmetry_space_group_name_H-M   'P 1'
_cell_length_a   7.64135791
_cell_length_b   12.90738170
_cell_length_c   8.58508512
_cell_angle_alpha   92.61226463
_cell_angle_beta   92.44089342
_cell_angle_gamma   75.14507258
_symmetry_Int_Tables_number   1
_chemical_formula_structural   KV13O20
_chemical_formula_sum   'K2 V26 O40'
_cell_volume   817.17700845
_cell_formula_units_Z   2
loop_
 _symmetry_equiv_pos_site_id
 _symmetry_equiv_pos_as_xyz
  1  'x, y, z'
loop_
 _atom_site_type_symbol
 _atom_site_label
 _atom_site_symmetry_multiplicity
 _atom_site_fract_x
 _atom_site_fract_y
 _atom_site_fract_z
 _atom_site_occupancy
  K  K0  1  0.00068894  0.19085158  0.19969362  1
  K  K1  1  0.99931106  0.80914842  0.80030638  1
  V  V2  1  0.79884476  0.97240308  0.13878559  1
  V  V3  1  0.81062921  0.66931826  0.17013919  1
  V  V4  1  0.82265906  0.85509518  0.39683419  1
  V  V5  1  0.46078588  0.89689878  0.08477663  1
  V  V6  1  0.54615455  0.50486711  0.31040402  1
  V  V7  1  0.54252903  0.29692391  0.12187282  1
  V  V8  1  0.53876001  0.70630846  0.50890116  1
  V  V9  1  0.54550700  0.90055013  0.71732855  1
  V  V10  1  0.80385063  0.57439767  0.73945357  1
  V  V11  1  0.80631134  0.36591499  0.53189906  1
  V  V12  1  0.17921913  0.74814492  0.20240080  1
  V  V13  1  0.18341551  0.54493004  0.00419707  1
  V  V14  1  0.18855105  0.93431568  0.42829974  1
  V  V15  1  0.81658449  0.45506996  0.99580293  1
  V  V16  1  0.82078087  0.25185508  0.79759920  1
  V  V17  1  0.81144895  0.06568432  0.57170026  1
  V  V18  1  0.19614937  0.42560233  0.26054643  1
  V  V19  1  0.19368866  0.63408501  0.46810094  1
  V  V20  1  0.45449300  0.09944987  0.28267145  1
  V  V21  1  0.45384545  0.49513289  0.68959598  1
  V  V22  1  0.46123999  0.29369154  0.49109884  1
  V  V23  1  0.45747097  0.70307609  0.87812718  1
  V  V24  1  0.53921412  0.10310122  0.91522337  1
  V  V25  1  0.18937079  0.33068174  0.82986081  1
  V  V26  1  0.17734094  0.14490482  0.60316581  1
  V  V27  1  0.20115524  0.02759692  0.86121441  1
  O  O28  1  0.91556584  0.80980921  0.16013006  1
  O  O29  1  0.60540646  0.94451349  0.26520900  1
  O  O30  1  0.58913894  0.74608065  0.05831837  1
  O  O31  1  0.74649832  0.92532391  0.60067039  1
  O  O32  1  0.73670012  0.53159814  0.19424232  1
  O  O33  1  0.73919757  0.72313404  0.38826454  1
  O  O34  1  0.25927159  0.87681270  0.20917837  1
  O  O35  1  0.25579294  0.67804816  0.99382965  1
  O  O36  1  0.39258057  0.45548166  0.13691232  1
  O  O37  1  0.41147938  0.85659841  0.53767478  1
  O  O38  1  0.39011182  0.65496945  0.33561422  1
  O  O39  1  0.65936527  0.72433837  0.72560280  1
  O  O40  1  0.65973887  0.12674676  0.13418883  1
  O  O41  1  0.65547037  0.34654717  0.34265014  1
  O  O42  1  0.65991957  0.94240960  0.94236852  1
  O  O43  1  0.67257492  0.52969968  0.54063639  1
  O  O44  1  0.91352457  0.21384574  0.55335801  1
  O  O45  1  0.92210503  0.98935978  0.35235315  1
  O  O46  1  0.91945584  0.59640423  0.94517310  1
  O  O47  1  0.91961432  0.40459503  0.74995038  1
  O  O48  1  0.08647543  0.78615426  0.44664199  1
  O  O49  1  0.08054416  0.40359577  0.05482690  1
  O  O50  1  0.08038568  0.59540597  0.25004962  1
  O  O51  1  0.07789497  0.01064022  0.64764685  1
  O  O52  1  0.34008043  0.05759040  0.05763148  1
  O  O53  1  0.32742508  0.47030032  0.45936361  1
  O  O54  1  0.34063473  0.27566163  0.27439720  1
  O  O55  1  0.34026113  0.87325324  0.86581117  1
  O  O56  1  0.34452963  0.65345283  0.65734986  1
  O  O57  1  0.58852062  0.14340159  0.46232522  1
  O  O58  1  0.60988818  0.34503055  0.66438578  1
  O  O59  1  0.60741943  0.54451834  0.86308768  1
  O  O60  1  0.74420706  0.32195184  0.00617035  1
  O  O61  1  0.74072841  0.12318730  0.79082163  1
  O  O62  1  0.25350168  0.07467609  0.39932961  1
  O  O63  1  0.26080243  0.27686596  0.61173546  1
  O  O64  1  0.26329988  0.46840186  0.80575768  1
  O  O65  1  0.39459354  0.05548651  0.73479100  1
  O  O66  1  0.41086106  0.25391935  0.94168163  1
  O  O67  1  0.08443416  0.19019079  0.83986994  1
