# generated using pymatgen
data_Tb2SiSeO4
_symmetry_space_group_name_H-M   'P 1'
_cell_length_a   6.08868829
_cell_length_b   7.01891164
_cell_length_c   10.88897152
_cell_angle_alpha   90.00000000
_cell_angle_beta   90.00000000
_cell_angle_gamma   90.00000000
_symmetry_Int_Tables_number   1
_chemical_formula_structural   Tb2SiSeO4
_chemical_formula_sum   'Tb8 Si4 Se4 O16'
_cell_volume   465.35070697
_cell_formula_units_Z   4
loop_
 _symmetry_equiv_pos_site_id
 _symmetry_equiv_pos_as_xyz
  1  'x, y, z'
loop_
 _atom_site_type_symbol
 _atom_site_label
 _atom_site_symmetry_multiplicity
 _atom_site_fract_x
 _atom_site_fract_y
 _atom_site_fract_z
 _atom_site_occupancy
  O  O0  1  0.27693878  0.06941448  0.46829404  1
  O  O1  1  0.27693878  0.43058552  0.53170596  1
  O  O2  1  0.72306122  0.56941448  0.03170596  1
  O  O3  1  0.72306122  0.93058552  0.96829404  1
  O  O4  1  0.72306122  0.93058552  0.53170596  1
  O  O5  1  0.72306122  0.56941448  0.46829404  1
  O  O6  1  0.27693878  0.43058552  0.96829404  1
  O  O7  1  0.27693878  0.06941448  0.03170596  1
  O  O8  1  0.05119988  0.76097277  0.37975416  1
  O  O9  1  0.05119988  0.76097277  0.12024584  1
  O  O10  1  0.94880012  0.26097277  0.12024584  1
  O  O11  1  0.94880012  0.23902723  0.87975416  1
  O  O12  1  0.94880012  0.23902723  0.62024584  1
  O  O13  1  0.94880012  0.26097277  0.37975416  1
  O  O14  1  0.05119988  0.73902723  0.87975416  1
  O  O15  1  0.05119988  0.73902723  0.62024584  1
  Si  Si16  1  0.11461971  0.25000000  0.00000000  1
  Si  Si17  1  0.88538029  0.75000000  0.00000000  1
  Si  Si18  1  0.88538029  0.75000000  0.50000000  1
  Si  Si19  1  0.11461971  0.25000000  0.50000000  1
  Se  Se20  1  0.57125385  0.62874179  0.75000000  1
  Se  Se21  1  0.57125385  0.87125821  0.25000000  1
  Se  Se22  1  0.42874615  0.12874179  0.75000000  1
  Se  Se23  1  0.42874615  0.37125821  0.25000000  1
  Tb  Tb24  1  0.39045601  0.75000000  0.50000000  1
  Tb  Tb25  1  0.39045601  0.75000000  0.00000000  1
  Tb  Tb26  1  0.60954399  0.25000000  0.50000000  1
  Tb  Tb27  1  0.60954399  0.25000000  0.00000000  1
  Tb  Tb28  1  0.86665457  0.97036834  0.75000000  1
  Tb  Tb29  1  0.86665457  0.52963166  0.25000000  1
  Tb  Tb30  1  0.13334543  0.47036834  0.75000000  1
  Tb  Tb31  1  0.13334543  0.02963166  0.25000000  1
