# generated using pymatgen
data_Rb3SbSe3
_symmetry_space_group_name_H-M   'P 1'
_cell_length_a   10.39194416
_cell_length_b   10.39194416
_cell_length_c   10.39194416
_cell_angle_alpha   90.00000000
_cell_angle_beta   90.00000000
_cell_angle_gamma   90.00000000
_symmetry_Int_Tables_number   1
_chemical_formula_structural   Rb3SbSe3
_chemical_formula_sum   'Rb12 Sb4 Se12'
_cell_volume   1122.25206529
_cell_formula_units_Z   4
loop_
 _symmetry_equiv_pos_site_id
 _symmetry_equiv_pos_as_xyz
  1  'x, y, z'
loop_
 _atom_site_type_symbol
 _atom_site_label
 _atom_site_symmetry_multiplicity
 _atom_site_fract_x
 _atom_site_fract_y
 _atom_site_fract_z
 _atom_site_occupancy
  Se  Se0  1  0.21307528  0.59853811  0.49576647  1
  Se  Se1  1  0.49576647  0.21307528  0.59853811  1
  Se  Se2  1  0.59853811  0.49576647  0.21307528  1
  Se  Se3  1  0.90146189  0.50423353  0.71307528  1
  Se  Se4  1  0.99576647  0.28692472  0.40146189  1
  Se  Se5  1  0.40146189  0.99576647  0.28692472  1
  Se  Se6  1  0.00423353  0.78692472  0.09853811  1
  Se  Se7  1  0.50423353  0.71307528  0.90146189  1
  Se  Se8  1  0.09853811  0.00423353  0.78692472  1
  Se  Se9  1  0.71307528  0.90146189  0.50423353  1
  Se  Se10  1  0.78692472  0.09853811  0.00423353  1
  Se  Se11  1  0.28692472  0.40146189  0.99576647  1
  Rb  Rb12  1  0.31605706  0.31605706  0.31605706  1
  Rb  Rb13  1  0.18394294  0.68394294  0.81605706  1
  Rb  Rb14  1  0.81605706  0.18394294  0.68394294  1
  Rb  Rb15  1  0.68394294  0.81605706  0.18394294  1
  Rb  Rb16  1  0.57738956  0.57738956  0.57738956  1
  Rb  Rb17  1  0.92261044  0.42261044  0.07738956  1
  Rb  Rb18  1  0.07738956  0.92261044  0.42261044  1
  Rb  Rb19  1  0.42261044  0.07738956  0.92261044  1
  Rb  Rb20  1  0.81095963  0.81095963  0.81095963  1
  Rb  Rb21  1  0.68904037  0.18904037  0.31095963  1
  Rb  Rb22  1  0.31095963  0.68904037  0.18904037  1
  Rb  Rb23  1  0.18904037  0.31095963  0.68904037  1
  Sb  Sb24  1  0.02540291  0.02540291  0.02540291  1
  Sb  Sb25  1  0.47459709  0.97459709  0.52540291  1
  Sb  Sb26  1  0.52540291  0.47459709  0.97459709  1
  Sb  Sb27  1  0.97459709  0.52540291  0.47459709  1
