# generated using pymatgen
data_Na2B4O7
_symmetry_space_group_name_H-M   'P 1'
_cell_length_a   6.62122919
_cell_length_b   8.76689643
_cell_length_c   10.64452710
_cell_angle_alpha   93.28672564
_cell_angle_beta   94.40120091
_cell_angle_gamma   90.85162448
_symmetry_Int_Tables_number   1
_chemical_formula_structural   Na2B4O7
_chemical_formula_sum   'Na8 B16 O28'
_cell_volume   614.93898062
_cell_formula_units_Z   4
loop_
 _symmetry_equiv_pos_site_id
 _symmetry_equiv_pos_as_xyz
  1  'x, y, z'
loop_
 _atom_site_type_symbol
 _atom_site_label
 _atom_site_symmetry_multiplicity
 _atom_site_fract_x
 _atom_site_fract_y
 _atom_site_fract_z
 _atom_site_occupancy
  B  B0  1  0.65409088  0.25282992  0.59019269  1
  B  B1  1  0.34590912  0.74717008  0.40980731  1
  B  B2  1  0.60655078  0.81283202  0.57714795  1
  B  B3  1  0.39344922  0.18716798  0.42285205  1
  B  B4  1  0.95036845  0.44338868  0.27699507  1
  B  B5  1  0.04963155  0.55661132  0.72300493  1
  B  B6  1  0.83815691  0.05951774  0.86092524  1
  B  B7  1  0.16184309  0.94048226  0.13907476  1
  B  B8  1  0.87709852  0.31957729  0.79815029  1
  B  B9  1  0.12290148  0.68042271  0.20184971  1
  B  B10  1  0.75287366  0.23963978  0.36914856  1
  B  B11  1  0.24712634  0.76036022  0.63085144  1
  B  B12  1  0.92696749  0.82415941  0.72704602  1
  B  B13  1  0.07303251  0.17584059  0.27295398  1
  B  B14  1  0.66650759  0.27705641  0.97163842  1
  B  B15  1  0.33349241  0.72294359  0.02836158  1
  O  O16  1  0.86452428  0.13362487  0.29177955  1
  O  O17  1  0.80079266  0.22858110  0.50823237  1
  O  O18  1  0.21432200  0.59966184  0.66191323  1
  O  O19  1  0.78567800  0.40033816  0.33808677  1
  O  O20  1  0.46814084  0.79480256  0.66393217  1
  O  O21  1  0.19920734  0.77141890  0.49176763  1
  O  O22  1  0.31073517  0.68517762  0.28925434  1
  O  O23  1  0.68926483  0.31482238  0.71074566  1
  O  O24  1  0.04287378  0.83799408  0.19375304  1
  O  O25  1  0.95712622  0.16200592  0.80624696  1
  O  O26  1  0.19109134  0.62475763  0.07676831  1
  O  O27  1  0.80890866  0.37524237  0.92323169  1
  O  O28  1  0.04461694  0.40839279  0.75938971  1
  O  O29  1  0.95538306  0.59160721  0.24061029  1
  O  O30  1  0.45017794  0.21472885  0.55222947  1
  O  O31  1  0.54982206  0.78527115  0.44777053  1
  O  O32  1  0.30958035  0.88574385  0.06051833  1
  O  O33  1  0.69041965  0.11425615  0.93948167  1
  O  O34  1  0.47812563  0.68343425  0.95533881  1
  O  O35  1  0.52187437  0.31656575  0.04466119  1
  O  O36  1  0.90092978  0.65825119  0.75342125  1
  O  O37  1  0.09907022  0.34174881  0.24657875  1
  O  O38  1  0.80267668  0.85596003  0.60802246  1
  O  O39  1  0.19732332  0.14403997  0.39197754  1
  O  O40  1  0.84778985  0.90547426  0.83985915  1
  O  O41  1  0.15221015  0.09452574  0.16014085  1
  O  O42  1  0.53185916  0.20519744  0.33606783  1
  O  O43  1  0.13547572  0.86637513  0.70822045  1
  Na  Na44  1  0.56215136  0.08118040  0.14369869  1
  Na  Na45  1  0.43784864  0.91881960  0.85630131  1
  Na  Na46  1  0.52184549  0.54203502  0.77135083  1
  Na  Na47  1  0.47815451  0.45796498  0.22864917  1
  Na  Na48  1  0.82695063  0.65877479  0.98070272  1
  Na  Na49  1  0.17304937  0.34122521  0.01929728  1
  Na  Na50  1  0.89021084  0.85885241  0.38843206  1
  Na  Na51  1  0.10978916  0.14114759  0.61156794  1
