# generated using pymatgen
data_K2Zr3OF12
_symmetry_space_group_name_H-M   'P 1'
_cell_length_a   10.77701551
_cell_length_b   10.77701551
_cell_length_c   10.77701551
_cell_angle_alpha   42.53240910
_cell_angle_beta   42.53240913
_cell_angle_gamma   42.53240912
_symmetry_Int_Tables_number   1
_chemical_formula_structural   K2Zr3OF12
_chemical_formula_sum   'K4 Zr6 O2 F24'
_cell_volume   517.97157892
_cell_formula_units_Z   2
loop_
 _symmetry_equiv_pos_site_id
 _symmetry_equiv_pos_as_xyz
  1  'x, y, z'
loop_
 _atom_site_type_symbol
 _atom_site_label
 _atom_site_symmetry_multiplicity
 _atom_site_fract_x
 _atom_site_fract_y
 _atom_site_fract_z
 _atom_site_occupancy
  O  O0  1  0.71484405  0.71484405  0.71484405  1
  O  O1  1  0.28515595  0.28515595  0.28515595  1
  F  F2  1  0.70409130  0.70409130  0.36836286  1
  F  F3  1  0.70409130  0.36836286  0.70409130  1
  F  F4  1  0.36836286  0.70409130  0.70409130  1
  F  F5  1  0.63163714  0.29590870  0.29590870  1
  F  F6  1  0.29590870  0.29590870  0.63163714  1
  F  F7  1  0.29590870  0.63163714  0.29590870  1
  F  F8  1  0.91453232  0.91453232  0.40168361  1
  F  F9  1  0.91453232  0.40168361  0.91453232  1
  F  F10  1  0.35003835  0.64996165  0.00000000  1
  F  F11  1  0.00000000  0.35003835  0.64996165  1
  F  F12  1  0.64996165  0.00000000  0.35003835  1
  F  F13  1  0.64996165  0.35003835  0.00000000  1
  F  F14  1  0.00000000  0.64996165  0.35003835  1
  F  F15  1  0.35003835  0.00000000  0.64996165  1
  F  F16  1  0.34779499  0.91170202  0.34779499  1
  F  F17  1  0.34779499  0.34779499  0.91170202  1
  F  F18  1  0.91170202  0.34779499  0.34779499  1
  F  F19  1  0.08829798  0.65220501  0.65220501  1
  F  F20  1  0.65220501  0.08829798  0.65220501  1
  F  F21  1  0.65220501  0.65220501  0.08829798  1
  F  F22  1  0.08546768  0.59831639  0.08546768  1
  F  F23  1  0.08546768  0.08546768  0.59831639  1
  F  F24  1  0.59831639  0.08546768  0.08546768  1
  F  F25  1  0.40168361  0.91453232  0.91453232  1
  K  K26  1  0.00000000  0.00000000  0.00000000  1
  K  K27  1  0.50000000  0.50000000  0.50000000  1
  K  K28  1  0.13833044  0.13833044  0.13833044  1
  K  K29  1  0.86166956  0.86166956  0.86166956  1
  Zr  Zr30  1  0.57761429  0.57761429  0.03162012  1
  Zr  Zr31  1  0.57761429  0.03162012  0.57761429  1
  Zr  Zr32  1  0.03162012  0.57761429  0.57761429  1
  Zr  Zr33  1  0.96837988  0.42238571  0.42238571  1
  Zr  Zr34  1  0.42238571  0.96837988  0.42238571  1
  Zr  Zr35  1  0.42238571  0.42238571  0.96837988  1
