# generated using pymatgen
data_Li2VP2O7
_symmetry_space_group_name_H-M   'P 1'
_cell_length_a   7.43194780
_cell_length_b   7.43194780
_cell_length_c   11.68354126
_cell_angle_alpha   88.61801234
_cell_angle_beta   91.38198766
_cell_angle_gamma   58.87557525
_symmetry_Int_Tables_number   1
_chemical_formula_structural   Li2VP2O7
_chemical_formula_sum   'Li8 V4 P8 O28'
_cell_volume   551.76452502
_cell_formula_units_Z   4
loop_
 _symmetry_equiv_pos_site_id
 _symmetry_equiv_pos_as_xyz
  1  'x, y, z'
loop_
 _atom_site_type_symbol
 _atom_site_label
 _atom_site_symmetry_multiplicity
 _atom_site_fract_x
 _atom_site_fract_y
 _atom_site_fract_z
 _atom_site_occupancy
  Li  Li0  1  0.26562012  0.29945861  0.99346653  1
  Li  Li1  1  0.70054139  0.73437988  0.49346653  1
  Li  Li2  1  0.27626367  0.27626367  0.75000000  1
  Li  Li3  1  0.71199588  0.71199588  0.75000000  1
  Li  Li4  1  0.28800412  0.28800412  0.25000000  1
  Li  Li5  1  0.72373633  0.72373633  0.25000000  1
  Li  Li6  1  0.29945861  0.26562012  0.50653347  1
  Li  Li7  1  0.73437988  0.70054139  0.00653347  1
  V  V8  1  0.32677632  0.66516196  0.88934120  1
  V  V9  1  0.33483804  0.67322368  0.38934120  1
  V  V10  1  0.66516196  0.32677632  0.61065880  1
  V  V11  1  0.67322368  0.33483804  0.11065880  1
  P  P12  1  0.28136908  0.92676082  0.62962685  1
  P  P13  1  0.07323918  0.71863092  0.12962685  1
  P  P14  1  0.09701534  0.67471456  0.63776865  1
  P  P15  1  0.32528544  0.90298466  0.13776865  1
  P  P16  1  0.67471456  0.09701534  0.86223135  1
  P  P17  1  0.90298466  0.32528544  0.36223135  1
  P  P18  1  0.92676082  0.28136908  0.87037315  1
  P  P19  1  0.71863092  0.07323918  0.37037315  1
  O  O20  1  0.06816938  0.90932259  0.62505724  1
  O  O21  1  0.09067741  0.93183062  0.12505724  1
  O  O22  1  0.40156403  0.82866782  0.52046486  1
  O  O23  1  0.17133218  0.59843597  0.02046486  1
  O  O24  1  0.18312217  0.58208841  0.75949119  1
  O  O25  1  0.41791159  0.81687783  0.25949119  1
  O  O26  1  0.40749751  0.79795622  0.73854297  1
  O  O27  1  0.20204378  0.59250249  0.23854297  1
  O  O28  1  0.26697458  0.54229052  0.54942845  1
  O  O29  1  0.45770948  0.73302542  0.04942845  1
  O  O30  1  0.70318825  0.88306648  0.88299124  1
  O  O31  1  0.11693352  0.29681175  0.38299124  1
  O  O32  1  0.15894637  0.20270333  0.87153957  1
  O  O33  1  0.79729667  0.84105363  0.37153957  1
  O  O34  1  0.20270333  0.15894637  0.62846043  1
  O  O35  1  0.84105363  0.79729667  0.12846043  1
  O  O36  1  0.88306648  0.70318825  0.61700876  1
  O  O37  1  0.29681175  0.11693352  0.11700876  1
  O  O38  1  0.54229052  0.26697458  0.95057155  1
  O  O39  1  0.73302542  0.45770948  0.45057155  1
  O  O40  1  0.79795622  0.40749751  0.76145703  1
  O  O41  1  0.59250249  0.20204378  0.26145703  1
  O  O42  1  0.58208841  0.18312217  0.74050881  1
  O  O43  1  0.81687783  0.41791159  0.24050881  1
  O  O44  1  0.82866782  0.40156403  0.97953514  1
  O  O45  1  0.59843597  0.17133218  0.47953514  1
  O  O46  1  0.90932259  0.06816938  0.87494276  1
  O  O47  1  0.93183062  0.09067741  0.37494276  1
