# generated using pymatgen
data_Cs4Zn3F10
_symmetry_space_group_name_H-M   'P 1'
_cell_length_a   6.32769454
_cell_length_b   8.01102136
_cell_length_c   14.14095870
_cell_angle_alpha   90.00000000
_cell_angle_beta   90.00000000
_cell_angle_gamma   113.26203350
_symmetry_Int_Tables_number   1
_chemical_formula_structural   Cs4Zn3F10
_chemical_formula_sum   'Cs8 Zn6 F20'
_cell_volume   658.55171076
_cell_formula_units_Z   2
loop_
 _symmetry_equiv_pos_site_id
 _symmetry_equiv_pos_as_xyz
  1  'x, y, z'
loop_
 _atom_site_type_symbol
 _atom_site_label
 _atom_site_symmetry_multiplicity
 _atom_site_fract_x
 _atom_site_fract_y
 _atom_site_fract_z
 _atom_site_occupancy
  F  F0  1  0.81387634  0.19973085  0.46225941  1
  F  F1  1  0.61414549  0.80026915  0.53774059  1
  F  F2  1  0.68612366  0.80026915  0.96225941  1
  F  F3  1  0.88585451  0.19973085  0.03774059  1
  F  F4  1  0.18612366  0.80026915  0.53774059  1
  F  F5  1  0.38585451  0.19973085  0.46225941  1
  F  F6  1  0.31387634  0.19973085  0.03774059  1
  F  F7  1  0.11414549  0.80026915  0.96225941  1
  F  F8  1  0.52535100  0.05070199  0.64481079  1
  F  F9  1  0.47464900  0.94929801  0.35518921  1
  F  F10  1  0.97464900  0.94929801  0.14481079  1
  F  F11  1  0.02535100  0.05070199  0.85518921  1
  F  F12  1  0.24576926  0.49153851  0.65040022  1
  F  F13  1  0.75423074  0.50846149  0.34959978  1
  F  F14  1  0.13804305  0.77608611  0.75000000  1
  F  F15  1  0.36195695  0.22391389  0.25000000  1
  F  F16  1  0.86195695  0.22391389  0.25000000  1
  F  F17  1  0.63804305  0.77608611  0.75000000  1
  F  F18  1  0.74576926  0.49153851  0.84959978  1
  F  F19  1  0.25423074  0.50846149  0.15040022  1
  Zn  Zn20  1  0.37899877  0.75799754  0.65570019  1
  Zn  Zn21  1  0.62100123  0.24200246  0.34429981  1
  Zn  Zn22  1  0.12100123  0.24200246  0.15570019  1
  Zn  Zn23  1  0.87899877  0.75799754  0.84429981  1
  Zn  Zn24  1  0.50000000  0.00000000  0.50000000  1
  Zn  Zn25  1  0.00000000  0.00000000  0.00000000  1
  Cs  Cs26  1  0.74480743  0.48961487  0.60996752  1
  Cs  Cs27  1  0.25519257  0.51038513  0.39003248  1
  Cs  Cs28  1  0.75519257  0.51038513  0.10996752  1
  Cs  Cs29  1  0.24480743  0.48961487  0.89003248  1
  Cs  Cs30  1  0.04423099  0.08846198  0.63884500  1
  Cs  Cs31  1  0.95576901  0.91153802  0.36115500  1
  Cs  Cs32  1  0.45576901  0.91153802  0.13884500  1
  Cs  Cs33  1  0.54423099  0.08846198  0.86115500  1
