# generated using pymatgen
data_Ba(YTe2)2
_symmetry_space_group_name_H-M   'P 1'
_cell_length_a   4.49326768
_cell_length_b   13.83038130
_cell_length_c   16.33211366
_cell_angle_alpha   90.00000000
_cell_angle_beta   90.00000000
_cell_angle_gamma   90.00000000
_symmetry_Int_Tables_number   1
_chemical_formula_structural   Ba(YTe2)2
_chemical_formula_sum   'Ba4 Y8 Te16'
_cell_volume   1014.93642496
_cell_formula_units_Z   4
loop_
 _symmetry_equiv_pos_site_id
 _symmetry_equiv_pos_as_xyz
  1  'x, y, z'
loop_
 _atom_site_type_symbol
 _atom_site_label
 _atom_site_symmetry_multiplicity
 _atom_site_fract_x
 _atom_site_fract_y
 _atom_site_fract_z
 _atom_site_occupancy
  Y  Y0  1  0.25000000  0.05900654  0.89033410  1
  Y  Y1  1  0.75000000  0.94099346  0.10966590  1
  Y  Y2  1  0.25000000  0.55900654  0.60966590  1
  Y  Y3  1  0.75000000  0.44099346  0.39033410  1
  Y  Y4  1  0.75000000  0.91906096  0.59640360  1
  Y  Y5  1  0.25000000  0.08093904  0.40359640  1
  Y  Y6  1  0.75000000  0.41906096  0.90359640  1
  Y  Y7  1  0.25000000  0.58093904  0.09640360  1
  Te  Te8  1  0.75000000  0.52762561  0.21590944  1
  Te  Te9  1  0.25000000  0.47237439  0.78409056  1
  Te  Te10  1  0.75000000  0.02762561  0.28409056  1
  Te  Te11  1  0.25000000  0.97237439  0.71590944  1
  Te  Te12  1  0.75000000  0.90951878  0.92382373  1
  Te  Te13  1  0.25000000  0.09048122  0.07617627  1
  Te  Te14  1  0.75000000  0.40951878  0.57617627  1
  Te  Te15  1  0.25000000  0.59048122  0.42382373  1
  Te  Te16  1  0.75000000  0.70461040  0.66096559  1
  Te  Te17  1  0.25000000  0.29538960  0.33903441  1
  Te  Te18  1  0.75000000  0.20461040  0.83903441  1
  Te  Te19  1  0.25000000  0.79538960  0.16096559  1
  Te  Te20  1  0.75000000  0.62727285  0.97129990  1
  Te  Te21  1  0.25000000  0.37272715  0.02870010  1
  Te  Te22  1  0.75000000  0.12727285  0.52870010  1
  Te  Te23  1  0.25000000  0.87272715  0.47129990  1
  Ba  Ba24  1  0.25000000  0.73852346  0.83035925  1
  Ba  Ba25  1  0.75000000  0.26147654  0.16964075  1
  Ba  Ba26  1  0.25000000  0.23852346  0.66964075  1
  Ba  Ba27  1  0.75000000  0.76147654  0.33035925  1
