# generated using pymatgen
data_Na2Ge2Se5
_symmetry_space_group_name_H-M   'P 1'
_cell_length_a   6.27548566
_cell_length_b   11.33754940
_cell_length_c   14.42396361
_cell_angle_alpha   90.00000000
_cell_angle_beta   90.00000000
_cell_angle_gamma   90.00000000
_symmetry_Int_Tables_number   1
_chemical_formula_structural   Na2Ge2Se5
_chemical_formula_sum   'Na8 Ge8 Se20'
_cell_volume   1026.24523097
_cell_formula_units_Z   4
loop_
 _symmetry_equiv_pos_site_id
 _symmetry_equiv_pos_as_xyz
  1  'x, y, z'
loop_
 _atom_site_type_symbol
 _atom_site_label
 _atom_site_symmetry_multiplicity
 _atom_site_fract_x
 _atom_site_fract_y
 _atom_site_fract_z
 _atom_site_occupancy
  Na  Na0  1  0.99280133  0.49407257  0.05666899  1
  Na  Na1  1  0.00719867  0.99407257  0.94333101  1
  Na  Na2  1  0.50719867  0.49407257  0.55666899  1
  Na  Na3  1  0.49280133  0.99407257  0.44333101  1
  Na  Na4  1  0.99713592  0.24958107  0.46271093  1
  Na  Na5  1  0.00286408  0.74958107  0.53728907  1
  Na  Na6  1  0.50286408  0.24958107  0.96271093  1
  Na  Na7  1  0.49713592  0.74958107  0.03728907  1
  Ge  Ge8  1  0.53286055  0.39406973  0.20513504  1
  Ge  Ge9  1  0.46713945  0.89406973  0.79486496  1
  Ge  Ge10  1  0.96713945  0.39406973  0.70513504  1
  Ge  Ge11  1  0.03286055  0.89406973  0.29486496  1
  Ge  Ge12  1  0.04106033  0.20133367  0.15500576  1
  Ge  Ge13  1  0.95893967  0.70133367  0.84499424  1
  Ge  Ge14  1  0.45893967  0.20133367  0.65500576  1
  Ge  Ge15  1  0.54106033  0.70133367  0.34499424  1
  Se  Se16  1  0.39444024  0.50424322  0.33569151  1
  Se  Se17  1  0.60555976  0.00424322  0.66430849  1
  Se  Se18  1  0.10555976  0.50424322  0.83569151  1
  Se  Se19  1  0.89444024  0.00424322  0.16430849  1
  Se  Se20  1  0.89928983  0.69350141  0.28407875  1
  Se  Se21  1  0.10071017  0.19350141  0.71592125  1
  Se  Se22  1  0.60071017  0.69350141  0.78407875  1
  Se  Se23  1  0.39928983  0.19350141  0.21592125  1
  Se  Se24  1  0.39751671  0.85427724  0.24449981  1
  Se  Se25  1  0.60248329  0.35427724  0.75550019  1
  Se  Se26  1  0.10248329  0.85427724  0.74449981  1
  Se  Se27  1  0.89751671  0.35427724  0.25550019  1
  Se  Se28  1  0.50208721  0.74356525  0.50169002  1
  Se  Se29  1  0.49791279  0.24356525  0.49830998  1
  Se  Se30  1  0.99791279  0.74356525  0.00169002  1
  Se  Se31  1  0.00208721  0.24356525  0.99830998  1
  Se  Se32  1  0.49604008  0.48255585  0.06141854  1
  Se  Se33  1  0.50395992  0.98255585  0.93858146  1
  Se  Se34  1  0.00395992  0.48255585  0.56141854  1
  Se  Se35  1  0.99604008  0.98255585  0.43858146  1
