# generated using pymatgen
data_U2Mn12P7
_symmetry_space_group_name_H-M   'P 1'
_cell_length_a   9.25752597
_cell_length_b   9.25752597
_cell_length_c   3.57767831
_cell_angle_alpha   90.00000000
_cell_angle_beta   90.00000000
_cell_angle_gamma   119.99999999
_symmetry_Int_Tables_number   1
_chemical_formula_structural   U2Mn12P7
_chemical_formula_sum   'U2 Mn12 P7'
_cell_volume   265.53501496
_cell_formula_units_Z   1
loop_
 _symmetry_equiv_pos_site_id
 _symmetry_equiv_pos_as_xyz
  1  'x, y, z'
loop_
 _atom_site_type_symbol
 _atom_site_label
 _atom_site_symmetry_multiplicity
 _atom_site_fract_x
 _atom_site_fract_y
 _atom_site_fract_z
 _atom_site_occupancy
  P  P0  1  0.00000000  0.00000000  0.00000000  1
  P  P1  1  0.59546561  0.71426418  0.50000000  1
  P  P2  1  0.70614338  0.11306568  0.00000000  1
  P  P3  1  0.88693432  0.59307770  0.00000000  1
  P  P4  1  0.40692230  0.29385662  0.00000000  1
  P  P5  1  0.28573582  0.88120143  0.50000000  1
  P  P6  1  0.11879857  0.40453439  0.50000000  1
  Mn  Mn7  1  0.12311652  0.84663847  0.00000000  1
  Mn  Mn8  1  0.38616895  0.44056329  0.50000000  1
  Mn  Mn9  1  0.72352195  0.87688348  0.00000000  1
  Mn  Mn10  1  0.55943671  0.94560566  0.50000000  1
  Mn  Mn11  1  0.23058638  0.10769519  0.50000000  1
  Mn  Mn12  1  0.87710881  0.76941362  0.50000000  1
  Mn  Mn13  1  0.89230481  0.12289119  0.50000000  1
  Mn  Mn14  1  0.94048647  0.37300966  0.00000000  1
  Mn  Mn15  1  0.62699034  0.56747681  0.00000000  1
  Mn  Mn16  1  0.43252319  0.05951353  0.00000000  1
  Mn  Mn17  1  0.05439434  0.61383105  0.50000000  1
  Mn  Mn18  1  0.15336153  0.27647805  0.00000000  1
  U  U19  1  0.66666667  0.33333333  0.50000000  1
  U  U20  1  0.33333333  0.66666667  0.00000000  1
