# generated using pymatgen
data_Li2HoPCO7
_symmetry_space_group_name_H-M   'P 1'
_cell_length_a   8.98939363
_cell_length_b   6.77472710
_cell_length_c   4.92217381
_cell_angle_alpha   90.00000000
_cell_angle_beta   87.22597052
_cell_angle_gamma   90.00000000
_symmetry_Int_Tables_number   1
_chemical_formula_structural   Li2HoPCO7
_chemical_formula_sum   'Li4 Ho2 P2 C2 O14'
_cell_volume   299.41250458
_cell_formula_units_Z   2
loop_
 _symmetry_equiv_pos_site_id
 _symmetry_equiv_pos_as_xyz
  1  'x, y, z'
loop_
 _atom_site_type_symbol
 _atom_site_label
 _atom_site_symmetry_multiplicity
 _atom_site_fract_x
 _atom_site_fract_y
 _atom_site_fract_z
 _atom_site_occupancy
  Li  Li0  1  0.20648380  0.01637185  0.20773917  1
  Li  Li1  1  0.20648380  0.48362815  0.20773917  1
  Li  Li2  1  0.79351620  0.51637185  0.79226083  1
  Li  Li3  1  0.79351620  0.98362815  0.79226083  1
  Ho  Ho4  1  0.35996094  0.75000000  0.74649682  1
  Ho  Ho5  1  0.64003906  0.25000000  0.25350318  1
  P  P6  1  0.40983521  0.25000000  0.72264563  1
  P  P7  1  0.59016479  0.75000000  0.27735437  1
  C  C8  1  0.05669928  0.75000000  0.73931698  1
  C  C9  1  0.94330072  0.25000000  0.26068302  1
  O  O10  1  0.08347159  0.25000000  0.27922228  1
  O  O11  1  0.12118397  0.75000000  0.97310456  1
  O  O12  1  0.14881695  0.75000000  0.52137357  1
  O  O13  1  0.33684609  0.06483950  0.85370250  1
  O  O14  1  0.33684609  0.43516050  0.85370250  1
  O  O15  1  0.41725740  0.75000000  0.23557324  1
  O  O16  1  0.39703716  0.25000000  0.40877238  1
  O  O17  1  0.60296284  0.75000000  0.59122762  1
  O  O18  1  0.58274260  0.25000000  0.76442676  1
  O  O19  1  0.66315391  0.56483950  0.14629750  1
  O  O20  1  0.66315391  0.93516050  0.14629750  1
  O  O21  1  0.85118305  0.25000000  0.47862643  1
  O  O22  1  0.87881603  0.25000000  0.02689544  1
  O  O23  1  0.91652841  0.75000000  0.72077772  1
