# generated using pymatgen
data_RbHo2Cu3S5
_symmetry_space_group_name_H-M   'P 1'
_cell_length_a   3.94309219
_cell_length_b   7.23759720
_cell_length_c   16.49585815
_cell_angle_alpha   90.00000000
_cell_angle_beta   90.00000000
_cell_angle_gamma   105.80733338
_symmetry_Int_Tables_number   1
_chemical_formula_structural   RbHo2Cu3S5
_chemical_formula_sum   'Rb2 Ho4 Cu6 S10'
_cell_volume   452.96432056
_cell_formula_units_Z   2
loop_
 _symmetry_equiv_pos_site_id
 _symmetry_equiv_pos_as_xyz
  1  'x, y, z'
loop_
 _atom_site_type_symbol
 _atom_site_label
 _atom_site_symmetry_multiplicity
 _atom_site_fract_x
 _atom_site_fract_y
 _atom_site_fract_z
 _atom_site_occupancy
  S  S0  1  0.33226778  0.66453557  0.56948986  1
  S  S1  1  0.66773222  0.33546443  0.43051014  1
  S  S2  1  0.66773222  0.33546443  0.06948986  1
  S  S3  1  0.33226778  0.66453557  0.93051014  1
  S  S4  1  0.26221914  0.52443829  0.25000000  1
  S  S5  1  0.73778086  0.47556171  0.75000000  1
  S  S6  1  0.93858576  0.87717152  0.11310798  1
  S  S7  1  0.93858576  0.87717152  0.38689202  1
  S  S8  1  0.06141424  0.12282848  0.88689202  1
  S  S9  1  0.06141424  0.12282848  0.61310798  1
  Cu  Cu10  1  0.91589403  0.83178807  0.96367754  1
  Cu  Cu11  1  0.08410597  0.16821193  0.03632246  1
  Cu  Cu12  1  0.08410597  0.16821193  0.46367754  1
  Cu  Cu13  1  0.15514709  0.31029418  0.75000000  1
  Cu  Cu14  1  0.84485291  0.68970582  0.25000000  1
  Cu  Cu15  1  0.91589403  0.83178807  0.53632246  1
  Rb  Rb16  1  0.43445325  0.86890649  0.75000000  1
  Rb  Rb17  1  0.56554675  0.13109351  0.25000000  1
  Ho  Ho18  1  0.69198546  0.38397093  0.59272838  1
  Ho  Ho19  1  0.30801454  0.61602907  0.40727162  1
  Ho  Ho20  1  0.69198546  0.38397093  0.90727162  1
  Ho  Ho21  1  0.30801454  0.61602907  0.09272838  1
