# generated using pymatgen
data_Ca(RhO2)2
_symmetry_space_group_name_H-M   'P 1'
_cell_length_a   3.16303410
_cell_length_b   9.14083635
_cell_length_c   10.90902857
_cell_angle_alpha   90.00000000
_cell_angle_beta   90.00000000
_cell_angle_gamma   90.00000000
_symmetry_Int_Tables_number   1
_chemical_formula_structural   Ca(RhO2)2
_chemical_formula_sum   'Ca4 Rh8 O16'
_cell_volume   315.41031118
_cell_formula_units_Z   4
loop_
 _symmetry_equiv_pos_site_id
 _symmetry_equiv_pos_as_xyz
  1  'x, y, z'
loop_
 _atom_site_type_symbol
 _atom_site_label
 _atom_site_symmetry_multiplicity
 _atom_site_fract_x
 _atom_site_fract_y
 _atom_site_fract_z
 _atom_site_occupancy
  O  O0  1  0.25000000  0.58809300  0.57262325  1
  O  O1  1  0.75000000  0.41190700  0.42737675  1
  O  O2  1  0.25000000  0.08809300  0.92737675  1
  O  O3  1  0.75000000  0.91190700  0.07262325  1
  O  O4  1  0.25000000  0.95291644  0.28748147  1
  O  O5  1  0.75000000  0.04708356  0.71251853  1
  O  O6  1  0.25000000  0.45291644  0.21251853  1
  O  O7  1  0.75000000  0.54708356  0.78748147  1
  O  O8  1  0.25000000  0.88240476  0.52800171  1
  O  O9  1  0.75000000  0.11759524  0.47199829  1
  O  O10  1  0.25000000  0.38240476  0.97199829  1
  O  O11  1  0.75000000  0.61759524  0.02800171  1
  O  O12  1  0.75000000  0.69181353  0.33160622  1
  O  O13  1  0.25000000  0.30818647  0.66839378  1
  O  O14  1  0.75000000  0.19181353  0.16839378  1
  O  O15  1  0.25000000  0.80818647  0.83160622  1
  Ca  Ca16  1  0.75000000  0.76630976  0.66059916  1
  Ca  Ca17  1  0.25000000  0.23369024  0.33940084  1
  Ca  Ca18  1  0.75000000  0.26630976  0.83940084  1
  Ca  Ca19  1  0.25000000  0.73369024  0.16059916  1
  Rh  Rh20  1  0.25000000  0.59242928  0.90180213  1
  Rh  Rh21  1  0.75000000  0.40757072  0.09819787  1
  Rh  Rh22  1  0.25000000  0.09242928  0.59819787  1
  Rh  Rh23  1  0.75000000  0.90757072  0.40180213  1
  Rh  Rh24  1  0.75000000  0.94763402  0.88331603  1
  Rh  Rh25  1  0.25000000  0.05236598  0.11668397  1
  Rh  Rh26  1  0.75000000  0.44763402  0.61668397  1
  Rh  Rh27  1  0.25000000  0.55236598  0.38331603  1
