# generated using pymatgen
data_LiInGeO4
_symmetry_space_group_name_H-M   'P 1'
_cell_length_a   5.06879771
_cell_length_b   6.17447446
_cell_length_c   10.89044405
_cell_angle_alpha   90.00000000
_cell_angle_beta   90.00000000
_cell_angle_gamma   90.00000000
_symmetry_Int_Tables_number   1
_chemical_formula_structural   LiInGeO4
_chemical_formula_sum   'Li4 In4 Ge4 O16'
_cell_volume   340.83999172
_cell_formula_units_Z   4
loop_
 _symmetry_equiv_pos_site_id
 _symmetry_equiv_pos_as_xyz
  1  'x, y, z'
loop_
 _atom_site_type_symbol
 _atom_site_label
 _atom_site_symmetry_multiplicity
 _atom_site_fract_x
 _atom_site_fract_y
 _atom_site_fract_z
 _atom_site_occupancy
  Li  Li0  1  0.00000000  0.00000000  0.00000000  1
  Li  Li1  1  0.50000000  0.00000000  0.50000000  1
  Li  Li2  1  0.00000000  0.50000000  0.00000000  1
  Li  Li3  1  0.50000000  0.50000000  0.50000000  1
  O  O4  1  0.77290025  0.53216200  0.33392973  1
  O  O5  1  0.22709975  0.46783800  0.66607027  1
  O  O6  1  0.72709975  0.53216200  0.83392973  1
  O  O7  1  0.77290025  0.96783800  0.33392973  1
  O  O8  1  0.27290025  0.03216200  0.16607027  1
  O  O9  1  0.78601248  0.25000000  0.09403267  1
  O  O10  1  0.27290025  0.46783800  0.16607027  1
  O  O11  1  0.22709975  0.03216200  0.66607027  1
  O  O12  1  0.21398752  0.75000000  0.90596733  1
  O  O13  1  0.71398752  0.25000000  0.59403267  1
  O  O14  1  0.78949401  0.75000000  0.55893457  1
  O  O15  1  0.28601248  0.75000000  0.40596733  1
  O  O16  1  0.71050599  0.75000000  0.05893457  1
  O  O17  1  0.28949401  0.25000000  0.94106543  1
  O  O18  1  0.21050599  0.25000000  0.44106543  1
  O  O19  1  0.72709975  0.96783800  0.83392973  1
  Ge  Ge20  1  0.55825010  0.75000000  0.91300195  1
  Ge  Ge21  1  0.94174990  0.75000000  0.41300195  1
  Ge  Ge22  1  0.44174990  0.25000000  0.08699805  1
  Ge  Ge23  1  0.05825010  0.25000000  0.58699805  1
  In  In24  1  0.00732108  0.75000000  0.72779472  1
  In  In25  1  0.49267892  0.75000000  0.22779472  1
  In  In26  1  0.99267892  0.25000000  0.27220528  1
  In  In27  1  0.50732108  0.25000000  0.77220528  1
