# generated using pymatgen
data_Mg4Nb2O9
_symmetry_space_group_name_H-M   'P 1'
_cell_length_a   5.22545845
_cell_length_b   5.22545845
_cell_length_c   14.19895794
_cell_angle_alpha   90.00000000
_cell_angle_beta   90.00000000
_cell_angle_gamma   120.00000007
_symmetry_Int_Tables_number   1
_chemical_formula_structural   Mg4Nb2O9
_chemical_formula_sum   'Mg8 Nb4 O18'
_cell_volume   335.76536969
_cell_formula_units_Z   2
loop_
 _symmetry_equiv_pos_site_id
 _symmetry_equiv_pos_as_xyz
  1  'x, y, z'
loop_
 _atom_site_type_symbol
 _atom_site_label
 _atom_site_symmetry_multiplicity
 _atom_site_fract_x
 _atom_site_fract_y
 _atom_site_fract_z
 _atom_site_occupancy
  O  O0  1  0.34756657  0.02899044  0.91558432  1
  O  O1  1  0.97100956  0.31857613  0.91558432  1
  O  O2  1  0.68142387  0.65243343  0.91558432  1
  O  O3  1  0.31857613  0.97100956  0.58441568  1
  O  O4  1  0.65243343  0.68142387  0.58441568  1
  O  O5  1  0.02899044  0.34756657  0.58441568  1
  O  O6  1  0.65243343  0.97100956  0.08441568  1
  O  O7  1  0.02899044  0.68142387  0.08441568  1
  O  O8  1  0.31857613  0.34756657  0.08441568  1
  O  O9  1  0.68142387  0.02899044  0.41558432  1
  O  O10  1  0.34756657  0.31857613  0.41558432  1
  O  O11  1  0.97100956  0.65243343  0.41558432  1
  O  O12  1  0.29019576  0.00000000  0.25000000  1
  O  O13  1  0.00000000  0.29019576  0.25000000  1
  O  O14  1  0.70980424  0.70980424  0.25000000  1
  O  O15  1  0.70980424  0.00000000  0.75000000  1
  O  O16  1  0.00000000  0.70980424  0.75000000  1
  O  O17  1  0.29019576  0.29019576  0.75000000  1
  Mg  Mg18  1  0.66666667  0.33333333  0.51659400  1
  Mg  Mg19  1  0.33333333  0.66666667  0.98340600  1
  Mg  Mg20  1  0.33333333  0.66666667  0.48340600  1
  Mg  Mg21  1  0.66666667  0.33333333  0.01659400  1
  Mg  Mg22  1  0.66666667  0.33333333  0.30780678  1
  Mg  Mg23  1  0.33333333  0.66666667  0.19219322  1
  Mg  Mg24  1  0.33333333  0.66666667  0.69219322  1
  Mg  Mg25  1  0.66666667  0.33333333  0.80780678  1
  Nb  Nb26  1  0.00000000  0.00000000  0.35800912  1
  Nb  Nb27  1  0.00000000  0.00000000  0.14199088  1
  Nb  Nb28  1  0.00000000  0.00000000  0.64199088  1
  Nb  Nb29  1  0.00000000  0.00000000  0.85800912  1
