# generated using pymatgen
data_KGaTe2
_symmetry_space_group_name_H-M   'P 1'
_cell_length_a   8.47171395
_cell_length_b   8.47171395
_cell_length_c   16.91836006
_cell_angle_alpha   97.15407496
_cell_angle_beta   97.15407497
_cell_angle_gamma   90.00523727
_symmetry_Int_Tables_number   1
_chemical_formula_structural   KGaTe2
_chemical_formula_sum   'K8 Ga8 Te16'
_cell_volume   1195.24718842
_cell_formula_units_Z   8
loop_
 _symmetry_equiv_pos_site_id
 _symmetry_equiv_pos_as_xyz
  1  'x, y, z'
loop_
 _atom_site_type_symbol
 _atom_site_label
 _atom_site_symmetry_multiplicity
 _atom_site_fract_x
 _atom_site_fract_y
 _atom_site_fract_z
 _atom_site_occupancy
  K  K0  1  0.77925322  0.65436275  0.11852583  1
  K  K1  1  0.34563725  0.22074678  0.38147417  1
  K  K2  1  0.22074678  0.34563725  0.88147417  1
  K  K3  1  0.65436275  0.77925322  0.61852583  1
  K  K4  1  0.84930063  0.22147891  0.39268570  1
  K  K5  1  0.77852109  0.15069937  0.10731430  1
  K  K6  1  0.15069937  0.77852109  0.60731430  1
  K  K7  1  0.22147891  0.84930063  0.89268570  1
  Ga  Ga8  1  0.29076610  0.41804013  0.16366891  1
  Ga  Ga9  1  0.58195987  0.70923390  0.33633109  1
  Ga  Ga10  1  0.70923390  0.58195987  0.83633109  1
  Ga  Ga11  1  0.41804013  0.29076610  0.66366891  1
  Ga  Ga12  1  0.08676939  0.70931177  0.33732833  1
  Ga  Ga13  1  0.29068823  0.91323061  0.16267167  1
  Ga  Ga14  1  0.91323061  0.29068823  0.66267167  1
  Ga  Ga15  1  0.70931177  0.08676939  0.83732833  1
  Te  Te16  1  0.26709273  0.64026044  0.06506244  1
  Te  Te17  1  0.35973956  0.73290727  0.43493756  1
  Te  Te18  1  0.73290727  0.35973956  0.93493756  1
  Te  Te19  1  0.64026044  0.26709273  0.56506244  1
  Te  Te20  1  0.05094705  0.42613454  0.25048531  1
  Te  Te21  1  0.57386546  0.94905295  0.24951469  1
  Te  Te22  1  0.94905295  0.57386546  0.74951469  1
  Te  Te23  1  0.42613454  0.05094705  0.75048531  1
  Te  Te24  1  0.85731515  0.73472897  0.43311644  1
  Te  Te25  1  0.26527103  0.14268485  0.06688356  1
  Te  Te26  1  0.14268485  0.26527103  0.56688356  1
  Te  Te27  1  0.73472897  0.85731515  0.93311644  1
  Te  Te28  1  0.05152901  0.94847099  0.25000000  1
  Te  Te29  1  0.94847099  0.05152901  0.75000000  1
  Te  Te30  1  0.57436066  0.42563934  0.25000000  1
  Te  Te31  1  0.42563934  0.57436066  0.75000000  1
