# generated using pymatgen
data_Rb5GeP3
_symmetry_space_group_name_H-M   'P 1'
_cell_length_a   5.49343313
_cell_length_b   15.71328435
_cell_length_c   14.98090591
_cell_angle_alpha   90.00000000
_cell_angle_beta   90.00000000
_cell_angle_gamma   90.00000000
_symmetry_Int_Tables_number   1
_chemical_formula_structural   Rb5GeP3
_chemical_formula_sum   'Rb20 Ge4 P12'
_cell_volume   1293.14995294
_cell_formula_units_Z   4
loop_
 _symmetry_equiv_pos_site_id
 _symmetry_equiv_pos_as_xyz
  1  'x, y, z'
loop_
 _atom_site_type_symbol
 _atom_site_label
 _atom_site_symmetry_multiplicity
 _atom_site_fract_x
 _atom_site_fract_y
 _atom_site_fract_z
 _atom_site_occupancy
  P  P0  1  0.25000000  0.86324427  0.79205966  1
  P  P1  1  0.75000000  0.13675573  0.20794034  1
  P  P2  1  0.25000000  0.36324427  0.70794034  1
  P  P3  1  0.75000000  0.63675573  0.29205966  1
  P  P4  1  0.25000000  0.84500028  0.05560240  1
  P  P5  1  0.75000000  0.15499972  0.94439760  1
  P  P6  1  0.25000000  0.34500028  0.44439760  1
  P  P7  1  0.75000000  0.65499972  0.55560240  1
  P  P8  1  0.25000000  0.63344632  0.91097975  1
  P  P9  1  0.75000000  0.36655368  0.08902025  1
  P  P10  1  0.25000000  0.13344632  0.58902025  1
  P  P11  1  0.75000000  0.86655368  0.41097975  1
  Ge  Ge12  1  0.25000000  0.78032832  0.91884375  1
  Ge  Ge13  1  0.75000000  0.21967168  0.08115625  1
  Ge  Ge14  1  0.25000000  0.28032832  0.58115625  1
  Ge  Ge15  1  0.75000000  0.71967168  0.41884375  1
  Rb  Rb16  1  0.75000000  0.98458111  0.61937534  1
  Rb  Rb17  1  0.25000000  0.01541889  0.38062466  1
  Rb  Rb18  1  0.75000000  0.48458111  0.88062466  1
  Rb  Rb19  1  0.25000000  0.51541889  0.11937534  1
  Rb  Rb20  1  0.25000000  0.76547913  0.26979220  1
  Rb  Rb21  1  0.75000000  0.23452087  0.73020780  1
  Rb  Rb22  1  0.25000000  0.26547913  0.23020780  1
  Rb  Rb23  1  0.75000000  0.73452087  0.76979220  1
  Rb  Rb24  1  0.25000000  0.30421059  0.94027597  1
  Rb  Rb25  1  0.75000000  0.69578941  0.05972403  1
  Rb  Rb26  1  0.25000000  0.80421059  0.55972403  1
  Rb  Rb27  1  0.75000000  0.19578941  0.44027597  1
  Rb  Rb28  1  0.25000000  0.08430357  0.81572283  1
  Rb  Rb29  1  0.75000000  0.91569643  0.18427717  1
  Rb  Rb30  1  0.25000000  0.58430357  0.68427717  1
  Rb  Rb31  1  0.75000000  0.41569643  0.31572283  1
  Rb  Rb32  1  0.25000000  0.06732526  0.07206030  1
  Rb  Rb33  1  0.75000000  0.93267474  0.92793970  1
  Rb  Rb34  1  0.25000000  0.56732526  0.42793970  1
  Rb  Rb35  1  0.75000000  0.43267474  0.57206030  1
