# generated using pymatgen
data_NbSeOF7
_symmetry_space_group_name_H-M   'P 1'
_cell_length_a   7.32548462
_cell_length_b   8.11399491
_cell_length_c   11.52218969
_cell_angle_alpha   90.00000000
_cell_angle_beta   90.00000000
_cell_angle_gamma   90.00000000
_symmetry_Int_Tables_number   1
_chemical_formula_structural   NbSeOF7
_chemical_formula_sum   'Nb4 Se4 O4 F28'
_cell_volume   684.86679834
_cell_formula_units_Z   4
loop_
 _symmetry_equiv_pos_site_id
 _symmetry_equiv_pos_as_xyz
  1  'x, y, z'
loop_
 _atom_site_type_symbol
 _atom_site_label
 _atom_site_symmetry_multiplicity
 _atom_site_fract_x
 _atom_site_fract_y
 _atom_site_fract_z
 _atom_site_occupancy
  O  O0  1  0.48842158  0.75000000  0.98311254  1
  O  O1  1  0.01157842  0.75000000  0.48311254  1
  O  O2  1  0.51157842  0.25000000  0.01688746  1
  O  O3  1  0.98842158  0.25000000  0.51688746  1
  F  F4  1  0.70007152  0.09301192  0.59488720  1
  F  F5  1  0.79992848  0.40698808  0.09488720  1
  F  F6  1  0.29992848  0.59301192  0.40511280  1
  F  F7  1  0.20007152  0.90698808  0.90511280  1
  F  F8  1  0.29992848  0.90698808  0.40511280  1
  F  F9  1  0.79992848  0.09301192  0.09488720  1
  F  F10  1  0.70007152  0.40698808  0.59488720  1
  F  F11  1  0.20007152  0.59301192  0.90511280  1
  F  F12  1  0.86090459  0.75000000  0.98183343  1
  F  F13  1  0.36090459  0.25000000  0.51816657  1
  F  F14  1  0.13909541  0.25000000  0.01816657  1
  F  F15  1  0.63909541  0.75000000  0.48183343  1
  F  F16  1  0.88428982  0.75000000  0.73680911  1
  F  F17  1  0.38428982  0.25000000  0.76319089  1
  F  F18  1  0.11571018  0.25000000  0.26319089  1
  F  F19  1  0.61571018  0.75000000  0.23680911  1
  F  F20  1  0.50080489  0.75000000  0.74304426  1
  F  F21  1  1.00080489  0.25000000  0.75695574  1
  F  F22  1  0.49919511  0.25000000  0.25695574  1
  F  F23  1  -0.00080489  0.75000000  0.24304426  1
  F  F24  1  0.68867812  0.51207138  0.86294335  1
  F  F25  1  0.18867812  0.48792862  0.63705665  1
  F  F26  1  0.31132188  0.01207138  0.13705665  1
  F  F27  1  0.81132188  0.98792862  0.36294335  1
  F  F28  1  0.31132188  0.48792862  0.13705665  1
  F  F29  1  0.81132188  0.51207138  0.36294335  1
  F  F30  1  0.68867812  0.98792862  0.86294335  1
  F  F31  1  0.18867812  0.01207138  0.63705665  1
  Se  Se32  1  0.26538982  0.75000000  0.00218927  1
  Se  Se33  1  0.76538982  0.25000000  0.49781073  1
  Se  Se34  1  0.73461018  0.25000000  0.99781073  1
  Se  Se35  1  0.23461018  0.75000000  0.50218927  1
  Nb  Nb36  1  0.70036490  0.75000000  0.84965304  1
  Nb  Nb37  1  0.20036490  0.25000000  0.65034696  1
  Nb  Nb38  1  0.29963510  0.25000000  0.15034696  1
  Nb  Nb39  1  0.79963510  0.75000000  0.34965304  1
