# generated using pymatgen
data_KInP2O7
_symmetry_space_group_name_H-M   'P 1'
_cell_length_a   7.55635955
_cell_length_b   8.58323761
_cell_length_c   10.61027155
_cell_angle_alpha   90.00000000
_cell_angle_beta   90.00000000
_cell_angle_gamma   107.00832321
_symmetry_Int_Tables_number   1
_chemical_formula_structural   KInP2O7
_chemical_formula_sum   'K4 In4 P8 O28'
_cell_volume   658.06269389
_cell_formula_units_Z   4
loop_
 _symmetry_equiv_pos_site_id
 _symmetry_equiv_pos_as_xyz
  1  'x, y, z'
loop_
 _atom_site_type_symbol
 _atom_site_label
 _atom_site_symmetry_multiplicity
 _atom_site_fract_x
 _atom_site_fract_y
 _atom_site_fract_z
 _atom_site_occupancy
  O  O0  1  0.13123333  0.49815998  0.09647964  1
  O  O1  1  0.86876667  0.00184002  0.59647964  1
  O  O2  1  0.86876667  0.50184002  0.90352036  1
  O  O3  1  0.13123333  0.99815998  0.40352036  1
  O  O4  1  0.63657455  0.24044292  0.08124927  1
  O  O5  1  0.36342545  0.25955708  0.58124927  1
  O  O6  1  0.36342545  0.75955708  0.91875073  1
  O  O7  1  0.63657455  0.74044292  0.41875073  1
  O  O8  1  0.32308279  0.02229340  0.10643658  1
  O  O9  1  0.67691721  0.47770660  0.60643658  1
  O  O10  1  0.67691721  0.97770660  0.89356342  1
  O  O11  1  0.32308279  0.52229340  0.39356342  1
  O  O12  1  0.33816770  0.31563295  0.07188699  1
  O  O13  1  0.66183230  0.18436705  0.57188699  1
  O  O14  1  0.66183230  0.68436705  0.92811301  1
  O  O15  1  0.33816770  0.81563295  0.42811301  1
  O  O16  1  0.46163565  0.73786935  0.22070033  1
  O  O17  1  0.53836435  0.76213065  0.72070033  1
  O  O18  1  0.53836435  0.26213065  0.77929967  1
  O  O19  1  0.46163565  0.23786935  0.27929967  1
  O  O20  1  0.00803810  0.71715481  0.50365796  1
  O  O21  1  0.99196190  0.78284519  0.00365796  1
  O  O22  1  0.99196190  0.28284519  0.49634204  1
  O  O23  1  0.00803810  0.21715481  0.99634204  1
  O  O24  1  0.06838030  0.74339007  0.27013037  1
  O  O25  1  0.93161970  0.75660993  0.77013037  1
  O  O26  1  0.93161970  0.25660993  0.72986963  1
  O  O27  1  0.06838030  0.24339007  0.22986963  1
  P  P28  1  0.44183910  0.19405579  0.13809700  1
  P  P29  1  0.55816090  0.30594421  0.63809700  1
  P  P30  1  0.55816090  0.80594421  0.86190300  1
  P  P31  1  0.44183910  0.69405579  0.36190300  1
  P  P32  1  0.12825882  0.82202752  0.40000723  1
  P  P33  1  0.12825882  0.32202752  0.09999277  1
  P  P34  1  0.87174118  0.17797248  0.59999277  1
  P  P35  1  0.87174118  0.67797248  0.90000723  1
  K  K36  1  0.82688962  0.43644474  0.32083492  1
  K  K37  1  0.17311038  0.56355526  0.67916508  1
  K  K38  1  0.17311038  0.06355526  0.82083492  1
  K  K39  1  0.82688962  0.93644474  0.17916508  1
  In  In40  1  0.23649318  0.25700286  0.39959670  1
  In  In41  1  0.76350682  0.24299714  0.89959670  1
  In  In42  1  0.76350682  0.74299714  0.60040330  1
  In  In43  1  0.23649318  0.75700286  0.10040330  1
