# generated using pymatgen
data_K2MoS4
_symmetry_space_group_name_H-M   'P 1'
_cell_length_a   6.98015953
_cell_length_b   9.58957978
_cell_length_c   12.42691868
_cell_angle_alpha   90.00000000
_cell_angle_beta   90.00000000
_cell_angle_gamma   90.00000000
_symmetry_Int_Tables_number   1
_chemical_formula_structural   K2MoS4
_chemical_formula_sum   'K8 Mo4 S16'
_cell_volume   831.81812917
_cell_formula_units_Z   4
loop_
 _symmetry_equiv_pos_site_id
 _symmetry_equiv_pos_as_xyz
  1  'x, y, z'
loop_
 _atom_site_type_symbol
 _atom_site_label
 _atom_site_symmetry_multiplicity
 _atom_site_fract_x
 _atom_site_fract_y
 _atom_site_fract_z
 _atom_site_occupancy
  S  S0  1  0.25000000  0.27863005  0.89112489  1
  S  S1  1  0.75000000  0.72136995  0.10887511  1
  S  S2  1  0.25000000  0.77863005  0.60887511  1
  S  S3  1  0.75000000  0.22136995  0.39112489  1
  S  S4  1  0.00406967  0.65354034  0.86383530  1
  S  S5  1  0.50406967  0.34645966  0.13616470  1
  S  S6  1  0.49593033  0.15354034  0.63616470  1
  S  S7  1  0.99593033  0.84645966  0.36383530  1
  S  S8  1  0.99593033  0.34645966  0.13616470  1
  S  S9  1  0.49593033  0.65354034  0.86383530  1
  S  S10  1  0.50406967  0.84645966  0.36383530  1
  S  S11  1  0.00406967  0.15354034  0.63616470  1
  S  S12  1  0.75000000  0.47885970  0.60716755  1
  S  S13  1  0.25000000  0.52114030  0.39283245  1
  S  S14  1  0.75000000  0.97885970  0.89283245  1
  S  S15  1  0.25000000  0.02114030  0.10716755  1
  K  K16  1  0.75000000  0.54495706  0.33645130  1
  K  K17  1  0.25000000  0.45504294  0.66354870  1
  K  K18  1  0.75000000  0.04495706  0.16354870  1
  K  K19  1  0.25000000  0.95504294  0.83645130  1
  K  K20  1  0.25000000  0.65456602  0.10946118  1
  K  K21  1  0.75000000  0.34543398  0.89053882  1
  K  K22  1  0.25000000  0.15456602  0.39053882  1
  K  K23  1  0.75000000  0.84543398  0.60946118  1
  Mo  Mo24  1  0.75000000  0.25408912  0.56681603  1
  Mo  Mo25  1  0.25000000  0.74591088  0.43318397  1
  Mo  Mo26  1  0.75000000  0.75408912  0.93318397  1
  Mo  Mo27  1  0.25000000  0.24591088  0.06681603  1
