# generated using pymatgen
data_Mn2NbP12
_symmetry_space_group_name_H-M   'P 1'
_cell_length_a   5.79157181
_cell_length_b   8.56120707
_cell_length_c   10.62944843
_cell_angle_alpha   66.66986317
_cell_angle_beta   74.19105320
_cell_angle_gamma   70.23001108
_symmetry_Int_Tables_number   1
_chemical_formula_structural   Mn2NbP12
_chemical_formula_sum   'Mn4 Nb2 P24'
_cell_volume   449.53617239
_cell_formula_units_Z   2
loop_
 _symmetry_equiv_pos_site_id
 _symmetry_equiv_pos_as_xyz
  1  'x, y, z'
loop_
 _atom_site_type_symbol
 _atom_site_label
 _atom_site_symmetry_multiplicity
 _atom_site_fract_x
 _atom_site_fract_y
 _atom_site_fract_z
 _atom_site_occupancy
  P  P0  1  0.04845847  0.62169667  0.92582012  1
  P  P1  1  0.59597526  0.87830333  0.57417988  1
  P  P2  1  0.95154153  0.37830333  0.07417988  1
  P  P3  1  0.40402474  0.12169667  0.42582012  1
  P  P4  1  0.70810272  0.04031740  0.83469792  1
  P  P5  1  0.58311804  0.45968260  0.66530208  1
  P  P6  1  0.66780627  0.07049186  0.24187197  1
  P  P7  1  0.98017010  0.42950814  0.25812803  1
  P  P8  1  0.33219373  0.92950814  0.75812803  1
  P  P9  1  0.01982990  0.57049186  0.74187197  1
  P  P10  1  0.08215441  0.86148248  0.07226483  1
  P  P11  1  0.01590172  0.63851752  0.42773517  1
  P  P12  1  0.91784559  0.13851752  0.92773517  1
  P  P13  1  0.98409828  0.36148248  0.57226483  1
  P  P14  1  0.56722399  0.27009413  0.49584302  1
  P  P15  1  0.33316114  0.22990587  0.00415698  1
  P  P16  1  0.43277601  0.72990587  0.50415698  1
  P  P17  1  0.66683886  0.77009413  0.99584302  1
  P  P18  1  0.35088536  0.47947327  0.16441415  1
  P  P19  1  0.99477279  0.02052673  0.33558585  1
  P  P20  1  0.64911464  0.52052673  0.83558585  1
  P  P21  1  0.00522721  0.97947327  0.66441415  1
  P  P22  1  0.41688196  0.54031740  0.33469792  1
  P  P23  1  0.29189728  0.95968260  0.16530208  1
  Mn  Mn24  1  0.00758707  0.81877674  0.54566383  1
  Mn  Mn25  1  0.37202763  0.68122326  0.95433617  1
  Mn  Mn26  1  0.99241293  0.18122326  0.45433617  1
  Mn  Mn27  1  0.62797237  0.31877674  0.04566383  1
  Nb  Nb28  1  0.30413363  0.25000000  0.75000000  1
  Nb  Nb29  1  0.69586637  0.75000000  0.25000000  1
