# generated using pymatgen
data_LaIn4Ni
_symmetry_space_group_name_H-M   'P 1'
_cell_length_a   4.56350900
_cell_length_b   7.27815524
_cell_length_c   8.85110725
_cell_angle_alpha   90.00000000
_cell_angle_beta   104.93915354
_cell_angle_gamma   90.00000000
_symmetry_Int_Tables_number   1
_chemical_formula_structural   LaIn4Ni
_chemical_formula_sum   'La2 In8 Ni2'
_cell_volume   284.04354557
_cell_formula_units_Z   2
loop_
 _symmetry_equiv_pos_site_id
 _symmetry_equiv_pos_as_xyz
  1  'x, y, z'
loop_
 _atom_site_type_symbol
 _atom_site_label
 _atom_site_symmetry_multiplicity
 _atom_site_fract_x
 _atom_site_fract_y
 _atom_site_fract_z
 _atom_site_occupancy
  La  La0  1  0.88232410  0.75000000  0.76464820  1
  La  La1  1  0.11767590  0.25000000  0.23535180  1
  In  In2  1  0.50000000  0.50000000  -0.00000000  1
  In  In3  1  0.50000000  0.00000000  0.00000000  1
  In  In4  1  0.07629227  0.75000000  0.15258453  1
  In  In5  1  0.92370773  0.25000000  0.84741547  1
  In  In6  1  0.68866472  0.54652268  0.37732945  1
  In  In7  1  0.31133528  0.45347732  0.62267055  1
  In  In8  1  0.68866472  0.95347732  0.37732945  1
  In  In9  1  0.31133528  0.04652268  0.62267055  1
  Ni  Ni10  1  0.22515514  0.75000000  0.45031027  1
  Ni  Ni11  1  0.77484486  0.25000000  0.54968973  1
