# generated using pymatgen
data_BaNa(B3O5)3
_symmetry_space_group_name_H-M   'P 1'
_cell_length_a   8.77613563
_cell_length_b   8.77613563
_cell_length_c   8.77613562
_cell_angle_alpha   80.17507740
_cell_angle_beta   80.17507736
_cell_angle_gamma   80.17507738
_symmetry_Int_Tables_number   1
_chemical_formula_structural   BaNa(B3O5)3
_chemical_formula_sum   'Ba2 Na2 B18 O30'
_cell_volume   649.25180422
_cell_formula_units_Z   2
loop_
 _symmetry_equiv_pos_site_id
 _symmetry_equiv_pos_as_xyz
  1  'x, y, z'
loop_
 _atom_site_type_symbol
 _atom_site_label
 _atom_site_symmetry_multiplicity
 _atom_site_fract_x
 _atom_site_fract_y
 _atom_site_fract_z
 _atom_site_occupancy
  B  B0  1  0.83952259  0.28330786  0.71687968  1
  B  B1  1  0.28330786  0.71687968  0.83952259  1
  B  B2  1  0.71687968  0.83952259  0.28330786  1
  B  B3  1  0.21687968  0.78330786  0.33952259  1
  B  B4  1  0.12394443  0.27290654  0.61845344  1
  B  B5  1  0.27290654  0.61845344  0.12394443  1
  B  B6  1  0.61845344  0.12394443  0.27290654  1
  B  B7  1  0.11845344  0.77290654  0.62394443  1
  B  B8  1  0.77290654  0.62394443  0.11845344  1
  B  B9  1  0.62394443  0.11845344  0.77290654  1
  B  B10  1  0.93986676  0.29339999  0.43561420  1
  B  B11  1  0.29339999  0.43561420  0.93986676  1
  B  B12  1  0.43561420  0.93986676  0.29339999  1
  B  B13  1  0.93561420  0.79339999  0.43986676  1
  B  B14  1  0.79339999  0.43986676  0.93561420  1
  B  B15  1  0.43986676  0.93561420  0.79339999  1
  B  B16  1  0.78330786  0.33952259  0.21687968  1
  B  B17  1  0.33952259  0.21687968  0.78330786  1
  O  O18  1  0.64058960  0.26971775  0.29014546  1
  O  O19  1  0.79014546  0.76971775  0.14058960  1
  O  O20  1  0.14058960  0.79014546  0.76971775  1
  O  O21  1  0.76971775  0.14058960  0.79014546  1
  O  O22  1  0.50667514  0.23886797  0.74288512  1
  O  O23  1  0.29014546  0.64058960  0.26971775  1
  O  O24  1  0.23886797  0.74288512  0.50667514  1
  O  O25  1  0.73886797  0.00667514  0.24288512  1
  O  O26  1  0.24288512  0.73886797  0.00667514  1
  O  O27  1  0.00667514  0.24288512  0.73886797  1
  O  O28  1  0.27401769  0.28768885  0.92610375  1
  O  O29  1  0.92610375  0.27401769  0.28768885  1
  O  O30  1  0.28768885  0.92610375  0.27401769  1
  O  O31  1  0.78768885  0.77401769  0.42610375  1
  O  O32  1  0.42610375  0.78768885  0.77401769  1
  O  O33  1  0.77401769  0.42610375  0.78768885  1
  O  O34  1  0.81653760  0.31846608  0.55099780  1
  O  O35  1  0.31846608  0.55099780  0.81653760  1
  O  O36  1  0.55099780  0.81653760  0.31846608  1
  O  O37  1  0.05099780  0.81846608  0.31653760  1
  O  O38  1  0.81846608  0.31653760  0.05099780  1
  O  O39  1  0.31653760  0.05099780  0.81846608  1
  O  O40  1  0.09399845  0.28578871  0.46471911  1
  O  O41  1  0.28578871  0.46471911  0.09399845  1
  O  O42  1  0.46471911  0.09399845  0.28578871  1
  O  O43  1  0.96471911  0.78578871  0.59399845  1
  O  O44  1  0.78578871  0.59399845  0.96471911  1
  O  O45  1  0.59399845  0.96471911  0.78578871  1
  O  O46  1  0.74288512  0.50667514  0.23886797  1
  O  O47  1  0.26971775  0.29014546  0.64058960  1
  Na  Na48  1  0.72211453  0.72211453  0.72211453  1
  Na  Na49  1  0.22211453  0.22211453  0.22211453  1
  Ba  Ba50  1  0.49499089  0.49499089  0.49499089  1
  Ba  Ba51  1  0.99499089  0.99499089  0.99499089  1
