# generated using pymatgen
data_Ba2TiS4
_symmetry_space_group_name_H-M   'P 1'
_cell_length_a   6.90665652
_cell_length_b   9.13939005
_cell_length_c   12.64034774
_cell_angle_alpha   90.00000000
_cell_angle_beta   90.00000000
_cell_angle_gamma   90.00000000
_symmetry_Int_Tables_number   1
_chemical_formula_structural   Ba2TiS4
_chemical_formula_sum   'Ba8 Ti4 S16'
_cell_volume   797.89196664
_cell_formula_units_Z   4
loop_
 _symmetry_equiv_pos_site_id
 _symmetry_equiv_pos_as_xyz
  1  'x, y, z'
loop_
 _atom_site_type_symbol
 _atom_site_label
 _atom_site_symmetry_multiplicity
 _atom_site_fract_x
 _atom_site_fract_y
 _atom_site_fract_z
 _atom_site_occupancy
  S  S0  1  0.25000000  0.80680217  0.09745816  1
  S  S1  1  0.75000000  0.19319783  0.90254184  1
  S  S2  1  0.25000000  0.30680217  0.40254184  1
  S  S3  1  0.75000000  0.69319783  0.59745816  1
  S  S4  1  0.50842528  0.33172780  0.64822386  1
  S  S5  1  0.00842528  0.66827220  0.35177614  1
  S  S6  1  0.99157472  0.83172780  0.85177614  1
  S  S7  1  0.49157472  0.16827220  0.14822386  1
  S  S8  1  0.49157472  0.66827220  0.35177614  1
  S  S9  1  0.99157472  0.33172780  0.64822386  1
  S  S10  1  0.00842528  0.16827220  0.14822386  1
  S  S11  1  0.50842528  0.83172780  0.85177614  1
  S  S12  1  0.75000000  0.51907831  0.08866631  1
  S  S13  1  0.25000000  0.48092169  0.91133369  1
  S  S14  1  0.75000000  0.01907831  0.41133369  1
  S  S15  1  0.25000000  0.98092169  0.58866631  1
  Ti  Ti16  1  0.25000000  0.72695964  0.92767288  1
  Ti  Ti17  1  0.75000000  0.27304036  0.07232712  1
  Ti  Ti18  1  0.25000000  0.22695964  0.57232712  1
  Ti  Ti19  1  0.75000000  0.77304036  0.42767288  1
  Ba  Ba20  1  0.25000000  0.63219159  0.57479566  1
  Ba  Ba21  1  0.75000000  0.36780841  0.42520434  1
  Ba  Ba22  1  0.25000000  0.13219159  0.92520434  1
  Ba  Ba23  1  0.75000000  0.86780841  0.07479566  1
  Ba  Ba24  1  0.25000000  0.97658836  0.32515194  1
  Ba  Ba25  1  0.75000000  0.02341164  0.67484806  1
  Ba  Ba26  1  0.25000000  0.47658836  0.17484806  1
  Ba  Ba27  1  0.75000000  0.52341164  0.82515194  1
