# generated using pymatgen
data_TmSiRu
_symmetry_space_group_name_H-M   'P 1'
_cell_length_a   4.27493949
_cell_length_b   6.91308427
_cell_length_c   7.12829807
_cell_angle_alpha   90.00000000
_cell_angle_beta   90.00000000
_cell_angle_gamma   90.00000000
_symmetry_Int_Tables_number   1
_chemical_formula_structural   TmSiRu
_chemical_formula_sum   'Tm4 Si4 Ru4'
_cell_volume   210.66271364
_cell_formula_units_Z   4
loop_
 _symmetry_equiv_pos_site_id
 _symmetry_equiv_pos_as_xyz
  1  'x, y, z'
loop_
 _atom_site_type_symbol
 _atom_site_label
 _atom_site_symmetry_multiplicity
 _atom_site_fract_x
 _atom_site_fract_y
 _atom_site_fract_z
 _atom_site_occupancy
  Si  Si0  1  0.25000000  0.30145076  0.89357172  1
  Si  Si1  1  0.75000000  0.69854924  0.10642828  1
  Si  Si2  1  0.25000000  0.80145076  0.60642828  1
  Si  Si3  1  0.75000000  0.19854924  0.39357172  1
  Ru  Ru4  1  0.75000000  0.84498869  0.43425630  1
  Ru  Ru5  1  0.25000000  0.15501131  0.56574370  1
  Ru  Ru6  1  0.75000000  0.34498869  0.06574370  1
  Ru  Ru7  1  0.25000000  0.65501131  0.93425630  1
  Tm  Tm8  1  0.25000000  0.99059970  0.18781347  1
  Tm  Tm9  1  0.75000000  0.00940030  0.81218653  1
  Tm  Tm10  1  0.25000000  0.49059970  0.31218653  1
  Tm  Tm11  1  0.75000000  0.50940030  0.68781347  1
