# generated using pymatgen
data_RbPSe6
_symmetry_space_group_name_H-M   'P 1'
_cell_length_a   7.06010936
_cell_length_b   11.78553535
_cell_length_c   12.37850181
_cell_angle_alpha   90.00000000
_cell_angle_beta   90.00000000
_cell_angle_gamma   90.00000000
_symmetry_Int_Tables_number   1
_chemical_formula_structural   RbPSe6
_chemical_formula_sum   'Rb4 P4 Se24'
_cell_volume   1029.98008510
_cell_formula_units_Z   4
loop_
 _symmetry_equiv_pos_site_id
 _symmetry_equiv_pos_as_xyz
  1  'x, y, z'
loop_
 _atom_site_type_symbol
 _atom_site_label
 _atom_site_symmetry_multiplicity
 _atom_site_fract_x
 _atom_site_fract_y
 _atom_site_fract_z
 _atom_site_occupancy
  P  P0  1  0.28763087  0.81326487  0.16759073  1
  P  P1  1  0.28763087  0.31326487  0.33240927  1
  P  P2  1  0.71236913  0.81326487  0.66759073  1
  P  P3  1  0.71236913  0.31326487  0.83240927  1
  Se  Se4  1  0.08427343  0.17606227  0.35557915  1
  Se  Se5  1  0.08427343  0.67606227  0.14442085  1
  Se  Se6  1  0.91572657  0.17606227  0.85557915  1
  Se  Se7  1  0.91572657  0.67606227  0.64442085  1
  Se  Se8  1  0.18828402  0.98349125  0.08894448  1
  Se  Se9  1  0.81171598  0.48349125  0.91105552  1
  Se  Se10  1  0.81171598  0.98349125  0.58894448  1
  Se  Se11  1  0.18828402  0.48349125  0.41105552  1
  Se  Se12  1  0.24023378  0.94280631  0.90413692  1
  Se  Se13  1  0.75976622  0.44280631  0.09586308  1
  Se  Se14  1  0.75976622  0.94280631  0.40413692  1
  Se  Se15  1  0.24023378  0.44280631  0.59586308  1
  Se  Se16  1  0.55634669  0.02028672  0.86852940  1
  Se  Se17  1  0.44365331  0.52028672  0.13147060  1
  Se  Se18  1  0.44365331  0.02028672  0.36852940  1
  Se  Se19  1  0.55634669  0.52028672  0.63147060  1
  Se  Se20  1  0.74887358  0.85199775  0.84742406  1
  Se  Se21  1  0.25112642  0.35199775  0.15257594  1
  Se  Se22  1  0.25112642  0.85199775  0.34742406  1
  Se  Se23  1  0.74887358  0.35199775  0.65257594  1
  Se  Se24  1  0.58050605  0.78050164  0.12277189  1
  Se  Se25  1  0.41949395  0.28050164  0.87722811  1
  Se  Se26  1  0.41949395  0.78050164  0.62277189  1
  Se  Se27  1  0.58050605  0.28050164  0.37722811  1
  Rb  Rb28  1  0.68191901  0.63349920  0.37380640  1
  Rb  Rb29  1  0.31808099  0.13349920  0.62619360  1
  Rb  Rb30  1  0.31808099  0.63349920  0.87380640  1
  Rb  Rb31  1  0.68191901  0.13349920  0.12619360  1
