# generated using pymatgen
data_SrZn11
_symmetry_space_group_name_H-M   'P 1'
_cell_length_a   6.90257767
_cell_length_b   8.37366976
_cell_length_c   8.37366976
_cell_angle_alpha   80.21941483
_cell_angle_beta   65.65942669
_cell_angle_gamma   65.65942666
_symmetry_Int_Tables_number   1
_chemical_formula_structural   SrZn11
_chemical_formula_sum   'Sr2 Zn22'
_cell_volume   401.77799727
_cell_formula_units_Z   2
loop_
 _symmetry_equiv_pos_site_id
 _symmetry_equiv_pos_as_xyz
  1  'x, y, z'
loop_
 _atom_site_type_symbol
 _atom_site_label
 _atom_site_symmetry_multiplicity
 _atom_site_fract_x
 _atom_site_fract_y
 _atom_site_fract_z
 _atom_site_occupancy
  Zn  Zn0  1  0.55823600  0.57832117  0.66606274  1
  Zn  Zn1  1  0.80261991  0.92167883  0.83393726  1
  Zn  Zn2  1  0.87500000  0.25000000  0.75000000  1
  Zn  Zn3  1  0.12500000  0.75000000  0.25000000  1
  Zn  Zn4  1  0.00000000  0.50000000  0.50000000  1
  Zn  Zn5  1  0.00000000  0.00000000  0.50000000  1
  Zn  Zn6  1  0.50000000  0.50000000  0.00000000  1
  Zn  Zn7  1  0.00000000  0.00000000  0.00000000  1
  Zn  Zn8  1  0.80261991  0.33393726  0.42167883  1
  Zn  Zn9  1  0.72429874  0.07832117  0.33393726  1
  Zn  Zn10  1  0.13655717  0.42167883  0.16606274  1
  Zn  Zn11  1  0.55823600  0.16606274  0.07832117  1
  Zn  Zn12  1  0.86344283  0.33393726  0.07832117  1
  Zn  Zn13  1  0.27570126  0.16606274  0.42167883  1
  Zn  Zn14  1  0.19738009  0.07832117  0.16606274  1
  Zn  Zn15  1  0.44176400  0.42167883  0.33393726  1
  Zn  Zn16  1  0.19738009  0.66606274  0.57832117  1
  Zn  Zn17  1  0.27570126  0.92167883  0.66606274  1
  Zn  Zn18  1  0.86344283  0.57832117  0.83393726  1
  Zn  Zn19  1  0.44176400  0.83393726  0.92167883  1
  Zn  Zn20  1  0.13655717  0.66606274  0.92167883  1
  Zn  Zn21  1  0.72429874  0.83393726  0.57832117  1
  Sr  Sr22  1  0.62500000  0.75000000  0.25000000  1
  Sr  Sr23  1  0.37500000  0.25000000  0.75000000  1
