# generated using pymatgen
data_NaNdPCO7
_symmetry_space_group_name_H-M   'P 1'
_cell_length_a   9.74337464
_cell_length_b   7.16264279
_cell_length_c   5.29800478
_cell_angle_alpha   90.00000000
_cell_angle_beta   89.50475026
_cell_angle_gamma   90.00000000
_symmetry_Int_Tables_number   1
_chemical_formula_structural   NaNdPCO7
_chemical_formula_sum   'Na2 Nd2 P2 C2 O14'
_cell_volume   369.72499907
_cell_formula_units_Z   2
loop_
 _symmetry_equiv_pos_site_id
 _symmetry_equiv_pos_as_xyz
  1  'x, y, z'
loop_
 _atom_site_type_symbol
 _atom_site_label
 _atom_site_symmetry_multiplicity
 _atom_site_fract_x
 _atom_site_fract_y
 _atom_site_fract_z
 _atom_site_occupancy
  Na  Na0  1  0.23082344  0.46402930  0.22947206  1
  Na  Na1  1  0.76917656  0.96402930  0.77052794  1
  Nd  Nd2  1  0.37336679  0.77879208  0.77950466  1
  Nd  Nd3  1  0.62663321  0.27879208  0.22049534  1
  P  P4  1  0.41646470  0.27167296  0.71559427  1
  P  P5  1  0.58353530  0.77167296  0.28440573  1
  C  C6  1  0.07084905  0.72135107  0.72395820  1
  C  C7  1  0.92915095  0.22135107  0.27604180  1
  O  O8  1  0.05446477  0.26113008  0.31151299  1
  O  O9  1  0.11904576  0.71112816  0.94938181  1
  O  O10  1  0.15675076  0.69710893  0.54001090  1
  O  O11  1  0.33588927  0.09457181  0.78827760  1
  O  O12  1  0.35583898  0.44595956  0.84716550  1
  O  O13  1  0.42821730  0.75084168  0.21014653  1
  O  O14  1  0.41580013  0.30126537  0.42359695  1
  O  O15  1  0.58419987  0.80126537  0.57640305  1
  O  O16  1  0.57178270  0.25084168  0.78985347  1
  O  O17  1  0.64416102  0.94595956  0.15283450  1
  O  O18  1  0.66411073  0.59457181  0.21172240  1
  O  O19  1  0.84324924  0.19710893  0.45998910  1
  O  O20  1  0.88095424  0.21112816  0.05061819  1
  O  O21  1  0.94553523  0.76113008  0.68848701  1
