# generated using pymatgen
data_RbYP2O7
_symmetry_space_group_name_H-M   'P 1'
_cell_length_a   7.87832128
_cell_length_b   8.82235379
_cell_length_c   11.10000765
_cell_angle_alpha   90.00000000
_cell_angle_beta   90.00000000
_cell_angle_gamma   105.94634941
_symmetry_Int_Tables_number   1
_chemical_formula_structural   RbYP2O7
_chemical_formula_sum   'Rb4 Y4 P8 O28'
_cell_volume   741.82160147
_cell_formula_units_Z   4
loop_
 _symmetry_equiv_pos_site_id
 _symmetry_equiv_pos_as_xyz
  1  'x, y, z'
loop_
 _atom_site_type_symbol
 _atom_site_label
 _atom_site_symmetry_multiplicity
 _atom_site_fract_x
 _atom_site_fract_y
 _atom_site_fract_z
 _atom_site_occupancy
  O  O0  1  0.55221055  0.26808326  0.26924934  1
  O  O1  1  0.44778945  0.23191674  0.76924934  1
  O  O2  1  0.44778945  0.73191674  0.73075066  1
  O  O3  1  0.55221055  0.76808326  0.23075066  1
  O  O4  1  0.99489732  0.28130731  0.00355602  1
  O  O5  1  0.00510268  0.21869269  0.50355602  1
  O  O6  1  0.00510268  0.71869269  0.99644398  1
  O  O7  1  0.99489732  0.78130731  0.49644398  1
  O  O8  1  0.66846880  0.48347666  0.11000948  1
  O  O9  1  0.33153120  0.01652334  0.61000948  1
  O  O10  1  0.33153120  0.51652334  0.88999052  1
  O  O11  1  0.66846880  0.98347666  0.38999052  1
  O  O12  1  0.85691057  0.01027490  0.09294995  1
  O  O13  1  0.14308943  0.48972510  0.59294995  1
  O  O14  1  0.14308943  0.98972510  0.90705005  1
  O  O15  1  0.85691057  0.51027490  0.40705005  1
  O  O16  1  0.67614471  0.20345788  0.06867185  1
  O  O17  1  0.32385529  0.29654212  0.56867185  1
  O  O18  1  0.32385529  0.79654212  0.93132815  1
  O  O19  1  0.67614471  0.70345788  0.43132815  1
  O  O20  1  0.92434418  0.75333731  0.27318267  1
  O  O21  1  0.07565582  0.74666269  0.77318267  1
  O  O22  1  0.07565582  0.24666269  0.72681733  1
  O  O23  1  0.92434418  0.25333731  0.22681733  1
  O  O24  1  0.38449333  0.76465324  0.42421576  1
  O  O25  1  0.61550667  0.73534676  0.92421576  1
  O  O26  1  0.61550667  0.23534676  0.57578424  1
  O  O27  1  0.38449333  0.26465324  0.07578424  1
  P  P28  1  0.87177105  0.68514168  0.39963531  1
  P  P29  1  0.12822895  0.81485832  0.89963531  1
  P  P30  1  0.12822895  0.31485832  0.60036469  1
  P  P31  1  0.87177105  0.18514168  0.10036469  1
  P  P32  1  0.56631409  0.31282563  0.13549437  1
  P  P33  1  0.43368591  0.18717437  0.63549437  1
  P  P34  1  0.43368591  0.68717437  0.86450563  1
  P  P35  1  0.56631409  0.81282563  0.36450563  1
  Rb  Rb36  1  0.81217865  0.93388103  0.67787277  1
  Rb  Rb37  1  0.18782135  0.56611897  0.17787277  1
  Rb  Rb38  1  0.18782135  0.06611897  0.32212723  1
  Rb  Rb39  1  0.81217865  0.43388103  0.82212723  1
  Y  Y40  1  0.76479171  0.24901368  0.40153685  1
  Y  Y41  1  0.23520829  0.25098632  0.90153685  1
  Y  Y42  1  0.23520829  0.75098632  0.59846315  1
  Y  Y43  1  0.76479171  0.74901368  0.09846315  1
