# generated using pymatgen
data_MgNb2O6
_symmetry_space_group_name_H-M   'P 1'
_cell_length_a   5.09533384
_cell_length_b   5.82050003
_cell_length_c   14.40727821
_cell_angle_alpha   90.00000000
_cell_angle_beta   90.00000000
_cell_angle_gamma   90.00000000
_symmetry_Int_Tables_number   1
_chemical_formula_structural   MgNb2O6
_chemical_formula_sum   'Mg4 Nb8 O24'
_cell_volume   427.28227979
_cell_formula_units_Z   4
loop_
 _symmetry_equiv_pos_site_id
 _symmetry_equiv_pos_as_xyz
  1  'x, y, z'
loop_
 _atom_site_type_symbol
 _atom_site_label
 _atom_site_symmetry_multiplicity
 _atom_site_fract_x
 _atom_site_fract_y
 _atom_site_fract_z
 _atom_site_occupancy
  O  O0  1  0.41824003  0.37404468  0.75548070  1
  O  O1  1  0.91824003  0.12595532  0.74451930  1
  O  O2  1  0.08175997  0.37404468  0.24451930  1
  O  O3  1  0.58175997  0.12595532  0.25548070  1
  O  O4  1  0.58175997  0.62595532  0.24451930  1
  O  O5  1  0.08175997  0.87404468  0.25548070  1
  O  O6  1  0.91824003  0.62595532  0.75548070  1
  O  O7  1  0.41824003  0.87404468  0.74451930  1
  O  O8  1  0.09047384  0.38398519  0.57871613  1
  O  O9  1  0.59047384  0.11601481  0.92128387  1
  O  O10  1  0.40952616  0.38398519  0.42128387  1
  O  O11  1  0.90952616  0.11601481  0.07871613  1
  O  O12  1  0.57129291  0.60593901  0.90408272  1
  O  O13  1  0.07129291  0.89406099  0.59591728  1
  O  O14  1  0.92870709  0.60593901  0.09591728  1
  O  O15  1  0.42870709  0.89406099  0.40408272  1
  O  O16  1  0.42870709  0.39406099  0.09591728  1
  O  O17  1  0.92870709  0.10593901  0.40408272  1
  O  O18  1  0.07129291  0.39406099  0.90408272  1
  O  O19  1  0.57129291  0.10593901  0.59591728  1
  O  O20  1  0.09047384  0.88398519  0.92128387  1
  O  O21  1  0.59047384  0.61601481  0.57871613  1
  O  O22  1  0.40952616  0.88398519  0.07871613  1
  O  O23  1  0.90952616  0.61601481  0.42128387  1
  Mg  Mg24  1  0.75000000  0.83459444  0.00000000  1
  Mg  Mg25  1  0.25000000  0.66540556  0.50000000  1
  Mg  Mg26  1  0.25000000  0.16540556  0.00000000  1
  Mg  Mg27  1  0.75000000  0.33459444  0.50000000  1
  Nb  Nb28  1  0.75314646  0.81664244  0.34018714  1
  Nb  Nb29  1  0.25314646  0.68335756  0.15981286  1
  Nb  Nb30  1  0.74685354  0.81664244  0.65981286  1
  Nb  Nb31  1  0.24685354  0.68335756  0.84018714  1
  Nb  Nb32  1  0.75314646  0.31664244  0.15981286  1
  Nb  Nb33  1  0.25314646  0.18335756  0.34018714  1
  Nb  Nb34  1  0.74685354  0.31664244  0.84018714  1
  Nb  Nb35  1  0.24685354  0.18335756  0.65981286  1
