# generated using pymatgen
data_ZnP2PbO7
_symmetry_space_group_name_H-M   'P 1'
_cell_length_a   5.40856912
_cell_length_b   8.41694253
_cell_length_c   13.08757059
_cell_angle_alpha   90.00000000
_cell_angle_beta   90.37172352
_cell_angle_gamma   90.00000000
_symmetry_Int_Tables_number   1
_chemical_formula_structural   ZnP2PbO7
_chemical_formula_sum   'Zn4 P8 Pb4 O28'
_cell_volume   595.78099210
_cell_formula_units_Z   4
loop_
 _symmetry_equiv_pos_site_id
 _symmetry_equiv_pos_as_xyz
  1  'x, y, z'
loop_
 _atom_site_type_symbol
 _atom_site_label
 _atom_site_symmetry_multiplicity
 _atom_site_fract_x
 _atom_site_fract_y
 _atom_site_fract_z
 _atom_site_occupancy
  O  O0  1  0.01685572  0.55932659  0.20147605  1
  O  O1  1  0.48314428  0.05932659  0.29852395  1
  O  O2  1  0.98314428  0.44067341  0.79852395  1
  O  O3  1  0.51685572  0.94067341  0.70147605  1
  O  O4  1  0.67359714  0.36185212  0.15412985  1
  O  O5  1  0.82640286  0.86185212  0.34587015  1
  O  O6  1  0.32640286  0.63814788  0.84587015  1
  O  O7  1  0.17359714  0.13814788  0.65412985  1
  O  O8  1  0.56356575  0.61909417  0.23913381  1
  O  O9  1  0.93643425  0.11909417  0.26086619  1
  O  O10  1  0.43643425  0.38090583  0.76086619  1
  O  O11  1  0.06356575  0.88090583  0.73913381  1
  O  O12  1  0.82079081  0.90291736  0.09974223  1
  O  O13  1  0.67920919  0.40291736  0.40025777  1
  O  O14  1  0.17920919  0.09708264  0.90025777  1
  O  O15  1  0.32079081  0.59708264  0.59974223  1
  O  O16  1  0.30449752  0.69281920  0.41437975  1
  O  O17  1  0.19550248  0.19281920  0.08562025  1
  O  O18  1  0.69550248  0.30718080  0.58562025  1
  O  O19  1  0.80449752  0.80718080  0.91437975  1
  O  O20  1  0.21982824  0.88440606  0.55502270  1
  O  O21  1  0.28017176  0.38440606  0.94497730  1
  O  O22  1  0.78017176  0.11559394  0.44497730  1
  O  O23  1  0.71982824  0.61559394  0.05502270  1
  O  O24  1  0.90333479  0.66825187  0.52010463  1
  O  O25  1  0.59666521  0.16825187  0.97989537  1
  O  O26  1  0.09666521  0.33174813  0.47989537  1
  O  O27  1  0.40333479  0.83174813  0.02010463  1
  P  P28  1  0.68270499  0.79966746  0.02024135  1
  P  P29  1  0.18270499  0.70033254  0.52024135  1
  P  P30  1  0.31729501  0.20033254  0.97975865  1
  P  P31  1  0.81729501  0.29966746  0.47975865  1
  P  P32  1  0.74822864  0.53633056  0.16685501  1
  P  P33  1  0.24822864  0.96366944  0.66685501  1
  P  P34  1  0.25177136  0.46366944  0.83314499  1
  P  P35  1  0.75177136  0.03633056  0.33314499  1
  Zn  Zn36  1  0.32801828  0.34799014  0.60420899  1
  Zn  Zn37  1  0.67198172  0.65200986  0.39579101  1
  Zn  Zn38  1  0.82801828  0.15200986  0.10420899  1
  Zn  Zn39  1  0.17198172  0.84799014  0.89579101  1
  Pb  Pb40  1  0.29619947  0.32701913  0.27727444  1
  Pb  Pb41  1  0.20380053  0.82701913  0.22272556  1
  Pb  Pb42  1  0.70380053  0.67298087  0.72272556  1
  Pb  Pb43  1  0.79619947  0.17298087  0.77727444  1
