# generated using pymatgen
data_Ca(Al4Co)2
_symmetry_space_group_name_H-M   'P 1'
_cell_length_a   3.95568682
_cell_length_b   12.47225101
_cell_length_c   14.50604106
_cell_angle_alpha   90.00000000
_cell_angle_beta   90.00000000
_cell_angle_gamma   90.00000000
_symmetry_Int_Tables_number   1
_chemical_formula_structural   Ca(Al4Co)2
_chemical_formula_sum   'Ca4 Al32 Co8'
_cell_volume   715.67466823
_cell_formula_units_Z   4
loop_
 _symmetry_equiv_pos_site_id
 _symmetry_equiv_pos_as_xyz
  1  'x, y, z'
loop_
 _atom_site_type_symbol
 _atom_site_label
 _atom_site_symmetry_multiplicity
 _atom_site_fract_x
 _atom_site_fract_y
 _atom_site_fract_z
 _atom_site_occupancy
  Ca  Ca0  1  0.50000000  0.15896405  0.68108489  1
  Ca  Ca1  1  0.50000000  0.84103595  0.31891511  1
  Ca  Ca2  1  0.50000000  0.65896405  0.81891511  1
  Ca  Ca3  1  0.50000000  0.34103595  0.18108489  1
  Al  Al4  1  0.00000000  0.73617387  0.17351630  1
  Al  Al5  1  0.50000000  0.40345699  0.74528810  1
  Al  Al6  1  0.50000000  0.16127038  0.95478686  1
  Al  Al7  1  0.00000000  0.52566530  0.13308786  1
  Al  Al8  1  0.50000000  0.50000000  0.00000000  1
  Al  Al9  1  0.50000000  0.09654301  0.24528810  1
  Al  Al10  1  0.00000000  0.45195371  0.32065066  1
  Al  Al11  1  0.50000000  0.33872962  0.45478686  1
  Al  Al12  1  0.50000000  0.90345699  0.75471190  1
  Al  Al13  1  0.00000000  0.02566530  0.36691214  1
  Al  Al14  1  0.00000000  0.16832191  0.50701123  1
  Al  Al15  1  0.00000000  0.16068052  0.11887566  1
  Al  Al16  1  0.00000000  0.23617387  0.32648370  1
  Al  Al17  1  0.00000000  0.83167809  0.49298877  1
  Al  Al18  1  0.50000000  0.83872962  0.04521314  1
  Al  Al19  1  0.00000000  0.97433470  0.63308786  1
  Al  Al20  1  0.00000000  0.76382613  0.67351630  1
  Al  Al21  1  0.00000000  0.47433470  0.86691214  1
  Al  Al22  1  0.00000000  0.66068052  0.38112434  1
  Al  Al23  1  0.00000000  0.50000000  0.50000000  1
  Al  Al24  1  0.00000000  0.83931948  0.88112434  1
  Al  Al25  1  0.00000000  0.26382613  0.82648370  1
  Al  Al26  1  0.00000000  0.95195371  0.17934934  1
  Al  Al27  1  0.00000000  0.33931948  0.61887566  1
  Al  Al28  1  0.50000000  0.59654301  0.25471190  1
  Al  Al29  1  0.00000000  0.66832191  0.99298877  1
  Al  Al30  1  0.00000000  0.33167809  0.00701123  1
  Al  Al31  1  0.50000000  0.66127038  0.54521314  1
  Al  Al32  1  0.00000000  0.00000000  0.00000000  1
  Al  Al33  1  0.00000000  0.54804629  0.67934934  1
  Al  Al34  1  0.00000000  0.04804629  0.82065066  1
  Al  Al35  1  0.50000000  0.00000000  0.50000000  1
  Co  Co36  1  0.50000000  0.85040875  0.59836605  1
  Co  Co37  1  0.50000000  0.03451144  0.09289617  1
  Co  Co38  1  0.50000000  0.14959125  0.40163395  1
  Co  Co39  1  0.50000000  0.96548856  0.90710383  1
  Co  Co40  1  0.50000000  0.53451144  0.40710383  1
  Co  Co41  1  0.50000000  0.46548856  0.59289617  1
  Co  Co42  1  0.50000000  0.64959125  0.09836605  1
  Co  Co43  1  0.50000000  0.35040875  0.90163395  1
