# generated using pymatgen
data_K3Na(RuO4)2
_symmetry_space_group_name_H-M   'P 1'
_cell_length_a   6.09130240
_cell_length_b   6.09130240
_cell_length_c   15.50981349
_cell_angle_alpha   89.65441162
_cell_angle_beta   89.65441161
_cell_angle_gamma   60.03464553
_symmetry_Int_Tables_number   1
_chemical_formula_structural   K3Na(RuO4)2
_chemical_formula_sum   'K6 Na2 Ru4 O16'
_cell_volume   498.53826965
_cell_formula_units_Z   2
loop_
 _symmetry_equiv_pos_site_id
 _symmetry_equiv_pos_as_xyz
  1  'x, y, z'
loop_
 _atom_site_type_symbol
 _atom_site_label
 _atom_site_symmetry_multiplicity
 _atom_site_fract_x
 _atom_site_fract_y
 _atom_site_fract_z
 _atom_site_occupancy
  O  O0  1  0.77251286  0.39175404  0.42106950  1
  O  O1  1  0.60824596  0.22748714  0.07893050  1
  O  O2  1  0.22748714  0.60824596  0.57893050  1
  O  O3  1  0.39175404  0.77251286  0.92106950  1
  O  O4  1  0.30097116  0.84310232  0.37798229  1
  O  O5  1  0.15689768  0.69902884  0.12201771  1
  O  O6  1  0.69902884  0.15689768  0.62201771  1
  O  O7  1  0.84310232  0.30097116  0.87798229  1
  O  O8  1  0.76793587  0.85977267  0.41190588  1
  O  O9  1  0.14022733  0.23206413  0.08809412  1
  O  O10  1  0.23206413  0.14022733  0.58809412  1
  O  O11  1  0.85977267  0.76793587  0.91190588  1
  O  O12  1  0.60789948  0.73785086  0.75108464  1
  O  O13  1  0.26214914  0.39210052  0.74891536  1
  O  O14  1  0.39210052  0.26214914  0.24891536  1
  O  O15  1  0.73785086  0.60789948  0.25108464  1
  Na  Na16  1  0.00000000  0.00000000  0.50000000  1
  Na  Na17  1  0.00000000  0.00000000  0.00000000  1
  K  K18  1  0.35568938  0.30276828  0.91582575  1
  K  K19  1  0.69723172  0.64431062  0.58417425  1
  K  K20  1  0.06467488  0.93532512  0.75000000  1
  K  K21  1  0.93532512  0.06467488  0.25000000  1
  K  K22  1  0.30276828  0.35568938  0.41582575  1
  K  K23  1  0.64431062  0.69723172  0.08417425  1
  Ru  Ru24  1  0.68575233  0.63760859  0.86005539  1
  Ru  Ru25  1  0.36239141  0.31424767  0.63994461  1
  Ru  Ru26  1  0.31424767  0.36239141  0.13994461  1
  Ru  Ru27  1  0.63760859  0.68575233  0.36005539  1
