# generated using pymatgen
data_Li2YPCO7
_symmetry_space_group_name_H-M   'P 1'
_cell_length_a   9.08642008
_cell_length_b   6.80625427
_cell_length_c   4.91531415
_cell_angle_alpha   90.00000000
_cell_angle_beta   86.90790572
_cell_angle_gamma   90.00000000
_symmetry_Int_Tables_number   1
_chemical_formula_structural   Li2YPCO7
_chemical_formula_sum   'Li4 Y2 P2 C2 O14'
_cell_volume   303.54250935
_cell_formula_units_Z   2
loop_
 _symmetry_equiv_pos_site_id
 _symmetry_equiv_pos_as_xyz
  1  'x, y, z'
loop_
 _atom_site_type_symbol
 _atom_site_label
 _atom_site_symmetry_multiplicity
 _atom_site_fract_x
 _atom_site_fract_y
 _atom_site_fract_z
 _atom_site_occupancy
  Li  Li0  1  0.20243760  0.47917798  0.20116875  1
  Li  Li1  1  0.20243760  0.02082202  0.20116875  1
  Li  Li2  1  0.79756240  0.52082202  0.79883125  1
  Li  Li3  1  0.79756240  0.97917798  0.79883125  1
  Y  Y4  1  0.36268165  0.75000000  0.74527625  1
  Y  Y5  1  0.63731835  0.25000000  0.25472375  1
  P  P6  1  0.40749310  0.25000000  0.72367386  1
  P  P7  1  0.59250690  0.75000000  0.27632614  1
  C  C8  1  0.05985363  0.75000000  0.73994692  1
  C  C9  1  0.94014637  0.25000000  0.26005308  1
  O  O10  1  0.07983957  0.25000000  0.27615805  1
  O  O11  1  0.12318116  0.75000000  0.97393978  1
  O  O12  1  0.15000451  0.75000000  0.52108631  1
  O  O13  1  0.33787210  0.06578089  0.86118746  1
  O  O14  1  0.33787210  0.43421911  0.86118746  1
  O  O15  1  0.42037905  0.75000000  0.24505158  1
  O  O16  1  0.39087200  0.25000000  0.41111656  1
  O  O17  1  0.60912800  0.75000000  0.58888344  1
  O  O18  1  0.57962095  0.25000000  0.75494842  1
  O  O19  1  0.66212790  0.56578089  0.13881254  1
  O  O20  1  0.66212790  0.93421911  0.13881254  1
  O  O21  1  0.84999549  0.25000000  0.47891369  1
  O  O22  1  0.87681884  0.25000000  0.02606022  1
  O  O23  1  0.92016043  0.75000000  0.72384195  1
