# generated using pymatgen
data_BaCu2GeS4
_symmetry_space_group_name_H-M   'P 1'
_cell_length_a   6.27703298
_cell_length_b   6.27703298
_cell_length_c   15.55798258
_cell_angle_alpha   90.00000000
_cell_angle_beta   90.00000000
_cell_angle_gamma   120.00000001
_symmetry_Int_Tables_number   1
_chemical_formula_structural   BaCu2GeS4
_chemical_formula_sum   'Ba3 Cu6 Ge3 S12'
_cell_volume   530.87556161
_cell_formula_units_Z   3
loop_
 _symmetry_equiv_pos_site_id
 _symmetry_equiv_pos_as_xyz
  1  'x, y, z'
loop_
 _atom_site_type_symbol
 _atom_site_label
 _atom_site_symmetry_multiplicity
 _atom_site_fract_x
 _atom_site_fract_y
 _atom_site_fract_z
 _atom_site_occupancy
  S  S0  1  0.09630655  0.33437242  0.74904014  1
  S  S1  1  0.23806587  0.90369345  0.41570680  1
  S  S2  1  0.66562758  0.76193413  0.08237347  1
  S  S3  1  0.42864328  0.99890154  0.75243211  1
  S  S4  1  0.57025826  0.57135672  0.41909877  1
  S  S5  1  0.00109846  0.42974174  0.08576544  1
  S  S6  1  0.28637118  0.13456168  0.96972453  1
  S  S7  1  0.84819050  0.71362882  0.63639120  1
  S  S8  1  0.38025121  0.18142064  0.19837571  1
  S  S9  1  0.80116943  0.61974879  0.86504238  1
  S  S10  1  0.81857936  0.19883057  0.53170904  1
  S  S11  1  0.86543832  0.15180950  0.30305787  1
  Cu  Cu12  1  0.68766829  0.09008061  0.16168668  1
  Cu  Cu13  1  0.26440864  0.24347859  0.33963678  1
  Cu  Cu14  1  0.75652141  0.02093005  0.67297011  1
  Cu  Cu15  1  0.40241231  0.31233171  0.82835335  1
  Cu  Cu16  1  0.90991939  0.59758769  0.49502001  1
  Cu  Cu17  1  0.97906995  0.73559136  0.00630344  1
  Ge  Ge18  1  0.04417987  0.66666160  0.75072325  1
  Ge  Ge19  1  0.33333840  0.37751828  0.08405658  1
  Ge  Ge20  1  0.62248172  0.95582013  0.41738991  1
  Ba  Ba21  1  0.76522982  0.09855086  0.91741415  1
  Ba  Ba22  1  0.33332105  0.23477018  0.58408081  1
  Ba  Ba23  1  0.90144914  0.66667895  0.25074748  1
