# generated using pymatgen
data_Na2Te2O7
_symmetry_space_group_name_H-M   'P 1'
_cell_length_a   7.36051365
_cell_length_b   7.36732246
_cell_length_c   7.36732246
_cell_angle_alpha   61.88341882
_cell_angle_beta   60.03056723
_cell_angle_gamma   60.03056725
_symmetry_Int_Tables_number   1
_chemical_formula_structural   Na2Te2O7
_chemical_formula_sum   'Na4 Te4 O14'
_cell_volume   286.43191532
_cell_formula_units_Z   2
loop_
 _symmetry_equiv_pos_site_id
 _symmetry_equiv_pos_as_xyz
  1  'x, y, z'
loop_
 _atom_site_type_symbol
 _atom_site_label
 _atom_site_symmetry_multiplicity
 _atom_site_fract_x
 _atom_site_fract_y
 _atom_site_fract_z
 _atom_site_occupancy
  O  O0  1  0.67109509  0.18841201  0.05325813  1
  O  O1  1  0.91276523  0.81158799  0.94674187  1
  O  O2  1  0.82890491  0.44674187  0.31158799  1
  O  O3  1  0.58723477  0.55325813  0.68841201  1
  O  O4  1  0.32890491  0.81158799  0.94674187  1
  O  O5  1  0.08723477  0.18841201  0.05325813  1
  O  O6  1  0.17109509  0.55325813  0.68841201  1
  O  O7  1  0.41276523  0.44674187  0.31158799  1
  O  O8  1  0.25000000  0.40706089  0.09293911  1
  O  O9  1  0.75000000  0.59293911  0.90706089  1
  O  O10  1  0.08199140  0.13568332  0.70033389  1
  O  O11  1  0.91800860  0.86431668  0.29966611  1
  O  O12  1  0.41800860  0.79966611  0.36431668  1
  O  O13  1  0.58199140  0.20033389  0.63568332  1
  Na  Na14  1  0.00000000  0.50000000  0.50000000  1
  Na  Na15  1  0.50000000  0.00000000  0.00000000  1
  Na  Na16  1  0.50000000  0.00000000  0.50000000  1
  Na  Na17  1  0.00000000  0.00000000  0.50000000  1
  Te  Te18  1  0.00000000  0.00000000  0.00000000  1
  Te  Te19  1  0.50000000  0.50000000  0.50000000  1
  Te  Te20  1  0.50000000  0.50000000  0.00000000  1
  Te  Te21  1  0.00000000  0.50000000  0.00000000  1
