# generated using pymatgen
data_BaSm2O4
_symmetry_space_group_name_H-M   'P 1'
_cell_length_a   3.57912075
_cell_length_b   10.66366553
_cell_length_c   12.46490073
_cell_angle_alpha   90.00000000
_cell_angle_beta   90.00000000
_cell_angle_gamma   90.00000000
_symmetry_Int_Tables_number   1
_chemical_formula_structural   BaSm2O4
_chemical_formula_sum   'Ba4 Sm8 O16'
_cell_volume   475.74221420
_cell_formula_units_Z   4
loop_
 _symmetry_equiv_pos_site_id
 _symmetry_equiv_pos_as_xyz
  1  'x, y, z'
loop_
 _atom_site_type_symbol
 _atom_site_label
 _atom_site_symmetry_multiplicity
 _atom_site_fract_x
 _atom_site_fract_y
 _atom_site_fract_z
 _atom_site_occupancy
  O  O0  1  0.25000000  0.07116667  0.07525539  1
  O  O1  1  0.75000000  0.92883333  0.92474461  1
  O  O2  1  0.25000000  0.57116667  0.42474461  1
  O  O3  1  0.75000000  0.42883333  0.57525539  1
  O  O4  1  0.25000000  0.98266863  0.71724624  1
  O  O5  1  0.75000000  0.01733137  0.28275376  1
  O  O6  1  0.25000000  0.48266863  0.78275376  1
  O  O7  1  0.75000000  0.51733137  0.21724624  1
  O  O8  1  0.25000000  0.38101836  0.01889190  1
  O  O9  1  0.75000000  0.61898164  0.98110810  1
  O  O10  1  0.25000000  0.88101836  0.48110810  1
  O  O11  1  0.75000000  0.11898164  0.51889190  1
  O  O12  1  0.75000000  0.21031149  0.83465582  1
  O  O13  1  0.25000000  0.78968851  0.16534418  1
  O  O14  1  0.75000000  0.71031149  0.66534418  1
  O  O15  1  0.25000000  0.28968851  0.33465582  1
  Ba  Ba16  1  0.75000000  0.75241409  0.35228062  1
  Ba  Ba17  1  0.25000000  0.24758591  0.64771938  1
  Ba  Ba18  1  0.75000000  0.25241409  0.14771938  1
  Ba  Ba19  1  0.25000000  0.74758591  0.85228062  1
  Sm  Sm20  1  0.25000000  0.07658542  0.88865971  1
  Sm  Sm21  1  0.75000000  0.92341458  0.11134029  1
  Sm  Sm22  1  0.25000000  0.57658542  0.61134029  1
  Sm  Sm23  1  0.75000000  0.42341458  0.38865971  1
  Sm  Sm24  1  0.75000000  0.42313644  0.88900413  1
  Sm  Sm25  1  0.25000000  0.57686356  0.11099587  1
  Sm  Sm26  1  0.75000000  0.92313644  0.61099587  1
  Sm  Sm27  1  0.25000000  0.07686356  0.38900413  1
