# generated using pymatgen
data_V3F10
_symmetry_space_group_name_H-M   'P 1'
_cell_length_a   3.94759532
_cell_length_b   5.87961702
_cell_length_c   15.57761817
_cell_angle_alpha   90.00000000
_cell_angle_beta   89.41583625
_cell_angle_gamma   90.00000000
_symmetry_Int_Tables_number   1
_chemical_formula_structural   V3F10
_chemical_formula_sum   'V6 F20'
_cell_volume   361.54315684
_cell_formula_units_Z   2
loop_
 _symmetry_equiv_pos_site_id
 _symmetry_equiv_pos_as_xyz
  1  'x, y, z'
loop_
 _atom_site_type_symbol
 _atom_site_label
 _atom_site_symmetry_multiplicity
 _atom_site_fract_x
 _atom_site_fract_y
 _atom_site_fract_z
 _atom_site_occupancy
  V  V0  1  0.01084091  0.05831810  0.99834930  1
  V  V1  1  0.00701861  0.03408899  0.29260968  1
  V  V2  1  0.01746964  0.49776412  0.13807886  1
  V  V3  1  0.01084091  0.94168190  0.49834930  1
  V  V4  1  0.00701861  0.96591101  0.79260968  1
  V  V5  1  0.01746964  0.50223588  0.63807886  1
  F  F6  1  0.00718942  0.77193392  0.06285527  1
  F  F7  1  0.00718942  0.22806608  0.56285527  1
  F  F8  1  0.02792281  0.76676005  0.21726206  1
  F  F9  1  0.02538271  0.36629336  0.25065940  1
  F  F10  1  0.03100911  0.18651036  0.40462384  1
  F  F11  1  0.02792281  0.23323995  0.71726206  1
  F  F12  1  0.02538271  0.63370664  0.75065940  1
  F  F13  1  0.03100911  0.81348964  0.90462384  1
  F  F14  1  0.05465320  0.39625520  0.01774800  1
  F  F15  1  0.05465320  0.60374480  0.51774800  1
  F  F16  1  0.51228593  0.04220805  0.28468391  1
  F  F17  1  0.51963986  0.50174885  0.13855936  1
  F  F18  1  0.51110364  0.94468274  0.49846344  1
  F  F19  1  0.51228593  0.95779195  0.78468391  1
  F  F20  1  0.51963986  0.49825115  0.63855936  1
  F  F21  1  0.51110364  0.05531726  0.99846344  1
  F  F22  1  0.97437036  0.15141297  0.12703308  1
  F  F23  1  0.97437036  0.84858703  0.62703308  1
  F  F24  1  0.98938681  0.79283157  0.38298480  1
  F  F25  1  0.98938681  0.20716843  0.88298480  1
