# generated using pymatgen
data_TiTl2O3
_symmetry_space_group_name_H-M   'P 1'
_cell_length_a   3.86939203
_cell_length_b   9.89231650
_cell_length_c   12.79130501
_cell_angle_alpha   90.00000000
_cell_angle_beta   90.00000000
_cell_angle_gamma   90.00000000
_symmetry_Int_Tables_number   1
_chemical_formula_structural   TiTl2O3
_chemical_formula_sum   'Ti4 Tl8 O12'
_cell_volume   489.61598767
_cell_formula_units_Z   4
loop_
 _symmetry_equiv_pos_site_id
 _symmetry_equiv_pos_as_xyz
  1  'x, y, z'
loop_
 _atom_site_type_symbol
 _atom_site_label
 _atom_site_symmetry_multiplicity
 _atom_site_fract_x
 _atom_site_fract_y
 _atom_site_fract_z
 _atom_site_occupancy
  O  O0  1  0.25000000  0.02463090  0.44257953  1
  O  O1  1  0.75000000  0.97536910  0.55742047  1
  O  O2  1  0.75000000  0.52463090  0.05742047  1
  O  O3  1  0.25000000  0.47536910  0.94257953  1
  O  O4  1  0.25000000  0.40108046  0.19587406  1
  O  O5  1  0.75000000  0.59891954  0.80412594  1
  O  O6  1  0.75000000  0.90108046  0.30412594  1
  O  O7  1  0.75000000  0.30007111  0.84854242  1
  O  O8  1  0.75000000  0.19992889  0.34854242  1
  O  O9  1  0.25000000  0.80007111  0.65145758  1
  O  O10  1  0.25000000  0.69992889  0.15145758  1
  O  O11  1  0.25000000  0.09891954  0.69587406  1
  Ti  Ti12  1  0.75000000  0.47023973  0.90430918  1
  Ti  Ti13  1  0.25000000  0.97023973  0.59569082  1
  Ti  Ti14  1  0.25000000  0.52976027  0.09569082  1
  Ti  Ti15  1  0.75000000  0.02976027  0.40430918  1
  Tl  Tl16  1  0.25000000  0.73460520  0.34475579  1
  Tl  Tl17  1  0.25000000  0.76539480  0.84475579  1
  Tl  Tl18  1  0.75000000  0.23460520  0.15524421  1
  Tl  Tl19  1  0.75000000  0.26539480  0.65524421  1
  Tl  Tl20  1  0.25000000  0.35628118  0.39591567  1
  Tl  Tl21  1  0.75000000  0.64371882  0.60408433  1
  Tl  Tl22  1  0.75000000  0.85628118  0.10408433  1
  Tl  Tl23  1  0.25000000  0.14371882  0.89591567  1
