# generated using pymatgen
data_UGeRh
_symmetry_space_group_name_H-M   'P 1'
_cell_length_a   4.50008917
_cell_length_b   6.40614974
_cell_length_c   7.70805247
_cell_angle_alpha   90.00000000
_cell_angle_beta   90.00000000
_cell_angle_gamma   90.00000000
_symmetry_Int_Tables_number   1
_chemical_formula_structural   UGeRh
_chemical_formula_sum   'U4 Ge4 Rh4'
_cell_volume   222.20962559
_cell_formula_units_Z   4
loop_
 _symmetry_equiv_pos_site_id
 _symmetry_equiv_pos_as_xyz
  1  'x, y, z'
loop_
 _atom_site_type_symbol
 _atom_site_label
 _atom_site_symmetry_multiplicity
 _atom_site_fract_x
 _atom_site_fract_y
 _atom_site_fract_z
 _atom_site_occupancy
  Ge  Ge0  1  0.25000000  0.30568380  0.91451585  1
  Ge  Ge1  1  0.75000000  0.69431620  0.08548415  1
  Ge  Ge2  1  0.25000000  0.80568380  0.58548415  1
  Ge  Ge3  1  0.75000000  0.19431620  0.41451585  1
  Rh  Rh4  1  0.75000000  0.77333548  0.41953021  1
  Rh  Rh5  1  0.25000000  0.22666452  0.58046979  1
  Rh  Rh6  1  0.75000000  0.27333548  0.08046979  1
  Rh  Rh7  1  0.25000000  0.72666452  0.91953021  1
  U  U8  1  0.25000000  0.48934592  0.28891878  1
  U  U9  1  0.75000000  0.51065408  0.71108122  1
  U  U10  1  0.25000000  0.98934592  0.21108122  1
  U  U11  1  0.75000000  0.01065408  0.78891878  1
