# generated using pymatgen
data_K2Se5
_symmetry_space_group_name_H-M   'P 1'
_cell_length_a   6.67338810
_cell_length_b   6.94830925
_cell_length_c   19.81257091
_cell_angle_alpha   90.00000000
_cell_angle_beta   90.00000000
_cell_angle_gamma   90.00000000
_symmetry_Int_Tables_number   1
_chemical_formula_structural   K2Se5
_chemical_formula_sum   'K8 Se20'
_cell_volume   918.68442999
_cell_formula_units_Z   4
loop_
 _symmetry_equiv_pos_site_id
 _symmetry_equiv_pos_as_xyz
  1  'x, y, z'
loop_
 _atom_site_type_symbol
 _atom_site_label
 _atom_site_symmetry_multiplicity
 _atom_site_fract_x
 _atom_site_fract_y
 _atom_site_fract_z
 _atom_site_occupancy
  K  K0  1  0.85177229  0.06786001  0.50699393  1
  K  K1  1  0.35177229  0.43213999  0.49300607  1
  K  K2  1  0.14822771  0.56786001  0.99300607  1
  K  K3  1  0.64822771  0.93213999  0.00699393  1
  K  K4  1  0.08715657  0.82429271  0.31865923  1
  K  K5  1  0.58715657  0.67570729  0.68134077  1
  K  K6  1  0.91284343  0.32429271  0.18134077  1
  K  K7  1  0.41284343  0.17570729  0.81865923  1
  Se  Se8  1  0.46521023  0.72759066  0.19159687  1
  Se  Se9  1  0.96521023  0.77240934  0.80840313  1
  Se  Se10  1  0.53478977  0.22759066  0.30840313  1
  Se  Se11  1  0.03478977  0.27240934  0.69159687  1
  Se  Se12  1  0.24144252  0.93205238  0.12930038  1
  Se  Se13  1  0.74144252  0.56794762  0.87069962  1
  Se  Se14  1  0.75855748  0.43205238  0.37069962  1
  Se  Se15  1  0.25855748  0.06794762  0.62930038  1
  Se  Se16  1  0.90340744  0.83413844  0.15640864  1
  Se  Se17  1  0.40340744  0.66586156  0.84359136  1
  Se  Se18  1  0.09659256  0.33413844  0.34359136  1
  Se  Se19  1  0.59659256  0.16586156  0.65640864  1
  Se  Se20  1  0.06598765  0.58364887  0.63735394  1
  Se  Se21  1  0.56598765  0.91635113  0.36264606  1
  Se  Se22  1  0.93401235  0.08364887  0.86264606  1
  Se  Se23  1  0.43401235  0.41635113  0.13735394  1
  Se  Se24  1  0.87905470  0.57339526  0.53615086  1
  Se  Se25  1  0.37905470  0.92660474  0.46384914  1
  Se  Se26  1  0.12094530  0.07339526  0.96384914  1
  Se  Se27  1  0.62094530  0.42660474  0.03615086  1
