# generated using pymatgen
data_Cs2Hg6S7
_symmetry_space_group_name_H-M   'P 1'
_cell_length_a   4.26229197
_cell_length_b   14.35970698
_cell_length_c   14.35970698
_cell_angle_alpha   90.00000000
_cell_angle_beta   90.00000000
_cell_angle_gamma   90.00000000
_symmetry_Int_Tables_number   1
_chemical_formula_structural   Cs2Hg6S7
_chemical_formula_sum   'Cs4 Hg12 S14'
_cell_volume   878.88965312
_cell_formula_units_Z   2
loop_
 _symmetry_equiv_pos_site_id
 _symmetry_equiv_pos_as_xyz
  1  'x, y, z'
loop_
 _atom_site_type_symbol
 _atom_site_label
 _atom_site_symmetry_multiplicity
 _atom_site_fract_x
 _atom_site_fract_y
 _atom_site_fract_z
 _atom_site_occupancy
  S  S0  1  0.71154529  0.81849398  0.81849398  1
  S  S1  1  0.21154529  0.68150602  0.31849398  1
  S  S2  1  0.21154529  0.31849398  0.68150602  1
  S  S3  1  0.71154529  0.18150602  0.18150602  1
  S  S4  1  0.49682755  0.50000000  0.50000000  1
  S  S5  1  0.99682755  0.00000000  0.00000000  1
  S  S6  1  0.22348598  0.69072259  0.02442395  1
  S  S7  1  0.22348598  0.30927741  0.97557605  1
  S  S8  1  0.72348598  0.52442395  0.80927741  1
  S  S9  1  0.72348598  0.47557605  0.19072259  1
  S  S10  1  0.22348598  0.97557605  0.30927741  1
  S  S11  1  0.72348598  0.19072259  0.47557605  1
  S  S12  1  0.22348598  0.02442395  0.69072259  1
  S  S13  1  0.72348598  0.80927741  0.52442395  1
  Cs  Cs14  1  0.72198342  0.82964385  0.17035615  1
  Cs  Cs15  1  0.22198342  0.67035615  0.67035615  1
  Cs  Cs16  1  0.22198342  0.32964385  0.32964385  1
  Cs  Cs17  1  0.72198342  0.17035615  0.82964385  1
  Hg  Hg18  1  0.31500167  0.90207345  0.90207345  1
  Hg  Hg19  1  0.81500167  0.59792655  0.40207345  1
  Hg  Hg20  1  0.81500167  0.40207345  0.59792655  1
  Hg  Hg21  1  0.31500167  0.09792655  0.09792655  1
  Hg  Hg22  1  0.22333195  0.57163146  0.15448780  1
  Hg  Hg23  1  0.22333195  0.42836854  0.84551220  1
  Hg  Hg24  1  0.72333195  0.65448780  0.92836854  1
  Hg  Hg25  1  0.72333195  0.34551220  0.07163146  1
  Hg  Hg26  1  0.22333195  0.84551220  0.42836854  1
  Hg  Hg27  1  0.72333195  0.07163146  0.34551220  1
  Hg  Hg28  1  0.72333195  0.92836854  0.65448780  1
  Hg  Hg29  1  0.22333195  0.15448780  0.57163146  1
