# generated using pymatgen
data_Ti2InNi2
_symmetry_space_group_name_H-M   'P 1'
_cell_length_a   6.23899598
_cell_length_b   6.94585488
_cell_length_c   6.94585488
_cell_angle_alpha   90.00000000
_cell_angle_beta   90.00000000
_cell_angle_gamma   90.00000000
_symmetry_Int_Tables_number   1
_chemical_formula_structural   Ti2InNi2
_chemical_formula_sum   'Ti8 In4 Ni8'
_cell_volume   300.99973724
_cell_formula_units_Z   4
loop_
 _symmetry_equiv_pos_site_id
 _symmetry_equiv_pos_as_xyz
  1  'x, y, z'
loop_
 _atom_site_type_symbol
 _atom_site_label
 _atom_site_symmetry_multiplicity
 _atom_site_fract_x
 _atom_site_fract_y
 _atom_site_fract_z
 _atom_site_occupancy
  Ti  Ti0  1  0.00000000  0.17626192  0.17626192  1
  Ti  Ti1  1  0.50000000  0.32373808  0.67626192  1
  Ti  Ti2  1  0.50000000  0.67626192  0.32373808  1
  Ti  Ti3  1  0.00000000  0.82373808  0.82373808  1
  Ti  Ti4  1  0.00000000  0.34852224  0.65147776  1
  Ti  Ti5  1  0.50000000  0.84852224  0.84852224  1
  Ti  Ti6  1  0.50000000  0.15147776  0.15147776  1
  Ti  Ti7  1  0.00000000  0.65147776  0.34852224  1
  Ni  Ni8  1  0.27985664  0.37349584  0.37349584  1
  Ni  Ni9  1  0.77985664  0.12650416  0.87349584  1
  Ni  Ni10  1  0.77985664  0.87349584  0.12650416  1
  Ni  Ni11  1  0.27985664  0.62650416  0.62650416  1
  Ni  Ni12  1  0.22014336  0.87349584  0.12650416  1
  Ni  Ni13  1  0.22014336  0.12650416  0.87349584  1
  Ni  Ni14  1  0.72014336  0.37349584  0.37349584  1
  Ni  Ni15  1  0.72014336  0.62650416  0.62650416  1
  In  In16  1  0.25000000  0.00000000  0.50000000  1
  In  In17  1  0.75000000  0.00000000  0.50000000  1
  In  In18  1  0.25000000  0.50000000  0.00000000  1
  In  In19  1  0.75000000  0.50000000  0.00000000  1
