# generated using pymatgen
data_Li3Fe4(PO4)6
_symmetry_space_group_name_H-M   'P 1'
_cell_length_a   8.64030523
_cell_length_b   8.83092874
_cell_length_c   8.72625777
_cell_angle_alpha   60.35242444
_cell_angle_beta   59.98166555
_cell_angle_gamma   89.75255287
_symmetry_Int_Tables_number   1
_chemical_formula_structural   Li3Fe4(PO4)6
_chemical_formula_sum   'Li3 Fe4 P6 O24'
_cell_volume   474.16720748
_cell_formula_units_Z   1
loop_
 _symmetry_equiv_pos_site_id
 _symmetry_equiv_pos_as_xyz
  1  'x, y, z'
loop_
 _atom_site_type_symbol
 _atom_site_label
 _atom_site_symmetry_multiplicity
 _atom_site_fract_x
 _atom_site_fract_y
 _atom_site_fract_z
 _atom_site_occupancy
  Li  Li0  1  0.34727992  0.55482305  0.61665970  1
  Li  Li1  1  0.03093366  0.05018980  0.60523871  1
  Li  Li2  1  0.74129261  0.34294542  0.36124869  1
  Fe  Fe3  1  0.35209224  0.07094044  0.79985322  1
  Fe  Fe4  1  0.85414157  0.56893884  0.78840957  1
  Fe  Fe5  1  0.64795447  0.93386718  0.20199638  1
  Fe  Fe6  1  0.15601641  0.43542584  0.20106695  1
  P  P7  1  0.53132127  0.74149934  0.71777400  1
  P  P8  1  0.24682344  0.75602377  0.28471484  1
  P  P9  1  0.75558139  0.24140728  0.71709885  1
  P  P10  1  0.04105155  0.25851170  0.99629681  1
  P  P11  1  0.47463132  0.25540944  0.28090112  1
  P  P12  1  0.95542421  0.75254102  0.00258754  1
  O  O13  1  0.12100339  0.92802306  0.87312873  1
  O  O14  1  0.02747040  0.44573093  0.84563315  1
  O  O15  1  0.49053454  0.89873229  0.74498528  1
  O  O16  1  0.05875094  0.72815658  0.48012293  1
  O  O17  1  0.37048419  0.55530403  0.90346063  1
  O  O18  1  0.23437311  0.26256058  0.83007308  1
  O  O19  1  0.28890857  0.94397225  0.09193743  1
  O  O20  1  0.54798894  0.77216953  0.51860913  1
  O  O21  1  0.72345978  0.74026111  0.69107808  1
  O  O22  1  0.94708802  0.76524770  0.82152478  1
  O  O23  1  0.39904874  0.74902269  0.33028983  1
  O  O24  1  0.23670278  0.60332988  0.24937733  1
  O  O25  1  0.75940162  0.39943938  0.74619790  1
  O  O26  1  0.03760957  0.25775303  0.17619889  1
  O  O27  1  0.59921100  0.24116171  0.67805337  1
  O  O28  1  0.27733550  0.25710793  0.32519948  1
  O  O29  1  0.72606620  0.05395556  0.90277166  1
  O  O30  1  0.47422869  0.21845117  0.47432441  1
  O  O31  1  0.76764164  0.74753952  0.17512260  1
  O  O32  1  0.63518615  0.44207211  0.09134731  1
  O  O33  1  0.93879046  0.27231299  0.51652263  1
  O  O34  1  0.50681319  0.09968904  0.24708513  1
  O  O35  1  0.97861112  0.56863466  0.13701453  1
  O  O36  1  0.87782843  0.08949313  0.11347035  1
