# generated using pymatgen
data_PdS
_symmetry_space_group_name_H-M   'P 1'
_cell_length_a   6.52435688
_cell_length_b   6.52435688
_cell_length_c   6.68765987
_cell_angle_alpha   90.00000000
_cell_angle_beta   90.00000000
_cell_angle_gamma   90.00000000
_symmetry_Int_Tables_number   1
_chemical_formula_structural   PdS
_chemical_formula_sum   'Pd8 S8'
_cell_volume   284.67517389
_cell_formula_units_Z   8
loop_
 _symmetry_equiv_pos_site_id
 _symmetry_equiv_pos_as_xyz
  1  'x, y, z'
loop_
 _atom_site_type_symbol
 _atom_site_label
 _atom_site_symmetry_multiplicity
 _atom_site_fract_x
 _atom_site_fract_y
 _atom_site_fract_z
 _atom_site_occupancy
  S  S0  1  0.19344710  0.30732394  0.77229260  1
  S  S1  1  0.69267606  0.19344710  0.27229260  1
  S  S2  1  0.30732394  0.80655290  0.27229260  1
  S  S3  1  0.80655290  0.69267606  0.77229260  1
  S  S4  1  0.80655290  0.69267606  0.22770740  1
  S  S5  1  0.30732394  0.80655290  0.72770740  1
  S  S6  1  0.69267606  0.19344710  0.72770740  1
  S  S7  1  0.19344710  0.30732394  0.22770740  1
  Pd  Pd8  1  0.53027257  0.74243314  0.00000000  1
  Pd  Pd9  1  0.25756686  0.53027257  0.50000000  1
  Pd  Pd10  1  0.74243314  0.46972743  0.50000000  1
  Pd  Pd11  1  0.46972743  0.25756686  0.00000000  1
  Pd  Pd12  1  0.00000000  0.00000000  0.75000000  1
  Pd  Pd13  1  0.00000000  0.00000000  0.25000000  1
  Pd  Pd14  1  0.50000000  0.00000000  0.50000000  1
  Pd  Pd15  1  0.00000000  0.50000000  0.00000000  1
