# generated using pymatgen
data_Li4Nb3V3(SnO8)2
_symmetry_space_group_name_H-M   'P 1'
_cell_length_a   6.09485697
_cell_length_b   6.05321994
_cell_length_c   10.14552999
_cell_angle_alpha   90.00024563
_cell_angle_beta   89.74073616
_cell_angle_gamma   119.76995779
_symmetry_Int_Tables_number   1
_chemical_formula_structural   Li4Nb3V3(SnO8)2
_chemical_formula_sum   'Li4 Nb3 V3 Sn2 O16'
_cell_volume   324.90134362
_cell_formula_units_Z   1
loop_
 _symmetry_equiv_pos_site_id
 _symmetry_equiv_pos_as_xyz
  1  'x, y, z'
loop_
 _atom_site_type_symbol
 _atom_site_label
 _atom_site_symmetry_multiplicity
 _atom_site_fract_x
 _atom_site_fract_y
 _atom_site_fract_z
 _atom_site_occupancy
  Li  Li0  1  0.33459091  0.66733916  0.90347739  1
  Li  Li1  1  0.00751794  0.00376018  0.99075821  1
  Li  Li2  1  0.01101836  0.00549736  0.49096993  1
  Li  Li3  1  0.67231675  0.33614719  0.39088410  1
  Nb  Nb4  1  0.66273334  0.83143943  0.21719480  1
  Nb  Nb5  1  0.82130347  0.64045176  0.71347123  1
  Nb  Nb6  1  0.82129740  0.18087298  0.71347657  1
  V  V7  1  0.17160112  0.82048859  0.21275922  1
  V  V8  1  0.17159765  0.35110508  0.21278626  1
  V  V9  1  0.34877939  0.17440190  0.71323217  1
  Sn  Sn10  1  0.32384062  0.66190905  0.49009981  1
  Sn  Sn11  1  0.64887955  0.32450582  0.99637910  1
  O  O12  1  0.15435896  0.83181809  0.59893215  1
  O  O13  1  0.03988161  0.51982556  0.34440198  1
  O  O14  1  0.35506449  0.67741281  0.10005910  1
  O  O15  1  0.99804568  0.99907314  0.30746901  1
  O  O16  1  0.99605265  0.99803368  0.80674175  1
  O  O17  1  0.15434609  0.32252034  0.59892187  1
  O  O18  1  0.49289128  0.96642307  0.34099571  1
  O  O19  1  0.49293528  0.52652182  0.34095611  1
  O  O20  1  0.31280846  0.15647034  0.09814568  1
  O  O21  1  0.66921301  0.83460821  0.59691075  1
  O  O22  1  0.52599354  0.49584057  0.84398869  1
  O  O23  1  0.52600367  0.03022588  0.84401716  1
  O  O24  1  0.66472722  0.33238375  0.58543220  1
  O  O25  1  0.82704071  0.67063858  0.10211889  1
  O  O26  1  0.96812134  0.48407703  0.85111615  1
  O  O27  1  0.82703953  0.15650761  0.10214602  1
