# generated using pymatgen
data_K2Al2Sb3
_symmetry_space_group_name_H-M   'P 1'
_cell_length_a   7.34616282
_cell_length_b   14.93639608
_cell_length_c   16.90840118
_cell_angle_alpha   90.54169253
_cell_angle_beta   90.00000000
_cell_angle_gamma   90.00000000
_symmetry_Int_Tables_number   1
_chemical_formula_structural   K2Al2Sb3
_chemical_formula_sum   'K16 Al16 Sb24'
_cell_volume   1855.19474333
_cell_formula_units_Z   8
loop_
 _symmetry_equiv_pos_site_id
 _symmetry_equiv_pos_as_xyz
  1  'x, y, z'
loop_
 _atom_site_type_symbol
 _atom_site_label
 _atom_site_symmetry_multiplicity
 _atom_site_fract_x
 _atom_site_fract_y
 _atom_site_fract_z
 _atom_site_occupancy
  Al  Al0  1  0.28358503  0.68744902  0.82656556  1
  Al  Al1  1  0.78358503  0.31255098  0.67343444  1
  Al  Al2  1  0.71641497  0.31255098  0.17343444  1
  Al  Al3  1  0.21641497  0.68744902  0.32656556  1
  Al  Al4  1  0.78989340  0.09406089  0.73060682  1
  Al  Al5  1  0.28989340  0.90593911  0.76939318  1
  Al  Al6  1  0.21010660  0.90593911  0.26939318  1
  Al  Al7  1  0.71010660  0.09406089  0.23060682  1
  Al  Al8  1  0.76576827  0.81566388  0.82097600  1
  Al  Al9  1  0.26576827  0.18433612  0.67902400  1
  Al  Al10  1  0.23423173  0.18433612  0.17902400  1
  Al  Al11  1  0.73423173  0.81566388  0.32097600  1
  Al  Al12  1  0.76066816  0.59487570  0.76121483  1
  Al  Al13  1  0.26066816  0.40512430  0.73878517  1
  Al  Al14  1  0.23933184  0.40512430  0.23878517  1
  Al  Al15  1  0.73933184  0.59487570  0.26121483  1
  K  K16  1  0.97023683  0.14123376  0.99301607  1
  K  K17  1  0.47023683  0.85876624  0.50698393  1
  K  K18  1  0.02976317  0.85876624  0.00698393  1
  K  K19  1  0.52976317  0.14123376  0.49301607  1
  K  K20  1  0.54878494  0.65009718  0.01799927  1
  K  K21  1  0.04878494  0.34990282  0.48200073  1
  K  K22  1  0.45121506  0.34990282  0.98200073  1
  K  K23  1  0.95121506  0.65009718  0.51799927  1
  K  K24  1  0.53157466  0.92503884  0.10983979  1
  K  K25  1  0.03157466  0.07496116  0.39016021  1
  K  K26  1  0.46842534  0.07496116  0.89016021  1
  K  K27  1  0.96842534  0.92503884  0.60983979  1
  K  K28  1  0.94466927  0.44343016  0.89445231  1
  K  K29  1  0.44466927  0.55656984  0.60554769  1
  K  K30  1  0.05533073  0.55656984  0.10554769  1
  K  K31  1  0.55533073  0.44343016  0.39445231  1
  Sb  Sb32  1  0.96395145  0.97105450  0.82360640  1
  Sb  Sb33  1  0.46395145  0.02894550  0.67639360  1
  Sb  Sb34  1  0.03604855  0.02894550  0.17639360  1
  Sb  Sb35  1  0.53604855  0.97105450  0.32360640  1
  Sb  Sb36  1  0.45032380  0.83531836  0.90076442  1
  Sb  Sb37  1  0.95032380  0.16468164  0.59923558  1
  Sb  Sb38  1  0.54967620  0.16468164  0.09923558  1
  Sb  Sb39  1  0.04967620  0.83531836  0.40076442  1
  Sb  Sb40  1  0.94410721  0.67159392  0.88600670  1
  Sb  Sb41  1  0.44410721  0.32840608  0.61399330  1
  Sb  Sb42  1  0.05589279  0.32840608  0.11399330  1
  Sb  Sb43  1  0.55589279  0.67159392  0.38600670  1
  Sb  Sb44  1  0.82476758  0.74731735  0.17516968  1
  Sb  Sb45  1  0.32476758  0.25268265  0.32483032  1
  Sb  Sb46  1  0.17523242  0.25268265  0.82483032  1
  Sb  Sb47  1  0.67523242  0.74731735  0.67516968  1
  Sb  Sb48  1  0.45712212  0.52491620  0.83255515  1
  Sb  Sb49  1  0.95712212  0.47508380  0.66744485  1
  Sb  Sb50  1  0.54287788  0.47508380  0.16744485  1
  Sb  Sb51  1  0.04287788  0.52491620  0.33255515  1
  Sb  Sb52  1  0.22131604  0.75367855  0.17803286  1
  Sb  Sb53  1  0.72131604  0.24632145  0.32196714  1
  Sb  Sb54  1  0.77868396  0.24632145  0.82196714  1
  Sb  Sb55  1  0.27868396  0.75367855  0.67803286  1
