# generated using pymatgen
data_Ca2P2O7
_symmetry_space_group_name_H-M   'P 1'
_cell_length_a   5.44217919
_cell_length_b   8.53109679
_cell_length_c   12.92907455
_cell_angle_alpha   90.00000000
_cell_angle_beta   87.96986296
_cell_angle_gamma   90.00000000
_symmetry_Int_Tables_number   1
_chemical_formula_structural   Ca2P2O7
_chemical_formula_sum   'Ca8 P8 O28'
_cell_volume   599.89116825
_cell_formula_units_Z   4
loop_
 _symmetry_equiv_pos_site_id
 _symmetry_equiv_pos_as_xyz
  1  'x, y, z'
loop_
 _atom_site_type_symbol
 _atom_site_label
 _atom_site_symmetry_multiplicity
 _atom_site_fract_x
 _atom_site_fract_y
 _atom_site_fract_z
 _atom_site_occupancy
  O  O0  1  0.63387637  0.15390186  0.33821435  1
  O  O1  1  0.86612363  0.65390186  0.16178565  1
  O  O2  1  0.36612363  0.84609814  0.66178565  1
  O  O3  1  0.13387637  0.34609814  0.83821435  1
  O  O4  1  0.51396273  0.89524869  0.26664227  1
  O  O5  1  0.98603727  0.39524869  0.23335773  1
  O  O6  1  0.48603727  0.10475131  0.73335773  1
  O  O7  1  0.01396273  0.60475131  0.76664227  1
  O  O8  1  0.96081320  0.97283645  0.25234653  1
  O  O9  1  0.53918680  0.47283645  0.24765347  1
  O  O10  1  0.03918680  0.02716355  0.74765347  1
  O  O11  1  0.46081320  0.52716355  0.75234653  1
  O  O12  1  0.86282132  0.75156201  0.58552573  1
  O  O13  1  0.63717868  0.25156201  0.91447427  1
  O  O14  1  0.13717868  0.24843799  0.41447427  1
  O  O15  1  0.36282132  0.74843799  0.08552573  1
  O  O16  1  0.27247486  0.58616294  0.93101233  1
  O  O17  1  0.22752514  0.08616294  0.56898767  1
  O  O18  1  0.72752514  0.41383706  0.06898767  1
  O  O19  1  0.77247486  0.91383706  0.43101233  1
  O  O20  1  0.04811802  0.84753293  0.95685266  1
  O  O21  1  0.45188198  0.34753293  0.54314734  1
  O  O22  1  0.95188198  0.15246707  0.04314734  1
  O  O23  1  0.54811802  0.65246707  0.45685266  1
  O  O24  1  0.50079991  0.85289576  0.91266018  1
  O  O25  1  0.99920009  0.35289576  0.58733982  1
  O  O26  1  0.49920009  0.14710424  0.08733982  1
  O  O27  1  0.00079991  0.64710424  0.41266018  1
  P  P28  1  0.71956060  0.98632481  0.31831385  1
  P  P29  1  0.78043940  0.48632481  0.18168615  1
  P  P30  1  0.28043940  0.01367519  0.68168615  1
  P  P31  1  0.21956060  0.51367519  0.81831385  1
  P  P32  1  0.79235808  0.73626196  0.47292309  1
  P  P33  1  0.70764192  0.23626196  0.02707691  1
  P  P34  1  0.20764192  0.26373804  0.52707691  1
  P  P35  1  0.29235808  0.76373804  0.97292309  1
  Ca  Ca36  1  0.25338868  0.11272011  0.90997329  1
  Ca  Ca37  1  0.24661132  0.61272011  0.59002671  1
  Ca  Ca38  1  0.74661132  0.88727989  0.09002671  1
  Ca  Ca39  1  0.75338868  0.38727989  0.40997329  1
  Ca  Ca40  1  0.75541276  0.31742982  0.74282056  1
  Ca  Ca41  1  0.74458724  0.81742982  0.75717944  1
  Ca  Ca42  1  0.24458724  0.68257018  0.25717944  1
  Ca  Ca43  1  0.25541276  0.18257018  0.24282056  1
