# generated using pymatgen
data_Nd2TiO5
_symmetry_space_group_name_H-M   'P 1'
_cell_length_a   3.85837631
_cell_length_b   10.82526969
_cell_length_c   11.55630749
_cell_angle_alpha   90.00000000
_cell_angle_beta   90.00000000
_cell_angle_gamma   90.00000000
_symmetry_Int_Tables_number   1
_chemical_formula_structural   Nd2TiO5
_chemical_formula_sum   'Nd8 Ti4 O20'
_cell_volume   482.68343662
_cell_formula_units_Z   4
loop_
 _symmetry_equiv_pos_site_id
 _symmetry_equiv_pos_as_xyz
  1  'x, y, z'
loop_
 _atom_site_type_symbol
 _atom_site_label
 _atom_site_symmetry_multiplicity
 _atom_site_fract_x
 _atom_site_fract_y
 _atom_site_fract_z
 _atom_site_occupancy
  O  O0  1  0.25000000  0.47765670  0.15919827  1
  O  O1  1  0.75000000  0.52234330  0.84080173  1
  O  O2  1  0.25000000  0.97765670  0.34080173  1
  O  O3  1  0.75000000  0.02234330  0.65919827  1
  O  O4  1  0.25000000  0.23278907  0.27080412  1
  O  O5  1  0.75000000  0.76721093  0.72919588  1
  O  O6  1  0.25000000  0.73278907  0.22919588  1
  O  O7  1  0.75000000  0.26721093  0.77080412  1
  O  O8  1  0.75000000  0.26267501  0.12151809  1
  O  O9  1  0.25000000  0.73732499  0.87848191  1
  O  O10  1  0.75000000  0.76267501  0.37848191  1
  O  O11  1  0.25000000  0.23732499  0.62151809  1
  O  O12  1  0.25000000  0.00872137  0.89622886  1
  O  O13  1  0.75000000  0.99127863  0.10377114  1
  O  O14  1  0.25000000  0.50872137  0.60377114  1
  O  O15  1  0.75000000  0.49127863  0.39622886  1
  O  O16  1  0.25000000  0.27688424  0.96411653  1
  O  O17  1  0.75000000  0.72311576  0.03588347  1
  O  O18  1  0.25000000  0.77688424  0.53588347  1
  O  O19  1  0.75000000  0.22311576  0.46411653  1
  Ti  Ti20  1  0.25000000  0.31687728  0.12431054  1
  Ti  Ti21  1  0.75000000  0.68312272  0.87568946  1
  Ti  Ti22  1  0.25000000  0.81687728  0.37568946  1
  Ti  Ti23  1  0.75000000  0.18312272  0.62431054  1
  Nd  Nd24  1  0.75000000  0.10589116  0.27950433  1
  Nd  Nd25  1  0.25000000  0.89410884  0.72049567  1
  Nd  Nd26  1  0.75000000  0.60589116  0.22049567  1
  Nd  Nd27  1  0.25000000  0.39410884  0.77950433  1
  Nd  Nd28  1  0.25000000  0.36235970  0.44435330  1
  Nd  Nd29  1  0.75000000  0.63764030  0.55564670  1
  Nd  Nd30  1  0.25000000  0.86235970  0.05564670  1
  Nd  Nd31  1  0.75000000  0.13764030  0.94435330  1
