# generated using pymatgen
data_K3PS4
_symmetry_space_group_name_H-M   'P 1'
_cell_length_a   9.32127314
_cell_length_b   9.14396685
_cell_length_c   10.66343898
_cell_angle_alpha   90.00000000
_cell_angle_beta   90.00000000
_cell_angle_gamma   90.00000000
_symmetry_Int_Tables_number   1
_chemical_formula_structural   K3PS4
_chemical_formula_sum   'K12 P4 S16'
_cell_volume   908.88129423
_cell_formula_units_Z   4
loop_
 _symmetry_equiv_pos_site_id
 _symmetry_equiv_pos_as_xyz
  1  'x, y, z'
loop_
 _atom_site_type_symbol
 _atom_site_label
 _atom_site_symmetry_multiplicity
 _atom_site_fract_x
 _atom_site_fract_y
 _atom_site_fract_z
 _atom_site_occupancy
  P  P0  1  0.01936631  0.27795254  0.25000000  1
  P  P1  1  0.51936631  0.22204746  0.75000000  1
  P  P2  1  0.48063369  0.77795254  0.25000000  1
  P  P3  1  0.98063369  0.72204746  0.75000000  1
  S  S4  1  0.23893399  0.30642596  0.25000000  1
  S  S5  1  0.73893399  0.19357404  0.75000000  1
  S  S6  1  0.26106601  0.80642596  0.25000000  1
  S  S7  1  0.76106601  0.69357404  0.75000000  1
  S  S8  1  0.91885448  0.48007393  0.25000000  1
  S  S9  1  0.41885448  0.01992607  0.75000000  1
  S  S10  1  0.58114552  0.98007393  0.25000000  1
  S  S11  1  0.08114552  0.51992607  0.75000000  1
  S  S12  1  0.96244992  0.16553112  0.09035960  1
  S  S13  1  0.46244992  0.33446888  0.90964040  1
  S  S14  1  0.53755008  0.66553112  0.40964040  1
  S  S15  1  0.03755008  0.83446888  0.59035960  1
  S  S16  1  0.03755008  0.83446888  0.90964040  1
  S  S17  1  0.53755008  0.66553112  0.09035960  1
  S  S18  1  0.46244992  0.33446888  0.59035960  1
  S  S19  1  0.96244992  0.16553112  0.40964040  1
  K  K20  1  0.57907059  0.36007839  0.25000000  1
  K  K21  1  0.07907059  0.13992161  0.75000000  1
  K  K22  1  0.92092941  0.86007839  0.25000000  1
  K  K23  1  0.42092941  0.63992161  0.75000000  1
  K  K24  1  0.20227513  0.55507082  0.04450600  1
  K  K25  1  0.70227513  0.94492918  0.95549400  1
  K  K26  1  0.29772487  0.05507082  0.45549400  1
  K  K27  1  0.79772487  0.44492918  0.54450600  1
  K  K28  1  0.79772487  0.44492918  0.95549400  1
  K  K29  1  0.29772487  0.05507082  0.04450600  1
  K  K30  1  0.70227513  0.94492918  0.54450600  1
  K  K31  1  0.20227513  0.55507082  0.45549400  1
