# generated using pymatgen
data_Ba3In2O6
_symmetry_space_group_name_H-M   'P 1'
_cell_length_a   4.25767041
_cell_length_b   4.25767040
_cell_length_c   11.39620641
_cell_angle_alpha   100.76621652
_cell_angle_beta   100.76621647
_cell_angle_gamma   90.00000005
_symmetry_Int_Tables_number   1
_chemical_formula_structural   Ba3In2O6
_chemical_formula_sum   'Ba3 In2 O6'
_cell_volume   199.24841558
_cell_formula_units_Z   1
loop_
 _symmetry_equiv_pos_site_id
 _symmetry_equiv_pos_as_xyz
  1  'x, y, z'
loop_
 _atom_site_type_symbol
 _atom_site_label
 _atom_site_symmetry_multiplicity
 _atom_site_fract_x
 _atom_site_fract_y
 _atom_site_fract_z
 _atom_site_occupancy
  O  O0  1  0.80137650  0.80137650  0.60275301  1
  O  O1  1  0.19862350  0.19862350  0.39724699  1
  O  O2  1  0.91608708  0.41608708  0.83217415  1
  O  O3  1  0.41608708  0.91608708  0.83217415  1
  O  O4  1  0.08391292  0.58391292  0.16782585  1
  O  O5  1  0.58391292  0.08391292  0.16782585  1
  In  In6  1  0.89716341  0.89716341  0.79432681  1
  In  In7  1  0.10283659  0.10283659  0.20567319  1
  Ba  Ba8  1  0.68302095  0.68302095  0.36604190  1
  Ba  Ba9  1  0.31697905  0.31697905  0.63395810  1
  Ba  Ba10  1  0.50000000  0.50000000  0.00000000  1
