# generated using pymatgen
data_KSrPO4
_symmetry_space_group_name_H-M   'P 1'
_cell_length_a   5.63248038
_cell_length_b   7.44783069
_cell_length_c   9.76307396
_cell_angle_alpha   90.00000000
_cell_angle_beta   90.00000000
_cell_angle_gamma   90.00000000
_symmetry_Int_Tables_number   1
_chemical_formula_structural   KSrPO4
_chemical_formula_sum   'K4 Sr4 P4 O16'
_cell_volume   409.55861178
_cell_formula_units_Z   4
loop_
 _symmetry_equiv_pos_site_id
 _symmetry_equiv_pos_as_xyz
  1  'x, y, z'
loop_
 _atom_site_type_symbol
 _atom_site_label
 _atom_site_symmetry_multiplicity
 _atom_site_fract_x
 _atom_site_fract_y
 _atom_site_fract_z
 _atom_site_occupancy
  O  O0  1  0.25000000  0.01817343  0.92677864  1
  O  O1  1  0.75000000  0.98182657  0.07322136  1
  O  O2  1  0.25000000  0.51817343  0.57322136  1
  O  O3  1  0.75000000  0.48182657  0.42677864  1
  O  O4  1  0.97745258  0.21179748  0.33802448  1
  O  O5  1  0.47745258  0.78820252  0.66197552  1
  O  O6  1  0.52254742  0.71179748  0.16197552  1
  O  O7  1  0.02254742  0.28820252  0.83802448  1
  O  O8  1  0.02254742  0.78820252  0.66197552  1
  O  O9  1  0.52254742  0.21179748  0.33802448  1
  O  O10  1  0.47745258  0.28820252  0.83802448  1
  O  O11  1  0.97745258  0.71179748  0.16197552  1
  O  O12  1  0.75000000  0.69194889  0.93596332  1
  O  O13  1  0.25000000  0.30805111  0.06403668  1
  O  O14  1  0.75000000  0.19194889  0.56403668  1
  O  O15  1  0.25000000  0.80805111  0.43596332  1
  P  P16  1  0.25000000  0.72618587  0.58381958  1
  P  P17  1  0.75000000  0.27381413  0.41618042  1
  P  P18  1  0.25000000  0.22618587  0.91618042  1
  P  P19  1  0.75000000  0.77381413  0.08381958  1
  K  K20  1  0.25000000  0.15863428  0.58243759  1
  K  K21  1  0.75000000  0.34136572  0.08243759  1
  K  K22  1  0.75000000  0.84136572  0.41756241  1
  K  K23  1  0.25000000  0.65863428  0.91756241  1
  Sr  Sr24  1  0.75000000  0.99942883  0.80382838  1
  Sr  Sr25  1  0.75000000  0.49942883  0.69617162  1
  Sr  Sr26  1  0.25000000  0.50057117  0.30382838  1
  Sr  Sr27  1  0.25000000  0.00057117  0.19617162  1
