# generated using pymatgen
data_Ba(DyTe2)2
_symmetry_space_group_name_H-M   'P 1'
_cell_length_a   4.48872372
_cell_length_b   13.82218825
_cell_length_c   16.31529314
_cell_angle_alpha   90.00000000
_cell_angle_beta   90.00000000
_cell_angle_gamma   90.00000000
_symmetry_Int_Tables_number   1
_chemical_formula_structural   Ba(DyTe2)2
_chemical_formula_sum   'Ba4 Dy8 Te16'
_cell_volume   1012.26579078
_cell_formula_units_Z   4
loop_
 _symmetry_equiv_pos_site_id
 _symmetry_equiv_pos_as_xyz
  1  'x, y, z'
loop_
 _atom_site_type_symbol
 _atom_site_label
 _atom_site_symmetry_multiplicity
 _atom_site_fract_x
 _atom_site_fract_y
 _atom_site_fract_z
 _atom_site_occupancy
  Te  Te0  1  0.25000000  0.97277476  0.71592827  1
  Te  Te1  1  0.75000000  0.02722524  0.28407173  1
  Te  Te2  1  0.25000000  0.47277476  0.78407173  1
  Te  Te3  1  0.75000000  0.52722524  0.21592827  1
  Te  Te4  1  0.25000000  0.87270600  0.47151287  1
  Te  Te5  1  0.75000000  0.12729400  0.52848713  1
  Te  Te6  1  0.25000000  0.37270600  0.02848713  1
  Te  Te7  1  0.75000000  0.62729400  0.97151287  1
  Te  Te8  1  0.25000000  0.79504598  0.16077571  1
  Te  Te9  1  0.75000000  0.20495402  0.83922429  1
  Te  Te10  1  0.25000000  0.29504598  0.33922429  1
  Te  Te11  1  0.75000000  0.70495402  0.66077571  1
  Te  Te12  1  0.75000000  0.91015230  0.92364900  1
  Te  Te13  1  0.25000000  0.08984770  0.07635100  1
  Te  Te14  1  0.75000000  0.41015230  0.57635100  1
  Te  Te15  1  0.25000000  0.58984770  0.42364900  1
  Ba  Ba16  1  0.75000000  0.76117187  0.33054626  1
  Ba  Ba17  1  0.25000000  0.23882813  0.66945374  1
  Ba  Ba18  1  0.75000000  0.26117187  0.16945374  1
  Ba  Ba19  1  0.25000000  0.73882813  0.83054626  1
  Dy  Dy20  1  0.25000000  0.58060203  0.09652906  1
  Dy  Dy21  1  0.75000000  0.41939797  0.90347094  1
  Dy  Dy22  1  0.25000000  0.08060203  0.40347094  1
  Dy  Dy23  1  0.75000000  0.91939797  0.59652906  1
  Dy  Dy24  1  0.75000000  0.44050324  0.39037751  1
  Dy  Dy25  1  0.25000000  0.55949676  0.60962249  1
  Dy  Dy26  1  0.75000000  0.94050324  0.10962249  1
  Dy  Dy27  1  0.25000000  0.05949676  0.89037751  1
