# generated using pymatgen
data_CuSbSe2
_symmetry_space_group_name_H-M   'P 1'
_cell_length_a   4.03449095
_cell_length_b   6.45669076
_cell_length_c   14.92857599
_cell_angle_alpha   90.00000000
_cell_angle_beta   90.00000000
_cell_angle_gamma   90.00000000
_symmetry_Int_Tables_number   1
_chemical_formula_structural   CuSbSe2
_chemical_formula_sum   'Cu4 Sb4 Se8'
_cell_volume   388.88134965
_cell_formula_units_Z   4
loop_
 _symmetry_equiv_pos_site_id
 _symmetry_equiv_pos_as_xyz
  1  'x, y, z'
loop_
 _atom_site_type_symbol
 _atom_site_label
 _atom_site_symmetry_multiplicity
 _atom_site_fract_x
 _atom_site_fract_y
 _atom_site_fract_z
 _atom_site_occupancy
  Cu  Cu0  1  0.75000000  0.75148945  0.17012270  1
  Cu  Cu1  1  0.25000000  0.24851055  0.82987730  1
  Cu  Cu2  1  0.75000000  0.25148945  0.32987730  1
  Cu  Cu3  1  0.25000000  0.74851055  0.67012270  1
  Se  Se4  1  0.25000000  0.37569019  0.67579462  1
  Se  Se5  1  0.75000000  0.37325654  0.90367331  1
  Se  Se6  1  0.75000000  0.62430981  0.32420538  1
  Se  Se7  1  0.25000000  0.87569019  0.82420538  1
  Se  Se8  1  0.75000000  0.87325654  0.59632669  1
  Se  Se9  1  0.25000000  0.62674346  0.09632669  1
  Se  Se10  1  0.25000000  0.12674346  0.40367331  1
  Se  Se11  1  0.75000000  0.12430981  0.17579462  1
  Sb  Sb12  1  0.75000000  0.77211532  0.94262326  1
  Sb  Sb13  1  0.25000000  0.72788468  0.44262326  1
  Sb  Sb14  1  0.75000000  0.27211532  0.55737674  1
  Sb  Sb15  1  0.25000000  0.22788468  0.05737674  1
