# generated using pymatgen
data_Al13Ru4
_symmetry_space_group_name_H-M   'P 1'
_cell_length_a   8.21824579
_cell_length_b   8.97068602
_cell_length_c   12.79902278
_cell_angle_alpha   105.73692160
_cell_angle_beta   90.00000000
_cell_angle_gamma   117.26206869
_symmetry_Int_Tables_number   1
_chemical_formula_structural   Al13Ru4
_chemical_formula_sum   'Al39 Ru12'
_cell_volume   798.77752374
_cell_formula_units_Z   3
loop_
 _symmetry_equiv_pos_site_id
 _symmetry_equiv_pos_as_xyz
  1  'x, y, z'
loop_
 _atom_site_type_symbol
 _atom_site_label
 _atom_site_symmetry_multiplicity
 _atom_site_fract_x
 _atom_site_fract_y
 _atom_site_fract_z
 _atom_site_occupancy
  Al  Al0  1  0.50000000  0.00000000  0.50000000  1
  Al  Al1  1  0.74949035  0.00000000  0.00000000  1
  Al  Al2  1  0.25050965  0.00000000  0.00000000  1
  Al  Al3  1  0.06758678  0.13517357  0.17455781  1
  Al  Al4  1  0.93241322  0.86482643  0.82544219  1
  Al  Al5  1  0.32242363  0.64484725  0.28311582  1
  Al  Al6  1  0.67757637  0.35515275  0.71688418  1
  Al  Al7  1  0.23586346  0.47172692  0.53910238  1
  Al  Al8  1  0.76413654  0.52827308  0.46089762  1
  Al  Al9  1  0.07212791  0.14425581  0.58021194  1
  Al  Al10  1  0.92787209  0.85574419  0.41978806  1
  Al  Al11  1  0.23944205  0.47888409  0.95692604  1
  Al  Al12  1  0.76055795  0.52111591  0.04307396  1
  Al  Al13  1  0.48136889  0.96273778  0.82955627  1
  Al  Al14  1  0.51863111  0.03726222  0.17044373  1
  Al  Al15  1  0.30993721  0.61987443  0.77368186  1
  Al  Al16  1  0.69006279  0.38012557  0.22631814  1
  Al  Al17  1  0.08231773  0.16463545  0.78576017  1
  Al  Al18  1  0.91768227  0.83536455  0.21423983  1
  Al  Al19  1  0.96556077  0.37175620  0.10984920  1
  Al  Al20  1  0.59380458  0.62824380  0.89015080  1
  Al  Al21  1  0.03443923  0.62824380  0.89015080  1
  Al  Al22  1  0.40619542  0.37175620  0.10984920  1
  Al  Al23  1  0.15085502  0.73404773  0.10894960  1
  Al  Al24  1  0.41680729  0.26595227  0.89105040  1
  Al  Al25  1  0.84914498  0.26595227  0.89105040  1
  Al  Al26  1  0.58319271  0.73404773  0.10894960  1
  Al  Al27  1  0.95713333  0.35780675  0.33532643  1
  Al  Al28  1  0.59932658  0.64219325  0.66467357  1
  Al  Al29  1  0.04286667  0.64219325  0.66467357  1
  Al  Al30  1  0.40067342  0.35780675  0.33532643  1
  Al  Al31  1  0.25794735  0.98131784  0.32952432  1
  Al  Al32  1  0.27662951  0.01868216  0.67047568  1
  Al  Al33  1  0.74205265  0.01868216  0.67047568  1
  Al  Al34  1  0.72337049  0.98131784  0.32952432  1
  Al  Al35  1  0.14116276  0.72793448  0.48046145  1
  Al  Al36  1  0.41322828  0.27206552  0.51953855  1
  Al  Al37  1  0.85883724  0.27206552  0.51953855  1
  Al  Al38  1  0.58677172  0.72793448  0.48046145  1
  Ru  Ru39  1  0.08529732  0.17059465  0.38298369  1
  Ru  Ru40  1  0.91470268  0.82940535  0.61701631  1
  Ru  Ru41  1  0.40137257  0.80274513  0.62446116  1
  Ru  Ru42  1  0.59862743  0.19725487  0.37553884  1
  Ru  Ru43  1  0.09189887  0.18379774  0.98754963  1
  Ru  Ru44  1  0.90810113  0.81620226  0.01245037  1
  Ru  Ru45  1  0.40048729  0.80097457  0.98468917  1
  Ru  Ru46  1  0.59951271  0.19902543  0.01531083  1
  Ru  Ru47  1  0.02305704  0.63862313  0.27841357  1
  Ru  Ru48  1  0.38443391  0.36137687  0.72158643  1
  Ru  Ru49  1  0.97694296  0.36137687  0.72158643  1
  Ru  Ru50  1  0.61556609  0.63862313  0.27841357  1
