# generated using pymatgen
data_Ag8SnSe6
_symmetry_space_group_name_H-M   'P 1'
_cell_length_a   7.94469687
_cell_length_b   8.12718141
_cell_length_c   11.22211743
_cell_angle_alpha   90.00000000
_cell_angle_beta   90.00000000
_cell_angle_gamma   90.00000000
_symmetry_Int_Tables_number   1
_chemical_formula_structural   Ag8SnSe6
_chemical_formula_sum   'Ag16 Sn2 Se12'
_cell_volume   724.58959641
_cell_formula_units_Z   2
loop_
 _symmetry_equiv_pos_site_id
 _symmetry_equiv_pos_as_xyz
  1  'x, y, z'
loop_
 _atom_site_type_symbol
 _atom_site_label
 _atom_site_symmetry_multiplicity
 _atom_site_fract_x
 _atom_site_fract_y
 _atom_site_fract_z
 _atom_site_occupancy
  Se  Se0  1  0.28982881  0.50000000  0.49950782  1
  Se  Se1  1  0.71017119  0.00000000  0.99950782  1
  Se  Se2  1  0.80228213  0.50000000  0.25531095  1
  Se  Se3  1  0.19771787  0.00000000  0.75531095  1
  Se  Se4  1  0.50595344  0.50000000  0.84785970  1
  Se  Se5  1  0.49404656  0.00000000  0.34785970  1
  Se  Se6  1  0.00432395  0.50000000  0.83226716  1
  Se  Se7  1  0.99567605  0.00000000  0.33226716  1
  Se  Se8  1  0.24285657  0.23980645  0.11147634  1
  Se  Se9  1  0.75714343  0.26019355  0.61147634  1
  Se  Se10  1  0.75714343  0.73980645  0.61147634  1
  Se  Se11  1  0.24285657  0.76019355  0.11147634  1
  Ag  Ag12  1  0.62334393  0.50000000  0.46464284  1
  Ag  Ag13  1  0.69874306  0.50000000  0.03442949  1
  Ag  Ag14  1  0.30125694  0.00000000  0.53442949  1
  Ag  Ag15  1  0.83052932  0.77355009  0.86432773  1
  Ag  Ag16  1  0.47458487  0.80726571  0.73990984  1
  Ag  Ag17  1  0.52541513  0.69273429  0.23990984  1
  Ag  Ag18  1  0.83052932  0.22644991  0.86432773  1
  Ag  Ag19  1  0.16947068  0.27355009  0.36432773  1
  Ag  Ag20  1  0.16947068  0.72644991  0.36432773  1
  Ag  Ag21  1  0.52541513  0.30726571  0.23990984  1
  Ag  Ag22  1  0.88672555  0.21231915  0.13498235  1
  Ag  Ag23  1  0.11327445  0.28768085  0.63498235  1
  Ag  Ag24  1  0.11327445  0.71231915  0.63498235  1
  Ag  Ag25  1  0.88672555  0.78768085  0.13498235  1
  Ag  Ag26  1  0.47458487  0.19273429  0.73990984  1
  Ag  Ag27  1  0.37665607  0.00000000  0.96464284  1
  Sn  Sn28  1  0.24711956  0.50000000  0.98418950  1
  Sn  Sn29  1  0.75288044  0.00000000  0.48418950  1
