# generated using pymatgen
data_Th7Fe3
_symmetry_space_group_name_H-M   'P 1'
_cell_length_a   9.68330560
_cell_length_b   9.68330560
_cell_length_c   6.23407569
_cell_angle_alpha   90.00000000
_cell_angle_beta   90.00000000
_cell_angle_gamma   120.00000001
_symmetry_Int_Tables_number   1
_chemical_formula_structural   Th7Fe3
_chemical_formula_sum   'Th14 Fe6'
_cell_volume   506.23244813
_cell_formula_units_Z   2
loop_
 _symmetry_equiv_pos_site_id
 _symmetry_equiv_pos_as_xyz
  1  'x, y, z'
loop_
 _atom_site_type_symbol
 _atom_site_label
 _atom_site_symmetry_multiplicity
 _atom_site_fract_x
 _atom_site_fract_y
 _atom_site_fract_z
 _atom_site_occupancy
  Fe  Fe0  1  0.81524252  0.18475748  0.29309400  1
  Fe  Fe1  1  0.63048504  0.81524252  0.79309400  1
  Fe  Fe2  1  0.18475748  0.36951496  0.79309400  1
  Fe  Fe3  1  0.81524252  0.63048504  0.29309400  1
  Fe  Fe4  1  0.36951496  0.18475748  0.29309400  1
  Fe  Fe5  1  0.18475748  0.81524252  0.79309400  1
  Th  Th6  1  0.33333333  0.66666667  0.03085211  1
  Th  Th7  1  0.66666667  0.33333333  0.53085211  1
  Th  Th8  1  0.12487598  0.87512402  0.24991428  1
  Th  Th9  1  0.24975195  0.12487598  0.74991428  1
  Th  Th10  1  0.87512402  0.75024805  0.74991428  1
  Th  Th11  1  0.12487598  0.24975195  0.24991428  1
  Th  Th12  1  0.75024805  0.87512402  0.24991428  1
  Th  Th13  1  0.87512402  0.12487598  0.74991428  1
  Th  Th14  1  0.54212682  0.45787318  0.05670768  1
  Th  Th15  1  0.08425365  0.54212682  0.55670768  1
  Th  Th16  1  0.45787318  0.91574635  0.55670768  1
  Th  Th17  1  0.54212682  0.08425365  0.05670768  1
  Th  Th18  1  0.91574635  0.45787318  0.05670768  1
  Th  Th19  1  0.45787318  0.54212682  0.55670768  1
