# generated using pymatgen
data_Ba2ZnO3
_symmetry_space_group_name_H-M   'P 1'
_cell_length_a   5.96571854
_cell_length_b   6.50486354
_cell_length_c   12.71625872
_cell_angle_alpha   88.52855344
_cell_angle_beta   86.78981962
_cell_angle_gamma   62.70588267
_symmetry_Int_Tables_number   1
_chemical_formula_structural   Ba2ZnO3
_chemical_formula_sum   'Ba8 Zn4 O12'
_cell_volume   437.84060030
_cell_formula_units_Z   4
loop_
 _symmetry_equiv_pos_site_id
 _symmetry_equiv_pos_as_xyz
  1  'x, y, z'
loop_
 _atom_site_type_symbol
 _atom_site_label
 _atom_site_symmetry_multiplicity
 _atom_site_fract_x
 _atom_site_fract_y
 _atom_site_fract_z
 _atom_site_occupancy
  O  O0  1  0.12643483  0.19716758  0.96494296  1
  O  O1  1  0.67639759  0.19716758  0.53505704  1
  O  O2  1  0.87356517  0.80283242  0.03505704  1
  O  O3  1  0.32360241  0.80283242  0.46494296  1
  O  O4  1  0.00688985  0.98622030  0.75000000  1
  O  O5  1  0.99311015  0.01377970  0.25000000  1
  O  O6  1  0.40632964  0.18734071  0.75000000  1
  O  O7  1  0.14938587  0.34253016  0.36757682  1
  O  O8  1  0.49191603  0.65746984  0.86757682  1
  O  O9  1  0.85061413  0.65746984  0.63242318  1
  O  O10  1  0.50808397  0.34253016  0.13242318  1
  O  O11  1  0.59367036  0.81265929  0.25000000  1
  Zn  Zn12  1  0.73104124  0.99528955  0.66369882  1
  Zn  Zn13  1  0.26895876  0.00471045  0.33630118  1
  Zn  Zn14  1  0.27366921  0.99528955  0.83630118  1
  Zn  Zn15  1  0.72633079  0.00471045  0.16369882  1
  Ba  Ba16  1  0.03008833  0.41062358  0.15233513  1
  Ba  Ba17  1  0.44071191  0.58937642  0.65233513  1
  Ba  Ba18  1  0.96991167  0.58937642  0.84766487  1
  Ba  Ba19  1  0.55928809  0.41062358  0.34766487  1
  Ba  Ba20  1  0.65796920  0.20720238  0.92496952  1
  Ba  Ba21  1  0.13482841  0.20720238  0.57503048  1
  Ba  Ba22  1  0.34203080  0.79279762  0.07503048  1
  Ba  Ba23  1  0.86517159  0.79279762  0.42496952  1
