# generated using pymatgen
data_Ce2CoSi3
_symmetry_space_group_name_H-M   'P 1'
_cell_length_a   8.03831350
_cell_length_b   8.03831350
_cell_length_c   4.10653360
_cell_angle_alpha   90.00000000
_cell_angle_beta   90.00000000
_cell_angle_gamma   120.00000002
_symmetry_Int_Tables_number   1
_chemical_formula_structural   Ce2CoSi3
_chemical_formula_sum   'Ce4 Co2 Si6'
_cell_volume   229.79252221
_cell_formula_units_Z   2
loop_
 _symmetry_equiv_pos_site_id
 _symmetry_equiv_pos_as_xyz
  1  'x, y, z'
loop_
 _atom_site_type_symbol
 _atom_site_label
 _atom_site_symmetry_multiplicity
 _atom_site_fract_x
 _atom_site_fract_y
 _atom_site_fract_z
 _atom_site_occupancy
  Si  Si0  1  0.83003388  0.66006777  0.50000000  1
  Si  Si1  1  0.16996612  0.83003388  0.50000000  1
  Si  Si2  1  0.66006777  0.83003388  0.50000000  1
  Si  Si3  1  0.16996612  0.33993223  0.50000000  1
  Si  Si4  1  0.83003388  0.16996612  0.50000000  1
  Si  Si5  1  0.33993223  0.16996612  0.50000000  1
  Co  Co6  1  0.33333333  0.66666667  0.50000000  1
  Co  Co7  1  0.66666667  0.33333333  0.50000000  1
  Ce  Ce8  1  0.50000000  0.50000000  0.00000000  1
  Ce  Ce9  1  0.00000000  0.50000000  0.00000000  1
  Ce  Ce10  1  0.50000000  0.00000000  0.00000000  1
  Ce  Ce11  1  0.00000000  0.00000000  0.00000000  1
