# generated using pymatgen
data_CaGa4O7
_symmetry_space_group_name_H-M   'P 1'
_cell_length_a   5.68093525
_cell_length_b   8.08287424
_cell_length_c   8.08287424
_cell_angle_alpha   69.54170451
_cell_angle_beta   78.09238454
_cell_angle_gamma   78.09238456
_symmetry_Int_Tables_number   1
_chemical_formula_structural   CaGa4O7
_chemical_formula_sum   'Ca2 Ga8 O14'
_cell_volume   336.59298633
_cell_formula_units_Z   2
loop_
 _symmetry_equiv_pos_site_id
 _symmetry_equiv_pos_as_xyz
  1  'x, y, z'
loop_
 _atom_site_type_symbol
 _atom_site_label
 _atom_site_symmetry_multiplicity
 _atom_site_fract_x
 _atom_site_fract_y
 _atom_site_fract_z
 _atom_site_occupancy
  O  O0  1  0.25000000  0.96429004  0.03570996  1
  O  O1  1  0.75000000  0.03570996  0.96429004  1
  O  O2  1  0.86449366  0.86203062  0.36409011  1
  O  O3  1  0.63550634  0.63590989  0.13796938  1
  O  O4  1  0.13550634  0.13796938  0.63590989  1
  O  O5  1  0.36449366  0.36409011  0.86203062  1
  O  O6  1  0.59583024  0.31907151  0.45278613  1
  O  O7  1  0.90416976  0.54721387  0.68092849  1
  O  O8  1  0.40416976  0.68092849  0.54721387  1
  O  O9  1  0.09583024  0.45278613  0.31907151  1
  O  O10  1  0.92001424  0.25397747  0.13163419  1
  O  O11  1  0.57998576  0.86836581  0.74602253  1
  O  O12  1  0.07998576  0.74602253  0.86836581  1
  O  O13  1  0.42001424  0.13163419  0.25397747  1
  Ca  Ca14  1  0.75000000  0.29221575  0.70778425  1
  Ca  Ca15  1  0.25000000  0.70778425  0.29221575  1
  Ga  Ga16  1  0.68526783  0.74473626  0.57526130  1
  Ga  Ga17  1  0.81473217  0.42473870  0.25526374  1
  Ga  Ga18  1  0.75485577  0.05648316  0.18538454  1
  Ga  Ga19  1  0.74514423  0.81461546  0.94351684  1
  Ga  Ga20  1  0.24514423  0.94351684  0.81461546  1
  Ga  Ga21  1  0.25485577  0.18538454  0.05648316  1
  Ga  Ga22  1  0.18526783  0.57526130  0.74473626  1
  Ga  Ga23  1  0.31473217  0.25526374  0.42473870  1
