# generated using pymatgen
data_Ta2Pd3Se8
_symmetry_space_group_name_H-M   'P 1'
_cell_length_a   3.61104091
_cell_length_b   11.19992870
_cell_length_c   15.64809604
_cell_angle_alpha   90.00000000
_cell_angle_beta   90.00000000
_cell_angle_gamma   90.00000000
_symmetry_Int_Tables_number   1
_chemical_formula_structural   Ta2Pd3Se8
_chemical_formula_sum   'Ta4 Pd6 Se16'
_cell_volume   632.86221873
_cell_formula_units_Z   2
loop_
 _symmetry_equiv_pos_site_id
 _symmetry_equiv_pos_as_xyz
  1  'x, y, z'
loop_
 _atom_site_type_symbol
 _atom_site_label
 _atom_site_symmetry_multiplicity
 _atom_site_fract_x
 _atom_site_fract_y
 _atom_site_fract_z
 _atom_site_occupancy
  Se  Se0  1  0.50000000  0.92431303  0.37213662  1
  Se  Se1  1  0.50000000  0.07568697  0.62786338  1
  Se  Se2  1  0.50000000  0.42431303  0.12786338  1
  Se  Se3  1  0.50000000  0.57568697  0.87213662  1
  Se  Se4  1  0.50000000  0.72395418  0.21209754  1
  Se  Se5  1  0.50000000  0.27604582  0.78790246  1
  Se  Se6  1  0.50000000  0.22395418  0.28790246  1
  Se  Se7  1  0.50000000  0.77604582  0.71209754  1
  Se  Se8  1  0.00000000  0.52667913  0.34318751  1
  Se  Se9  1  0.00000000  0.47332087  0.65681249  1
  Se  Se10  1  0.00000000  0.77923226  0.99619136  1
  Se  Se11  1  0.00000000  0.22076774  0.00380864  1
  Se  Se12  1  0.00000000  0.27923226  0.50380864  1
  Se  Se13  1  0.00000000  0.72076774  0.49619136  1
  Se  Se14  1  0.00000000  0.97332087  0.84318751  1
  Se  Se15  1  0.00000000  0.02667913  0.15681249  1
  Pd  Pd16  1  0.00000000  0.85121957  0.27495659  1
  Pd  Pd17  1  0.00000000  0.14878043  0.72504341  1
  Pd  Pd18  1  0.00000000  0.35121957  0.22504341  1
  Pd  Pd19  1  0.00000000  0.64878043  0.77495659  1
  Pd  Pd20  1  0.00000000  0.50000000  0.50000000  1
  Pd  Pd21  1  0.00000000  0.00000000  0.00000000  1
  Ta  Ta22  1  0.50000000  0.69428257  0.37492790  1
  Ta  Ta23  1  0.50000000  0.30571743  0.62507210  1
  Ta  Ta24  1  0.50000000  0.19428257  0.12507210  1
  Ta  Ta25  1  0.50000000  0.80571743  0.87492790  1
