# generated using pymatgen
data_Ba(ErTe2)2
_symmetry_space_group_name_H-M   'P 1'
_cell_length_a   4.46315971
_cell_length_b   13.77075614
_cell_length_c   16.22346901
_cell_angle_alpha   90.00000000
_cell_angle_beta   90.00000000
_cell_angle_gamma   90.00000000
_symmetry_Int_Tables_number   1
_chemical_formula_structural   Ba(ErTe2)2
_chemical_formula_sum   'Ba4 Er8 Te16'
_cell_volume   997.11199128
_cell_formula_units_Z   4
loop_
 _symmetry_equiv_pos_site_id
 _symmetry_equiv_pos_as_xyz
  1  'x, y, z'
loop_
 _atom_site_type_symbol
 _atom_site_label
 _atom_site_symmetry_multiplicity
 _atom_site_fract_x
 _atom_site_fract_y
 _atom_site_fract_z
 _atom_site_occupancy
  Te  Te0  1  0.25000000  0.97221966  0.71577961  1
  Te  Te1  1  0.75000000  0.02778034  0.28422039  1
  Te  Te2  1  0.25000000  0.47221966  0.78422039  1
  Te  Te3  1  0.75000000  0.52778034  0.21577961  1
  Te  Te4  1  0.25000000  0.87376826  0.47178867  1
  Te  Te5  1  0.75000000  0.12623174  0.52821133  1
  Te  Te6  1  0.25000000  0.37376826  0.02821133  1
  Te  Te7  1  0.75000000  0.62623174  0.97178867  1
  Te  Te8  1  0.25000000  0.79557021  0.15874732  1
  Te  Te9  1  0.75000000  0.20442979  0.84125268  1
  Te  Te10  1  0.25000000  0.29557021  0.34125268  1
  Te  Te11  1  0.75000000  0.70442979  0.65874732  1
  Te  Te12  1  0.75000000  0.91022249  0.92433970  1
  Te  Te13  1  0.25000000  0.08977751  0.07566030  1
  Te  Te14  1  0.75000000  0.41022249  0.57566030  1
  Te  Te15  1  0.25000000  0.58977751  0.42433970  1
  Ba  Ba16  1  0.75000000  0.76151331  0.33015527  1
  Ba  Ba17  1  0.25000000  0.23848669  0.66984473  1
  Ba  Ba18  1  0.75000000  0.26151331  0.16984473  1
  Ba  Ba19  1  0.25000000  0.73848669  0.83015527  1
  Er  Er20  1  0.25000000  0.58081508  0.09644911  1
  Er  Er21  1  0.75000000  0.41918492  0.90355089  1
  Er  Er22  1  0.25000000  0.08081508  0.40355089  1
  Er  Er23  1  0.75000000  0.91918492  0.59644911  1
  Er  Er24  1  0.75000000  0.44150983  0.39016882  1
  Er  Er25  1  0.25000000  0.55849017  0.60983118  1
  Er  Er26  1  0.75000000  0.94150983  0.10983118  1
  Er  Er27  1  0.25000000  0.05849017  0.89016882  1
