# generated using pymatgen
data_Hf9BMo4
_symmetry_space_group_name_H-M   'P 1'
_cell_length_a   8.55942120
_cell_length_b   8.55942120
_cell_length_c   8.51252288
_cell_angle_alpha   90.00000000
_cell_angle_beta   90.00000000
_cell_angle_gamma   120.00000000
_symmetry_Int_Tables_number   1
_chemical_formula_structural   Hf9BMo4
_chemical_formula_sum   'Hf18 B2 Mo8'
_cell_volume   540.10440585
_cell_formula_units_Z   2
loop_
 _symmetry_equiv_pos_site_id
 _symmetry_equiv_pos_as_xyz
  1  'x, y, z'
loop_
 _atom_site_type_symbol
 _atom_site_label
 _atom_site_symmetry_multiplicity
 _atom_site_fract_x
 _atom_site_fract_y
 _atom_site_fract_z
 _atom_site_occupancy
  B  B0  1  0.66666667  0.33333333  0.75000000  1
  B  B1  1  0.33333333  0.66666667  0.25000000  1
  Mo  Mo2  1  0.00000000  0.00000000  0.50000000  1
  Mo  Mo3  1  0.00000000  0.00000000  0.00000000  1
  Mo  Mo4  1  0.11119881  0.22239763  0.75000000  1
  Mo  Mo5  1  0.88880119  0.11119881  0.25000000  1
  Mo  Mo6  1  0.22239763  0.11119881  0.25000000  1
  Mo  Mo7  1  0.77760237  0.88880119  0.75000000  1
  Mo  Mo8  1  0.11119881  0.88880119  0.75000000  1
  Mo  Mo9  1  0.88880119  0.77760237  0.25000000  1
  Hf  Hf10  1  0.20369738  0.40739476  0.44460010  1
  Hf  Hf11  1  0.20369738  0.79630262  0.44460010  1
  Hf  Hf12  1  0.54045437  0.08090875  0.25000000  1
  Hf  Hf13  1  0.45954563  0.54045437  0.75000000  1
  Hf  Hf14  1  0.08090875  0.54045437  0.75000000  1
  Hf  Hf15  1  0.91909125  0.45954563  0.25000000  1
  Hf  Hf16  1  0.54045437  0.45954563  0.25000000  1
  Hf  Hf17  1  0.45954563  0.91909125  0.75000000  1
  Hf  Hf18  1  0.59260524  0.79630262  0.44460010  1
  Hf  Hf19  1  0.40739476  0.20369738  0.94460010  1
  Hf  Hf20  1  0.79630262  0.59260524  0.55539990  1
  Hf  Hf21  1  0.79630262  0.20369738  0.94460010  1
  Hf  Hf22  1  0.79630262  0.59260524  0.94460010  1
  Hf  Hf23  1  0.20369738  0.79630262  0.05539990  1
  Hf  Hf24  1  0.59260524  0.79630262  0.05539990  1
  Hf  Hf25  1  0.40739476  0.20369738  0.55539990  1
  Hf  Hf26  1  0.79630262  0.20369738  0.55539990  1
  Hf  Hf27  1  0.20369738  0.40739476  0.05539990  1
