# generated using pymatgen
data_Li5La3Nb14O42
_symmetry_space_group_name_H-M   'P 1'
_cell_length_a   18.69117299
_cell_length_b   5.63100449
_cell_length_c   8.94928979
_cell_angle_alpha   71.66434143
_cell_angle_beta   95.73008632
_cell_angle_gamma   89.99854754
_symmetry_Int_Tables_number   1
_chemical_formula_structural   Li5La3Nb14O42
_chemical_formula_sum   'Li5 La3 Nb14 O42'
_cell_volume   889.13202614
_cell_formula_units_Z   1
loop_
 _symmetry_equiv_pos_site_id
 _symmetry_equiv_pos_as_xyz
  1  'x, y, z'
loop_
 _atom_site_type_symbol
 _atom_site_label
 _atom_site_symmetry_multiplicity
 _atom_site_fract_x
 _atom_site_fract_y
 _atom_site_fract_z
 _atom_site_occupancy
  Li  Li0  1  0.14303203  0.42878713  0.14244478  1
  Li  Li1  1  0.42839697  0.28549887  0.42898322  1
  Li  Li2  1  0.78571400  0.35714300  0.28571400  1
  Li  Li3  1  0.71349281  0.14376617  0.71254023  1
  Li  Li4  1  0.85793619  0.57051983  0.85888877  1
  La  La5  1  0.99929569  0.00008065  0.99968826  1
  La  La6  1  0.28571400  0.85714300  0.28571400  1
  La  La7  1  0.57213331  0.71420535  0.57174074  1
  Nb  Nb8  1  0.32202998  0.46765261  0.06473329  1
  Nb  Nb9  1  0.03678513  0.61105053  0.77787764  1
  Nb  Nb10  1  0.24939802  0.24663339  0.50669571  1
  Nb  Nb11  1  0.17925047  0.03910521  0.92180739  1
  Nb  Nb12  1  0.10668084  0.81840046  0.36307369  1
  Nb  Nb13  1  0.53464387  0.10323547  0.79355136  1
  Nb  Nb14  1  0.46474816  0.89588554  0.20835431  1
  Nb  Nb15  1  0.60738550  0.32435450  0.35144537  1
  Nb  Nb16  1  0.39217753  0.67518079  0.64962061  1
  Nb  Nb17  1  0.75271618  0.74938930  0.50128844  1
  Nb  Nb18  1  0.81871282  0.96489670  0.07014056  1
  Nb  Nb19  1  0.67843484  0.53385596  0.93226944  1
  Nb  Nb20  1  0.96404350  0.38993150  0.21998363  1
  Nb  Nb21  1  0.89299416  0.18042904  0.63915956  1
  O  O22  1  0.99977541  0.49974250  0.00058872  1
  O  O23  1  0.03749666  0.11105721  0.26495944  1
  O  O24  1  0.24846530  0.23306608  0.02136106  1
  O  O25  1  0.18366696  0.03900650  0.41068876  1
  O  O26  1  0.03753118  0.62372809  0.26506037  1
  O  O27  1  0.49981700  0.00006116  0.99993936  1
  O  O28  1  0.14316935  0.92839314  0.14324475  1
  O  O29  1  0.07161100  0.71422484  0.57148964  1
  O  O30  1  0.28571400  0.35714300  0.28571400  1
  O  O31  1  0.21421360  0.14280905  0.71435352  1
  O  O32  1  0.18368827  0.55038813  0.41066058  1
  O  O33  1  0.10216884  0.30635757  0.87576718  1
  O  O34  1  0.38773973  0.16389787  0.16076742  1
  O  O35  1  0.24843668  0.74540629  0.02136715  1
  O  O36  1  0.32296370  0.48121892  0.55006694  1
  O  O37  1  0.53389682  0.09055791  0.30636863  1
  O  O38  1  0.10215778  0.81799845  0.87572464  1
  O  O39  1  0.38776104  0.67527950  0.16074024  1
  O  O40  1  0.53393234  0.60322879  0.30646956  1
  O  O41  1  0.64849252  0.42645717  0.14732752  1
  O  O42  1  0.57165359  0.21454350  0.57084028  1
  O  O43  1  0.46926016  0.40792843  0.69566182  1
  O  O44  1  0.67491375  0.02627599  0.44298610  1
  O  O45  1  0.42825865  0.78589286  0.42818425  1
  O  O46  1  0.35721440  0.57147695  0.85707448  1
  O  O47  1  0.32299232  0.96887971  0.55006185  1
  O  O48  1  0.89648903  0.18363661  0.12843286  1
  O  O49  1  0.67493897  0.53064939  0.44299614  1
  O  O50  1  0.46927122  0.89628755  0.69570436  1
  O  O51  1  0.60819753  0.33739936  0.83608072  1
  O  O52  1  0.60819436  0.82646385  0.83601351  1
  O  O53  1  0.86173400  0.06906562  0.86199852  1
  O  O54  1  0.81804260  0.45324752  0.58373708  1
  O  O55  1  0.75338540  0.26103748  0.98769192  1
  O  O56  1  0.78571400  0.85714300  0.28571400  1
  O  O57  1  0.70969500  0.64522038  0.70942948  1
  O  O58  1  0.92293548  0.28782883  0.42410048  1
  O  O59  1  0.89651525  0.68800901  0.12844190  1
  O  O60  1  0.81804300  0.96286409  0.58383006  1
  O  O61  1  0.75338600  0.75142191  0.98759894  1
  O  O62  1  0.96323147  0.37688564  0.73534828  1
  O  O63  1  0.96323464  0.88782215  0.73541449  1
