# generated using pymatgen
data_GdMnSi
_symmetry_space_group_name_H-M   'P 1'
_cell_length_a   3.94640662
_cell_length_b   3.94640662
_cell_length_c   7.21012214
_cell_angle_alpha   90.00000000
_cell_angle_beta   90.00000000
_cell_angle_gamma   90.00000000
_symmetry_Int_Tables_number   1
_chemical_formula_structural   GdMnSi
_chemical_formula_sum   'Gd2 Mn2 Si2'
_cell_volume   112.29134499
_cell_formula_units_Z   2
loop_
 _symmetry_equiv_pos_site_id
 _symmetry_equiv_pos_as_xyz
  1  'x, y, z'
loop_
 _atom_site_type_symbol
 _atom_site_label
 _atom_site_symmetry_multiplicity
 _atom_site_fract_x
 _atom_site_fract_y
 _atom_site_fract_z
 _atom_site_occupancy
  Si  Si0  1  0.75000000  0.75000000  0.80088742  1
  Si  Si1  1  0.25000000  0.25000000  0.19911258  1
  Mn  Mn2  1  0.75000000  0.25000000  0.00000000  1
  Mn  Mn3  1  0.25000000  0.75000000  0.00000000  1
  Gd  Gd4  1  0.75000000  0.75000000  0.33392074  1
  Gd  Gd5  1  0.25000000  0.25000000  0.66607926  1
