# generated using pymatgen
data_La2(Zn2Ge)3
_symmetry_space_group_name_H-M   'P 1'
_cell_length_a   7.74185519
_cell_length_b   7.74185520
_cell_length_c   4.16371983
_cell_angle_alpha   90.00000000
_cell_angle_beta   90.00000000
_cell_angle_gamma   120.00000002
_symmetry_Int_Tables_number   1
_chemical_formula_structural   La2(Zn2Ge)3
_chemical_formula_sum   'La2 Zn6 Ge3'
_cell_volume   216.12361245
_cell_formula_units_Z   1
loop_
 _symmetry_equiv_pos_site_id
 _symmetry_equiv_pos_as_xyz
  1  'x, y, z'
loop_
 _atom_site_type_symbol
 _atom_site_label
 _atom_site_symmetry_multiplicity
 _atom_site_fract_x
 _atom_site_fract_y
 _atom_site_fract_z
 _atom_site_occupancy
  Zn  Zn0  1  0.71127815  0.00000000  0.50000000  1
  Zn  Zn1  1  0.00000000  0.71127815  0.50000000  1
  Zn  Zn2  1  0.18856874  0.00000000  0.00000000  1
  Zn  Zn3  1  0.81143126  0.81143126  0.00000000  1
  Zn  Zn4  1  0.28872185  0.28872185  0.50000000  1
  Zn  Zn5  1  0.00000000  0.18856874  0.00000000  1
  Ge  Ge6  1  0.37958149  0.00000000  0.50000000  1
  Ge  Ge7  1  0.62041851  0.62041851  0.50000000  1
  Ge  Ge8  1  0.00000000  0.37958149  0.50000000  1
  La  La9  1  0.66666667  0.33333333  0.00000000  1
  La  La10  1  0.33333333  0.66666667  0.00000000  1
