# generated using pymatgen
data_DySiPt
_symmetry_space_group_name_H-M   'P 1'
_cell_length_a   4.28947442
_cell_length_b   7.01568438
_cell_length_c   7.49116742
_cell_angle_alpha   90.00000000
_cell_angle_beta   90.00000000
_cell_angle_gamma   90.00000000
_symmetry_Int_Tables_number   1
_chemical_formula_structural   DySiPt
_chemical_formula_sum   'Dy4 Si4 Pt4'
_cell_volume   225.43618603
_cell_formula_units_Z   4
loop_
 _symmetry_equiv_pos_site_id
 _symmetry_equiv_pos_as_xyz
  1  'x, y, z'
loop_
 _atom_site_type_symbol
 _atom_site_label
 _atom_site_symmetry_multiplicity
 _atom_site_fract_x
 _atom_site_fract_y
 _atom_site_fract_z
 _atom_site_occupancy
  Si  Si0  1  0.25000000  0.81319597  0.08820257  1
  Si  Si1  1  0.25000000  0.31319597  0.41179743  1
  Si  Si2  1  0.75000000  0.18680403  0.91179743  1
  Si  Si3  1  0.75000000  0.68680403  0.58820257  1
  Dy  Dy4  1  0.75000000  0.50314203  0.20048485  1
  Dy  Dy5  1  0.25000000  0.99685797  0.70048485  1
  Dy  Dy6  1  0.75000000  0.00314203  0.29951515  1
  Dy  Dy7  1  0.25000000  0.49685797  0.79951515  1
  Pt  Pt8  1  0.25000000  0.69949567  0.41478003  1
  Pt  Pt9  1  0.25000000  0.19949567  0.08521997  1
  Pt  Pt10  1  0.75000000  0.80050433  0.91478003  1
  Pt  Pt11  1  0.75000000  0.30050433  0.58521997  1
