# generated using pymatgen
data_Yb(Ga4Co)2
_symmetry_space_group_name_H-M   'P 1'
_cell_length_a   3.99019930
_cell_length_b   12.37962339
_cell_length_c   14.38010437
_cell_angle_alpha   90.00000000
_cell_angle_beta   90.00000000
_cell_angle_gamma   90.00000000
_symmetry_Int_Tables_number   1
_chemical_formula_structural   Yb(Ga4Co)2
_chemical_formula_sum   'Yb4 Ga32 Co8'
_cell_volume   710.33638231
_cell_formula_units_Z   4
loop_
 _symmetry_equiv_pos_site_id
 _symmetry_equiv_pos_as_xyz
  1  'x, y, z'
loop_
 _atom_site_type_symbol
 _atom_site_label
 _atom_site_symmetry_multiplicity
 _atom_site_fract_x
 _atom_site_fract_y
 _atom_site_fract_z
 _atom_site_occupancy
  Co  Co0  1  0.00000000  0.03400156  0.40643556  1
  Co  Co1  1  0.00000000  0.34807086  0.59748162  1
  Co  Co2  1  0.00000000  0.65192914  0.40251838  1
  Co  Co3  1  0.00000000  0.84807086  0.90251838  1
  Co  Co4  1  0.00000000  0.15192914  0.09748162  1
  Co  Co5  1  0.00000000  0.96599844  0.59356444  1
  Co  Co6  1  0.00000000  0.53400156  0.09356444  1
  Co  Co7  1  0.00000000  0.46599844  0.90643556  1
  Ga  Ga8  1  0.00000000  0.50000000  0.50000000  1
  Ga  Ga9  1  0.50000000  0.00000000  0.50000000  1
  Ga  Ga10  1  0.50000000  0.50000000  0.00000000  1
  Ga  Ga11  1  0.00000000  0.00000000  0.00000000  1
  Ga  Ga12  1  0.50000000  0.33105120  0.48915859  1
  Ga  Ga13  1  0.50000000  0.66894880  0.51084141  1
  Ga  Ga14  1  0.50000000  0.83105120  0.01084141  1
  Ga  Ga15  1  0.50000000  0.16894880  0.98915859  1
  Ga  Ga16  1  0.50000000  0.02056293  0.13388204  1
  Ga  Ga17  1  0.50000000  0.97943707  0.86611796  1
  Ga  Ga18  1  0.50000000  0.52056293  0.36611796  1
  Ga  Ga19  1  0.50000000  0.47943707  0.63388204  1
  Ga  Ga20  1  0.50000000  0.23907994  0.17737213  1
  Ga  Ga21  1  0.50000000  0.76092006  0.82262787  1
  Ga  Ga22  1  0.50000000  0.73907994  0.32262787  1
  Ga  Ga23  1  0.50000000  0.26092006  0.67737213  1
  Ga  Ga24  1  0.50000000  0.44932777  0.18366679  1
  Ga  Ga25  1  0.50000000  0.55067223  0.81633321  1
  Ga  Ga26  1  0.50000000  0.94932777  0.31633321  1
  Ga  Ga27  1  0.50000000  0.05067223  0.68366679  1
  Ga  Ga28  1  0.50000000  0.16672733  0.37793103  1
  Ga  Ga29  1  0.50000000  0.83327267  0.62206897  1
  Ga  Ga30  1  0.50000000  0.66672733  0.12206897  1
  Ga  Ga31  1  0.50000000  0.33327267  0.87793103  1
  Ga  Ga32  1  0.00000000  0.33813651  0.04512020  1
  Ga  Ga33  1  0.00000000  0.66186349  0.95487980  1
  Ga  Ga34  1  0.00000000  0.83813651  0.45487980  1
  Ga  Ga35  1  0.00000000  0.16186349  0.54512020  1
  Ga  Ga36  1  0.00000000  0.09977763  0.25486589  1
  Ga  Ga37  1  0.00000000  0.90022237  0.74513411  1
  Ga  Ga38  1  0.00000000  0.59977763  0.24513411  1
  Ga  Ga39  1  0.00000000  0.40022237  0.75486589  1
  Yb  Yb40  1  0.00000000  0.15671579  0.81929715  1
  Yb  Yb41  1  0.00000000  0.84328421  0.18070285  1
  Yb  Yb42  1  0.00000000  0.65671579  0.68070285  1
  Yb  Yb43  1  0.00000000  0.34328421  0.31929715  1
