# generated using pymatgen
data_BaY2Cl8
_symmetry_space_group_name_H-M   'P 1'
_cell_length_a   9.90688761
_cell_length_b   9.90688761
_cell_length_c   10.55474419
_cell_angle_alpha   65.39381030
_cell_angle_beta   114.60618970
_cell_angle_gamma   112.07685237
_symmetry_Int_Tables_number   1
_chemical_formula_structural   BaY2Cl8
_chemical_formula_sum   'Ba2 Y4 Cl16'
_cell_volume   830.22719760
_cell_formula_units_Z   2
loop_
 _symmetry_equiv_pos_site_id
 _symmetry_equiv_pos_as_xyz
  1  'x, y, z'
loop_
 _atom_site_type_symbol
 _atom_site_label
 _atom_site_symmetry_multiplicity
 _atom_site_fract_x
 _atom_site_fract_y
 _atom_site_fract_z
 _atom_site_occupancy
  Ba  Ba0  1  0.03091311  0.03091311  0.75000000  1
  Ba  Ba1  1  0.96908689  0.96908689  0.25000000  1
  Y  Y2  1  0.50878121  0.94279499  0.72855797  1
  Y  Y3  1  0.05720501  0.49121879  0.22855797  1
  Y  Y4  1  0.94279499  0.50878121  0.77144203  1
  Y  Y5  1  0.49121879  0.05720501  0.27144203  1
  Cl  Cl6  1  0.39975667  0.66782159  0.82524066  1
  Cl  Cl7  1  0.78791767  0.97981681  0.91257911  1
  Cl  Cl8  1  0.05923951  0.36645583  0.70638156  1
  Cl  Cl9  1  0.67489579  0.98220995  0.55536702  1
  Cl  Cl10  1  0.33217841  0.60024333  0.32524066  1
  Cl  Cl11  1  0.02018319  0.21208233  0.41257911  1
  Cl  Cl12  1  0.63354417  0.94076049  0.20638156  1
  Cl  Cl13  1  0.01779005  0.32510421  0.05536802  1
  Cl  Cl14  1  0.98220995  0.67489579  0.94463298  1
  Cl  Cl15  1  0.36645583  0.05923951  0.79361844  1
  Cl  Cl16  1  0.97981681  0.78791767  0.58742089  1
  Cl  Cl17  1  0.66782159  0.39975667  0.67475934  1
  Cl  Cl18  1  0.32510421  0.01779005  0.44463298  1
  Cl  Cl19  1  0.94076049  0.63354417  0.29361844  1
  Cl  Cl20  1  0.21208233  0.02018319  0.08742089  1
  Cl  Cl21  1  0.60024333  0.33217841  0.17475934  1
