# generated using pymatgen
data_Ho5(Ge5Rh2)2
_symmetry_space_group_name_H-M   'P 1'
_cell_length_a   4.30077863
_cell_length_b   13.05410367
_cell_length_c   13.05410367
_cell_angle_alpha   90.00000000
_cell_angle_beta   90.00000000
_cell_angle_gamma   90.00000000
_symmetry_Int_Tables_number   1
_chemical_formula_structural   Ho5(Ge5Rh2)2
_chemical_formula_sum   'Ho10 Ge20 Rh8'
_cell_volume   732.89406334
_cell_formula_units_Z   2
loop_
 _symmetry_equiv_pos_site_id
 _symmetry_equiv_pos_as_xyz
  1  'x, y, z'
loop_
 _atom_site_type_symbol
 _atom_site_label
 _atom_site_symmetry_multiplicity
 _atom_site_fract_x
 _atom_site_fract_y
 _atom_site_fract_z
 _atom_site_occupancy
  Ge  Ge0  1  0.00000000  0.93298662  0.43298662  1
  Ge  Ge1  1  0.00000000  0.56701338  0.93298662  1
  Ge  Ge2  1  0.00000000  0.43298662  0.06701338  1
  Ge  Ge3  1  0.00000000  0.06701338  0.56701338  1
  Ge  Ge4  1  0.00000000  0.29980979  0.33797912  1
  Ge  Ge5  1  0.00000000  0.70019021  0.66202088  1
  Ge  Ge6  1  0.00000000  0.33797912  0.70019021  1
  Ge  Ge7  1  0.00000000  0.66202088  0.29980979  1
  Ge  Ge8  1  0.00000000  0.83797912  0.79980979  1
  Ge  Ge9  1  0.00000000  0.20019021  0.83797912  1
  Ge  Ge10  1  0.00000000  0.79980979  0.16202088  1
  Ge  Ge11  1  0.00000000  0.16202088  0.20019021  1
  Ge  Ge12  1  0.50000000  0.49740178  0.34225572  1
  Ge  Ge13  1  0.50000000  0.50259822  0.65774428  1
  Ge  Ge14  1  0.50000000  0.34225572  0.50259822  1
  Ge  Ge15  1  0.50000000  0.65774428  0.49740178  1
  Ge  Ge16  1  0.50000000  0.84225572  0.99740178  1
  Ge  Ge17  1  0.50000000  0.00259822  0.84225572  1
  Ge  Ge18  1  0.50000000  0.15774428  0.00259822  1
  Ge  Ge19  1  0.50000000  0.99740178  0.15774428  1
  Rh  Rh20  1  0.00000000  0.47885825  0.25423650  1
  Rh  Rh21  1  0.00000000  0.52114175  0.74576350  1
  Rh  Rh22  1  0.00000000  0.25423650  0.52114175  1
  Rh  Rh23  1  0.00000000  0.74576350  0.47885825  1
  Rh  Rh24  1  0.00000000  0.75423650  0.97885825  1
  Rh  Rh25  1  0.00000000  0.02114175  0.75423650  1
  Rh  Rh26  1  0.00000000  0.97885825  0.24576350  1
  Rh  Rh27  1  0.00000000  0.24576350  0.02114175  1
  Ho  Ho28  1  0.00000000  0.50000000  0.50000000  1
  Ho  Ho29  1  0.00000000  0.00000000  0.00000000  1
  Ho  Ho30  1  0.50000000  0.38707676  0.88707676  1
  Ho  Ho31  1  0.50000000  0.11292324  0.38707676  1
  Ho  Ho32  1  0.50000000  0.88707676  0.61292324  1
  Ho  Ho33  1  0.50000000  0.61292324  0.11292324  1
  Ho  Ho34  1  0.50000000  0.82549165  0.32549165  1
  Ho  Ho35  1  0.50000000  0.67450835  0.82549165  1
  Ho  Ho36  1  0.50000000  0.32549165  0.17450835  1
  Ho  Ho37  1  0.50000000  0.17450835  0.67450835  1
