# generated using pymatgen
data_LiBiB2O5
_symmetry_space_group_name_H-M   'P 1'
_cell_length_a   7.52995827
_cell_length_b   7.52995827
_cell_length_c   10.22722376
_cell_angle_alpha   71.73208979
_cell_angle_beta   108.26791021
_cell_angle_gamma   87.71704606
_symmetry_Int_Tables_number   1
_chemical_formula_structural   LiBiB2O5
_chemical_formula_sum   'Li4 Bi4 B8 O20'
_cell_volume   516.74023472
_cell_formula_units_Z   4
loop_
 _symmetry_equiv_pos_site_id
 _symmetry_equiv_pos_as_xyz
  1  'x, y, z'
loop_
 _atom_site_type_symbol
 _atom_site_label
 _atom_site_symmetry_multiplicity
 _atom_site_fract_x
 _atom_site_fract_y
 _atom_site_fract_z
 _atom_site_occupancy
  Li  Li0  1  0.04446311  0.66452673  0.65685403  1
  Li  Li1  1  0.33547327  0.95553689  0.15685403  1
  Li  Li2  1  0.66452673  0.04446311  0.84314597  1
  Li  Li3  1  0.95553689  0.33547327  0.34314597  1
  Bi  Bi4  1  0.14580555  0.14580555  0.75000000  1
  Bi  Bi5  1  0.57926368  0.57926368  0.75000000  1
  Bi  Bi6  1  0.42073632  0.42073632  0.25000000  1
  Bi  Bi7  1  0.85419445  0.85419445  0.25000000  1
  B  B8  1  0.23483653  0.77322100  0.90989656  1
  B  B9  1  0.24867649  0.40387109  0.97049051  1
  B  B10  1  0.22677900  0.76516347  0.40989656  1
  B  B11  1  0.59612891  0.75132351  0.47049051  1
  B  B12  1  0.40387109  0.24867649  0.52950949  1
  B  B13  1  0.77322100  0.23483653  0.59010344  1
  B  B14  1  0.75132351  0.59612891  0.02950949  1
  B  B15  1  0.76516347  0.22677900  0.09010344  1
  O  O16  1  0.28364341  0.89852891  0.98129925  1
  O  O17  1  0.16840516  0.82323740  0.76186679  1
  O  O18  1  0.10147109  0.71635659  0.48129925  1
  O  O19  1  0.19116726  0.40708196  0.83236577  1
  O  O20  1  0.68323319  0.74678387  0.89538414  1
  O  O21  1  0.17676260  0.83159484  0.26186679  1
  O  O22  1  0.42111926  0.74590308  0.50004468  1
  O  O23  1  0.74590308  0.42111926  -0.00004468  1
  O  O24  1  0.59291804  0.80883274  0.33236577  1
  O  O25  1  0.25321613  0.31676681  0.39538414  1
  O  O26  1  0.74678387  0.68323319  0.60461586  1
  O  O27  1  0.40708196  0.19116726  0.66763423  1
  O  O28  1  0.25409692  0.57888074  0.00004468  1
  O  O29  1  0.57888074  0.25409692  0.49995532  1
  O  O30  1  0.82323740  0.16840516  0.73813321  1
  O  O31  1  0.31676681  0.25321613  0.10461586  1
  O  O32  1  0.80883274  0.59291804  0.16763423  1
  O  O33  1  0.89852891  0.28364341  0.51870075  1
  O  O34  1  0.83159484  0.17676260  0.23813321  1
  O  O35  1  0.71635659  0.10147109  0.01870075  1
