# generated using pymatgen
data_UNi5Ge3
_symmetry_space_group_name_H-M   'P 1'
_cell_length_a   3.89347190
_cell_length_b   6.77255976
_cell_length_c   19.01832282
_cell_angle_alpha   90.00000000
_cell_angle_beta   90.00000000
_cell_angle_gamma   90.00000000
_symmetry_Int_Tables_number   1
_chemical_formula_structural   UNi5Ge3
_chemical_formula_sum   'U4 Ni20 Ge12'
_cell_volume   501.48980146
_cell_formula_units_Z   4
loop_
 _symmetry_equiv_pos_site_id
 _symmetry_equiv_pos_as_xyz
  1  'x, y, z'
loop_
 _atom_site_type_symbol
 _atom_site_label
 _atom_site_symmetry_multiplicity
 _atom_site_fract_x
 _atom_site_fract_y
 _atom_site_fract_z
 _atom_site_occupancy
  Ni  Ni0  1  0.75000000  0.85558136  0.39098846  1
  Ni  Ni1  1  0.25000000  0.41086788  0.78877756  1
  Ni  Ni2  1  0.75000000  0.58913212  0.21122244  1
  Ni  Ni3  1  0.75000000  0.91086788  0.71122244  1
  Ni  Ni4  1  0.25000000  0.69314721  0.29922621  1
  Ni  Ni5  1  0.75000000  0.30685279  0.70077379  1
  Ni  Ni6  1  0.75000000  0.19314721  0.20077379  1
  Ni  Ni7  1  0.25000000  0.80685279  0.79922621  1
  Ni  Ni8  1  0.25000000  0.36897462  0.49622302  1
  Ni  Ni9  1  0.75000000  0.63102538  0.50377698  1
  Ni  Ni10  1  0.75000000  0.86897462  0.00377698  1
  Ni  Ni11  1  0.25000000  0.13102538  0.99622302  1
  Ni  Ni12  1  0.25000000  0.62047572  0.01490391  1
  Ni  Ni13  1  0.75000000  0.37952428  0.98509609  1
  Ni  Ni14  1  0.75000000  0.12047572  0.48509609  1
  Ni  Ni15  1  0.25000000  0.14441864  0.60901154  1
  Ni  Ni16  1  0.25000000  0.35558136  0.10901154  1
  Ni  Ni17  1  0.75000000  0.64441864  0.89098846  1
  Ni  Ni18  1  0.25000000  0.87952428  0.51490391  1
  Ni  Ni19  1  0.25000000  0.08913212  0.28877756  1
  Ge  Ge20  1  0.25000000  0.10543837  0.73203906  1
  Ge  Ge21  1  0.25000000  0.64642576  0.42378392  1
  Ge  Ge22  1  0.75000000  0.35357424  0.57621608  1
  Ge  Ge23  1  0.75000000  0.14642576  0.07621608  1
  Ge  Ge24  1  0.25000000  0.09293161  0.41258837  1
  Ge  Ge25  1  0.75000000  0.90706839  0.58741163  1
  Ge  Ge26  1  0.75000000  0.59293161  0.08741163  1
  Ge  Ge27  1  0.25000000  0.40706839  0.91258837  1
  Ge  Ge28  1  0.25000000  0.85357424  0.92378392  1
  Ge  Ge29  1  0.75000000  0.60543837  0.76796094  1
  Ge  Ge30  1  0.75000000  0.89456163  0.26796094  1
  Ge  Ge31  1  0.25000000  0.39456163  0.23203906  1
  U  U32  1  0.25000000  0.62182475  0.64550375  1
  U  U33  1  0.75000000  0.37817525  0.35449625  1
  U  U34  1  0.75000000  0.12182475  0.85449625  1
  U  U35  1  0.25000000  0.87817525  0.14550375  1
