# generated using pymatgen
data_CeInIr
_symmetry_space_group_name_H-M   'P 1'
_cell_length_a   7.56709375
_cell_length_b   7.56709375
_cell_length_c   4.02450637
_cell_angle_alpha   90.00000000
_cell_angle_beta   90.00000000
_cell_angle_gamma   119.99999997
_symmetry_Int_Tables_number   1
_chemical_formula_structural   CeInIr
_chemical_formula_sum   'Ce3 In3 Ir3'
_cell_volume   199.57285946
_cell_formula_units_Z   3
loop_
 _symmetry_equiv_pos_site_id
 _symmetry_equiv_pos_as_xyz
  1  'x, y, z'
loop_
 _atom_site_type_symbol
 _atom_site_label
 _atom_site_symmetry_multiplicity
 _atom_site_fract_x
 _atom_site_fract_y
 _atom_site_fract_z
 _atom_site_occupancy
  In  In0  1  0.00000000  0.25207185  0.50000000  1
  In  In1  1  0.74792815  0.74792815  0.50000000  1
  In  In2  1  0.25207185  0.00000000  0.50000000  1
  Ce  Ce3  1  0.41181003  0.41181003  0.00000000  1
  Ce  Ce4  1  0.58818997  0.00000000  0.00000000  1
  Ce  Ce5  1  0.00000000  0.58818997  0.00000000  1
  Ir  Ir6  1  0.00000000  0.00000000  0.00000000  1
  Ir  Ir7  1  0.33333333  0.66666667  0.50000000  1
  Ir  Ir8  1  0.66666667  0.33333333  0.50000000  1
