# generated using pymatgen
data_Ca4In2N
_symmetry_space_group_name_H-M   'P 1'
_cell_length_a   4.93531960
_cell_length_b   4.93531960
_cell_length_c   14.98903535
_cell_angle_alpha   99.47579884
_cell_angle_beta   99.47579884
_cell_angle_gamma   90.00000004
_symmetry_Int_Tables_number   1
_chemical_formula_structural   Ca4In2N
_chemical_formula_sum   'Ca8 In4 N2'
_cell_volume   355.06049798
_cell_formula_units_Z   2
loop_
 _symmetry_equiv_pos_site_id
 _symmetry_equiv_pos_as_xyz
  1  'x, y, z'
loop_
 _atom_site_type_symbol
 _atom_site_label
 _atom_site_symmetry_multiplicity
 _atom_site_fract_x
 _atom_site_fract_y
 _atom_site_fract_z
 _atom_site_occupancy
  N  N0  1  0.62500000  0.87500000  0.75000000  1
  N  N1  1  0.37500000  0.12500000  0.25000000  1
  Ca  Ca2  1  0.54383246  0.79383246  0.58766492  1
  Ca  Ca3  1  0.37579625  0.62579625  0.25159250  1
  Ca  Ca4  1  0.70616754  0.95616754  0.91233508  1
  Ca  Ca5  1  0.29383246  0.04383246  0.08766492  1
  Ca  Ca6  1  0.45616754  0.20616754  0.41233508  1
  Ca  Ca7  1  0.87420375  0.12420375  0.24840750  1
  Ca  Ca8  1  0.62420375  0.37420375  0.74840750  1
  Ca  Ca9  1  0.12579625  0.87579625  0.75159250  1
  In  In10  1  0.78450244  0.53450244  0.06900487  1
  In  In11  1  0.03450244  0.28450244  0.56900487  1
  In  In12  1  0.96549756  0.71549756  0.43099513  1
  In  In13  1  0.21549756  0.46549756  0.93099513  1
