# generated using pymatgen
data_Li2BiBO4
_symmetry_space_group_name_H-M   'P 1'
_cell_length_a   6.67169938
_cell_length_b   10.50478771
_cell_length_c   4.93924567
_cell_angle_alpha   90.00000000
_cell_angle_beta   90.00000000
_cell_angle_gamma   90.00000000
_symmetry_Int_Tables_number   1
_chemical_formula_structural   Li2BiBO4
_chemical_formula_sum   'Li8 Bi4 B4 O16'
_cell_volume   346.16597406
_cell_formula_units_Z   4
loop_
 _symmetry_equiv_pos_site_id
 _symmetry_equiv_pos_as_xyz
  1  'x, y, z'
loop_
 _atom_site_type_symbol
 _atom_site_label
 _atom_site_symmetry_multiplicity
 _atom_site_fract_x
 _atom_site_fract_y
 _atom_site_fract_z
 _atom_site_occupancy
  Li  Li0  1  0.99916630  0.41720407  0.18347920  1
  Li  Li1  1  0.99916630  0.91720407  0.31652080  1
  Li  Li2  1  0.50083370  0.91720407  0.31652080  1
  Li  Li3  1  0.50083370  0.41720407  0.18347920  1
  Li  Li4  1  0.49916630  0.08279593  0.68347920  1
  Li  Li5  1  0.49916630  0.58279593  0.81652080  1
  Li  Li6  1  0.00083370  0.58279593  0.81652080  1
  Li  Li7  1  0.00083370  0.08279593  0.68347920  1
  Bi  Bi8  1  0.25000000  0.17086910  0.19397084  1
  Bi  Bi9  1  0.25000000  0.67086910  0.30602916  1
  Bi  Bi10  1  0.75000000  0.32913090  0.69397084  1
  Bi  Bi11  1  0.75000000  0.82913090  0.80602916  1
  B  B12  1  0.25000000  0.34560370  0.67103533  1
  B  B13  1  0.25000000  0.84560370  0.82896467  1
  B  B14  1  0.75000000  0.65439630  0.32896467  1
  B  B15  1  0.75000000  0.15439630  0.17103533  1
  O  O16  1  0.07017632  0.40260129  0.79523291  1
  O  O17  1  0.07017632  0.90260129  0.70476709  1
  O  O18  1  0.25000000  0.36643752  0.36500984  1
  O  O19  1  0.25000000  0.69899347  0.79234393  1
  O  O20  1  0.25000000  0.19899347  0.70765607  1
  O  O21  1  0.25000000  0.86643752  0.13499016  1
  O  O22  1  0.42982368  0.90260129  0.70476709  1
  O  O23  1  0.42982368  0.40260129  0.79523291  1
  O  O24  1  0.57017632  0.59739871  0.20476709  1
  O  O25  1  0.57017632  0.09739871  0.29523291  1
  O  O26  1  0.75000000  0.63356248  0.63499016  1
  O  O27  1  0.75000000  0.13356248  0.86500984  1
  O  O28  1  0.75000000  0.30100653  0.20765607  1
  O  O29  1  0.75000000  0.80100653  0.29234393  1
  O  O30  1  0.92982368  0.59739871  0.20476709  1
  O  O31  1  0.92982368  0.09739871  0.29523291  1
