# generated using pymatgen
data_Rb4PbO3
_symmetry_space_group_name_H-M   'P 1'
_cell_length_a   6.92891535
_cell_length_b   12.25143364
_cell_length_c   20.05215671
_cell_angle_alpha   90.00000000
_cell_angle_beta   90.00000000
_cell_angle_gamma   90.00000000
_symmetry_Int_Tables_number   1
_chemical_formula_structural   Rb4PbO3
_chemical_formula_sum   'Rb32 Pb8 O24'
_cell_volume   1702.21047076
_cell_formula_units_Z   8
loop_
 _symmetry_equiv_pos_site_id
 _symmetry_equiv_pos_as_xyz
  1  'x, y, z'
loop_
 _atom_site_type_symbol
 _atom_site_label
 _atom_site_symmetry_multiplicity
 _atom_site_fract_x
 _atom_site_fract_y
 _atom_site_fract_z
 _atom_site_occupancy
  O  O0  1  0.95507209  0.35627558  0.56733142  1
  O  O1  1  0.45507209  0.14372442  0.43266858  1
  O  O2  1  0.04492791  0.85627558  0.93266858  1
  O  O3  1  0.54492791  0.64372442  0.06733142  1
  O  O4  1  0.04492791  0.64372442  0.43266858  1
  O  O5  1  0.54492791  0.85627558  0.56733142  1
  O  O6  1  0.95507209  0.14372442  0.06733142  1
  O  O7  1  0.45507209  0.35627558  0.93266858  1
  O  O8  1  0.53924100  0.40018855  0.15657230  1
  O  O9  1  0.03924100  0.09981145  0.84342770  1
  O  O10  1  0.46075900  0.90018855  0.34342770  1
  O  O11  1  0.96075900  0.59981145  0.65657230  1
  O  O12  1  0.46075900  0.59981145  0.84342770  1
  O  O13  1  0.96075900  0.90018855  0.15657230  1
  O  O14  1  0.53924100  0.09981145  0.65657230  1
  O  O15  1  0.03924100  0.40018855  0.34342770  1
  O  O16  1  0.87782942  0.48515277  0.89962185  1
  O  O17  1  0.37782942  0.01484723  0.10037815  1
  O  O18  1  0.12217058  0.98515277  0.60037815  1
  O  O19  1  0.62217058  0.51484723  0.39962185  1
  O  O20  1  0.12217058  0.51484723  0.10037815  1
  O  O21  1  0.62217058  0.98515277  0.89962185  1
  O  O22  1  0.87782942  0.01484723  0.39962185  1
  O  O23  1  0.37782942  0.48515277  0.60037815  1
  Rb  Rb24  1  0.95644803  0.38536072  0.20287308  1
  Rb  Rb25  1  0.45644803  0.11463928  0.79712692  1
  Rb  Rb26  1  0.04355197  0.88536072  0.29712692  1
  Rb  Rb27  1  0.54355197  0.61463928  0.70287308  1
  Rb  Rb28  1  0.04355197  0.61463928  0.79712692  1
  Rb  Rb29  1  0.54355197  0.88536072  0.20287308  1
  Rb  Rb30  1  0.95644803  0.11463928  0.70287308  1
  Rb  Rb31  1  0.45644803  0.38536072  0.29712692  1
  Rb  Rb32  1  0.76635815  0.18817436  0.94334200  1
  Rb  Rb33  1  0.26635815  0.31182564  0.05665800  1
  Rb  Rb34  1  0.23364185  0.68817436  0.55665800  1
  Rb  Rb35  1  0.73364185  0.81182564  0.44334200  1
  Rb  Rb36  1  0.23364185  0.81182564  0.05665800  1
  Rb  Rb37  1  0.73364185  0.68817436  0.94334200  1
  Rb  Rb38  1  0.76635815  0.31182564  0.44334200  1
  Rb  Rb39  1  0.26635815  0.18817436  0.55665800  1
  Rb  Rb40  1  0.75036603  0.05546725  0.53487045  1
  Rb  Rb41  1  0.25036603  0.44453275  0.46512955  1
  Rb  Rb42  1  0.24963397  0.55546725  0.96512955  1
  Rb  Rb43  1  0.74963397  0.94453275  0.03487045  1
  Rb  Rb44  1  0.24963397  0.94453275  0.46512955  1
  Rb  Rb45  1  0.74963397  0.55546725  0.53487045  1
  Rb  Rb46  1  0.75036603  0.44453275  0.03487045  1
  Rb  Rb47  1  0.25036603  0.05546725  0.96512955  1
  Rb  Rb48  1  0.62597304  0.17327491  0.15164633  1
  Rb  Rb49  1  0.12597304  0.32672509  0.84835367  1
  Rb  Rb50  1  0.37402696  0.67327491  0.34835367  1
  Rb  Rb51  1  0.87402696  0.82672509  0.65164633  1
  Rb  Rb52  1  0.37402696  0.82672509  0.84835367  1
  Rb  Rb53  1  0.87402696  0.67327491  0.15164633  1
  Rb  Rb54  1  0.62597304  0.32672509  0.65164633  1
  Rb  Rb55  1  0.12597304  0.17327491  0.34835367  1
  Pb  Pb56  1  0.60779163  0.06240809  0.34913255  1
  Pb  Pb57  1  0.10779163  0.43759191  0.65086745  1
  Pb  Pb58  1  0.39220837  0.56240809  0.15086745  1
  Pb  Pb59  1  0.89220837  0.93759191  0.84913255  1
  Pb  Pb60  1  0.39220837  0.93759191  0.65086745  1
  Pb  Pb61  1  0.89220837  0.56240809  0.34913255  1
  Pb  Pb62  1  0.60779163  0.43759191  0.84913255  1
  Pb  Pb63  1  0.10779163  0.06240809  0.15086745  1
