# generated using pymatgen
data_HoSi3Rh5
_symmetry_space_group_name_H-M   'P 1'
_cell_length_a   15.64253946
_cell_length_b   15.64253946
_cell_length_c   3.87926992
_cell_angle_alpha   90.00000000
_cell_angle_beta   90.00000000
_cell_angle_gamma   120.00000003
_symmetry_Int_Tables_number   1
_chemical_formula_structural   HoSi3Rh5
_chemical_formula_sum   'Ho6 Si18 Rh30'
_cell_volume   822.04416112
_cell_formula_units_Z   6
loop_
 _symmetry_equiv_pos_site_id
 _symmetry_equiv_pos_as_xyz
  1  'x, y, z'
loop_
 _atom_site_type_symbol
 _atom_site_label
 _atom_site_symmetry_multiplicity
 _atom_site_fract_x
 _atom_site_fract_y
 _atom_site_fract_z
 _atom_site_occupancy
  Si  Si0  1  0.44171115  0.76041613  0.75000000  1
  Si  Si1  1  0.68129501  0.44171115  0.25000000  1
  Si  Si2  1  0.76041613  0.31870499  0.25000000  1
  Si  Si3  1  0.23958387  0.68129501  0.75000000  1
  Si  Si4  1  0.31870499  0.55828885  0.75000000  1
  Si  Si5  1  0.55828885  0.23958387  0.25000000  1
  Si  Si6  1  0.88049792  0.13094660  0.25000000  1
  Si  Si7  1  0.11950208  0.86905340  0.75000000  1
  Si  Si8  1  0.13094660  0.25044868  0.75000000  1
  Si  Si9  1  0.25044868  0.11950208  0.25000000  1
  Si  Si10  1  0.37077795  0.93816028  0.25000000  1
  Si  Si11  1  0.43261766  0.37077795  0.75000000  1
  Si  Si12  1  0.93816028  0.56738234  0.75000000  1
  Si  Si13  1  0.06183972  0.43261766  0.25000000  1
  Si  Si14  1  0.56738234  0.62922205  0.25000000  1
  Si  Si15  1  0.62922205  0.06183972  0.75000000  1
  Si  Si16  1  0.74955132  0.88049792  0.75000000  1
  Si  Si17  1  0.86905340  0.74955132  0.25000000  1
  Rh  Rh18  1  0.46373227  0.92490826  0.75000000  1
  Rh  Rh19  1  0.15379182  0.41450550  0.75000000  1
  Rh  Rh20  1  0.26071369  0.84620818  0.75000000  1
  Rh  Rh21  1  0.73928631  0.15379182  0.25000000  1
  Rh  Rh22  1  0.84620818  0.58549450  0.25000000  1
  Rh  Rh23  1  0.41450550  0.26071369  0.25000000  1
  Rh  Rh24  1  0.65212456  0.22339574  0.75000000  1
  Rh  Rh25  1  0.42872883  0.65212456  0.25000000  1
  Rh  Rh26  1  0.22339574  0.57127117  0.25000000  1
  Rh  Rh27  1  0.77660426  0.42872883  0.75000000  1
  Rh  Rh28  1  0.57127117  0.34787544  0.75000000  1
  Rh  Rh29  1  0.34787544  0.77660426  0.25000000  1
  Rh  Rh30  1  0.14298810  0.02914093  0.75000000  1
  Rh  Rh31  1  0.11384717  0.14298810  0.25000000  1
  Rh  Rh32  1  0.02914093  0.88615283  0.25000000  1
  Rh  Rh33  1  0.97085907  0.11384717  0.75000000  1
  Rh  Rh34  1  0.88615283  0.85701190  0.75000000  1
  Rh  Rh35  1  0.85701190  0.97085907  0.25000000  1
  Rh  Rh36  1  0.92490826  0.46117600  0.25000000  1
  Rh  Rh37  1  0.07509174  0.53882400  0.75000000  1
  Rh  Rh38  1  0.46117600  0.53626773  0.75000000  1
  Rh  Rh39  1  0.53626773  0.07509174  0.25000000  1
  Rh  Rh40  1  0.72844377  0.77218397  0.25000000  1
  Rh  Rh41  1  0.95625980  0.72844377  0.75000000  1
  Rh  Rh42  1  0.77218397  0.04374020  0.75000000  1
  Rh  Rh43  1  0.22781603  0.95625980  0.25000000  1
  Rh  Rh44  1  0.04374020  0.27155623  0.25000000  1
  Rh  Rh45  1  0.27155623  0.22781603  0.75000000  1
  Rh  Rh46  1  0.58549450  0.73928631  0.75000000  1
  Rh  Rh47  1  0.53882400  0.46373227  0.25000000  1
  Ho  Ho48  1  0.60606889  0.89999371  0.25000000  1
  Ho  Ho49  1  0.70607517  0.60606889  0.75000000  1
  Ho  Ho50  1  0.89999371  0.29392483  0.75000000  1
  Ho  Ho51  1  0.10000629  0.70607517  0.25000000  1
  Ho  Ho52  1  0.29392483  0.39393111  0.25000000  1
  Ho  Ho53  1  0.39393111  0.10000629  0.75000000  1
