# generated using pymatgen
data_YbGeRh
_symmetry_space_group_name_H-M   'P 1'
_cell_length_a   4.39886724
_cell_length_b   7.20237822
_cell_length_c   7.10170001
_cell_angle_alpha   90.00000000
_cell_angle_beta   90.00000000
_cell_angle_gamma   90.00000000
_symmetry_Int_Tables_number   1
_chemical_formula_structural   YbGeRh
_chemical_formula_sum   'Yb4 Ge4 Rh4'
_cell_volume   224.99823001
_cell_formula_units_Z   4
loop_
 _symmetry_equiv_pos_site_id
 _symmetry_equiv_pos_as_xyz
  1  'x, y, z'
loop_
 _atom_site_type_symbol
 _atom_site_label
 _atom_site_symmetry_multiplicity
 _atom_site_fract_x
 _atom_site_fract_y
 _atom_site_fract_z
 _atom_site_occupancy
  Ge  Ge0  1  0.25000000  0.79990592  0.10724652  1
  Ge  Ge1  1  0.75000000  0.20009408  0.89275348  1
  Ge  Ge2  1  0.25000000  0.29990592  0.39275348  1
  Ge  Ge3  1  0.75000000  0.70009408  0.60724652  1
  Rh  Rh4  1  0.75000000  0.85333543  0.93047684  1
  Rh  Rh5  1  0.25000000  0.14666457  0.06952316  1
  Rh  Rh6  1  0.75000000  0.35333543  0.56952316  1
  Rh  Rh7  1  0.25000000  0.64666457  0.43047684  1
  Yb  Yb8  1  0.25000000  0.49119335  0.81289387  1
  Yb  Yb9  1  0.75000000  0.50880665  0.18710613  1
  Yb  Yb10  1  0.25000000  0.99119335  0.68710613  1
  Yb  Yb11  1  0.75000000  0.00880665  0.31289387  1
