# generated using pymatgen
data_Sr(InS2)2
_symmetry_space_group_name_H-M   'P 1'
_cell_length_a   12.52278177
_cell_length_b   12.52278177
_cell_length_c   12.58713486
_cell_angle_alpha   106.02531890
_cell_angle_beta   106.02531888
_cell_angle_gamma   116.42580088
_symmetry_Int_Tables_number   1
_chemical_formula_structural   Sr(InS2)2
_chemical_formula_sum   'Sr8 In16 S32'
_cell_volume   1505.47395315
_cell_formula_units_Z   8
loop_
 _symmetry_equiv_pos_site_id
 _symmetry_equiv_pos_as_xyz
  1  'x, y, z'
loop_
 _atom_site_type_symbol
 _atom_site_label
 _atom_site_symmetry_multiplicity
 _atom_site_fract_x
 _atom_site_fract_y
 _atom_site_fract_z
 _atom_site_occupancy
  S  S0  1  0.18418588  0.68207601  0.82793060  1
  S  S1  1  0.85414541  0.85625528  0.67206940  1
  S  S2  1  0.31792399  0.81581412  0.67206940  1
  S  S3  1  0.14374472  0.14585459  0.82793060  1
  S  S4  1  0.81581412  0.31792399  0.17206940  1
  S  S5  1  0.14585459  0.14374472  0.32793060  1
  S  S6  1  0.68207601  0.18418588  0.32793060  1
  S  S7  1  0.85625528  0.85414541  0.17206940  1
  S  S8  1  0.83643792  0.34106695  0.68846359  1
  S  S9  1  0.65260336  0.64797433  0.81153641  1
  S  S10  1  0.65893305  0.16356208  0.81153641  1
  S  S11  1  0.35202567  0.34739664  0.68846359  1
  S  S12  1  0.16356208  0.65893305  0.31153641  1
  S  S13  1  0.34739664  0.35202567  0.18846359  1
  S  S14  1  0.34106695  0.83643792  0.18846359  1
  S  S15  1  0.64797433  0.65260336  0.31153641  1
  S  S16  1  0.41147396  0.58809723  0.99801360  1
  S  S17  1  0.59008363  0.91346036  0.50198640  1
  S  S18  1  0.41190277  0.58852604  0.50198640  1
  S  S19  1  0.08653964  0.40991637  0.99801360  1
  S  S20  1  0.58852604  0.41190277  0.00198640  1
  S  S21  1  0.40991637  0.08653964  0.49801360  1
  S  S22  1  0.58809723  0.41147396  0.49801360  1
  S  S23  1  0.91346036  0.59008363  0.00198640  1
  S  S24  1  0.41088541  0.08638309  0.00131577  1
  S  S25  1  0.08506732  0.90956964  0.49868423  1
  S  S26  1  0.91361691  0.58911459  0.49868423  1
  S  S27  1  0.09043036  0.91493268  0.00131577  1
  S  S28  1  0.58911459  0.91361691  0.99868423  1
  S  S29  1  0.91493268  0.09043036  0.50131577  1
  S  S30  1  0.08638309  0.41088541  0.50131577  1
  S  S31  1  0.90956964  0.08506732  0.99868423  1
  Sr  Sr32  1  0.12500000  0.87500000  0.75000000  1
  Sr  Sr33  1  0.87500000  0.12500000  0.25000000  1
  Sr  Sr34  1  0.62500000  0.37500000  0.75000000  1
  Sr  Sr35  1  0.37500000  0.62500000  0.25000000  1
  Sr  Sr36  1  0.87159098  0.12840902  0.75000000  1
  Sr  Sr37  1  0.37840902  0.62159098  0.75000000  1
  Sr  Sr38  1  0.12840902  0.87159098  0.25000000  1
  Sr  Sr39  1  0.62159098  0.37840902  0.25000000  1
  In  In40  1  0.46214061  0.96335521  0.60741036  1
  In  In41  1  0.35594485  0.35473025  0.89258964  1
  In  In42  1  0.03664479  0.53785939  0.89258964  1
  In  In43  1  0.64526975  0.64405515  0.60741036  1
  In  In44  1  0.53785939  0.03664479  0.39258964  1
  In  In45  1  0.64405515  0.64526975  0.10741036  1
  In  In46  1  0.96335521  0.46214061  0.10741036  1
  In  In47  1  0.35473025  0.35594485  0.39258964  1
  In  In48  1  0.13962074  0.13718952  0.52546191  1
  In  In49  1  0.61172761  0.11415882  0.97453809  1
  In  In50  1  0.86281048  0.86037926  0.97453809  1
  In  In51  1  0.88584118  0.38827239  0.52546191  1
  In  In52  1  0.86037926  0.86281048  0.47453809  1
  In  In53  1  0.38827239  0.88584118  0.02546191  1
  In  In54  1  0.13718952  0.13962074  0.02546191  1
  In  In55  1  0.11415882  0.61172761  0.47453809  1
