# generated using pymatgen
data_Ga3Co
_symmetry_space_group_name_H-M   'P 1'
_cell_length_a   6.27048120
_cell_length_b   6.27048120
_cell_length_c   6.46649094
_cell_angle_alpha   90.00000000
_cell_angle_beta   90.00000000
_cell_angle_gamma   90.00000000
_symmetry_Int_Tables_number   1
_chemical_formula_structural   Ga3Co
_chemical_formula_sum   'Ga12 Co4'
_cell_volume   254.25553358
_cell_formula_units_Z   4
loop_
 _symmetry_equiv_pos_site_id
 _symmetry_equiv_pos_as_xyz
  1  'x, y, z'
loop_
 _atom_site_type_symbol
 _atom_site_label
 _atom_site_symmetry_multiplicity
 _atom_site_fract_x
 _atom_site_fract_y
 _atom_site_fract_z
 _atom_site_occupancy
  Co  Co0  1  0.34514315  0.15485685  0.25000000  1
  Co  Co1  1  0.15485685  0.65485685  0.75000000  1
  Co  Co2  1  0.84514315  0.34514315  0.75000000  1
  Co  Co3  1  0.65485685  0.84514315  0.25000000  1
  Ga  Ga4  1  0.00000000  0.00000000  0.25000000  1
  Ga  Ga5  1  0.00000000  0.00000000  0.75000000  1
  Ga  Ga6  1  0.50000000  0.50000000  0.25000000  1
  Ga  Ga7  1  0.50000000  0.50000000  0.75000000  1
  Ga  Ga8  1  0.15128055  0.34871945  0.99499501  1
  Ga  Ga9  1  0.34871945  0.84871945  0.00500499  1
  Ga  Ga10  1  0.65128055  0.15128055  0.00500499  1
  Ga  Ga11  1  0.84871945  0.65128055  0.99499501  1
  Ga  Ga12  1  0.84871945  0.65128055  0.50500499  1
  Ga  Ga13  1  0.15128055  0.34871945  0.50500499  1
  Ga  Ga14  1  0.34871945  0.84871945  0.49499501  1
  Ga  Ga15  1  0.65128055  0.15128055  0.49499501  1
