# generated using pymatgen
data_DyYO3
_symmetry_space_group_name_H-M   'P 1'
_cell_length_a   6.44555509
_cell_length_b   6.44567824
_cell_length_c   12.80003879
_cell_angle_alpha   89.99975288
_cell_angle_beta   90.00018452
_cell_angle_gamma   120.00098424
_symmetry_Int_Tables_number   1
_chemical_formula_structural   DyYO3
_chemical_formula_sum   'Dy6 Y6 O18'
_cell_volume   460.53915185
_cell_formula_units_Z   6
loop_
 _symmetry_equiv_pos_site_id
 _symmetry_equiv_pos_as_xyz
  1  'x, y, z'
loop_
 _atom_site_type_symbol
 _atom_site_label
 _atom_site_symmetry_multiplicity
 _atom_site_fract_x
 _atom_site_fract_y
 _atom_site_fract_z
 _atom_site_occupancy
  Dy  Dy0  1  0.99997445  0.66685110  0.50138774  1
  Dy  Dy1  1  0.00000888  0.33315328  0.00138734  1
  Dy  Dy2  1  0.33310047  0.33309547  0.50138590  1
  Dy  Dy3  1  0.66688252  0.66690355  0.00138463  1
  Dy  Dy4  1  0.33312452  0.00002246  0.00138436  1
  Dy  Dy5  1  0.66685741  0.99997507  0.50138379  1
  Y  Y6  1  0.33332997  0.66667771  0.23676527  1
  Y  Y7  1  0.99999923  0.00001361  0.26991819  1
  Y  Y8  1  0.99999424  0.99999618  0.76991598  1
  Y  Y9  1  0.33331903  0.66665032  0.73676111  1
  Y  Y10  1  0.66666158  0.33332386  0.73676249  1
  Y  Y11  1  0.66667020  0.33334633  0.23676273  1
  O  O12  1  0.99999978  0.69402883  0.67541651  1
  O  O13  1  0.00000012  0.63647328  0.32902029  1
  O  O14  1  0.99999130  0.36352712  0.82901945  1
  O  O15  1  -0.00000409  0.30597429  0.17541536  1
  O  O16  1  0.33333571  0.66670056  0.03003141  1
  O  O17  1  0.99997363  0.99996931  0.46663024  1
  O  O18  1  0.00000461  0.00002982  0.96663151  1
  O  O19  1  0.33330700  0.66664231  0.53003222  1
  O  O20  1  0.30596146  0.30595318  0.67542007  1
  O  O21  1  0.36353419  0.36355214  0.32902549  1
  O  O22  1  0.30598523  0.00001235  0.17541629  1
  O  O23  1  0.63644570  0.63644559  0.82902478  1
  O  O24  1  0.69402577  0.69403625  0.17542014  1
  O  O25  1  0.36352957  0.99997957  0.82902183  1
  O  O26  1  0.66664792  0.33330214  0.53003058  1
  O  O27  1  0.66667707  0.33335452  0.03002967  1
  O  O28  1  0.63645902  0.00001227  0.32902326  1
  O  O29  1  0.69400351  0.99999453  0.67541535  1
