# generated using pymatgen
data_U(SiNi)2
_symmetry_space_group_name_H-M   'P 1'
_cell_length_a   3.94606589
_cell_length_b   3.94606589
_cell_length_c   5.47396537
_cell_angle_alpha   111.12718520
_cell_angle_beta   111.12718529
_cell_angle_gamma   90.00000002
_symmetry_Int_Tables_number   1
_chemical_formula_structural   U(SiNi)2
_chemical_formula_sum   'U1 Si2 Ni2'
_cell_volume   73.33233630
_cell_formula_units_Z   1
loop_
 _symmetry_equiv_pos_site_id
 _symmetry_equiv_pos_as_xyz
  1  'x, y, z'
loop_
 _atom_site_type_symbol
 _atom_site_label
 _atom_site_symmetry_multiplicity
 _atom_site_fract_x
 _atom_site_fract_y
 _atom_site_fract_z
 _atom_site_occupancy
  Si  Si0  1  0.62345981  0.62345981  0.24691962  1
  Si  Si1  1  0.37654019  0.37654019  0.75308038  1
  Ni  Ni2  1  0.75000000  0.25000000  0.50000000  1
  Ni  Ni3  1  0.25000000  0.75000000  0.50000000  1
  U  U4  1  0.00000000  0.00000000  0.00000000  1
