# generated using pymatgen
data_RuC4(O2F3)2
_symmetry_space_group_name_H-M   'P 1'
_cell_length_a   5.34350121
_cell_length_b   8.74748172
_cell_length_c   9.25290262
_cell_angle_alpha   81.93756190
_cell_angle_beta   84.17016018
_cell_angle_gamma   87.12169981
_symmetry_Int_Tables_number   1
_chemical_formula_structural   RuC4(O2F3)2
_chemical_formula_sum   'Ru2 C8 O8 F12'
_cell_volume   425.72697665
_cell_formula_units_Z   2
loop_
 _symmetry_equiv_pos_site_id
 _symmetry_equiv_pos_as_xyz
  1  'x, y, z'
loop_
 _atom_site_type_symbol
 _atom_site_label
 _atom_site_symmetry_multiplicity
 _atom_site_fract_x
 _atom_site_fract_y
 _atom_site_fract_z
 _atom_site_occupancy
  Ru  Ru0  1  0.32039093  0.53544269  0.44293538  1
  Ru  Ru1  1  0.67960907  0.46455731  0.55706462  1
  O  O2  1  0.28778291  0.73684607  0.54030485  1
  O  O3  1  0.71221709  0.26315393  0.45969515  1
  O  O4  1  0.10575794  0.42224443  0.62803165  1
  O  O5  1  0.89424206  0.57775557  0.37196835  1
  O  O6  1  0.53678527  0.64347834  0.26333082  1
  O  O7  1  0.46321473  0.35652166  0.73666918  1
  O  O8  1  0.35587901  0.33278199  0.34834441  1
  O  O9  1  0.64412099  0.66721801  0.65165559  1
  F  F10  1  0.29251111  0.01783387  0.62453013  1
  F  F11  1  0.70748889  0.98216613  0.37546987  1
  F  F12  1  0.64883794  0.95624553  0.72120631  1
  F  F13  1  0.35116206  0.04375447  0.27879369  1
  F  F14  1  0.93658427  0.16712729  0.84008702  1
  F  F15  1  0.06341573  0.83287271  0.15991298  1
  F  F16  1  0.90123546  0.39068397  0.92446460  1
  F  F17  1  0.09876454  0.60931603  0.07553540  1
  C  C18  1  0.45582946  0.75660807  0.62275966  1
  C  C19  1  0.54417054  0.24339193  0.37724034  1
  F  F20  1  0.29456579  0.86694159  0.83542730  1
  F  F21  1  0.70543421  0.13305841  0.16457270  1
  F  F22  1  0.21425292  0.22709337  0.98053973  1
  F  F23  1  0.78574708  0.77290663  0.01946027  1
  C  C24  1  0.22755494  0.35956573  0.73517475  1
  C  C25  1  0.77244506  0.64043427  0.26482525  1
  C  C26  1  0.06840628  0.28357172  0.87363217  1
  C  C27  1  0.93159372  0.71642828  0.12636783  1
  C  C28  1  0.42438230  0.90243627  0.70160518  1
  C  C29  1  0.57561770  0.09756373  0.29839482  1
