# generated using pymatgen
data_Ce(SeO4)2
_symmetry_space_group_name_H-M   'P 1'
_cell_length_a   9.40986626
_cell_length_b   9.96641300
_cell_length_c   14.07985446
_cell_angle_alpha   90.00000000
_cell_angle_beta   90.00000000
_cell_angle_gamma   90.00000000
_symmetry_Int_Tables_number   1
_chemical_formula_structural   Ce(SeO4)2
_chemical_formula_sum   'Ce8 Se16 O64'
_cell_volume   1320.44554786
_cell_formula_units_Z   8
loop_
 _symmetry_equiv_pos_site_id
 _symmetry_equiv_pos_as_xyz
  1  'x, y, z'
loop_
 _atom_site_type_symbol
 _atom_site_label
 _atom_site_symmetry_multiplicity
 _atom_site_fract_x
 _atom_site_fract_y
 _atom_site_fract_z
 _atom_site_occupancy
  Ce  Ce0  1  0.22058097  0.03643895  0.10250036  1
  Ce  Ce1  1  0.77941903  0.46356105  0.60250036  1
  Ce  Ce2  1  0.72058097  0.46356105  0.10250036  1
  Ce  Ce3  1  0.27941903  0.53643895  0.89749964  1
  Ce  Ce4  1  0.77941903  0.96356105  0.89749964  1
  Ce  Ce5  1  0.72058097  0.96356105  0.39749964  1
  Ce  Ce6  1  0.27941903  0.03643895  0.60250036  1
  Ce  Ce7  1  0.22058097  0.53643895  0.39749964  1
  Se  Se8  1  0.99896587  0.27545066  0.94066804  1
  Se  Se9  1  0.49896587  0.22454934  0.94066804  1
  Se  Se10  1  0.81691439  0.60633832  0.34569233  1
  Se  Se11  1  0.68308561  0.60633832  0.84569233  1
  Se  Se12  1  0.68308561  0.10633832  0.65430767  1
  Se  Se13  1  0.18308561  0.89366168  0.84569233  1
  Se  Se14  1  0.31691439  0.39366168  0.15430767  1
  Se  Se15  1  0.50103413  0.77545066  0.05933196  1
  Se  Se16  1  0.31691439  0.89366168  0.34569233  1
  Se  Se17  1  0.81691439  0.10633832  0.15430767  1
  Se  Se18  1  0.00103413  0.72454934  0.05933196  1
  Se  Se19  1  0.49896587  0.72454934  0.55933196  1
  Se  Se20  1  0.18308561  0.39366168  0.65430767  1
  Se  Se21  1  0.50103413  0.27545066  0.44066804  1
  Se  Se22  1  0.00103413  0.22454934  0.44066804  1
  Se  Se23  1  0.99896587  0.77545066  0.55933196  1
  O  O24  1  0.24015770  0.42192441  0.54341902  1
  O  O25  1  0.74015770  0.07807559  0.54341902  1
  O  O26  1  0.88744114  0.18660395  0.87391287  1
  O  O27  1  0.57997530  0.35617547  0.52992703  1
  O  O28  1  0.92002470  0.35617547  0.02992703  1
  O  O29  1  0.50704787  0.58548177  0.84047262  1
  O  O30  1  0.61255886  0.18660395  0.37391287  1
  O  O31  1  0.76150453  0.50020008  0.77102895  1
  O  O32  1  0.91471031  0.11393870  0.37256628  1
  O  O33  1  0.58528969  0.61393870  0.62743372  1
  O  O34  1  0.23849547  -0.00020008  0.27102895  1
  O  O35  1  0.75984230  0.57807559  0.45658098  1
  O  O36  1  0.73849547  0.50020008  0.27102895  1
  O  O37  1  0.73006801  0.76257622  0.81598548  1
  O  O38  1  0.99295213  0.08548177  0.15952738  1
  O  O39  1  0.00704787  0.41451823  0.65952738  1
  O  O40  1  0.92002470  0.85617547  0.47007297  1
  O  O41  1  0.76150453  1.00020008  0.72897105  1
  O  O42  1  0.49295213  0.91451823  0.34047262  1
  O  O43  1  0.08528969  0.38606130  0.87256628  1
  O  O44  1  0.11255886  0.31339605  0.37391287  1
  O  O45  1  0.76993199  0.26257622  0.18401452  1
  O  O46  1  0.61255886  0.68660395  0.12608713  1
  O  O47  1  0.41471031  0.38606130  0.37256628  1
  O  O48  1  0.57997530  0.85617547  0.97007297  1
  O  O49  1  0.07997530  0.14382453  0.52992703  1
  O  O50  1  0.07997530  0.64382453  0.97007297  1
  O  O51  1  0.11636829  0.16572729  0.98644463  1
  O  O52  1  0.61636829  0.83427271  0.51355537  1
  O  O53  1  0.42002470  0.14382453  0.02992703  1
  O  O54  1  0.11255886  0.81339605  0.12608713  1
  O  O55  1  0.76993199  0.76257622  0.31598548  1
  O  O56  1  0.25984230  0.92192441  0.45658098  1
  O  O57  1  0.73849547  1.00020008  0.22897105  1
  O  O58  1  0.88744114  0.68660395  0.62608713  1
  O  O59  1  0.38363171  0.16572729  0.48644463  1
  O  O60  1  0.24015770  0.92192441  0.95658098  1
  O  O61  1  0.88363171  0.33427271  0.48644463  1
  O  O62  1  0.38744114  0.31339605  0.87391287  1
  O  O63  1  0.23006801  0.23742378  0.68401452  1
  O  O64  1  0.58528969  0.11393870  0.87256628  1
  O  O65  1  0.26993199  0.73742378  0.31598548  1
  O  O66  1  0.42002470  0.64382453  0.47007297  1
  O  O67  1  0.74015770  0.57807559  0.95658098  1
  O  O68  1  0.26150453  0.49979992  0.72897105  1
  O  O69  1  0.26993199  0.23742378  0.18401452  1
  O  O70  1  0.38363171  0.66572729  0.01355537  1
  O  O71  1  0.25984230  0.42192441  0.04341902  1
  O  O72  1  0.99295213  0.58548177  0.34047262  1
  O  O73  1  0.73006801  0.26257622  0.68401452  1
  O  O74  1  0.49295213  0.41451823  0.15952738  1
  O  O75  1  0.11636829  0.66572729  0.51355537  1
  O  O76  1  0.88363171  0.83427271  0.01355537  1
  O  O77  1  0.23849547  0.49979992  0.22897105  1
  O  O78  1  0.75984230  0.07807559  0.04341902  1
  O  O79  1  0.41471031  0.88606130  0.12743372  1
  O  O80  1  0.91471031  0.61393870  0.12743372  1
  O  O81  1  0.00704787  0.91451823  0.84047262  1
  O  O82  1  0.08528969  0.88606130  0.62743372  1
  O  O83  1  0.23006801  0.73742378  0.81598548  1
  O  O84  1  0.26150453  -0.00020008  0.77102895  1
  O  O85  1  0.38744114  0.81339605  0.62608713  1
  O  O86  1  0.50704787  0.08548177  0.65952738  1
  O  O87  1  0.61636829  0.33427271  0.98644463  1
