# generated using pymatgen
data_Eu(SiIr)2
_symmetry_space_group_name_H-M   'P 1'
_cell_length_a   4.12895601
_cell_length_b   4.12895601
_cell_length_c   5.89395544
_cell_angle_alpha   110.50385353
_cell_angle_beta   110.50385356
_cell_angle_gamma   90.00000004
_symmetry_Int_Tables_number   1
_chemical_formula_structural   Eu(SiIr)2
_chemical_formula_sum   'Eu1 Si2 Ir2'
_cell_volume   87.28746809
_cell_formula_units_Z   1
loop_
 _symmetry_equiv_pos_site_id
 _symmetry_equiv_pos_as_xyz
  1  'x, y, z'
loop_
 _atom_site_type_symbol
 _atom_site_label
 _atom_site_symmetry_multiplicity
 _atom_site_fract_x
 _atom_site_fract_y
 _atom_site_fract_z
 _atom_site_occupancy
  Si  Si0  1  0.62660054  0.62660054  0.25320108  1
  Si  Si1  1  0.37339946  0.37339946  0.74679892  1
  Eu  Eu2  1  0.00000000  0.00000000  0.00000000  1
  Ir  Ir3  1  0.75000000  0.25000000  0.50000000  1
  Ir  Ir4  1  0.25000000  0.75000000  0.50000000  1
