# generated using pymatgen
data_GdIn2Rh
_symmetry_space_group_name_H-M   'P 1'
_cell_length_a   4.38921867
_cell_length_b   5.53306045
_cell_length_c   8.03055621
_cell_angle_alpha   90.00000000
_cell_angle_beta   90.00000000
_cell_angle_gamma   113.36802787
_symmetry_Int_Tables_number   1
_chemical_formula_structural   GdIn2Rh
_chemical_formula_sum   'Gd2 In4 Rh2'
_cell_volume   179.03157535
_cell_formula_units_Z   2
loop_
 _symmetry_equiv_pos_site_id
 _symmetry_equiv_pos_as_xyz
  1  'x, y, z'
loop_
 _atom_site_type_symbol
 _atom_site_label
 _atom_site_symmetry_multiplicity
 _atom_site_fract_x
 _atom_site_fract_y
 _atom_site_fract_z
 _atom_site_occupancy
  Rh  Rh0  1  0.78363041  0.56726081  0.75000000  1
  Rh  Rh1  1  0.21636959  0.43273919  0.25000000  1
  In  In2  1  0.35523119  0.71046238  0.55064737  1
  In  In3  1  0.64476881  0.28953762  0.44935263  1
  In  In4  1  0.35523119  0.71046238  0.94935263  1
  In  In5  1  0.64476881  0.28953762  0.05064737  1
  Gd  Gd6  1  0.93269830  0.86539660  0.25000000  1
  Gd  Gd7  1  0.06730170  0.13460340  0.75000000  1
