# generated using pymatgen
data_MnSiIr
_symmetry_space_group_name_H-M   'P 1'
_cell_length_a   3.86284493
_cell_length_b   6.05959852
_cell_length_c   7.24399610
_cell_angle_alpha   90.00000000
_cell_angle_beta   90.00000000
_cell_angle_gamma   90.00000000
_symmetry_Int_Tables_number   1
_chemical_formula_structural   MnSiIr
_chemical_formula_sum   'Mn4 Si4 Ir4'
_cell_volume   169.56231328
_cell_formula_units_Z   4
loop_
 _symmetry_equiv_pos_site_id
 _symmetry_equiv_pos_as_xyz
  1  'x, y, z'
loop_
 _atom_site_type_symbol
 _atom_site_label
 _atom_site_symmetry_multiplicity
 _atom_site_fract_x
 _atom_site_fract_y
 _atom_site_fract_z
 _atom_site_occupancy
  Si  Si0  1  0.25000000  0.26825866  0.87594829  1
  Si  Si1  1  0.75000000  0.73174134  0.12405171  1
  Si  Si2  1  0.25000000  0.76825866  0.62405171  1
  Si  Si3  1  0.75000000  0.23174134  0.37594829  1
  Mn  Mn4  1  0.75000000  0.96892935  0.82068949  1
  Mn  Mn5  1  0.25000000  0.03107065  0.17931051  1
  Mn  Mn6  1  0.75000000  0.46892935  0.67931051  1
  Mn  Mn7  1  0.25000000  0.53107065  0.32068949  1
  Ir  Ir8  1  0.25000000  0.66393423  0.93751211  1
  Ir  Ir9  1  0.75000000  0.33606577  0.06248789  1
  Ir  Ir10  1  0.25000000  0.16393423  0.56248789  1
  Ir  Ir11  1  0.75000000  0.83606577  0.43751211  1
