# generated using pymatgen
data_LiCuPO4
_symmetry_space_group_name_H-M   'P 1'
_cell_length_a   7.43297861
_cell_length_b   9.76270714
_cell_length_c   4.89441887
_cell_angle_alpha   90.00000000
_cell_angle_beta   98.40596182
_cell_angle_gamma   90.00000000
_symmetry_Int_Tables_number   1
_chemical_formula_structural   LiCuPO4
_chemical_formula_sum   'Li4 Cu4 P4 O16'
_cell_volume   351.35283874
_cell_formula_units_Z   4
loop_
 _symmetry_equiv_pos_site_id
 _symmetry_equiv_pos_as_xyz
  1  'x, y, z'
loop_
 _atom_site_type_symbol
 _atom_site_label
 _atom_site_symmetry_multiplicity
 _atom_site_fract_x
 _atom_site_fract_y
 _atom_site_fract_z
 _atom_site_occupancy
  Li  Li0  1  0.21690747  0.30768242  0.29972156  1
  Li  Li1  1  0.24712928  0.75500926  0.64911463  1
  Li  Li2  1  0.75287072  0.25500926  0.35088537  1
  Li  Li3  1  0.78309253  0.80768242  0.70027844  1
  Cu  Cu4  1  0.06002323  0.99780371  0.12893913  1
  Cu  Cu5  1  0.45951678  0.16065185  0.91276479  1
  Cu  Cu6  1  0.54048322  0.66065185  0.08723521  1
  Cu  Cu7  1  0.93997677  0.49780371  0.87106087  1
  P  P8  1  0.04484596  0.19669618  0.77094972  1
  P  P9  1  0.44568713  0.90054254  0.23219689  1
  P  P10  1  0.55431287  0.40054254  0.76780311  1
  P  P11  1  0.95515404  0.69669618  0.22905028  1
  O  O12  1  0.09427471  0.33796063  0.90941364  1
  O  O13  1  0.01802095  0.20736405  0.45591532  1
  O  O14  1  0.11205028  0.61908301  0.11634373  1
  O  O15  1  0.21102651  0.10064516  0.89305007  1
  O  O16  1  0.26683184  0.91407338  0.36157452  1
  O  O17  1  0.42989670  0.29158117  0.59431125  1
  O  O18  1  0.40759304  0.83062512  0.94309754  1
  O  O19  1  0.45509474  0.53919951  0.78240999  1
  O  O20  1  0.54490526  0.03919951  0.21759001  1
  O  O21  1  0.59240696  0.33062512  0.05690246  1
  O  O22  1  0.57010330  0.79158117  0.40568875  1
  O  O23  1  0.73316816  0.41407338  0.63842548  1
  O  O24  1  0.78897349  0.60064516  0.10694993  1
  O  O25  1  0.88794972  0.11908301  0.88365627  1
  O  O26  1  0.98197905  0.70736405  0.54408468  1
  O  O27  1  0.90572529  0.83796063  0.09058636  1
