# generated using pymatgen
data_NbNiTe2
_symmetry_space_group_name_H-M   'P 1'
_cell_length_a   6.30633581
_cell_length_b   7.48112864
_cell_length_c   8.02431690
_cell_angle_alpha   90.00000000
_cell_angle_beta   90.00000000
_cell_angle_gamma   90.00000000
_symmetry_Int_Tables_number   1
_chemical_formula_structural   NbNiTe2
_chemical_formula_sum   'Nb4 Ni4 Te8'
_cell_volume   378.57531063
_cell_formula_units_Z   4
loop_
 _symmetry_equiv_pos_site_id
 _symmetry_equiv_pos_as_xyz
  1  'x, y, z'
loop_
 _atom_site_type_symbol
 _atom_site_label
 _atom_site_symmetry_multiplicity
 _atom_site_fract_x
 _atom_site_fract_y
 _atom_site_fract_z
 _atom_site_occupancy
  Ni  Ni0  1  0.10611219  0.34507753  0.75000000  1
  Ni  Ni1  1  0.89388781  0.34507753  0.25000000  1
  Ni  Ni2  1  0.39438043  0.57993840  0.75000000  1
  Ni  Ni3  1  0.60561957  0.57993840  0.25000000  1
  Nb  Nb4  1  0.75016548  0.46271927  0.95623100  1
  Nb  Nb5  1  0.24983452  0.46271927  0.04376900  1
  Nb  Nb6  1  0.24983452  0.46271927  0.45623100  1
  Nb  Nb7  1  0.75016548  0.46271927  0.54376900  1
  Te  Te8  1  -0.00081585  0.68116703  0.75000000  1
  Te  Te9  1  1.00081585  0.68116703  0.25000000  1
  Te  Te10  1  0.00000000  0.14940914  0.00000000  1
  Te  Te11  1  0.00000000  0.14940914  0.50000000  1
  Te  Te12  1  0.50151019  0.24404020  0.75000000  1
  Te  Te13  1  0.49848981  0.24404020  0.25000000  1
  Te  Te14  1  0.50000000  0.77582916  0.00000000  1
  Te  Te15  1  0.50000000  0.77582916  0.50000000  1
