# generated using pymatgen
data_CeNiGe
_symmetry_space_group_name_H-M   'P 1'
_cell_length_a   4.30563926
_cell_length_b   7.20830517
_cell_length_c   7.20207040
_cell_angle_alpha   90.00000000
_cell_angle_beta   90.00000000
_cell_angle_gamma   90.00000000
_symmetry_Int_Tables_number   1
_chemical_formula_structural   CeNiGe
_chemical_formula_sum   'Ce4 Ni4 Ge4'
_cell_volume   223.52606220
_cell_formula_units_Z   4
loop_
 _symmetry_equiv_pos_site_id
 _symmetry_equiv_pos_as_xyz
  1  'x, y, z'
loop_
 _atom_site_type_symbol
 _atom_site_label
 _atom_site_symmetry_multiplicity
 _atom_site_fract_x
 _atom_site_fract_y
 _atom_site_fract_z
 _atom_site_occupancy
  Ni  Ni0  1  0.75000000  0.07953490  0.29804355  1
  Ni  Ni1  1  0.75000000  0.42046510  0.79804355  1
  Ni  Ni2  1  0.25000000  0.57953490  0.20195645  1
  Ni  Ni3  1  0.25000000  0.92046510  0.70195645  1
  Ge  Ge4  1  0.75000000  0.40974752  0.19772060  1
  Ge  Ge5  1  0.75000000  0.09025248  0.69772060  1
  Ge  Ge6  1  0.25000000  0.90974752  0.30227940  1
  Ge  Ge7  1  0.25000000  0.59025248  0.80227940  1
  Ce  Ce8  1  0.25000000  0.29056104  0.48819527  1
  Ce  Ce9  1  0.75000000  0.70943896  0.51180473  1
  Ce  Ce10  1  0.75000000  0.79056104  0.01180473  1
  Ce  Ce11  1  0.25000000  0.20943896  0.98819527  1
