# generated using pymatgen
data_K2In12Se19
_symmetry_space_group_name_H-M   'P 1'
_cell_length_a   14.59434947
_cell_length_b   14.59434947
_cell_length_c   14.59434947
_cell_angle_alpha   58.33886059
_cell_angle_beta   58.33886060
_cell_angle_gamma   58.33886058
_symmetry_Int_Tables_number   1
_chemical_formula_structural   K2In12Se19
_chemical_formula_sum   'K4 In24 Se38'
_cell_volume   2114.45711553
_cell_formula_units_Z   2
loop_
 _symmetry_equiv_pos_site_id
 _symmetry_equiv_pos_as_xyz
  1  'x, y, z'
loop_
 _atom_site_type_symbol
 _atom_site_label
 _atom_site_symmetry_multiplicity
 _atom_site_fract_x
 _atom_site_fract_y
 _atom_site_fract_z
 _atom_site_occupancy
  K  K0  1  0.41333232  0.41333232  0.41333232  1
  K  K1  1  0.58666768  0.58666768  0.58666768  1
  K  K2  1  0.92122494  0.92122494  0.92122494  1
  K  K3  1  0.07877506  0.07877506  0.07877506  1
  Se  Se4  1  0.75101404  0.75101404  0.75101404  1
  Se  Se5  1  0.24898596  0.24898596  0.24898596  1
  Se  Se6  1  0.77234186  0.19920688  0.89458224  1
  Se  Se7  1  0.89458224  0.77234186  0.19920688  1
  Se  Se8  1  0.19920688  0.89458224  0.77234186  1
  Se  Se9  1  0.22765814  0.80079312  0.10541776  1
  Se  Se10  1  0.10541776  0.22765814  0.80079312  1
  Se  Se11  1  0.80079312  0.10541776  0.22765814  1
  Se  Se12  1  0.26849663  0.71114133  0.38753496  1
  Se  Se13  1  0.38753496  0.26849663  0.71114133  1
  Se  Se14  1  0.71114133  0.38753496  0.26849663  1
  Se  Se15  1  0.73150337  0.28885867  0.61246504  1
  Se  Se16  1  0.61246504  0.73150337  0.28885867  1
  Se  Se17  1  0.28885867  0.61246504  0.73150337  1
  Se  Se18  1  0.15242897  0.50840530  0.38002144  1
  Se  Se19  1  0.38002144  0.15242897  0.50840530  1
  Se  Se20  1  0.50840530  0.38002144  0.15242897  1
  Se  Se21  1  0.84757103  0.49159470  0.61997856  1
  Se  Se22  1  0.61997856  0.84757103  0.49159470  1
  Se  Se23  1  0.49159470  0.61997856  0.84757103  1
  Se  Se24  1  0.65191022  0.99713688  0.88028128  1
  Se  Se25  1  0.88028128  0.65191022  0.99713688  1
  Se  Se26  1  0.99713688  0.88028128  0.65191022  1
  Se  Se27  1  0.34808978  0.00286312  0.11971872  1
  Se  Se28  1  0.11971872  0.34808978  0.00286312  1
  Se  Se29  1  0.00286312  0.11971872  0.34808978  1
  Se  Se30  1  0.03355777  0.19188283  0.58481926  1
  Se  Se31  1  0.58481926  0.03355777  0.19188283  1
  Se  Se32  1  0.19188283  0.58481926  0.03355777  1
  Se  Se33  1  0.96644223  0.80811717  0.41518074  1
  Se  Se34  1  0.41518074  0.96644223  0.80811717  1
  Se  Se35  1  0.80811717  0.41518074  0.96644223  1
  Se  Se36  1  0.53479838  0.67977186  0.08345316  1
  Se  Se37  1  0.08345316  0.53479838  0.67977186  1
  Se  Se38  1  0.67977186  0.08345316  0.53479838  1
  Se  Se39  1  0.46520162  0.32022814  0.91654684  1
  Se  Se40  1  0.91654684  0.46520162  0.32022814  1
  Se  Se41  1  0.32022814  0.91654684  0.46520162  1
  In  In42  1  0.19839665  0.10294983  0.67643536  1
  In  In43  1  0.67643536  0.19839665  0.10294983  1
  In  In44  1  0.10294983  0.67643536  0.19839665  1
  In  In45  1  0.80160335  0.89705017  0.32356464  1
  In  In46  1  0.32356464  0.80160335  0.89705017  1
  In  In47  1  0.89705017  0.32356464  0.80160335  1
  In  In48  1  0.69168580  0.60134936  0.17576797  1
  In  In49  1  0.17576797  0.69168580  0.60134936  1
  In  In50  1  0.60134936  0.17576797  0.69168580  1
  In  In51  1  0.30831420  0.39865064  0.82423203  1
  In  In52  1  0.82423203  0.30831420  0.39865064  1
  In  In53  1  0.39865064  0.82423203  0.30831420  1
  In  In54  1  0.39730444  0.09102990  0.36290729  1
  In  In55  1  0.36290729  0.39730444  0.09102990  1
  In  In56  1  0.09102990  0.36290729  0.39730444  1
  In  In57  1  0.60269556  0.90897010  0.63709271  1
  In  In58  1  0.63709271  0.60269556  0.90897010  1
  In  In59  1  0.90897010  0.63709271  0.60269556  1
  In  In60  1  0.10142275  0.03672382  0.49956339  1
  In  In61  1  0.49956339  0.10142275  0.03672382  1
  In  In62  1  0.03672382  0.49956339  0.10142275  1
  In  In63  1  0.89857725  0.96327618  0.50043661  1
  In  In64  1  0.50043661  0.89857725  0.96327618  1
  In  In65  1  0.96327618  0.50043661  0.89857725  1
