# generated using pymatgen
data_Lu6UO12
_symmetry_space_group_name_H-M   'P 1'
_cell_length_a   6.43849329
_cell_length_b   6.43849330
_cell_length_c   6.43849330
_cell_angle_alpha   99.19852910
_cell_angle_beta   99.19852907
_cell_angle_gamma   99.19852910
_symmetry_Int_Tables_number   1
_chemical_formula_structural   Lu6UO12
_chemical_formula_sum   'Lu6 U1 O12'
_cell_volume   255.33083367
_cell_formula_units_Z   1
loop_
 _symmetry_equiv_pos_site_id
 _symmetry_equiv_pos_as_xyz
  1  'x, y, z'
loop_
 _atom_site_type_symbol
 _atom_site_label
 _atom_site_symmetry_multiplicity
 _atom_site_fract_x
 _atom_site_fract_y
 _atom_site_fract_z
 _atom_site_occupancy
  O  O0  1  0.42295047  0.17816350  0.58578367  1
  O  O1  1  0.17816350  0.58578367  0.42295047  1
  O  O2  1  0.58578367  0.42295047  0.17816350  1
  O  O3  1  0.57704953  0.82183650  0.41421633  1
  O  O4  1  0.82183650  0.41421633  0.57704953  1
  O  O5  1  0.41421633  0.57704953  0.82183650  1
  O  O6  1  0.05001415  0.91173082  0.68724693  1
  O  O7  1  0.31275307  0.94998585  0.08826918  1
  O  O8  1  0.08826918  0.31275307  0.94998585  1
  O  O9  1  0.94998585  0.08826918  0.31275307  1
  O  O10  1  0.68724693  0.05001415  0.91173082  1
  O  O11  1  0.91173082  0.68724693  0.05001415  1
  Lu  Lu12  1  0.67281033  0.39084479  0.85431204  1
  Lu  Lu13  1  0.39084479  0.85431204  0.67281033  1
  Lu  Lu14  1  0.85431204  0.67281033  0.39084479  1
  Lu  Lu15  1  0.32718967  0.60915521  0.14568796  1
  Lu  Lu16  1  0.60915521  0.14568796  0.32718967  1
  Lu  Lu17  1  0.14568796  0.32718967  0.60915521  1
  U  U18  1  0.00000000  0.00000000  0.00000000  1
