# generated using pymatgen
data_LuTiSi
_symmetry_space_group_name_H-M   'P 1'
_cell_length_a   3.98145264
_cell_length_b   3.98145264
_cell_length_c   7.41293535
_cell_angle_alpha   90.00000000
_cell_angle_beta   90.00000000
_cell_angle_gamma   90.00000000
_symmetry_Int_Tables_number   1
_chemical_formula_structural   LuTiSi
_chemical_formula_sum   'Lu2 Ti2 Si2'
_cell_volume   117.50959264
_cell_formula_units_Z   2
loop_
 _symmetry_equiv_pos_site_id
 _symmetry_equiv_pos_as_xyz
  1  'x, y, z'
loop_
 _atom_site_type_symbol
 _atom_site_label
 _atom_site_symmetry_multiplicity
 _atom_site_fract_x
 _atom_site_fract_y
 _atom_site_fract_z
 _atom_site_occupancy
  Si  Si0  1  0.75000000  0.75000000  0.75410711  1
  Si  Si1  1  0.25000000  0.25000000  0.24589289  1
  Ti  Ti2  1  0.75000000  0.25000000  0.00000000  1
  Ti  Ti3  1  0.25000000  0.75000000  0.00000000  1
  Lu  Lu4  1  0.75000000  0.75000000  0.34400761  1
  Lu  Lu5  1  0.25000000  0.25000000  0.65599239  1
