# generated using pymatgen
data_Li4B4Sb2SO16
_symmetry_space_group_name_H-M   'P 1'
_cell_length_a   9.74520991
_cell_length_b   9.46974855
_cell_length_c   9.74520949
_cell_angle_alpha   61.57726851
_cell_angle_beta   94.29901947
_cell_angle_gamma   61.57726645
_symmetry_Int_Tables_number   1
_chemical_formula_structural   Li4B4Sb2SO16
_chemical_formula_sum   'Li8 B8 Sb4 S2 O32'
_cell_volume   640.55955366
_cell_formula_units_Z   2
loop_
 _symmetry_equiv_pos_site_id
 _symmetry_equiv_pos_as_xyz
  1  'x, y, z'
loop_
 _atom_site_type_symbol
 _atom_site_label
 _atom_site_symmetry_multiplicity
 _atom_site_fract_x
 _atom_site_fract_y
 _atom_site_fract_z
 _atom_site_occupancy
  Li  Li0  1  0.07481618  0.85036765  0.82481618  1
  Li  Li1  1  0.07663786  0.25000000  0.82663786  1
  Li  Li2  1  0.32663786  0.75000000  0.57663786  1
  Li  Li3  1  0.32481618  0.35036765  0.57481618  1
  Li  Li4  1  0.67518382  0.64963235  0.42518382  1
  Li  Li5  1  0.67336214  0.25000000  0.42336214  1
  Li  Li6  1  0.92336214  0.75000000  0.17336214  1
  Li  Li7  1  0.92518382  0.14963235  0.17518382  1
  B  B8  1  0.35241578  0.93452851  0.77157545  1
  B  B9  1  0.27157545  0.43452851  0.85241578  1
  B  B10  1  0.71305571  0.93452851  0.79389604  1
  B  B11  1  0.70610396  0.56547149  0.78694429  1
  B  B12  1  0.29389604  0.43452851  0.21305571  1
  B  B13  1  0.28694429  0.06547149  0.20610396  1
  B  B14  1  0.72842455  0.56547149  0.14758422  1
  B  B15  1  0.64758422  0.06547149  0.22842455  1
  Sb  Sb16  1  0.00000000  0.50000000  0.00000000  1
  Sb  Sb17  1  0.50000000  0.00000000  0.50000000  1
  Sb  Sb18  1  0.50000000  0.50000000  0.00000000  1
  Sb  Sb19  1  0.50000000  0.00000000  0.00000000  1
  S  S20  1  0.12500000  0.75000000  0.37500000  1
  S  S21  1  0.87500000  0.25000000  0.62500000  1
  O  O22  1  0.34951284  0.78739114  0.90134408  1
  O  O23  1  0.06966234  0.88250852  0.43253242  1
  O  O24  1  0.35826561  0.94574894  0.62643267  1
  O  O25  1  0.12643267  0.44574894  0.85826561  1
  O  O26  1  0.69598545  0.94574894  0.92781839  1
  O  O27  1  0.29103375  0.57248199  0.84799754  1
  O  O28  1  0.04782814  0.88250852  0.18495906  1
  O  O29  1  0.06746758  0.61749148  0.43033766  1
  O  O30  1  0.42047953  0.92751801  0.36351575  1
  O  O31  1  0.57218161  0.55425106  0.80401455  1
  O  O32  1  0.40134408  0.28739114  0.84951284  1
  O  O33  1  0.31504094  0.61749148  0.45217186  1
  O  O34  1  0.86309501  0.78739114  0.81126478  1
  O  O35  1  0.68873522  0.71260886  0.63690499  1
  O  O36  1  0.34799754  0.07248199  0.79103375  1
  O  O37  1  0.13648425  0.57248199  0.07952047  1
  O  O38  1  0.86351575  0.42751801  0.92047953  1
  O  O39  1  0.65200246  0.92751801  0.20896625  1
  O  O40  1  0.31126478  0.28739114  0.36309501  1
  O  O41  1  0.13690499  0.21260886  0.18873522  1
  O  O42  1  0.68495906  0.38250852  0.54782814  1
  O  O43  1  0.59865592  0.71260886  0.15048716  1
  O  O44  1  0.42781839  0.44574894  0.19598545  1
  O  O45  1  0.57952047  0.07248199  0.63648425  1
  O  O46  1  0.93253242  0.38250852  0.56966234  1
  O  O47  1  0.95217186  0.11749148  0.81504094  1
  O  O48  1  0.70896625  0.42751801  0.15200246  1
  O  O49  1  0.30401455  0.05425106  0.07218161  1
  O  O50  1  0.87356733  0.55425106  0.14173439  1
  O  O51  1  0.64173439  0.05425106  0.37356733  1
  O  O52  1  0.93033766  0.11749148  0.56746758  1
  O  O53  1  0.65048716  0.21260886  0.09865592  1
