# generated using pymatgen
data_U3Co4Ge7
_symmetry_space_group_name_H-M   'P 1'
_cell_length_a   4.13712542
_cell_length_b   4.13712542
_cell_length_c   14.00420737
_cell_angle_alpha   98.49424607
_cell_angle_beta   98.49424607
_cell_angle_gamma   90.00000000
_symmetry_Int_Tables_number   1
_chemical_formula_structural   U3Co4Ge7
_chemical_formula_sum   'U3 Co4 Ge7'
_cell_volume   234.40528239
_cell_formula_units_Z   1
loop_
 _symmetry_equiv_pos_site_id
 _symmetry_equiv_pos_as_xyz
  1  'x, y, z'
loop_
 _atom_site_type_symbol
 _atom_site_label
 _atom_site_symmetry_multiplicity
 _atom_site_fract_x
 _atom_site_fract_y
 _atom_site_fract_z
 _atom_site_occupancy
  U  U0  1  -0.00000000  0.00000000  -0.00000000  1
  U  U1  1  0.67324917  0.67324917  0.34649834  1
  U  U2  1  0.32675083  0.32675083  0.65350166  1
  Co  Co3  1  0.25000000  0.75000000  0.50000000  1
  Co  Co4  1  0.75000000  0.25000000  0.50000000  1
  Co  Co5  1  0.88179451  0.88179451  0.76358902  1
  Co  Co6  1  0.11820549  0.11820549  0.23641098  1
  Ge  Ge7  1  0.50000000  0.50000000  -0.00000000  1
  Ge  Ge8  1  0.08136225  0.58136225  0.16272450  1
  Ge  Ge9  1  0.58136225  0.08136225  0.16272450  1
  Ge  Ge10  1  0.91863775  0.41863775  0.83727550  1
  Ge  Ge11  1  0.41863775  0.91863775  0.83727550  1
  Ge  Ge12  1  0.79692406  0.79692406  0.59384812  1
  Ge  Ge13  1  0.20307594  0.20307594  0.40615188  1
