# generated using pymatgen
data_Hg(SbO3)2
_symmetry_space_group_name_H-M   'P 1'
_cell_length_a   4.92532817
_cell_length_b   4.92532609
_cell_length_c   9.80720441
_cell_angle_alpha   89.99999201
_cell_angle_beta   89.99993885
_cell_angle_gamma   89.99998709
_symmetry_Int_Tables_number   1
_chemical_formula_structural   Hg(SbO3)2
_chemical_formula_sum   'Hg2 Sb4 O12'
_cell_volume   237.91147459
_cell_formula_units_Z   2
loop_
 _symmetry_equiv_pos_site_id
 _symmetry_equiv_pos_as_xyz
  1  'x, y, z'
loop_
 _atom_site_type_symbol
 _atom_site_label
 _atom_site_symmetry_multiplicity
 _atom_site_fract_x
 _atom_site_fract_y
 _atom_site_fract_z
 _atom_site_occupancy
  Hg  Hg0  1  0.00000047  -0.00000061  -0.00000028  1
  Hg  Hg1  1  0.50000046  0.49999963  0.50000005  1
  Sb  Sb2  1  -0.00000003  0.00000023  0.33148867  1
  Sb  Sb3  1  -0.00000010  0.99999960  0.66851122  1
  Sb  Sb4  1  0.49999999  0.49999942  0.16851122  1
  Sb  Sb5  1  0.50000063  0.49999964  0.83148838  1
  O  O6  1  0.17471106  0.82529046  0.50000001  1
  O  O7  1  0.20990497  0.79009695  0.81273837  1
  O  O8  1  0.20990376  0.79009595  0.18726154  1
  O  O9  1  0.29009713  0.29009715  0.31273868  1
  O  O10  1  0.29009437  0.29009621  0.68726150  1
  O  O11  1  0.32528879  0.32528878  0.00000027  1
  O  O12  1  0.67471024  0.67471112  0.00000019  1
  O  O13  1  0.70990493  0.70990341  0.31273868  1
  O  O14  1  0.70990358  0.70990466  0.68726159  1
  O  O15  1  0.79009590  0.20990199  0.18726154  1
  O  O16  1  0.79009443  0.20990585  0.81273822  1
  O  O17  1  0.82528941  0.17470957  0.50000015  1
