# generated using pymatgen
data_Nd6Fe13Sn
_symmetry_space_group_name_H-M   'P 1'
_cell_length_a   8.06790469
_cell_length_b   8.06790468
_cell_length_c   13.06307129
_cell_angle_alpha   107.98727795
_cell_angle_beta   107.98727796
_cell_angle_gamma   89.99999997
_symmetry_Int_Tables_number   1
_chemical_formula_structural   Nd6Fe13Sn
_chemical_formula_sum   'Nd12 Fe26 Sn2'
_cell_volume   764.91938207
_cell_formula_units_Z   2
loop_
 _symmetry_equiv_pos_site_id
 _symmetry_equiv_pos_as_xyz
  1  'x, y, z'
loop_
 _atom_site_type_symbol
 _atom_site_label
 _atom_site_symmetry_multiplicity
 _atom_site_fract_x
 _atom_site_fract_y
 _atom_site_fract_z
 _atom_site_occupancy
  Fe  Fe0  1  0.97988727  0.70643758  0.18632485  1
  Fe  Fe1  1  0.79356242  0.52011273  0.81367515  1
  Fe  Fe2  1  0.00000000  0.50000000  0.00000000  1
  Fe  Fe3  1  0.50000000  0.00000000  0.00000000  1
  Fe  Fe4  1  0.20957142  0.93360554  0.00000000  1
  Fe  Fe5  1  0.43360554  0.70957142  0.00000000  1
  Fe  Fe6  1  0.56639446  0.29042858  0.00000000  1
  Fe  Fe7  1  0.70957142  0.56639446  0.00000000  1
  Fe  Fe8  1  0.29042858  0.43360554  0.00000000  1
  Fe  Fe9  1  0.06639446  0.20957142  0.00000000  1
  Fe  Fe10  1  0.93360554  0.79042858  0.00000000  1
  Fe  Fe11  1  0.79042858  0.06639446  0.00000000  1
  Fe  Fe12  1  0.37946164  0.23727477  0.11673641  1
  Fe  Fe13  1  0.02011273  0.29356242  0.81367515  1
  Fe  Fe14  1  0.23727477  0.73727477  0.11673641  1
  Fe  Fe15  1  0.76272523  0.26272523  0.88326359  1
  Fe  Fe16  1  0.12053836  0.62053836  0.88326359  1
  Fe  Fe17  1  0.62053836  0.76272523  0.88326359  1
  Fe  Fe18  1  0.26272523  0.12053836  0.88326359  1
  Fe  Fe19  1  0.73727477  0.87946164  0.11673641  1
  Fe  Fe20  1  0.87946164  0.37946164  0.11673641  1
  Fe  Fe21  1  0.47988727  0.97988727  0.18632485  1
  Fe  Fe22  1  0.70643758  0.20643758  0.18632485  1
  Fe  Fe23  1  0.29356242  0.79356242  0.81367515  1
  Fe  Fe24  1  0.52011273  0.02011273  0.81367515  1
  Fe  Fe25  1  0.20643758  0.47988727  0.18632485  1
  Sn  Sn26  1  0.25000000  0.25000000  0.50000000  1
  Sn  Sn27  1  0.75000000  0.75000000  0.50000000  1
  Nd  Nd28  1  0.15129988  0.97952305  0.63082293  1
  Nd  Nd29  1  0.89565057  0.89565057  0.79130115  1
  Nd  Nd30  1  0.39565057  0.39565057  0.79130115  1
  Nd  Nd31  1  0.10434943  0.10434943  0.20869885  1
  Nd  Nd32  1  0.84870012  0.02047695  0.36917707  1
  Nd  Nd33  1  0.60434943  0.60434943  0.20869885  1
  Nd  Nd34  1  0.47952305  0.65129988  0.63082293  1
  Nd  Nd35  1  0.97952305  0.47952305  0.63082293  1
  Nd  Nd36  1  0.65129988  0.15129988  0.63082293  1
  Nd  Nd37  1  0.34870012  0.84870012  0.36917707  1
  Nd  Nd38  1  0.02047695  0.52047695  0.36917707  1
  Nd  Nd39  1  0.52047695  0.34870012  0.36917707  1
