# generated using pymatgen
data_Ba3NaIr2O9
_symmetry_space_group_name_H-M   'P 1'
_cell_length_a   5.96240999
_cell_length_b   5.96240999
_cell_length_c   14.60820315
_cell_angle_alpha   90.00000000
_cell_angle_beta   90.00000000
_cell_angle_gamma   119.99999995
_symmetry_Int_Tables_number   1
_chemical_formula_structural   Ba3NaIr2O9
_chemical_formula_sum   'Ba6 Na2 Ir4 O18'
_cell_volume   449.74992885
_cell_formula_units_Z   2
loop_
 _symmetry_equiv_pos_site_id
 _symmetry_equiv_pos_as_xyz
  1  'x, y, z'
loop_
 _atom_site_type_symbol
 _atom_site_label
 _atom_site_symmetry_multiplicity
 _atom_site_fract_x
 _atom_site_fract_y
 _atom_site_fract_z
 _atom_site_occupancy
  O  O0  1  0.17977307  0.82022693  0.08923740  1
  O  O1  1  0.17977307  0.35954614  0.08923740  1
  O  O2  1  0.64045386  0.82022693  0.08923740  1
  O  O3  1  0.35954614  0.17977307  0.58923740  1
  O  O4  1  0.82022693  0.64045386  0.91076260  1
  O  O5  1  0.82022693  0.17977307  0.58923740  1
  O  O6  1  0.82022693  0.64045386  0.58923740  1
  O  O7  1  0.17977307  0.82022693  0.41076260  1
  O  O8  1  0.64045386  0.82022693  0.41076260  1
  O  O9  1  0.35954614  0.17977307  0.91076260  1
  O  O10  1  0.82022693  0.17977307  0.91076260  1
  O  O11  1  0.17977307  0.35954614  0.41076260  1
  O  O12  1  0.48972828  0.97945655  0.25000000  1
  O  O13  1  0.51027172  0.48972828  0.75000000  1
  O  O14  1  0.97945655  0.48972828  0.75000000  1
  O  O15  1  0.02054345  0.51027172  0.25000000  1
  O  O16  1  0.48972828  0.51027172  0.25000000  1
  O  O17  1  0.51027172  0.02054345  0.75000000  1
  Na  Na18  1  0.00000000  0.00000000  0.50000000  1
  Na  Na19  1  0.00000000  0.00000000  0.00000000  1
  Ba  Ba20  1  0.33333333  0.66666667  0.91612784  1
  Ba  Ba21  1  0.00000000  0.00000000  0.75000000  1
  Ba  Ba22  1  0.66666667  0.33333333  0.41612784  1
  Ba  Ba23  1  0.66666667  0.33333333  0.08387216  1
  Ba  Ba24  1  0.00000000  0.00000000  0.25000000  1
  Ba  Ba25  1  0.33333333  0.66666667  0.58387216  1
  Ir  Ir26  1  0.33333333  0.66666667  0.33750410  1
  Ir  Ir27  1  0.33333333  0.66666667  0.16249590  1
  Ir  Ir28  1  0.66666667  0.33333333  0.66249590  1
  Ir  Ir29  1  0.66666667  0.33333333  0.83750410  1
