# generated using pymatgen
data_U2Nb3Ge4
_symmetry_space_group_name_H-M   'P 1'
_cell_length_a   7.02101100
_cell_length_b   7.20714272
_cell_length_c   13.53500104
_cell_angle_alpha   90.00000000
_cell_angle_beta   90.00000000
_cell_angle_gamma   90.00000000
_symmetry_Int_Tables_number   1
_chemical_formula_structural   U2Nb3Ge4
_chemical_formula_sum   'U8 Nb12 Ge16'
_cell_volume   684.89038488
_cell_formula_units_Z   4
loop_
 _symmetry_equiv_pos_site_id
 _symmetry_equiv_pos_as_xyz
  1  'x, y, z'
loop_
 _atom_site_type_symbol
 _atom_site_label
 _atom_site_symmetry_multiplicity
 _atom_site_fract_x
 _atom_site_fract_y
 _atom_site_fract_z
 _atom_site_occupancy
  Ge  Ge0  1  0.80810104  0.64029090  0.25000000  1
  Ge  Ge1  1  0.30810104  0.85970910  0.25000000  1
  Ge  Ge2  1  0.69189896  0.14029090  0.75000000  1
  Ge  Ge3  1  0.19189896  0.35970910  0.75000000  1
  Ge  Ge4  1  0.03942361  0.12449751  0.25000000  1
  Ge  Ge5  1  0.53942361  0.37550249  0.25000000  1
  Ge  Ge6  1  0.46057639  0.62449751  0.75000000  1
  Ge  Ge7  1  0.96057639  0.87550249  0.75000000  1
  Ge  Ge8  1  0.17314337  0.45716669  0.45685041  1
  Ge  Ge9  1  0.67314337  0.04283331  0.04314959  1
  Ge  Ge10  1  0.67314337  0.04283331  0.45685041  1
  Ge  Ge11  1  0.17314337  0.45716669  0.04314959  1
  Ge  Ge12  1  0.82685663  0.54283331  0.54314959  1
  Ge  Ge13  1  0.82685663  0.54283331  0.95685041  1
  Ge  Ge14  1  0.32685663  0.95716669  0.95685041  1
  Ge  Ge15  1  0.32685663  0.95716669  0.54314959  1
  Nb  Nb16  1  0.83179260  0.50447372  0.75000000  1
  Nb  Nb17  1  0.33179260  0.99552628  0.75000000  1
  Nb  Nb18  1  0.66820740  0.00447372  0.25000000  1
  Nb  Nb19  1  0.16820740  0.49552628  0.25000000  1
  Nb  Nb20  1  0.16062671  0.66719837  0.87479558  1
  Nb  Nb21  1  0.33937329  0.16719837  0.12520442  1
  Nb  Nb22  1  0.33937329  0.16719837  0.37479558  1
  Nb  Nb23  1  0.83937329  0.33280163  0.12520442  1
  Nb  Nb24  1  0.16062671  0.66719837  0.62520442  1
  Nb  Nb25  1  0.66062671  0.83280163  0.87479558  1
  Nb  Nb26  1  0.83937329  0.33280163  0.37479558  1
  Nb  Nb27  1  0.66062671  0.83280163  0.62520442  1
  U  U28  1  0.49321048  0.33025039  0.59081298  1
  U  U29  1  0.99321048  0.16974961  0.90918702  1
  U  U30  1  0.00678952  0.83025039  0.40918702  1
  U  U31  1  0.50678952  0.66974961  0.09081298  1
  U  U32  1  0.50678952  0.66974961  0.40918702  1
  U  U33  1  0.00678952  0.83025039  0.09081298  1
  U  U34  1  0.99321048  0.16974961  0.59081298  1
  U  U35  1  0.49321048  0.33025039  0.90918702  1
