# generated using pymatgen
data_Cs2In2Sb3
_symmetry_space_group_name_H-M   'P 1'
_cell_length_a   7.79396320
_cell_length_b   16.15168318
_cell_length_c   18.43578028
_cell_angle_alpha   90.55297788
_cell_angle_beta   90.00000000
_cell_angle_gamma   90.00000000
_symmetry_Int_Tables_number   1
_chemical_formula_structural   Cs2In2Sb3
_chemical_formula_sum   'Cs16 In16 Sb24'
_cell_volume   2320.69162332
_cell_formula_units_Z   8
loop_
 _symmetry_equiv_pos_site_id
 _symmetry_equiv_pos_as_xyz
  1  'x, y, z'
loop_
 _atom_site_type_symbol
 _atom_site_label
 _atom_site_symmetry_multiplicity
 _atom_site_fract_x
 _atom_site_fract_y
 _atom_site_fract_z
 _atom_site_occupancy
  In  In0  1  0.75849373  0.59412961  0.75934216  1
  In  In1  1  0.74150627  0.59412961  0.25934216  1
  In  In2  1  0.24150627  0.40587039  0.24065784  1
  In  In3  1  0.25849373  0.40587039  0.74065784  1
  In  In4  1  0.73566653  0.81884280  0.31819488  1
  In  In5  1  0.23566653  0.18115720  0.18180512  1
  In  In6  1  0.26433347  0.18115720  0.68180512  1
  In  In7  1  0.76433347  0.81884280  0.81819488  1
  In  In8  1  0.70837055  0.09277513  0.23177447  1
  In  In9  1  0.20837055  0.90722487  0.26822553  1
  In  In10  1  0.29162945  0.90722487  0.76822553  1
  In  In11  1  0.79162945  0.09277513  0.73177447  1
  In  In12  1  0.27812624  0.68462187  0.82459863  1
  In  In13  1  0.72187376  0.31537813  0.17540137  1
  In  In14  1  0.77812624  0.31537813  0.67540137  1
  In  In15  1  0.22187376  0.68462187  0.32459863  1
  Sb  Sb16  1  0.56518260  0.67390355  0.38150950  1
  Sb  Sb17  1  0.43481740  0.32609645  0.61849050  1
  Sb  Sb18  1  0.06518260  0.32609645  0.11849050  1
  Sb  Sb19  1  0.93481740  0.67390355  0.88150950  1
  Sb  Sb20  1  0.83231235  0.74673350  0.17741435  1
  Sb  Sb21  1  0.33231235  0.25326650  0.32258565  1
  Sb  Sb22  1  0.16768765  0.25326650  0.82258565  1
  Sb  Sb23  1  0.66768765  0.74673350  0.67741435  1
  Sb  Sb24  1  0.45572127  0.52515812  0.83239168  1
  Sb  Sb25  1  0.95572127  0.47484188  0.66760832  1
  Sb  Sb26  1  0.54427873  0.47484188  0.16760832  1
  Sb  Sb27  1  0.04427873  0.52515812  0.33239168  1
  Sb  Sb28  1  0.29762059  0.75492024  0.68046744  1
  Sb  Sb29  1  0.20237941  0.75492024  0.18046744  1
  Sb  Sb30  1  0.70237941  0.24507976  0.31953256  1
  Sb  Sb31  1  0.79762059  0.24507976  0.81953256  1
  Sb  Sb32  1  0.96417784  0.97166045  0.82335419  1
  Sb  Sb33  1  0.46417784  0.02833955  0.67664581  1
  Sb  Sb34  1  0.03582216  0.02833955  0.17664581  1
  Sb  Sb35  1  0.53582216  0.97166045  0.32335419  1
  Sb  Sb36  1  0.44481949  0.83339260  0.89642929  1
  Sb  Sb37  1  0.94481949  0.16660740  0.60357071  1
  Sb  Sb38  1  0.55518051  0.16660740  0.10357071  1
  Sb  Sb39  1  0.05518051  0.83339260  0.39642929  1
  Cs  Cs40  1  0.55083895  0.44526528  0.39733255  1
  Cs  Cs41  1  0.05083895  0.55473472  0.10266745  1
  Cs  Cs42  1  0.44916105  0.55473472  0.60266745  1
  Cs  Cs43  1  0.94916105  0.44526528  0.89733255  1
  Cs  Cs44  1  0.97051874  0.92494754  0.60969608  1
  Cs  Cs45  1  0.47051874  0.07505246  0.89030392  1
  Cs  Cs46  1  0.02948126  0.07505246  0.39030392  1
  Cs  Cs47  1  0.52948126  0.92494754  0.10969608  1
  Cs  Cs48  1  0.95951420  0.65282550  0.51834074  1
  Cs  Cs49  1  0.45951420  0.34717450  0.98165926  1
  Cs  Cs50  1  0.04048580  0.34717450  0.48165926  1
  Cs  Cs51  1  0.54048580  0.65282550  0.01834074  1
  Cs  Cs52  1  0.52322347  0.14262093  0.49468882  1
  Cs  Cs53  1  0.02322347  0.85737907  0.00531118  1
  Cs  Cs54  1  0.47677653  0.85737907  0.50531118  1
  Cs  Cs55  1  0.97677653  0.14262093  0.99468882  1
