# generated using pymatgen
data_YNi5Ge3
_symmetry_space_group_name_H-M   'P 1'
_cell_length_a   3.87165041
_cell_length_b   6.80704551
_cell_length_c   19.14346298
_cell_angle_alpha   90.00000000
_cell_angle_beta   90.00000000
_cell_angle_gamma   90.00000000
_symmetry_Int_Tables_number   1
_chemical_formula_structural   YNi5Ge3
_chemical_formula_sum   'Y4 Ni20 Ge12'
_cell_volume   504.51640544
_cell_formula_units_Z   4
loop_
 _symmetry_equiv_pos_site_id
 _symmetry_equiv_pos_as_xyz
  1  'x, y, z'
loop_
 _atom_site_type_symbol
 _atom_site_label
 _atom_site_symmetry_multiplicity
 _atom_site_fract_x
 _atom_site_fract_y
 _atom_site_fract_z
 _atom_site_occupancy
  Ni  Ni0  1  0.75000000  0.85735436  0.11287485  1
  Ni  Ni1  1  0.25000000  0.88311727  0.98604424  1
  Ni  Ni2  1  0.75000000  0.11688273  0.01395576  1
  Ni  Ni3  1  0.75000000  0.38311727  0.51395576  1
  Ni  Ni4  1  0.25000000  0.36627605  0.00393206  1
  Ni  Ni5  1  0.75000000  0.63372395  0.99606794  1
  Ni  Ni6  1  0.75000000  0.86627605  0.49606794  1
  Ni  Ni7  1  0.25000000  0.13372395  0.50393206  1
  Ni  Ni8  1  0.25000000  0.68963946  0.19992901  1
  Ni  Ni9  1  0.75000000  0.31036054  0.80007099  1
  Ni  Ni10  1  0.75000000  0.18963946  0.30007099  1
  Ni  Ni11  1  0.25000000  0.81036054  0.69992901  1
  Ni  Ni12  1  0.25000000  0.07363779  0.20767627  1
  Ni  Ni13  1  0.75000000  0.92636221  0.79232373  1
  Ni  Ni14  1  0.75000000  0.57363779  0.29232373  1
  Ni  Ni15  1  0.25000000  0.14264564  0.88712515  1
  Ni  Ni16  1  0.25000000  0.35735436  0.38712515  1
  Ni  Ni17  1  0.75000000  0.64264564  0.61287485  1
  Ni  Ni18  1  0.25000000  0.42636221  0.70767627  1
  Ni  Ni19  1  0.25000000  0.61688273  0.48604424  1
  Ge  Ge20  1  0.25000000  0.40941698  0.58645486  1
  Ge  Ge21  1  0.25000000  0.38304034  0.26327135  1
  Ge  Ge22  1  0.75000000  0.61695966  0.73672865  1
  Ge  Ge23  1  0.75000000  0.88304034  0.23672865  1
  Ge  Ge24  1  0.25000000  0.64940442  0.07556015  1
  Ge  Ge25  1  0.75000000  0.35059558  0.92443985  1
  Ge  Ge26  1  0.75000000  0.14940442  0.42443985  1
  Ge  Ge27  1  0.25000000  0.85059558  0.57556015  1
  Ge  Ge28  1  0.25000000  0.11695966  0.76327135  1
  Ge  Ge29  1  0.75000000  0.90941698  0.91354514  1
  Ge  Ge30  1  0.75000000  0.59058302  0.41354514  1
  Ge  Ge31  1  0.25000000  0.09058302  0.08645486  1
  Y  Y32  1  0.25000000  0.62150032  0.85479708  1
  Y  Y33  1  0.75000000  0.37849968  0.14520292  1
  Y  Y34  1  0.75000000  0.12150032  0.64520292  1
  Y  Y35  1  0.25000000  0.87849968  0.35479708  1
