# generated using pymatgen
data_Li3SbN3(O3F)3
_symmetry_space_group_name_H-M   'P 1'
_cell_length_a   8.78796460
_cell_length_b   8.78796460
_cell_length_c   7.00017239
_cell_angle_alpha   90.00000000
_cell_angle_beta   90.00000000
_cell_angle_gamma   72.77432195
_symmetry_Int_Tables_number   1
_chemical_formula_structural   Li3SbN3(O3F)3
_chemical_formula_sum   'Li6 Sb2 N6 O18 F6'
_cell_volume   516.36283385
_cell_formula_units_Z   2
loop_
 _symmetry_equiv_pos_site_id
 _symmetry_equiv_pos_as_xyz
  1  'x, y, z'
loop_
 _atom_site_type_symbol
 _atom_site_label
 _atom_site_symmetry_multiplicity
 _atom_site_fract_x
 _atom_site_fract_y
 _atom_site_fract_z
 _atom_site_occupancy
  Li  Li0  1  0.96972640  0.54247527  0.27808048  1
  Li  Li1  1  0.45752473  0.03027360  0.77808048  1
  Li  Li2  1  0.40603028  0.40603028  0.89325407  1
  Li  Li3  1  0.59396972  0.59396972  0.39325407  1
  Li  Li4  1  0.54247527  0.96972640  0.27808048  1
  Li  Li5  1  0.03027360  0.45752473  0.77808048  1
  Sb  Sb6  1  0.13213405  0.13213405  0.14268417  1
  Sb  Sb7  1  0.86786595  0.86786595  0.64268417  1
  N  N8  1  0.31818332  0.77973754  0.24599762  1
  N  N9  1  0.22026246  0.68181668  0.74599762  1
  N  N10  1  0.70457229  0.70457229  0.02511068  1
  N  N11  1  0.29542771  0.29542771  0.52511068  1
  N  N12  1  0.77973754  0.31818332  0.24599762  1
  N  N13  1  0.68181668  0.22026246  0.74599762  1
  O  O14  1  0.20167315  0.83654447  0.13397312  1
  O  O15  1  0.16345553  0.79832685  0.63397312  1
  O  O16  1  0.37391493  0.87257338  0.34413199  1
  O  O17  1  0.12742662  0.62608507  0.84413199  1
  O  O18  1  0.36871903  0.62090609  0.76043481  1
  O  O19  1  0.37909391  0.63128097  0.26043481  1
  O  O20  1  0.59531531  0.80612673  0.93976699  1
  O  O21  1  0.19387327  0.40468469  0.43976699  1
  O  O22  1  0.28512188  0.28512188  0.70940062  1
  O  O23  1  0.71487812  0.71487812  0.20940062  1
  O  O24  1  0.40468469  0.19387327  0.43976699  1
  O  O25  1  0.80612673  0.59531531  0.93976699  1
  O  O26  1  0.63128097  0.37909391  0.26043481  1
  O  O27  1  0.62090609  0.36871903  0.76043481  1
  O  O28  1  0.62608507  0.12742662  0.84413199  1
  O  O29  1  0.87257338  0.37391493  0.34413199  1
  O  O30  1  0.83654447  0.20167315  0.13397312  1
  O  O31  1  0.79832685  0.16345553  0.63397312  1
  F  F32  1  0.63850473  0.90679168  0.54062907  1
  F  F33  1  0.09320832  0.36149527  0.04062907  1
  F  F34  1  0.08310691  0.08310691  0.88320430  1
  F  F35  1  0.91689309  0.91689309  0.38320430  1
  F  F36  1  0.36149527  0.09320832  0.04062907  1
  F  F37  1  0.90679168  0.63850473  0.54062907  1
