# generated using pymatgen
data_Eu4Au2O9
_symmetry_space_group_name_H-M   'P 1'
_cell_length_a   6.18138765
_cell_length_b   11.94098349
_cell_length_c   11.99598676
_cell_angle_alpha   90.00000000
_cell_angle_beta   90.00000000
_cell_angle_gamma   90.00000000
_symmetry_Int_Tables_number   1
_chemical_formula_structural   Eu4Au2O9
_chemical_formula_sum   'Eu16 Au8 O36'
_cell_volume   885.44594983
_cell_formula_units_Z   4
loop_
 _symmetry_equiv_pos_site_id
 _symmetry_equiv_pos_as_xyz
  1  'x, y, z'
loop_
 _atom_site_type_symbol
 _atom_site_label
 _atom_site_symmetry_multiplicity
 _atom_site_fract_x
 _atom_site_fract_y
 _atom_site_fract_z
 _atom_site_occupancy
  O  O0  1  0.93570031  0.44489018  0.38682070  1
  O  O1  1  0.93570031  0.05510982  0.61317930  1
  O  O2  1  0.56429969  0.94489018  0.11317930  1
  O  O3  1  0.56429969  0.55510982  0.88682070  1
  O  O4  1  0.06429969  0.55510982  0.61317930  1
  O  O5  1  0.06429969  0.94489018  0.38682070  1
  O  O6  1  0.43570031  0.05510982  0.88682070  1
  O  O7  1  0.43570031  0.44489018  0.11317930  1
  O  O8  1  0.94462244  0.35273164  0.16406993  1
  O  O9  1  0.94462244  0.14726836  0.83593007  1
  O  O10  1  0.55537756  0.85273164  0.33593007  1
  O  O11  1  0.55537756  0.64726836  0.66406993  1
  O  O12  1  0.05537756  0.64726836  0.83593007  1
  O  O13  1  0.05537756  0.85273164  0.16406993  1
  O  O14  1  0.62311453  0.15919294  0.19505852  1
  O  O15  1  0.44462244  0.14726836  0.66406993  1
  O  O16  1  0.60651149  0.08654892  0.42030967  1
  O  O17  1  0.60651149  0.41345108  0.57969033  1
  O  O18  1  0.89348851  0.58654892  0.07969033  1
  O  O19  1  0.89348851  0.91345108  0.92030967  1
  O  O20  1  0.39348851  0.91345108  0.57969033  1
  O  O21  1  0.39348851  0.58654892  0.42030967  1
  O  O22  1  0.10651149  0.41345108  0.92030967  1
  O  O23  1  0.10651149  0.08654892  0.07969033  1
  O  O24  1  0.02446511  0.25000000  0.50000000  1
  O  O25  1  0.47553489  0.75000000  0.00000000  1
  O  O26  1  0.97553489  0.75000000  0.50000000  1
  O  O27  1  0.52446511  0.25000000  0.00000000  1
  O  O28  1  0.12311453  0.15919294  0.30494148  1
  O  O29  1  0.12311453  0.34080706  0.69505852  1
  O  O30  1  0.37688547  0.65919294  0.19505852  1
  O  O31  1  0.37688547  0.84080706  0.80494148  1
  O  O32  1  0.87688547  0.84080706  0.69505852  1
  O  O33  1  0.87688547  0.65919294  0.30494148  1
  O  O34  1  0.62311453  0.34080706  0.80494148  1
  O  O35  1  0.44462244  0.35273164  0.33593007  1
  Eu  Eu36  1  0.74300863  0.08784079  0.00463362  1
  Eu  Eu37  1  0.74300863  0.41215921  0.99536638  1
  Eu  Eu38  1  0.75699137  0.58784079  0.49536638  1
  Eu  Eu39  1  0.75699137  0.91215921  0.50463362  1
  Eu  Eu40  1  0.25699137  0.91215921  0.99536638  1
  Eu  Eu41  1  0.25699137  0.58784079  0.00463362  1
  Eu  Eu42  1  0.24300863  0.41215921  0.50463362  1
  Eu  Eu43  1  0.24300863  0.08784079  0.49536638  1
  Eu  Eu44  1  0.80131116  0.26055204  0.33995558  1
  Eu  Eu45  1  0.80131116  0.23944796  0.66004442  1
  Eu  Eu46  1  0.69868884  0.76055204  0.16004442  1
  Eu  Eu47  1  0.69868884  0.73944796  0.83995558  1
  Eu  Eu48  1  0.19868884  0.73944796  0.66004442  1
  Eu  Eu49  1  0.19868884  0.76055204  0.33995558  1
  Eu  Eu50  1  0.30131116  0.23944796  0.83995558  1
  Eu  Eu51  1  0.30131116  0.26055204  0.16004442  1
  Au  Au52  1  0.57618169  0.01014553  0.26890930  1
  Au  Au53  1  0.57618169  0.48985447  0.73109070  1
  Au  Au54  1  0.92381831  0.51014553  0.23109070  1
  Au  Au55  1  0.92381831  0.98985447  0.76890930  1
  Au  Au56  1  0.42381831  0.98985447  0.73109070  1
  Au  Au57  1  0.42381831  0.51014553  0.26890930  1
  Au  Au58  1  0.07618169  0.48985447  0.76890930  1
  Au  Au59  1  0.07618169  0.01014553  0.23109070  1
