# generated using pymatgen
data_YbSbPd
_symmetry_space_group_name_H-M   'P 1'
_cell_length_a   4.66510140
_cell_length_b   7.32656627
_cell_length_c   7.96034361
_cell_angle_alpha   90.00000000
_cell_angle_beta   90.00000000
_cell_angle_gamma   90.00000000
_symmetry_Int_Tables_number   1
_chemical_formula_structural   YbSbPd
_chemical_formula_sum   'Yb4 Sb4 Pd4'
_cell_volume   272.07797383
_cell_formula_units_Z   4
loop_
 _symmetry_equiv_pos_site_id
 _symmetry_equiv_pos_as_xyz
  1  'x, y, z'
loop_
 _atom_site_type_symbol
 _atom_site_label
 _atom_site_symmetry_multiplicity
 _atom_site_fract_x
 _atom_site_fract_y
 _atom_site_fract_z
 _atom_site_occupancy
  Pd  Pd0  1  0.75000000  0.30974088  0.58078272  1
  Pd  Pd1  1  0.25000000  0.19025912  0.08078272  1
  Pd  Pd2  1  0.75000000  0.80974088  0.91921728  1
  Pd  Pd3  1  0.25000000  0.69025912  0.41921728  1
  Sb  Sb4  1  0.25000000  0.30051939  0.40811130  1
  Sb  Sb5  1  0.75000000  0.19948061  0.90811130  1
  Sb  Sb6  1  0.25000000  0.80051939  0.09188870  1
  Sb  Sb7  1  0.75000000  0.69948061  0.59188870  1
  Yb  Yb8  1  0.25000000  0.49196804  0.79412216  1
  Yb  Yb9  1  0.75000000  0.50803196  0.20587784  1
  Yb  Yb10  1  0.25000000  0.99196804  0.70587784  1
  Yb  Yb11  1  0.75000000  0.00803196  0.29412216  1
