# generated using pymatgen
data_EuGa4
_symmetry_space_group_name_H-M   'P 1'
_cell_length_a   4.45742851
_cell_length_b   4.45742851
_cell_length_c   6.21591694
_cell_angle_alpha   111.01114595
_cell_angle_beta   111.01114592
_cell_angle_gamma   90.00000001
_symmetry_Int_Tables_number   1
_chemical_formula_structural   EuGa4
_chemical_formula_sum   'Eu1 Ga4'
_cell_volume   106.44728891
_cell_formula_units_Z   1
loop_
 _symmetry_equiv_pos_site_id
 _symmetry_equiv_pos_as_xyz
  1  'x, y, z'
loop_
 _atom_site_type_symbol
 _atom_site_label
 _atom_site_symmetry_multiplicity
 _atom_site_fract_x
 _atom_site_fract_y
 _atom_site_fract_z
 _atom_site_occupancy
  Ga  Ga0  1  0.61708840  0.61708840  0.23417681  1
  Ga  Ga1  1  0.25000000  0.75000000  0.50000000  1
  Ga  Ga2  1  0.75000000  0.25000000  0.50000000  1
  Ga  Ga3  1  0.38291160  0.38291160  0.76582319  1
  Eu  Eu4  1  0.00000000  0.00000000  0.00000000  1
