# generated using pymatgen
data_Er(Fe2Ge)2
_symmetry_space_group_name_H-M   'P 1'
_cell_length_a   4.08122006
_cell_length_b   6.61854198
_cell_length_c   7.62138802
_cell_angle_alpha   90.00000000
_cell_angle_beta   90.00000000
_cell_angle_gamma   90.00000000
_symmetry_Int_Tables_number   1
_chemical_formula_structural   Er(Fe2Ge)2
_chemical_formula_sum   'Er2 Fe8 Ge4'
_cell_volume   205.86684720
_cell_formula_units_Z   2
loop_
 _symmetry_equiv_pos_site_id
 _symmetry_equiv_pos_as_xyz
  1  'x, y, z'
loop_
 _atom_site_type_symbol
 _atom_site_label
 _atom_site_symmetry_multiplicity
 _atom_site_fract_x
 _atom_site_fract_y
 _atom_site_fract_z
 _atom_site_occupancy
  Fe  Fe0  1  0.00000000  0.06360090  0.35045481  1
  Fe  Fe1  1  0.50000000  0.56360090  0.14954519  1
  Fe  Fe2  1  0.00000000  0.64199501  0.87640428  1
  Fe  Fe3  1  0.00000000  0.35800499  0.12359572  1
  Fe  Fe4  1  0.50000000  0.14199501  0.62359572  1
  Fe  Fe5  1  0.50000000  0.43639910  0.85045481  1
  Fe  Fe6  1  0.00000000  0.93639910  0.64954519  1
  Fe  Fe7  1  0.50000000  0.85800499  0.37640428  1
  Ge  Ge8  1  0.00000000  0.75339322  0.18425039  1
  Ge  Ge9  1  0.50000000  0.74660678  0.68425039  1
  Ge  Ge10  1  0.00000000  0.24660678  0.81574961  1
  Ge  Ge11  1  0.50000000  0.25339322  0.31574961  1
  Er  Er12  1  0.00000000  0.50000000  0.50000000  1
  Er  Er13  1  0.50000000  0.00000000  0.00000000  1
