# generated using pymatgen
data_Sc2VB2Ir5
_symmetry_space_group_name_H-M   'P 1'
_cell_length_a   3.11939083
_cell_length_b   9.37119010
_cell_length_c   9.37119010
_cell_angle_alpha   90.00000000
_cell_angle_beta   90.00000000
_cell_angle_gamma   90.00000000
_symmetry_Int_Tables_number   1
_chemical_formula_structural   Sc2VB2Ir5
_chemical_formula_sum   'Sc4 V2 B4 Ir10'
_cell_volume   273.94241931
_cell_formula_units_Z   2
loop_
 _symmetry_equiv_pos_site_id
 _symmetry_equiv_pos_as_xyz
  1  'x, y, z'
loop_
 _atom_site_type_symbol
 _atom_site_label
 _atom_site_symmetry_multiplicity
 _atom_site_fract_x
 _atom_site_fract_y
 _atom_site_fract_z
 _atom_site_occupancy
  B  B0  1  0.00000000  0.87755538  0.37755538  1
  B  B1  1  0.00000000  0.62244462  0.87755538  1
  B  B2  1  0.00000000  0.37755538  0.12244462  1
  B  B3  1  0.00000000  0.12244462  0.62244462  1
  Sc  Sc4  1  0.00000000  0.67622806  0.17622806  1
  Sc  Sc5  1  0.00000000  0.32377194  0.82377194  1
  Sc  Sc6  1  0.00000000  0.17622806  0.32377194  1
  Sc  Sc7  1  0.00000000  0.82377194  0.67622806  1
  V  V8  1  0.00000000  0.00000000  0.00000000  1
  V  V9  1  0.00000000  0.50000000  0.50000000  1
  Ir  Ir10  1  0.50000000  0.00000000  0.50000000  1
  Ir  Ir11  1  0.50000000  0.57115577  0.71712049  1
  Ir  Ir12  1  0.50000000  0.28287951  0.57115577  1
  Ir  Ir13  1  0.50000000  0.71712049  0.42884423  1
  Ir  Ir14  1  0.50000000  0.42884423  0.28287951  1
  Ir  Ir15  1  0.50000000  0.50000000  0.00000000  1
  Ir  Ir16  1  0.50000000  0.78287951  0.92884423  1
  Ir  Ir17  1  0.50000000  0.07115577  0.78287951  1
  Ir  Ir18  1  0.50000000  0.92884423  0.21712049  1
  Ir  Ir19  1  0.50000000  0.21712049  0.07115577  1
