# generated using pymatgen
data_TmAgPb
_symmetry_space_group_name_H-M   'P 1'
_cell_length_a   7.48291951
_cell_length_b   7.48291951
_cell_length_c   4.55713684
_cell_angle_alpha   90.00000000
_cell_angle_beta   90.00000000
_cell_angle_gamma   119.99999997
_symmetry_Int_Tables_number   1
_chemical_formula_structural   TmAgPb
_chemical_formula_sum   'Tm3 Ag3 Pb3'
_cell_volume   220.98604471
_cell_formula_units_Z   3
loop_
 _symmetry_equiv_pos_site_id
 _symmetry_equiv_pos_as_xyz
  1  'x, y, z'
loop_
 _atom_site_type_symbol
 _atom_site_label
 _atom_site_symmetry_multiplicity
 _atom_site_fract_x
 _atom_site_fract_y
 _atom_site_fract_z
 _atom_site_occupancy
  Ag  Ag0  1  0.75477633  0.75477633  0.00000000  1
  Ag  Ag1  1  0.00000000  0.24522367  0.00000000  1
  Ag  Ag2  1  0.24522367  0.00000000  0.00000000  1
  Tm  Tm3  1  0.56667713  0.00000000  0.50000000  1
  Tm  Tm4  1  0.43332287  0.43332287  0.50000000  1
  Tm  Tm5  1  0.00000000  0.56667713  0.50000000  1
  Pb  Pb6  1  0.00000000  0.00000000  0.50000000  1
  Pb  Pb7  1  0.33333333  0.66666667  0.00000000  1
  Pb  Pb8  1  0.66666667  0.33333333  0.00000000  1
