# generated using pymatgen
data_U4Si6Tc7
_symmetry_space_group_name_H-M   'P 1'
_cell_length_a   7.11862055
_cell_length_b   7.11862056
_cell_length_c   7.11862056
_cell_angle_alpha   109.47122064
_cell_angle_beta   109.47122065
_cell_angle_gamma   109.47122059
_symmetry_Int_Tables_number   1
_chemical_formula_structural   U4Si6Tc7
_chemical_formula_sum   'U4 Si6 Tc7'
_cell_volume   277.69345420
_cell_formula_units_Z   1
loop_
 _symmetry_equiv_pos_site_id
 _symmetry_equiv_pos_as_xyz
  1  'x, y, z'
loop_
 _atom_site_type_symbol
 _atom_site_label
 _atom_site_symmetry_multiplicity
 _atom_site_fract_x
 _atom_site_fract_y
 _atom_site_fract_z
 _atom_site_occupancy
  Si  Si0  1  0.00000000  0.69011829  0.69011829  1
  Si  Si1  1  0.30988171  0.30988171  0.00000000  1
  Si  Si2  1  0.69011829  0.69011829  0.00000000  1
  Si  Si3  1  0.69011829  0.00000000  0.69011829  1
  Si  Si4  1  0.30988171  0.00000000  0.30988171  1
  Si  Si5  1  0.00000000  0.30988171  0.30988171  1
  Tc  Tc6  1  0.75000000  0.50000000  0.25000000  1
  Tc  Tc7  1  0.75000000  0.25000000  0.50000000  1
  Tc  Tc8  1  0.25000000  0.75000000  0.50000000  1
  Tc  Tc9  1  0.50000000  0.25000000  0.75000000  1
  Tc  Tc10  1  0.00000000  0.00000000  0.00000000  1
  Tc  Tc11  1  0.25000000  0.50000000  0.75000000  1
  Tc  Tc12  1  0.50000000  0.75000000  0.25000000  1
  U  U13  1  0.00000000  0.00000000  0.50000000  1
  U  U14  1  0.00000000  0.50000000  0.00000000  1
  U  U15  1  0.50000000  0.00000000  0.00000000  1
  U  U16  1  0.50000000  0.50000000  0.50000000  1
