# generated using pymatgen
data_Bi6B10O21
_symmetry_space_group_name_H-M   'P 1'
_cell_length_a   7.16172214
_cell_length_b   7.08905763
_cell_length_c   11.35306460
_cell_angle_alpha   93.61962044
_cell_angle_beta   102.60385841
_cell_angle_gamma   63.30814826
_symmetry_Int_Tables_number   1
_chemical_formula_structural   Bi6B10O21
_chemical_formula_sum   'Bi6 B10 O21'
_cell_volume   502.15815683
_cell_formula_units_Z   1
loop_
 _symmetry_equiv_pos_site_id
 _symmetry_equiv_pos_as_xyz
  1  'x, y, z'
loop_
 _atom_site_type_symbol
 _atom_site_label
 _atom_site_symmetry_multiplicity
 _atom_site_fract_x
 _atom_site_fract_y
 _atom_site_fract_z
 _atom_site_occupancy
  Bi  Bi0  1  0.27033240  0.23988255  0.91107714  1
  Bi  Bi1  1  0.99935742  0.78931966  0.44229353  1
  Bi  Bi2  1  0.26811488  0.15373030  0.36566073  1
  Bi  Bi3  1  0.73188512  0.84626970  0.63433927  1
  Bi  Bi4  1  0.00064258  0.21068034  0.55770647  1
  Bi  Bi5  1  0.72966760  0.76011745  0.08892286  1
  B  B6  1  0.17881082  0.57859201  0.72614429  1
  B  B7  1  0.32488629  0.82897210  0.77320364  1
  B  B8  1  0.44620606  0.38039526  0.58906960  1
  B  B9  1  0.56986864  0.43786669  0.80144162  1
  B  B10  1  0.78911257  0.13560666  0.95566241  1
  B  B11  1  0.21088743  0.86439334  0.04433759  1
  B  B12  1  0.43013136  0.56213331  0.19855838  1
  B  B13  1  0.55379394  0.61960474  0.41093040  1
  B  B14  1  0.67511371  0.17102790  0.22679636  1
  B  B15  1  0.82118918  0.42140799  0.27385571  1
  O  O16  1  0.29663843  0.03619706  0.76012982  1
  O  O17  1  0.00000000  0.00000000  0.00000000  1
  O  O18  1  0.00459729  0.45030306  0.27112579  1
  O  O19  1  0.14330602  0.79846921  0.75028790  1
  O  O20  1  0.24048758  0.53222101  0.60098021  1
  O  O21  1  0.36644318  0.43268822  0.81476833  1
  O  O22  1  0.63150703  0.08064532  0.97285065  1
  O  O23  1  0.48079041  0.26800924  0.48709013  1
  O  O24  1  0.52737324  0.66334915  0.80207144  1
  O  O25  1  0.25244950  0.68035107  0.10121991  1
  O  O26  1  0.61509239  0.33895127  0.68600699  1
  O  O27  1  0.38490761  0.66104873  0.31399301  1
  O  O28  1  0.74755050  0.31964893  0.89878009  1
  O  O29  1  0.47262676  0.33665085  0.19792856  1
  O  O30  1  0.51920959  0.73199076  0.51290987  1
  O  O31  1  0.36849297  0.91935468  0.02714935  1
  O  O32  1  0.63355682  0.56731178  0.18523167  1
  O  O33  1  0.75951242  0.46777899  0.39901979  1
  O  O34  1  0.85669398  0.20153079  0.24971210  1
  O  O35  1  0.99540271  0.54969694  0.72887421  1
  O  O36  1  0.70336157  0.96380294  0.23987018  1
