# generated using pymatgen
data_SmFeB4
_symmetry_space_group_name_H-M   'P 1'
_cell_length_a   3.44159206
_cell_length_b   5.96079437
_cell_length_c   11.53341149
_cell_angle_alpha   90.00000000
_cell_angle_beta   90.00000000
_cell_angle_gamma   90.00000000
_symmetry_Int_Tables_number   1
_chemical_formula_structural   SmFeB4
_chemical_formula_sum   'Sm4 Fe4 B16'
_cell_volume   236.60358372
_cell_formula_units_Z   4
loop_
 _symmetry_equiv_pos_site_id
 _symmetry_equiv_pos_as_xyz
  1  'x, y, z'
loop_
 _atom_site_type_symbol
 _atom_site_label
 _atom_site_symmetry_multiplicity
 _atom_site_fract_x
 _atom_site_fract_y
 _atom_site_fract_z
 _atom_site_occupancy
  B  B0  1  0.50000000  0.02307712  0.68843119  1
  B  B1  1  0.50000000  0.97692288  0.31156881  1
  B  B2  1  0.50000000  0.52307712  0.81156881  1
  B  B3  1  0.50000000  0.47692288  0.18843119  1
  B  B4  1  0.50000000  0.11019875  0.54516036  1
  B  B5  1  0.50000000  0.88980125  0.45483964  1
  B  B6  1  0.50000000  0.61019875  0.95483964  1
  B  B7  1  0.50000000  0.38980125  0.04516036  1
  B  B8  1  0.50000000  0.27981388  0.31778901  1
  B  B9  1  0.50000000  0.72018612  0.68221099  1
  B  B10  1  0.50000000  0.77981388  0.18221099  1
  B  B11  1  0.50000000  0.22018612  0.81778901  1
  B  B12  1  0.50000000  0.35853823  0.46780051  1
  B  B13  1  0.50000000  0.64146177  0.53219949  1
  B  B14  1  0.50000000  0.85853823  0.03219949  1
  B  B15  1  0.50000000  0.14146177  0.96780051  1
  Fe  Fe16  1  0.00000000  0.36830439  0.91254102  1
  Fe  Fe17  1  0.00000000  0.63169561  0.08745898  1
  Fe  Fe18  1  0.00000000  0.86830439  0.58745898  1
  Fe  Fe19  1  0.00000000  0.13169561  0.41254102  1
  Sm  Sm20  1  0.00000000  0.37373386  0.65058078  1
  Sm  Sm21  1  0.00000000  0.62626614  0.34941922  1
  Sm  Sm22  1  0.00000000  0.87373386  0.84941922  1
  Sm  Sm23  1  0.00000000  0.12626614  0.15058078  1
