# generated using pymatgen
data_Ca2InPt2
_symmetry_space_group_name_H-M   'P 1'
_cell_length_a   5.71745112
_cell_length_b   5.84593662
_cell_length_c   8.22868737
_cell_angle_alpha   102.74801875
_cell_angle_beta   90.00000000
_cell_angle_gamma   119.27557851
_symmetry_Int_Tables_number   1
_chemical_formula_structural   Ca2InPt2
_chemical_formula_sum   'Ca4 In2 Pt4'
_cell_volume   232.10303073
_cell_formula_units_Z   2
loop_
 _symmetry_equiv_pos_site_id
 _symmetry_equiv_pos_as_xyz
  1  'x, y, z'
loop_
 _atom_site_type_symbol
 _atom_site_label
 _atom_site_symmetry_multiplicity
 _atom_site_fract_x
 _atom_site_fract_y
 _atom_site_fract_z
 _atom_site_occupancy
  Ca  Ca0  1  0.20395564  0.70210606  0.35091396  1
  Ca  Ca1  1  0.50184958  0.29789394  0.14908604  1
  Ca  Ca2  1  0.79604436  0.29789394  0.64908604  1
  Ca  Ca3  1  0.49815042  0.70210606  0.85091396  1
  In  In4  1  0.84831543  0.00000000  0.25000000  1
  In  In5  1  0.15168457  0.00000000  0.75000000  1
  Pt  Pt6  1  0.00280132  0.72680946  0.99630163  1
  Pt  Pt7  1  0.27599186  0.27319054  0.50369837  1
  Pt  Pt8  1  0.99719868  0.27319054  0.00369837  1
  Pt  Pt9  1  0.72400814  0.72680946  0.49630163  1
