# generated using pymatgen
data_Ga2PbO4
_symmetry_space_group_name_H-M   'P 1'
_cell_length_a   5.32934539
_cell_length_b   5.45292199
_cell_length_c   8.70627272
_cell_angle_alpha   90.00000000
_cell_angle_beta   90.00000000
_cell_angle_gamma   119.25312127
_symmetry_Int_Tables_number   1
_chemical_formula_structural   Ga2PbO4
_chemical_formula_sum   'Ga4 Pb2 O8'
_cell_volume   220.74232729
_cell_formula_units_Z   2
loop_
 _symmetry_equiv_pos_site_id
 _symmetry_equiv_pos_as_xyz
  1  'x, y, z'
loop_
 _atom_site_type_symbol
 _atom_site_label
 _atom_site_symmetry_multiplicity
 _atom_site_fract_x
 _atom_site_fract_y
 _atom_site_fract_z
 _atom_site_occupancy
  O  O0  1  0.86861517  0.38251514  0.25000000  1
  O  O1  1  0.48610003  0.61748486  0.75000000  1
  O  O2  1  0.67659196  0.00000000  0.50000000  1
  O  O3  1  0.67659196  0.00000000  0.00000000  1
  O  O4  1  0.37337553  0.36616988  0.44096020  1
  O  O5  1  0.00720565  0.63383012  0.55903980  1
  O  O6  1  0.00720565  0.63383012  0.94096020  1
  O  O7  1  0.37337553  0.36616988  0.05903980  1
  Ga  Ga8  1  0.70995301  0.34500182  0.44752156  1
  Ga  Ga9  1  0.36495119  0.65499818  0.55247844  1
  Ga  Ga10  1  0.70995301  0.34500182  0.05247844  1
  Ga  Ga11  1  0.36495119  0.65499818  0.94752156  1
  Pb  Pb12  1  0.02752921  0.05732830  0.25000000  1
  Pb  Pb13  1  0.97020090  0.94267170  0.75000000  1
