# generated using pymatgen
data_Sr(InTe2)2
_symmetry_space_group_name_H-M   'P 1'
_cell_length_a   6.98096396
_cell_length_b   6.98096397
_cell_length_c   12.04430583
_cell_angle_alpha   90.00000000
_cell_angle_beta   90.00000000
_cell_angle_gamma   117.44009772
_symmetry_Int_Tables_number   1
_chemical_formula_structural   Sr(InTe2)2
_chemical_formula_sum   'Sr2 In4 Te8'
_cell_volume   520.92782253
_cell_formula_units_Z   2
loop_
 _symmetry_equiv_pos_site_id
 _symmetry_equiv_pos_as_xyz
  1  'x, y, z'
loop_
 _atom_site_type_symbol
 _atom_site_label
 _atom_site_symmetry_multiplicity
 _atom_site_fract_x
 _atom_site_fract_y
 _atom_site_fract_z
 _atom_site_occupancy
  Sr  Sr0  1  0.50000000  0.50000000  0.75000000  1
  Sr  Sr1  1  0.50000000  0.50000000  0.25000000  1
  In  In2  1  0.23132669  0.76353901  0.00000000  1
  In  In3  1  0.76867331  0.23646099  0.00000000  1
  In  In4  1  0.76353901  0.23132669  0.50000000  1
  In  In5  1  0.23646099  0.76867331  0.50000000  1
  Te  Te6  1  0.65628473  0.79151830  0.00000000  1
  Te  Te7  1  0.34371527  0.20848170  0.00000000  1
  Te  Te8  1  0.79151830  0.65628473  0.50000000  1
  Te  Te9  1  0.20848170  0.34371527  0.50000000  1
  Te  Te10  1  0.50000000  0.00000000  0.68341262  1
  Te  Te11  1  0.00000000  0.50000000  0.81658738  1
  Te  Te12  1  0.50000000  0.00000000  0.31658738  1
  Te  Te13  1  0.00000000  0.50000000  0.18341262  1
