# generated using pymatgen
data_CeCrS3
_symmetry_space_group_name_H-M   'P 1'
_cell_length_a   3.77226801
_cell_length_b   7.78230442
_cell_length_c   12.91579971
_cell_angle_alpha   90.00000000
_cell_angle_beta   90.00000000
_cell_angle_gamma   90.00000000
_symmetry_Int_Tables_number   1
_chemical_formula_structural   CeCrS3
_chemical_formula_sum   'Ce4 Cr4 S12'
_cell_volume   379.16833141
_cell_formula_units_Z   4
loop_
 _symmetry_equiv_pos_site_id
 _symmetry_equiv_pos_as_xyz
  1  'x, y, z'
loop_
 _atom_site_type_symbol
 _atom_site_label
 _atom_site_symmetry_multiplicity
 _atom_site_fract_x
 _atom_site_fract_y
 _atom_site_fract_z
 _atom_site_occupancy
  S  S0  1  0.25000000  0.98724446  0.39282462  1
  S  S1  1  0.75000000  0.01275554  0.60717538  1
  S  S2  1  0.25000000  0.48724446  0.10717538  1
  S  S3  1  0.75000000  0.51275554  0.89282462  1
  S  S4  1  0.25000000  0.83962018  0.99337124  1
  S  S5  1  0.75000000  0.16037982  0.00662876  1
  S  S6  1  0.25000000  0.33962018  0.50662876  1
  S  S7  1  0.75000000  0.66037982  0.49337124  1
  S  S8  1  0.75000000  0.80766909  0.21454185  1
  S  S9  1  0.25000000  0.19233091  0.78545815  1
  S  S10  1  0.75000000  0.30766909  0.28545815  1
  S  S11  1  0.25000000  0.69233091  0.71454185  1
  Cr  Cr12  1  0.25000000  0.83699569  0.55247865  1
  Cr  Cr13  1  0.75000000  0.16300431  0.44752135  1
  Cr  Cr14  1  0.25000000  0.33699569  0.94752135  1
  Cr  Cr15  1  0.75000000  0.66300431  0.05247865  1
  Ce  Ce16  1  0.25000000  0.58699661  0.32722833  1
  Ce  Ce17  1  0.75000000  0.41300339  0.67277167  1
  Ce  Ce18  1  0.25000000  0.08699661  0.17277167  1
  Ce  Ce19  1  0.75000000  0.91300339  0.82722833  1
