# generated using pymatgen
data_SmSi3Rh5
_symmetry_space_group_name_H-M   'P 1'
_cell_length_a   15.70726247
_cell_length_b   15.70726247
_cell_length_c   3.90425258
_cell_angle_alpha   90.00000000
_cell_angle_beta   90.00000000
_cell_angle_gamma   120.00000000
_symmetry_Int_Tables_number   1
_chemical_formula_structural   SmSi3Rh5
_chemical_formula_sum   'Sm6 Si18 Rh30'
_cell_volume   834.19875919
_cell_formula_units_Z   6
loop_
 _symmetry_equiv_pos_site_id
 _symmetry_equiv_pos_as_xyz
  1  'x, y, z'
loop_
 _atom_site_type_symbol
 _atom_site_label
 _atom_site_symmetry_multiplicity
 _atom_site_fract_x
 _atom_site_fract_y
 _atom_site_fract_z
 _atom_site_occupancy
  Si  Si0  1  0.44069289  0.75936220  0.75000000  1
  Si  Si1  1  0.68133068  0.44069289  0.25000000  1
  Si  Si2  1  0.75936220  0.31866932  0.25000000  1
  Si  Si3  1  0.24063780  0.68133068  0.75000000  1
  Si  Si4  1  0.31866932  0.55930711  0.75000000  1
  Si  Si5  1  0.55930711  0.24063780  0.25000000  1
  Si  Si6  1  0.87988875  0.12925646  0.25000000  1
  Si  Si7  1  0.12011125  0.87074354  0.75000000  1
  Si  Si8  1  0.12925646  0.24936771  0.75000000  1
  Si  Si9  1  0.24936771  0.12011125  0.25000000  1
  Si  Si10  1  0.37063167  0.93714148  0.25000000  1
  Si  Si11  1  0.43349019  0.37063167  0.75000000  1
  Si  Si12  1  0.93714148  0.56650981  0.75000000  1
  Si  Si13  1  0.06285852  0.43349019  0.25000000  1
  Si  Si14  1  0.56650981  0.62936833  0.25000000  1
  Si  Si15  1  0.62936833  0.06285852  0.75000000  1
  Si  Si16  1  0.75063229  0.87988875  0.75000000  1
  Si  Si17  1  0.87074354  0.75063229  0.25000000  1
  Rh  Rh18  1  0.46324930  0.92494614  0.75000000  1
  Rh  Rh19  1  0.15246018  0.41456007  0.75000000  1
  Rh  Rh20  1  0.26209990  0.84753982  0.75000000  1
  Rh  Rh21  1  0.73790010  0.15246018  0.25000000  1
  Rh  Rh22  1  0.84753982  0.58543993  0.25000000  1
  Rh  Rh23  1  0.41456007  0.26209990  0.25000000  1
  Rh  Rh24  1  0.65201664  0.22354881  0.75000000  1
  Rh  Rh25  1  0.42846782  0.65201664  0.25000000  1
  Rh  Rh26  1  0.22354881  0.57153218  0.25000000  1
  Rh  Rh27  1  0.77645119  0.42846782  0.75000000  1
  Rh  Rh28  1  0.57153218  0.34798336  0.75000000  1
  Rh  Rh29  1  0.34798336  0.77645119  0.25000000  1
  Rh  Rh30  1  0.14286823  0.02955078  0.75000000  1
  Rh  Rh31  1  0.11331745  0.14286823  0.25000000  1
  Rh  Rh32  1  0.02955078  0.88668255  0.25000000  1
  Rh  Rh33  1  0.97044922  0.11331745  0.75000000  1
  Rh  Rh34  1  0.88668255  0.85713177  0.75000000  1
  Rh  Rh35  1  0.85713177  0.97044922  0.25000000  1
  Rh  Rh36  1  0.92494614  0.46169684  0.25000000  1
  Rh  Rh37  1  0.07505386  0.53830316  0.75000000  1
  Rh  Rh38  1  0.46169684  0.53675070  0.75000000  1
  Rh  Rh39  1  0.53675070  0.07505386  0.25000000  1
  Rh  Rh40  1  0.72895230  0.77281797  0.25000000  1
  Rh  Rh41  1  0.95613433  0.72895230  0.75000000  1
  Rh  Rh42  1  0.77281797  0.04386567  0.75000000  1
  Rh  Rh43  1  0.22718203  0.95613433  0.25000000  1
  Rh  Rh44  1  0.04386567  0.27104770  0.25000000  1
  Rh  Rh45  1  0.27104770  0.22718203  0.75000000  1
  Rh  Rh46  1  0.58543993  0.73790010  0.75000000  1
  Rh  Rh47  1  0.53830316  0.46324930  0.25000000  1
  Sm  Sm48  1  0.60598971  0.89967901  0.25000000  1
  Sm  Sm49  1  0.70631070  0.60598971  0.75000000  1
  Sm  Sm50  1  0.89967901  0.29368930  0.75000000  1
  Sm  Sm51  1  0.10032099  0.70631070  0.25000000  1
  Sm  Sm52  1  0.29368930  0.39401029  0.25000000  1
  Sm  Sm53  1  0.39401029  0.10032099  0.75000000  1
