# generated using pymatgen
data_ZrCuSiP
_symmetry_space_group_name_H-M   'P 1'
_cell_length_a   3.59348406
_cell_length_b   3.59348406
_cell_length_c   9.52637703
_cell_angle_alpha   90.00000000
_cell_angle_beta   90.00000000
_cell_angle_gamma   90.00000000
_symmetry_Int_Tables_number   1
_chemical_formula_structural   ZrCuSiP
_chemical_formula_sum   'Zr2 Si2 Cu2 P2'
_cell_volume   123.01532301
_cell_formula_units_Z   2
loop_
 _symmetry_equiv_pos_site_id
 _symmetry_equiv_pos_as_xyz
  1  'x, y, z'
loop_
 _atom_site_type_symbol
 _atom_site_label
 _atom_site_symmetry_multiplicity
 _atom_site_fract_x
 _atom_site_fract_y
 _atom_site_fract_z
 _atom_site_occupancy
  Si  Si0  1  0.25000000  0.75000000  0.00000000  1
  Si  Si1  1  0.75000000  0.25000000  0.00000000  1
  P  P2  1  0.75000000  0.75000000  0.32818651  1
  P  P3  1  0.25000000  0.25000000  0.67181349  1
  Cu  Cu4  1  0.25000000  0.75000000  0.50000000  1
  Cu  Cu5  1  0.75000000  0.25000000  0.50000000  1
  Zr  Zr6  1  0.75000000  0.75000000  0.77138316  1
  Zr  Zr7  1  0.25000000  0.25000000  0.22861684  1
