# generated using pymatgen
data_Tm5(Ge5Rh2)2
_symmetry_space_group_name_H-M   'P 1'
_cell_length_a   4.26821846
_cell_length_b   13.01157988
_cell_length_c   13.01157988
_cell_angle_alpha   90.00000000
_cell_angle_beta   90.00000000
_cell_angle_gamma   90.00000000
_symmetry_Int_Tables_number   1
_chemical_formula_structural   Tm5(Ge5Rh2)2
_chemical_formula_sum   'Tm10 Ge20 Rh8'
_cell_volume   722.61455398
_cell_formula_units_Z   2
loop_
 _symmetry_equiv_pos_site_id
 _symmetry_equiv_pos_as_xyz
  1  'x, y, z'
loop_
 _atom_site_type_symbol
 _atom_site_label
 _atom_site_symmetry_multiplicity
 _atom_site_fract_x
 _atom_site_fract_y
 _atom_site_fract_z
 _atom_site_occupancy
  Ge  Ge0  1  0.50000000  0.49575464  0.34355296  1
  Ge  Ge1  1  0.50000000  0.50424536  0.65644704  1
  Ge  Ge2  1  0.50000000  0.34355296  0.50424536  1
  Ge  Ge3  1  0.50000000  0.65644704  0.49575464  1
  Ge  Ge4  1  0.50000000  0.84355296  0.99575464  1
  Ge  Ge5  1  0.50000000  0.00424536  0.84355296  1
  Ge  Ge6  1  0.50000000  0.99575464  0.15644704  1
  Ge  Ge7  1  0.50000000  0.15644704  0.00424536  1
  Ge  Ge8  1  0.00000000  0.29996485  0.33733848  1
  Ge  Ge9  1  0.00000000  0.70003515  0.66266152  1
  Ge  Ge10  1  0.00000000  0.33733848  0.70003515  1
  Ge  Ge11  1  0.00000000  0.66266152  0.29996485  1
  Ge  Ge12  1  0.00000000  0.83733848  0.79996485  1
  Ge  Ge13  1  0.00000000  0.20003515  0.83733848  1
  Ge  Ge14  1  0.00000000  0.79996485  0.16266152  1
  Ge  Ge15  1  0.00000000  0.16266152  0.20003515  1
  Ge  Ge16  1  0.00000000  0.93320093  0.43320093  1
  Ge  Ge17  1  0.00000000  0.56679907  0.93320093  1
  Ge  Ge18  1  0.00000000  0.06679907  0.56679907  1
  Ge  Ge19  1  0.00000000  0.43320093  0.06679907  1
  Rh  Rh20  1  0.00000000  0.97937629  0.24614382  1
  Rh  Rh21  1  0.00000000  0.02062371  0.75385618  1
  Rh  Rh22  1  0.00000000  0.24614382  0.02062371  1
  Rh  Rh23  1  0.00000000  0.75385618  0.97937629  1
  Rh  Rh24  1  0.00000000  0.74614382  0.47937629  1
  Rh  Rh25  1  0.00000000  0.52062371  0.74614382  1
  Rh  Rh26  1  0.00000000  0.47937629  0.25385618  1
  Rh  Rh27  1  0.00000000  0.25385618  0.52062371  1
  Tm  Tm28  1  0.50000000  0.61330642  0.11330642  1
  Tm  Tm29  1  0.50000000  0.88669358  0.61330642  1
  Tm  Tm30  1  0.50000000  0.11330642  0.38669358  1
  Tm  Tm31  1  0.50000000  0.38669358  0.88669358  1
  Tm  Tm32  1  0.50000000  0.82612781  0.32612781  1
  Tm  Tm33  1  0.50000000  0.67387219  0.82612781  1
  Tm  Tm34  1  0.50000000  0.32612781  0.17387219  1
  Tm  Tm35  1  0.50000000  0.17387219  0.67387219  1
  Tm  Tm36  1  0.00000000  0.50000000  0.50000000  1
  Tm  Tm37  1  0.00000000  0.00000000  0.00000000  1
