# generated using pymatgen
data_U2S3
_symmetry_space_group_name_H-M   'P 1'
_cell_length_a   3.80407371
_cell_length_b   10.44537870
_cell_length_c   10.50978421
_cell_angle_alpha   90.00000000
_cell_angle_beta   90.00000000
_cell_angle_gamma   90.00000000
_symmetry_Int_Tables_number   1
_chemical_formula_structural   U2S3
_chemical_formula_sum   'U8 S12'
_cell_volume   417.60617578
_cell_formula_units_Z   4
loop_
 _symmetry_equiv_pos_site_id
 _symmetry_equiv_pos_as_xyz
  1  'x, y, z'
loop_
 _atom_site_type_symbol
 _atom_site_label
 _atom_site_symmetry_multiplicity
 _atom_site_fract_x
 _atom_site_fract_y
 _atom_site_fract_z
 _atom_site_occupancy
  S  S0  1  0.25000000  0.86938080  0.05168372  1
  S  S1  1  0.75000000  0.13061920  0.94831628  1
  S  S2  1  0.75000000  0.36938080  0.44831628  1
  S  S3  1  0.25000000  0.63061920  0.55168372  1
  S  S4  1  0.25000000  0.55442768  0.87327200  1
  S  S5  1  0.75000000  0.44557232  0.12672800  1
  S  S6  1  0.75000000  0.05442768  0.62672800  1
  S  S7  1  0.25000000  0.94557232  0.37327200  1
  S  S8  1  0.25000000  0.20437991  0.22618109  1
  S  S9  1  0.75000000  0.79562009  0.77381891  1
  S  S10  1  0.75000000  0.70437991  0.27381891  1
  S  S11  1  0.25000000  0.29562009  0.72618109  1
  U  U12  1  0.25000000  0.31722125  0.98970560  1
  U  U13  1  0.75000000  0.68277875  0.01029440  1
  U  U14  1  0.75000000  0.81722125  0.51029440  1
  U  U15  1  0.25000000  0.18277875  0.48970560  1
  U  U16  1  0.25000000  0.50934400  0.31342610  1
  U  U17  1  0.75000000  0.49065600  0.68657390  1
  U  U18  1  0.75000000  0.00934400  0.18657390  1
  U  U19  1  0.25000000  0.99065600  0.81342610  1
