# generated using pymatgen
data_NbBi4ClO8
_symmetry_space_group_name_H-M   'P 1'
_cell_length_a   5.55521103
_cell_length_b   5.62586217
_cell_length_c   29.31197784
_cell_angle_alpha   90.00000000
_cell_angle_beta   90.00000000
_cell_angle_gamma   90.00000000
_symmetry_Int_Tables_number   1
_chemical_formula_structural   NbBi4ClO8
_chemical_formula_sum   'Nb4 Bi16 Cl4 O32'
_cell_volume   916.08289295
_cell_formula_units_Z   4
loop_
 _symmetry_equiv_pos_site_id
 _symmetry_equiv_pos_as_xyz
  1  'x, y, z'
loop_
 _atom_site_type_symbol
 _atom_site_label
 _atom_site_symmetry_multiplicity
 _atom_site_fract_x
 _atom_site_fract_y
 _atom_site_fract_z
 _atom_site_occupancy
  O  O0  1  0.71398159  0.55647125  0.23258577  1
  O  O1  1  0.21398159  0.44352875  0.76741423  1
  O  O2  1  0.71398159  0.94352875  0.73258577  1
  O  O3  1  0.21398159  0.05647125  0.26741423  1
  O  O4  1  0.21511122  0.55572932  0.26745174  1
  O  O5  1  0.71511122  0.44427068  0.73254826  1
  O  O6  1  0.21511122  0.94427068  0.76745174  1
  O  O7  1  0.71511122  0.05572932  0.23254826  1
  O  O8  1  0.85696020  0.83320198  0.31403873  1
  O  O9  1  0.35696020  0.16679802  0.68596127  1
  O  O10  1  0.85696020  0.66679802  0.81403873  1
  O  O11  1  0.35696020  0.33320198  0.18596127  1
  O  O12  1  0.07421985  0.83259940  0.18596040  1
  O  O13  1  0.57421985  0.16740060  0.81403960  1
  O  O14  1  0.07421985  0.66740060  0.68596040  1
  O  O15  1  0.57421985  0.33259940  0.31403960  1
  O  O16  1  0.21483080  0.50312947  0.10507409  1
  O  O17  1  0.71483080  0.49687053  0.89492591  1
  O  O18  1  0.21483080  0.99687053  0.60507409  1
  O  O19  1  0.71483080  0.00312947  0.39492591  1
  O  O20  1  0.71124990  0.49449025  0.10655712  1
  O  O21  1  0.21124990  0.50550975  0.89344288  1
  O  O22  1  0.71124990  0.00550975  0.60655712  1
  O  O23  1  0.21124990  0.99449025  0.39344288  1
  O  O24  1  0.22166200  0.49473885  0.39347613  1
  O  O25  1  0.72166200  0.50526115  0.60652387  1
  O  O26  1  0.22166200  0.00526115  0.89347613  1
  O  O27  1  0.72166200  0.99473885  0.10652387  1
  O  O28  1  0.71795839  0.50319732  0.39483258  1
  O  O29  1  0.21795839  0.49680268  0.60516742  1
  O  O30  1  0.71795839  0.99680268  0.89483258  1
  O  O31  1  0.21795839  0.00319732  0.10516742  1
  Cl  Cl32  1  0.96824553  0.24848254  0.50003302  1
  Cl  Cl33  1  0.46824553  0.75151746  0.49996698  1
  Cl  Cl34  1  0.96824553  0.25151746  0.00003302  1
  Cl  Cl35  1  0.46824553  0.74848254  0.99996698  1
  Nb  Nb36  1  0.46511277  0.23597446  0.75003016  1
  Nb  Nb37  1  0.96511277  0.73597446  0.74996984  1
  Nb  Nb38  1  0.46511277  0.26402554  0.25003016  1
  Nb  Nb39  1  0.96511277  0.76402554  0.24996984  1
  Bi  Bi40  1  0.95654181  0.74208559  0.06853067  1
  Bi  Bi41  1  0.94417625  0.30072568  0.84301769  1
  Bi  Bi42  1  0.44417625  0.80072568  0.65698231  1
  Bi  Bi43  1  0.94417625  0.19927432  0.34301769  1
  Bi  Bi44  1  0.44417625  0.69927432  0.15698231  1
  Bi  Bi45  1  0.97570684  0.75775158  0.93145200  1
  Bi  Bi46  1  0.47570684  0.25775158  0.56854800  1
  Bi  Bi47  1  0.97570684  0.74224842  0.43145200  1
  Bi  Bi48  1  0.48769285  0.69927997  0.34316581  1
  Bi  Bi49  1  0.98769285  0.30072003  0.65683419  1
  Bi  Bi50  1  0.48769285  0.80072003  0.84316581  1
  Bi  Bi51  1  0.98769285  0.19927997  0.15683419  1
  Bi  Bi52  1  0.45654181  0.25791441  0.93146933  1
  Bi  Bi53  1  0.95654181  0.75791441  0.56853067  1
  Bi  Bi54  1  0.45654181  0.24208559  0.43146933  1
  Bi  Bi55  1  0.47570684  0.24224842  0.06854800  1
