# generated using pymatgen
data_Ge3Ru2
_symmetry_space_group_name_H-M   'P 1'
_cell_length_a   5.78381537
_cell_length_b   9.33825708
_cell_length_c   11.57692739
_cell_angle_alpha   90.00000000
_cell_angle_beta   90.00000000
_cell_angle_gamma   90.00000000
_symmetry_Int_Tables_number   1
_chemical_formula_structural   Ge3Ru2
_chemical_formula_sum   'Ge24 Ru16'
_cell_volume   625.27858693
_cell_formula_units_Z   8
loop_
 _symmetry_equiv_pos_site_id
 _symmetry_equiv_pos_as_xyz
  1  'x, y, z'
loop_
 _atom_site_type_symbol
 _atom_site_label
 _atom_site_symmetry_multiplicity
 _atom_site_fract_x
 _atom_site_fract_y
 _atom_site_fract_z
 _atom_site_occupancy
  Ge  Ge0  1  0.59801476  0.10010380  0.63575384  1
  Ge  Ge1  1  0.09801476  0.39989620  0.86424616  1
  Ge  Ge2  1  0.90198524  0.10010380  0.36424616  1
  Ge  Ge3  1  0.40198524  0.39989620  0.13575384  1
  Ge  Ge4  1  0.40198524  0.89989620  0.36424616  1
  Ge  Ge5  1  0.90198524  0.60010380  0.13575384  1
  Ge  Ge6  1  0.09801476  0.89989620  0.63575384  1
  Ge  Ge7  1  0.59801476  0.60010380  0.86424616  1
  Ge  Ge8  1  0.91293132  0.06789289  0.82712586  1
  Ge  Ge9  1  0.41293132  0.43210711  0.67287414  1
  Ge  Ge10  1  0.58706868  0.06789289  0.17287414  1
  Ge  Ge11  1  0.08706868  0.43210711  0.32712586  1
  Ge  Ge12  1  0.08706868  0.93210711  0.17287414  1
  Ge  Ge13  1  0.58706868  0.56789289  0.32712586  1
  Ge  Ge14  1  0.41293132  0.93210711  0.82712586  1
  Ge  Ge15  1  0.91293132  0.56789289  0.67287414  1
  Ge  Ge16  1  0.53647019  0.71944201  0.57368656  1
  Ge  Ge17  1  0.03647019  0.78055799  0.92631344  1
  Ge  Ge18  1  0.96352981  0.71944201  0.42631344  1
  Ge  Ge19  1  0.46352981  0.78055799  0.07368656  1
  Ge  Ge20  1  0.46352981  0.28055799  0.42631344  1
  Ge  Ge21  1  0.96352981  0.21944201  0.07368656  1
  Ge  Ge22  1  0.03647019  0.28055799  0.57368656  1
  Ge  Ge23  1  0.53647019  0.21944201  0.92631344  1
  Ru  Ru24  1  0.75000000  0.92720498  0.50000000  1
  Ru  Ru25  1  0.25000000  0.57279502  0.00000000  1
  Ru  Ru26  1  0.25000000  0.07279502  0.50000000  1
  Ru  Ru27  1  0.75000000  0.42720498  0.00000000  1
  Ru  Ru28  1  0.75000000  0.45414294  0.50000000  1
  Ru  Ru29  1  0.25000000  0.04585706  0.00000000  1
  Ru  Ru30  1  0.25000000  0.54585706  0.50000000  1
  Ru  Ru31  1  0.75000000  0.95414294  0.00000000  1
  Ru  Ru32  1  0.75882342  0.31258341  0.74681710  1
  Ru  Ru33  1  0.25882342  0.18741659  0.75318290  1
  Ru  Ru34  1  0.74117658  0.31258341  0.25318290  1
  Ru  Ru35  1  0.24117658  0.18741659  0.24681710  1
  Ru  Ru36  1  0.24117658  0.68741659  0.25318290  1
  Ru  Ru37  1  0.74117658  0.81258341  0.24681710  1
  Ru  Ru38  1  0.25882342  0.68741659  0.74681710  1
  Ru  Ru39  1  0.75882342  0.81258341  0.75318290  1
