# generated using pymatgen
data_Sm(Ni2P)2
_symmetry_space_group_name_H-M   'P 1'
_cell_length_a   3.73011429
_cell_length_b   10.70036513
_cell_length_c   14.10624607
_cell_angle_alpha   90.00000000
_cell_angle_beta   90.00000000
_cell_angle_gamma   90.00000000
_symmetry_Int_Tables_number   1
_chemical_formula_structural   Sm(Ni2P)2
_chemical_formula_sum   'Sm6 Ni24 P12'
_cell_volume   563.03084985
_cell_formula_units_Z   6
loop_
 _symmetry_equiv_pos_site_id
 _symmetry_equiv_pos_as_xyz
  1  'x, y, z'
loop_
 _atom_site_type_symbol
 _atom_site_label
 _atom_site_symmetry_multiplicity
 _atom_site_fract_x
 _atom_site_fract_y
 _atom_site_fract_z
 _atom_site_occupancy
  Sm  Sm0  1  0.00000000  0.87931412  0.27697580  1
  Sm  Sm1  1  0.00000000  0.12068588  0.72302420  1
  Sm  Sm2  1  0.00000000  0.00000000  0.00000000  1
  Sm  Sm3  1  0.50000000  0.62068588  0.77697580  1
  Sm  Sm4  1  0.50000000  0.37931412  0.22302420  1
  Sm  Sm5  1  0.50000000  0.50000000  0.50000000  1
  Ni  Ni6  1  0.50000000  0.24760462  0.41303998  1
  Ni  Ni7  1  0.00000000  0.59763245  0.94073272  1
  Ni  Ni8  1  0.00000000  0.92701842  0.56376737  1
  Ni  Ni9  1  0.50000000  0.32032528  0.78438894  1
  Ni  Ni10  1  0.50000000  0.06942853  0.17794183  1
  Ni  Ni11  1  0.00000000  0.07298158  0.43623263  1
  Ni  Ni12  1  0.50000000  0.93057147  0.82205817  1
  Ni  Ni13  1  0.00000000  0.40236755  0.05926728  1
  Ni  Ni14  1  0.00000000  0.43057147  0.67794183  1
  Ni  Ni15  1  0.50000000  0.77487409  0.96253653  1
  Ni  Ni16  1  0.00000000  0.82032528  0.71561106  1
  Ni  Ni17  1  0.50000000  0.75239538  0.58696002  1
  Ni  Ni18  1  0.00000000  0.27487409  0.53746347  1
  Ni  Ni19  1  0.50000000  0.57298158  0.06376737  1
  Ni  Ni20  1  0.00000000  0.56942853  0.32205817  1
  Ni  Ni21  1  0.00000000  0.25239538  0.91303998  1
  Ni  Ni22  1  0.50000000  0.09763245  0.55926728  1
  Ni  Ni23  1  0.00000000  0.17967472  0.28438894  1
  Ni  Ni24  1  0.50000000  0.67967472  0.21561106  1
  Ni  Ni25  1  0.50000000  0.42701842  0.93623263  1
  Ni  Ni26  1  0.00000000  0.74760462  0.08696002  1
  Ni  Ni27  1  0.50000000  0.22512591  0.03746347  1
  Ni  Ni28  1  0.00000000  0.72512591  0.46253653  1
  Ni  Ni29  1  0.50000000  0.90236755  0.44073272  1
  P  P30  1  0.00000000  0.20689105  0.12838486  1
  P  P31  1  0.00000000  0.63891315  0.61779649  1
  P  P32  1  0.00000000  0.36108685  0.38220351  1
  P  P33  1  0.50000000  0.13891315  0.88220351  1
  P  P34  1  0.00000000  0.43302125  0.84121754  1
  P  P35  1  0.50000000  0.29310895  0.62838486  1
  P  P36  1  0.50000000  0.86108685  0.11779649  1
  P  P37  1  0.00000000  0.79310895  0.87161514  1
  P  P38  1  0.50000000  0.70689105  0.37161514  1
  P  P39  1  0.50000000  0.06697875  0.34121754  1
  P  P40  1  0.00000000  0.56697875  0.15878246  1
  P  P41  1  0.50000000  0.93302125  0.65878246  1
