# generated using pymatgen
data_In4Ag9
_symmetry_space_group_name_H-M   'P 1'
_cell_length_a   10.06540003
_cell_length_b   10.06540003
_cell_length_c   10.06540003
_cell_angle_alpha   90.00000000
_cell_angle_beta   90.00000000
_cell_angle_gamma   90.00000000
_symmetry_Int_Tables_number   1
_chemical_formula_structural   In4Ag9
_chemical_formula_sum   'In16 Ag36'
_cell_volume   1019.74860364
_cell_formula_units_Z   4
loop_
 _symmetry_equiv_pos_site_id
 _symmetry_equiv_pos_as_xyz
  1  'x, y, z'
loop_
 _atom_site_type_symbol
 _atom_site_label
 _atom_site_symmetry_multiplicity
 _atom_site_fract_x
 _atom_site_fract_y
 _atom_site_fract_z
 _atom_site_occupancy
  Ag  Ag0  1  0.68191253  0.68191253  0.02796043  1
  Ag  Ag1  1  0.31808747  0.97203957  0.68191253  1
  Ag  Ag2  1  0.97203957  0.31808747  0.68191253  1
  Ag  Ag3  1  0.31808747  0.02796043  0.31808747  1
  Ag  Ag4  1  0.02796043  0.31808747  0.31808747  1
  Ag  Ag5  1  0.68191253  0.31808747  0.97203957  1
  Ag  Ag6  1  0.31808747  0.68191253  0.97203957  1
  Ag  Ag7  1  0.02796043  0.68191253  0.68191253  1
  Ag  Ag8  1  0.97203957  0.68191253  0.31808747  1
  Ag  Ag9  1  0.68191253  0.97203957  0.31808747  1
  Ag  Ag10  1  0.68191253  0.02796043  0.68191253  1
  Ag  Ag11  1  0.31808747  0.31808747  0.02796043  1
  Ag  Ag12  1  0.50000000  0.50000000  0.14412736  1
  Ag  Ag13  1  0.85587264  0.50000000  0.50000000  1
  Ag  Ag14  1  0.14412736  0.50000000  0.50000000  1
  Ag  Ag15  1  0.50000000  0.14412736  0.50000000  1
  Ag  Ag16  1  0.60473163  0.60473163  0.60473163  1
  Ag  Ag17  1  0.39526837  0.60473163  0.39526837  1
  Ag  Ag18  1  0.39526837  0.39526837  0.60473163  1
  Ag  Ag19  1  0.60473163  0.39526837  0.39526837  1
  Ag  Ag20  1  0.83116823  0.83116823  0.83116823  1
  Ag  Ag21  1  0.16883177  0.83116823  0.16883177  1
  Ag  Ag22  1  0.16883177  0.16883177  0.83116823  1
  Ag  Ag23  1  0.83116823  0.16883177  0.16883177  1
  Ag  Ag24  1  0.32504165  0.32504165  0.32504165  1
  Ag  Ag25  1  0.67495835  0.32504165  0.67495835  1
  Ag  Ag26  1  0.67495835  0.67495835  0.32504165  1
  Ag  Ag27  1  0.32504165  0.67495835  0.67495835  1
  Ag  Ag28  1  0.00000000  0.00000000  0.35677032  1
  Ag  Ag29  1  0.00000000  0.35677032  0.00000000  1
  Ag  Ag30  1  0.00000000  0.64322968  0.00000000  1
  Ag  Ag31  1  0.64322968  0.00000000  0.00000000  1
  Ag  Ag32  1  0.35677032  0.00000000  0.00000000  1
  Ag  Ag33  1  0.00000000  0.00000000  0.64322968  1
  Ag  Ag34  1  0.50000000  0.50000000  0.85587264  1
  Ag  Ag35  1  0.50000000  0.85587264  0.50000000  1
  In  In36  1  0.18974454  0.18974454  0.53368318  1
  In  In37  1  0.81025546  0.46631682  0.18974454  1
  In  In38  1  0.46631682  0.81025546  0.18974454  1
  In  In39  1  0.81025546  0.53368318  0.81025546  1
  In  In40  1  0.53368318  0.81025546  0.81025546  1
  In  In41  1  0.18974454  0.81025546  0.46631682  1
  In  In42  1  0.81025546  0.18974454  0.46631682  1
  In  In43  1  0.53368318  0.18974454  0.18974454  1
  In  In44  1  0.46631682  0.18974454  0.81025546  1
  In  In45  1  0.18974454  0.46631682  0.81025546  1
  In  In46  1  0.18974454  0.53368318  0.18974454  1
  In  In47  1  0.81025546  0.81025546  0.53368318  1
  In  In48  1  0.12348472  0.87651528  0.87651528  1
  In  In49  1  0.87651528  0.87651528  0.12348472  1
  In  In50  1  0.87651528  0.12348472  0.87651528  1
  In  In51  1  0.12348472  0.12348472  0.12348472  1
