# generated using pymatgen
data_LaIn2Ir
_symmetry_space_group_name_H-M   'P 1'
_cell_length_a   4.47570519
_cell_length_b   5.64556245
_cell_length_c   8.19650363
_cell_angle_alpha   90.00000000
_cell_angle_beta   90.00000000
_cell_angle_gamma   113.35278257
_symmetry_Int_Tables_number   1
_chemical_formula_structural   LaIn2Ir
_chemical_formula_sum   'La2 In4 Ir2'
_cell_volume   190.14224138
_cell_formula_units_Z   2
loop_
 _symmetry_equiv_pos_site_id
 _symmetry_equiv_pos_as_xyz
  1  'x, y, z'
loop_
 _atom_site_type_symbol
 _atom_site_label
 _atom_site_symmetry_multiplicity
 _atom_site_fract_x
 _atom_site_fract_y
 _atom_site_fract_z
 _atom_site_occupancy
  In  In0  1  0.35259789  0.70519577  0.55166943  1
  In  In1  1  0.64740211  0.29480423  0.44833057  1
  In  In2  1  0.35259789  0.70519577  0.94833057  1
  In  In3  1  0.64740211  0.29480423  0.05166943  1
  La  La4  1  0.06677865  0.13355730  0.75000000  1
  La  La5  1  0.93322135  0.86644270  0.25000000  1
  Ir  Ir6  1  0.21530672  0.43061343  0.25000000  1
  Ir  Ir7  1  0.78469328  0.56938657  0.75000000  1
