# generated using pymatgen
data_TlRe6Se8Cl3
_symmetry_space_group_name_H-M   'P 1'
_cell_length_a   9.27815377
_cell_length_b   9.20716701
_cell_length_c   11.22848848
_cell_angle_alpha   110.07489675
_cell_angle_beta   90.59806674
_cell_angle_gamma   94.19503005
_symmetry_Int_Tables_number   1
_chemical_formula_structural   TlRe6Se8Cl3
_chemical_formula_sum   'Tl2 Re12 Se16 Cl6'
_cell_volume   897.86203292
_cell_formula_units_Z   2
loop_
 _symmetry_equiv_pos_site_id
 _symmetry_equiv_pos_as_xyz
  1  'x, y, z'
loop_
 _atom_site_type_symbol
 _atom_site_label
 _atom_site_symmetry_multiplicity
 _atom_site_fract_x
 _atom_site_fract_y
 _atom_site_fract_z
 _atom_site_occupancy
  Cl  Cl0  1  0.70175213  0.17392433  0.15728947  1
  Cl  Cl1  1  0.43239810  0.23516459  0.94967674  1
  Cl  Cl2  1  0.29824787  0.82607567  0.84271053  1
  Cl  Cl3  1  0.56157010  0.75563560  0.58294385  1
  Cl  Cl4  1  0.43842990  0.24436440  0.41705615  1
  Cl  Cl5  1  0.56760190  0.76483541  0.05032326  1
  Se  Se6  1  0.05558352  0.15492000  0.41821315  1
  Se  Se7  1  0.78735554  0.44843013  0.45981123  1
  Se  Se8  1  0.21264446  0.55156987  0.54018877  1
  Se  Se9  1  0.94441648  0.84508000  0.58178685  1
  Se  Se10  1  0.20063639  0.76492411  0.32574105  1
  Se  Se11  1  0.30920089  0.06119492  0.62995990  1
  Se  Se12  1  0.45215573  0.45888264  0.74388749  1
  Se  Se13  1  0.54784427  0.54111736  0.25611251  1
  Se  Se14  1  0.21227662  0.55048214  0.99291377  1
  Se  Se15  1  0.78772338  0.44951786  0.00708623  1
  Se  Se16  1  0.04968850  0.14568967  0.87575018  1
  Se  Se17  1  0.95031150  0.85431033  0.12424982  1
  Se  Se18  1  0.05930352  0.36845753  0.21301187  1
  Se  Se19  1  0.69079911  0.93880508  0.37004010  1
  Se  Se20  1  0.94069648  0.63154247  0.78698813  1
  Se  Se21  1  0.79936361  0.23507589  0.67425895  1
  Re  Re22  1  0.25849535  0.29912498  0.81429615  1
  Re  Re23  1  0.94841370  0.85996193  0.35187615  1
  Re  Re24  1  0.05158630  0.14003807  0.64812385  1
  Re  Re25  1  0.00607681  0.60760836  0.16237150  1
  Re  Re26  1  0.99392319  0.39239164  0.83762850  1
  Re  Re27  1  0.00688186  0.60668905  0.39816438  1
  Re  Re28  1  0.99311814  0.39331095  0.60183562  1
  Re  Re29  1  0.79978391  0.44329467  0.23193030  1
  Re  Re30  1  0.20021609  0.55670533  0.76806970  1
  Re  Re31  1  0.73877944  0.69985974  0.42137765  1
  Re  Re32  1  0.26122056  0.30014026  0.57862235  1
  Re  Re33  1  0.74150465  0.70087502  0.18570385  1
  Tl  Tl34  1  0.34502962  0.04484124  0.13799534  1
  Tl  Tl35  1  0.65497038  0.95515876  0.86200466  1
