# generated using pymatgen
data_GdCd3
_symmetry_space_group_name_H-M   'P 1'
_cell_length_a   6.66879238
_cell_length_b   6.66879238
_cell_length_c   5.00632938
_cell_angle_alpha   90.00000000
_cell_angle_beta   90.00000000
_cell_angle_gamma   120.00000002
_symmetry_Int_Tables_number   1
_chemical_formula_structural   GdCd3
_chemical_formula_sum   'Gd2 Cd6'
_cell_volume   192.81661062
_cell_formula_units_Z   2
loop_
 _symmetry_equiv_pos_site_id
 _symmetry_equiv_pos_as_xyz
  1  'x, y, z'
loop_
 _atom_site_type_symbol
 _atom_site_label
 _atom_site_symmetry_multiplicity
 _atom_site_fract_x
 _atom_site_fract_y
 _atom_site_fract_z
 _atom_site_occupancy
  Cd  Cd0  1  0.16236315  0.32472630  0.75000000  1
  Cd  Cd1  1  0.83763685  0.16236315  0.25000000  1
  Cd  Cd2  1  0.83763685  0.67527370  0.25000000  1
  Cd  Cd3  1  0.16236315  0.83763685  0.75000000  1
  Cd  Cd4  1  0.67527370  0.83763685  0.75000000  1
  Cd  Cd5  1  0.32472630  0.16236315  0.25000000  1
  Gd  Gd6  1  0.66666667  0.33333333  0.75000000  1
  Gd  Gd7  1  0.33333333  0.66666667  0.25000000  1
