# generated using pymatgen
data_Th(Fe2P)2
_symmetry_space_group_name_H-M   'P 1'
_cell_length_a   3.71712329
_cell_length_b   10.73029932
_cell_length_c   14.25628032
_cell_angle_alpha   90.00000000
_cell_angle_beta   90.00000000
_cell_angle_gamma   90.00000000
_symmetry_Int_Tables_number   1
_chemical_formula_structural   Th(Fe2P)2
_chemical_formula_sum   'Th6 Fe24 P12'
_cell_volume   568.62379441
_cell_formula_units_Z   6
loop_
 _symmetry_equiv_pos_site_id
 _symmetry_equiv_pos_as_xyz
  1  'x, y, z'
loop_
 _atom_site_type_symbol
 _atom_site_label
 _atom_site_symmetry_multiplicity
 _atom_site_fract_x
 _atom_site_fract_y
 _atom_site_fract_z
 _atom_site_occupancy
  P  P0  1  0.50000000  0.84983961  0.11427081  1
  P  P1  1  0.50000000  0.15016039  0.88572919  1
  P  P2  1  0.00000000  0.34983961  0.38572919  1
  P  P3  1  0.00000000  0.65016039  0.61427081  1
  P  P4  1  0.50000000  0.70414586  0.36808276  1
  P  P5  1  0.50000000  0.29585414  0.63191724  1
  P  P6  1  0.50000000  0.07006442  0.33504034  1
  P  P7  1  0.50000000  0.92993558  0.66495966  1
  P  P8  1  0.00000000  0.57006442  0.16495966  1
  P  P9  1  0.00000000  0.42993558  0.83504034  1
  P  P10  1  0.00000000  0.20414586  0.13191724  1
  P  P11  1  0.00000000  0.79585414  0.86808276  1
  Fe  Fe12  1  0.00000000  0.07773897  0.44509809  1
  Fe  Fe13  1  0.50000000  0.57773897  0.05490191  1
  Fe  Fe14  1  0.00000000  0.59331594  0.94676194  1
  Fe  Fe15  1  0.00000000  0.40668406  0.05323806  1
  Fe  Fe16  1  0.50000000  0.09331594  0.55323806  1
  Fe  Fe17  1  0.50000000  0.42226103  0.94509809  1
  Fe  Fe18  1  0.00000000  0.26130155  0.53667348  1
  Fe  Fe19  1  0.00000000  0.73869845  0.46332652  1
  Fe  Fe20  1  0.50000000  0.76130155  0.96332652  1
  Fe  Fe21  1  0.50000000  0.23869845  0.03667348  1
  Fe  Fe22  1  0.00000000  0.43083680  0.67397846  1
  Fe  Fe23  1  0.00000000  0.56916320  0.32602154  1
  Fe  Fe24  1  0.50000000  0.93083680  0.82602154  1
  Fe  Fe25  1  0.50000000  0.06916320  0.17397846  1
  Fe  Fe26  1  0.00000000  0.82268303  0.71088797  1
  Fe  Fe27  1  0.00000000  0.17731697  0.28911203  1
  Fe  Fe28  1  0.50000000  0.32268303  0.78911203  1
  Fe  Fe29  1  0.50000000  0.67731697  0.21088797  1
  Fe  Fe30  1  0.50000000  0.23546095  0.42104688  1
  Fe  Fe31  1  0.50000000  0.76453905  0.57895312  1
  Fe  Fe32  1  0.00000000  0.73546095  0.07895312  1
  Fe  Fe33  1  0.00000000  0.26453905  0.92104688  1
  Fe  Fe34  1  0.50000000  0.90668406  0.44676194  1
  Fe  Fe35  1  0.00000000  0.92226103  0.55490191  1
  Th  Th36  1  0.50000000  0.37678853  0.22589078  1
  Th  Th37  1  0.50000000  0.62321147  0.77410922  1
  Th  Th38  1  0.00000000  0.87678853  0.27410922  1
  Th  Th39  1  0.00000000  0.12321147  0.72589078  1
  Th  Th40  1  0.50000000  0.50000000  0.50000000  1
  Th  Th41  1  0.00000000  0.00000000  0.00000000  1
