# generated using pymatgen
data_In6Ge2PtO9
_symmetry_space_group_name_H-M   'P 1'
_cell_length_a   7.24135199
_cell_length_b   7.24135199
_cell_length_c   7.24135199
_cell_angle_alpha   59.99999996
_cell_angle_beta   59.99999996
_cell_angle_gamma   59.99999997
_symmetry_Int_Tables_number   1
_chemical_formula_structural   In6Ge2PtO9
_chemical_formula_sum   'In6 Ge2 Pt1 O9'
_cell_volume   268.49980645
_cell_formula_units_Z   1
loop_
 _symmetry_equiv_pos_site_id
 _symmetry_equiv_pos_as_xyz
  1  'x, y, z'
loop_
 _atom_site_type_symbol
 _atom_site_label
 _atom_site_symmetry_multiplicity
 _atom_site_fract_x
 _atom_site_fract_y
 _atom_site_fract_z
 _atom_site_occupancy
  O  O0  1  0.50000000  0.50000000  0.50000000  1
  O  O1  1  0.05109460  0.64963513  0.64963513  1
  O  O2  1  0.35036487  0.35036487  0.35036487  1
  O  O3  1  0.35036487  0.35036487  0.94890540  1
  O  O4  1  0.35036487  0.94890540  0.35036487  1
  O  O5  1  0.94890540  0.35036487  0.35036487  1
  O  O6  1  0.64963513  0.05109460  0.64963513  1
  O  O7  1  0.64963513  0.64963513  0.64963513  1
  O  O8  1  0.64963513  0.64963513  0.05109460  1
  Ge  Ge9  1  0.25000000  0.25000000  0.25000000  1
  Ge  Ge10  1  0.75000000  0.75000000  0.75000000  1
  In  In11  1  0.26088015  0.73911985  0.26088015  1
  In  In12  1  0.26088015  0.73911985  0.73911985  1
  In  In13  1  0.73911985  0.26088015  0.26088015  1
  In  In14  1  0.73911985  0.26088015  0.73911985  1
  In  In15  1  0.73911985  0.73911985  0.26088015  1
  In  In16  1  0.26088015  0.26088015  0.73911985  1
  Pt  Pt17  1  0.00000000  0.00000000  0.00000000  1
