# generated using pymatgen
data_Na3MgC2ClO6
_symmetry_space_group_name_H-M   'P 1'
_cell_length_a   10.02898367
_cell_length_b   10.02898366
_cell_length_c   10.02898366
_cell_angle_alpha   60.00000001
_cell_angle_beta   60.00000002
_cell_angle_gamma   60.00000000
_symmetry_Int_Tables_number   1
_chemical_formula_structural   Na3MgC2ClO6
_chemical_formula_sum   'Na12 Mg4 C8 Cl4 O24'
_cell_volume   713.27298201
_cell_formula_units_Z   4
loop_
 _symmetry_equiv_pos_site_id
 _symmetry_equiv_pos_as_xyz
  1  'x, y, z'
loop_
 _atom_site_type_symbol
 _atom_site_label
 _atom_site_symmetry_multiplicity
 _atom_site_fract_x
 _atom_site_fract_y
 _atom_site_fract_z
 _atom_site_occupancy
  C  C0  1  0.71664192  0.71664192  0.35007424  1
  C  C1  1  0.71664192  0.35007424  0.71664192  1
  C  C2  1  0.35007424  0.71664192  0.71664192  1
  C  C3  1  0.71664192  0.71664192  0.71664192  1
  C  C4  1  0.28335808  0.28335808  0.64992576  1
  C  C5  1  0.28335808  0.64992576  0.28335808  1
  C  C6  1  0.64992576  0.28335808  0.28335808  1
  C  C7  1  0.28335808  0.28335808  0.28335808  1
  O  O8  1  0.60890374  0.34815832  0.86067667  1
  O  O9  1  0.34815832  0.60890374  0.68226127  1
  O  O10  1  0.86067667  0.60890374  0.34815832  1
  O  O11  1  0.68226127  0.86067667  0.34815832  1
  O  O12  1  0.68226127  0.34815832  0.60890374  1
  O  O13  1  0.86067667  0.34815832  0.68226127  1
  O  O14  1  0.34815832  0.86067667  0.60890374  1
  O  O15  1  0.60890374  0.68226127  0.34815832  1
  O  O16  1  0.86067667  0.68226127  0.60890374  1
  O  O17  1  0.68226127  0.60890374  0.86067667  1
  O  O18  1  0.39109626  0.31773873  0.65184168  1
  O  O19  1  0.65184168  0.13932333  0.39109626  1
  O  O20  1  0.13932333  0.65184168  0.31773873  1
  O  O21  1  0.65184168  0.31773873  0.13932333  1
  O  O22  1  0.31773873  0.65184168  0.39109626  1
  O  O23  1  0.31773873  0.13932333  0.65184168  1
  O  O24  1  0.13932333  0.39109626  0.65184168  1
  O  O25  1  0.65184168  0.39109626  0.31773873  1
  O  O26  1  0.60890374  0.86067667  0.68226127  1
  O  O27  1  0.39109626  0.65184168  0.13932333  1
  O  O28  1  0.31773873  0.39109626  0.13932333  1
  O  O29  1  0.13932333  0.31773873  0.39109626  1
  O  O30  1  0.39109626  0.13932333  0.31773873  1
  O  O31  1  0.34815832  0.68226127  0.86067667  1
  Na  Na32  1  0.89963120  0.35036880  0.35036880  1
  Na  Na33  1  0.35036880  0.35036880  0.89963120  1
  Na  Na34  1  0.89963120  0.89963120  0.35036880  1
  Na  Na35  1  0.89963120  0.35036880  0.89963120  1
  Na  Na36  1  0.35036880  0.89963120  0.89963120  1
  Na  Na37  1  0.64963120  0.10036880  0.64963120  1
  Na  Na38  1  0.64963120  0.64963120  0.10036880  1
  Na  Na39  1  0.10036880  0.10036880  0.64963120  1
  Na  Na40  1  0.10036880  0.64963120  0.10036880  1
  Na  Na41  1  0.64963120  0.10036880  0.10036880  1
  Na  Na42  1  0.35036880  0.89963120  0.35036880  1
  Na  Na43  1  0.10036880  0.64963120  0.64963120  1
  Mg  Mg44  1  0.50000000  0.50000000  0.50000000  1
  Mg  Mg45  1  0.00000000  0.50000000  0.50000000  1
  Mg  Mg46  1  0.50000000  0.00000000  0.50000000  1
  Mg  Mg47  1  0.50000000  0.50000000  0.00000000  1
  Cl  Cl48  1  0.00000000  0.00000000  0.00000000  1
  Cl  Cl49  1  0.50000000  0.00000000  0.00000000  1
  Cl  Cl50  1  0.00000000  0.50000000  0.00000000  1
  Cl  Cl51  1  0.00000000  0.00000000  0.50000000  1
