# generated using pymatgen
data_KSbClF3
_symmetry_space_group_name_H-M   'P 1'
_cell_length_a   8.03267859
_cell_length_b   8.25863661
_cell_length_c   15.09932588
_cell_angle_alpha   90.00000000
_cell_angle_beta   90.00000000
_cell_angle_gamma   90.00000000
_symmetry_Int_Tables_number   1
_chemical_formula_structural   KSbClF3
_chemical_formula_sum   'K8 Sb8 Cl8 F24'
_cell_volume   1001.67377912
_cell_formula_units_Z   8
loop_
 _symmetry_equiv_pos_site_id
 _symmetry_equiv_pos_as_xyz
  1  'x, y, z'
loop_
 _atom_site_type_symbol
 _atom_site_label
 _atom_site_symmetry_multiplicity
 _atom_site_fract_x
 _atom_site_fract_y
 _atom_site_fract_z
 _atom_site_occupancy
  F  F0  1  0.89256951  0.27110919  0.35421429  1
  F  F1  1  0.39256951  0.22889081  0.64578571  1
  F  F2  1  0.10743049  0.77110919  0.14578571  1
  F  F3  1  0.60743049  0.72889081  0.85421429  1
  F  F4  1  0.10743049  0.72889081  0.64578571  1
  F  F5  1  0.60743049  0.77110919  0.35421429  1
  F  F6  1  0.89256951  0.22889081  0.85421429  1
  F  F7  1  0.39256951  0.27110919  0.14578571  1
  F  F8  1  0.61476785  0.50497891  0.15103524  1
  F  F9  1  0.11476785  0.99502109  0.84896476  1
  F  F10  1  0.38523215  0.00497891  0.34896476  1
  F  F11  1  0.88523215  0.49502109  0.65103524  1
  F  F12  1  0.38523215  0.49502109  0.84896476  1
  F  F13  1  0.88523215  0.00497891  0.15103524  1
  F  F14  1  0.61476785  0.99502109  0.65103524  1
  F  F15  1  0.16438286  0.03868103  0.04611492  1
  F  F16  1  0.66438286  0.03868103  0.45388508  1
  F  F17  1  0.16438286  0.46131897  0.54611492  1
  F  F18  1  0.33561714  0.53868103  0.04611492  1
  F  F19  1  0.83561714  0.96131897  0.95388508  1
  F  F20  1  0.33561714  0.96131897  0.54611492  1
  F  F21  1  0.83561714  0.53868103  0.45388508  1
  F  F22  1  0.66438286  0.46131897  0.95388508  1
  F  F23  1  0.11476785  0.50497891  0.34896476  1
  Cl  Cl24  1  0.01839373  0.37697879  0.15059196  1
  Cl  Cl25  1  0.01839373  0.12302121  0.65059196  1
  Cl  Cl26  1  0.48160627  0.87697879  0.15059196  1
  Cl  Cl27  1  0.98160627  0.62302121  0.84940804  1
  Cl  Cl28  1  0.48160627  0.62302121  0.65059196  1
  Cl  Cl29  1  0.98160627  0.87697879  0.34940804  1
  Cl  Cl30  1  0.51839373  0.12302121  0.84940804  1
  Cl  Cl31  1  0.51839373  0.37697879  0.34940804  1
  K  K32  1  0.68158723  0.19569147  0.05742938  1
  K  K33  1  0.18158723  0.30430853  0.94257062  1
  K  K34  1  0.31841277  0.69569147  0.44257062  1
  K  K35  1  0.81841277  0.80430853  0.55742938  1
  K  K36  1  0.18158723  0.19569147  0.44257062  1
  K  K37  1  0.81841277  0.69569147  0.05742938  1
  K  K38  1  0.68158723  0.30430853  0.55742938  1
  K  K39  1  0.31841277  0.80430853  0.94257062  1
  Sb  Sb40  1  0.62999658  0.00473027  0.32453526  1
  Sb  Sb41  1  0.12999658  0.49526973  0.67546474  1
  Sb  Sb42  1  0.37000342  0.50473027  0.17546474  1
  Sb  Sb43  1  0.87000342  0.99526973  0.82453526  1
  Sb  Sb44  1  0.37000342  0.99526973  0.67546474  1
  Sb  Sb45  1  0.87000342  0.50473027  0.32453526  1
  Sb  Sb46  1  0.62999658  0.49526973  0.82453526  1
  Sb  Sb47  1  0.12999658  0.00473027  0.17546474  1
