# generated using pymatgen
data_Eu(In4Rh)2
_symmetry_space_group_name_H-M   'P 1'
_cell_length_a   4.42265757
_cell_length_b   14.07511944
_cell_length_c   16.39822608
_cell_angle_alpha   90.00000000
_cell_angle_beta   90.00000000
_cell_angle_gamma   90.00000000
_symmetry_Int_Tables_number   1
_chemical_formula_structural   Eu(In4Rh)2
_chemical_formula_sum   'Eu4 In32 Rh8'
_cell_volume   1020.78028454
_cell_formula_units_Z   4
loop_
 _symmetry_equiv_pos_site_id
 _symmetry_equiv_pos_as_xyz
  1  'x, y, z'
loop_
 _atom_site_type_symbol
 _atom_site_label
 _atom_site_symmetry_multiplicity
 _atom_site_fract_x
 _atom_site_fract_y
 _atom_site_fract_z
 _atom_site_occupancy
  Rh  Rh0  1  0.50000000  0.65432780  0.09611550  1
  Rh  Rh1  1  0.50000000  0.96551062  0.90449291  1
  Rh  Rh2  1  0.50000000  0.03448938  0.09550709  1
  Rh  Rh3  1  0.50000000  0.46551062  0.59550709  1
  Rh  Rh4  1  0.50000000  0.53448938  0.40449291  1
  Rh  Rh5  1  0.50000000  0.34567220  0.90388450  1
  Rh  Rh6  1  0.50000000  0.15432780  0.40388450  1
  Rh  Rh7  1  0.50000000  0.84567220  0.59611550  1
  In  In8  1  0.00000000  0.51923096  0.13332270  1
  In  In9  1  0.00000000  0.98076904  0.63332270  1
  In  In10  1  0.00000000  0.01923096  0.36667730  1
  In  In11  1  0.00000000  0.48076904  0.86667730  1
  In  In12  1  0.00000000  0.83269572  0.87676792  1
  In  In13  1  0.00000000  0.16730428  0.12323208  1
  In  In14  1  0.00000000  0.33269572  0.62323208  1
  In  In15  1  0.00000000  0.66730428  0.37676792  1
  In  In16  1  0.00000000  0.55076135  0.68406630  1
  In  In17  1  0.00000000  0.44923865  0.31593370  1
  In  In18  1  0.00000000  0.05076135  0.81593370  1
  In  In19  1  0.00000000  0.94923865  0.18406630  1
  In  In20  1  0.00000000  0.00000000  0.00000000  1
  In  In21  1  0.00000000  0.50000000  0.50000000  1
  In  In22  1  0.00000000  0.76000398  0.67790638  1
  In  In23  1  0.00000000  0.23999602  0.32209362  1
  In  In24  1  0.00000000  0.26000398  0.82209362  1
  In  In25  1  0.00000000  0.73999602  0.17790638  1
  In  In26  1  0.50000000  0.84020759  0.04402890  1
  In  In27  1  0.50000000  0.15979241  0.95597110  1
  In  In28  1  0.50000000  0.34020759  0.45597110  1
  In  In29  1  0.50000000  0.65979241  0.54402890  1
  In  In30  1  0.00000000  0.66986927  0.98814198  1
  In  In31  1  0.00000000  0.33013073  0.01185802  1
  In  In32  1  0.00000000  0.16986927  0.51185802  1
  In  In33  1  0.00000000  0.83013073  0.48814198  1
  In  In34  1  0.50000000  0.60083355  0.25323067  1
  In  In35  1  0.50000000  0.39916645  0.74676933  1
  In  In36  1  0.50000000  0.10083355  0.24676933  1
  In  In37  1  0.50000000  0.89916645  0.75323067  1
  In  In38  1  0.50000000  0.50000000  0.00000000  1
  In  In39  1  0.50000000  0.00000000  0.50000000  1
  Eu  Eu40  1  0.50000000  0.65663154  0.81937556  1
  Eu  Eu41  1  0.50000000  0.34336846  0.18062444  1
  Eu  Eu42  1  0.50000000  0.15663154  0.68062444  1
  Eu  Eu43  1  0.50000000  0.84336846  0.31937556  1
