# generated using pymatgen
data_CaB8H4O15
_symmetry_space_group_name_H-M   'P 1'
_cell_length_a   7.59770862
_cell_length_b   8.40780373
_cell_length_c   9.83220042
_cell_angle_alpha   90.00000000
_cell_angle_beta   108.01644688
_cell_angle_gamma   90.00000000
_symmetry_Int_Tables_number   1
_chemical_formula_structural   CaB8H4O15
_chemical_formula_sum   'Ca2 B16 H8 O30'
_cell_volume   597.28515543
_cell_formula_units_Z   2
loop_
 _symmetry_equiv_pos_site_id
 _symmetry_equiv_pos_as_xyz
  1  'x, y, z'
loop_
 _atom_site_type_symbol
 _atom_site_label
 _atom_site_symmetry_multiplicity
 _atom_site_fract_x
 _atom_site_fract_y
 _atom_site_fract_z
 _atom_site_occupancy
  H  H0  1  0.37420306  0.92904995  0.17705727  1
  H  H1  1  0.62579694  0.42904995  0.82294273  1
  H  H2  1  0.32845319  0.92791623  0.90624142  1
  H  H3  1  0.67154681  0.42791623  0.09375858  1
  H  H4  1  0.63320709  0.91729896  0.89646082  1
  H  H5  1  0.36679291  0.41729896  0.10353918  1
  H  H6  1  0.63152847  0.94475424  0.42493136  1
  H  H7  1  0.36847153  0.44475424  0.57506864  1
  B  B8  1  0.41244163  0.87235533  0.47722943  1
  B  B9  1  0.87409153  0.27588633  0.71836233  1
  B  B10  1  0.96601613  0.23597387  0.98130752  1
  B  B11  1  0.03398387  0.73597387  0.01869248  1
  B  B12  1  0.12590847  0.77588633  0.28163767  1
  B  B13  1  0.58755837  0.37235533  0.52277057  1
  B  B14  1  0.38409897  0.47901373  0.84935699  1
  B  B15  1  0.61590103  0.97901373  0.15064301  1
  B  B16  1  0.59618745  0.38524771  0.27059812  1
  B  B17  1  0.40381255  0.88524771  0.72940188  1
  B  B18  1  0.08409677  0.48614436  0.90379460  1
  B  B19  1  0.91590323  0.98614436  0.09620540  1
  B  B20  1  0.08966099  0.48369179  0.64264654  1
  B  B21  1  0.91033901  0.98369179  0.35735346  1
  B  B22  1  0.98502493  0.22578717  0.51256827  1
  B  B23  1  0.01497507  0.72578717  0.48743173  1
  O  O24  1  0.98580160  0.91244878  0.24433364  1
  O  O25  1  0.91984969  0.16668705  0.61848969  1
  O  O26  1  0.72429945  0.41380985  0.19884692  1
  O  O27  1  0.89044032  0.17920142  0.84505273  1
  O  O28  1  0.98564589  0.14816827  0.10218473  1
  O  O29  1  0.01435411  0.64816827  0.89781527  1
  O  O30  1  0.08015031  0.66668705  0.38151031  1
  O  O31  1  0.27570055  0.91380985  0.80115308  1
  O  O32  1  0.31285207  0.84381370  0.33715495  1
  O  O33  1  0.68714793  0.34381370  0.66284505  1
  O  O34  1  0.99584626  0.13903943  0.39771565  1
  O  O35  1  0.00415374  0.63903943  0.60228435  1
  O  O36  1  0.29388636  0.49649669  0.70621465  1
  O  O37  1  0.70611364  0.99649669  0.29378535  1
  O  O38  1  0.28928806  0.48377858  0.94733634  1
  O  O39  1  0.71071194  0.98377858  0.05266366  1
  O  O40  1  0.33144086  0.85749004  0.58455582  1
  O  O41  1  0.66855914  0.35749004  0.41544418  1
  O  O42  1  0.40535355  0.42006688  0.48751138  1
  O  O43  1  0.59464645  0.92006688  0.51248862  1
  O  O44  1  0.57288841  0.45412496  0.90056782  1
  O  O45  1  0.42711159  0.95412496  0.09943218  1
  O  O46  1  0.40758998  0.38202255  0.20703154  1
  O  O47  1  0.59241002  0.88202255  0.79296846  1
  O  O48  1  0.94394809  0.87723247  0.47957224  1
  O  O49  1  0.05605191  0.37723247  0.52042776  1
  O  O50  1  0.97243992  0.89049440  0.99322517  1
  O  O51  1  0.02756008  0.39049440  0.00677483  1
  O  O52  1  0.10955968  0.67920142  0.15494727  1
  O  O53  1  0.01419840  0.41244878  0.75566636  1
  Ca  Ca54  1  0.89276643  0.90004529  0.71941029  1
  Ca  Ca55  1  0.10723357  0.40004529  0.28058971  1
