# generated using pymatgen
data_Zn3Co2(CN)12
_symmetry_space_group_name_H-M   'P 1'
_cell_length_a   13.03306228
_cell_length_b   13.03306278
_cell_length_c   13.03306235
_cell_angle_alpha   57.50729573
_cell_angle_beta   57.50729431
_cell_angle_gamma   57.50729605
_symmetry_Int_Tables_number   1
_chemical_formula_structural   Zn3Co2(CN)12
_chemical_formula_sum   'Zn6 Co4 C24 N24'
_cell_volume   1475.65457156
_cell_formula_units_Z   2
loop_
 _symmetry_equiv_pos_site_id
 _symmetry_equiv_pos_as_xyz
  1  'x, y, z'
loop_
 _atom_site_type_symbol
 _atom_site_label
 _atom_site_symmetry_multiplicity
 _atom_site_fract_x
 _atom_site_fract_y
 _atom_site_fract_z
 _atom_site_occupancy
  Zn  Zn0  1  0.53988714  0.96011286  0.25000000  1
  Zn  Zn1  1  0.25000000  0.53988714  0.96011286  1
  Zn  Zn2  1  0.96011286  0.25000000  0.53988714  1
  Zn  Zn3  1  0.46011286  0.03988714  0.75000000  1
  Zn  Zn4  1  0.75000000  0.46011286  0.03988714  1
  Zn  Zn5  1  0.03988714  0.75000000  0.46011286  1
  Co  Co6  1  0.14651895  0.14651895  0.14651895  1
  Co  Co7  1  0.35348105  0.35348105  0.35348105  1
  Co  Co8  1  0.85348105  0.85348105  0.85348105  1
  Co  Co9  1  0.64651895  0.64651895  0.64651895  1
  C  C10  1  0.29280088  0.05348680  0.19519639  1
  C  C11  1  0.19519639  0.29280088  0.05348680  1
  C  C12  1  0.05348680  0.19519639  0.29280088  1
  C  C13  1  0.44651320  0.20719912  0.30480361  1
  C  C14  1  0.30480361  0.44651320  0.20719912  1
  C  C15  1  0.20719912  0.30480361  0.44651320  1
  C  C16  1  0.70719912  0.94651320  0.80480361  1
  C  C17  1  0.80480361  0.70719912  0.94651320  1
  C  C18  1  0.94651320  0.80480361  0.70719912  1
  C  C19  1  0.55348680  0.79280088  0.69519639  1
  C  C20  1  0.69519639  0.55348680  0.79280088  1
  C  C21  1  0.79280088  0.69519639  0.55348680  1
  N  N22  1  0.38385012  0.99946764  0.22531123  1
  N  N23  1  0.22531123  0.38385012  0.99946764  1
  N  N24  1  0.99946764  0.22531123  0.38385012  1
  N  N25  1  0.50053236  0.11614988  0.27468877  1
  N  N26  1  0.27468877  0.50053236  0.11614988  1
  N  N27  1  0.11614988  0.27468877  0.50053236  1
  N  N28  1  0.61614988  0.00053236  0.77468877  1
  N  N29  1  0.77468877  0.61614988  0.00053236  1
  N  N30  1  0.00053236  0.77468877  0.61614988  1
  N  N31  1  0.49946764  0.88385012  0.72531123  1
  N  N32  1  0.72531123  0.49946764  0.88385012  1
  N  N33  1  0.88385012  0.72531123  0.49946764  1
  C  C34  1  0.24550172  0.09908923  0.99923063  1
  C  C35  1  0.99923063  0.24550172  0.09908923  1
  C  C36  1  0.09908923  0.99923063  0.24550172  1
  C  C37  1  0.40091077  0.25449828  0.50076937  1
  C  C38  1  0.50076937  0.40091077  0.25449828  1
  C  C39  1  0.25449828  0.50076937  0.40091077  1
  C  C40  1  0.75449828  0.90091077  0.00076937  1
  C  C41  1  0.00076937  0.75449828  0.90091077  1
  C  C42  1  0.90091077  0.00076937  0.75449828  1
  C  C43  1  0.59908923  0.74550172  0.49923063  1
  C  C44  1  0.49923063  0.59908923  0.74550172  1
  C  C45  1  0.74550172  0.49923063  0.59908923  1
  N  N46  1  0.31264081  0.07100295  0.90615215  1
  N  N47  1  0.90615215  0.31264081  0.07100295  1
  N  N48  1  0.07100295  0.90615215  0.31264081  1
  N  N49  1  0.42899705  0.18735919  0.59384785  1
  N  N50  1  0.59384785  0.42899705  0.18735919  1
  N  N51  1  0.18735919  0.59384785  0.42899705  1
  N  N52  1  0.68735919  0.92899705  0.09384785  1
  N  N53  1  0.09384785  0.68735919  0.92899705  1
  N  N54  1  0.92899705  0.09384785  0.68735919  1
  N  N55  1  0.57100295  0.81264081  0.40615215  1
  N  N56  1  0.40615215  0.57100295  0.81264081  1
  N  N57  1  0.81264081  0.40615215  0.57100295  1
