# generated using pymatgen
data_Yb3Sb5O12
_symmetry_space_group_name_H-M   'P 1'
_cell_length_a   9.06431902
_cell_length_b   9.06431930
_cell_length_c   9.06431861
_cell_angle_alpha   109.47122113
_cell_angle_beta   109.47122175
_cell_angle_gamma   109.47122187
_symmetry_Int_Tables_number   1
_chemical_formula_structural   Yb3Sb5O12
_chemical_formula_sum   'Yb6 Sb10 O24'
_cell_volume   573.30223434
_cell_formula_units_Z   2
loop_
 _symmetry_equiv_pos_site_id
 _symmetry_equiv_pos_as_xyz
  1  'x, y, z'
loop_
 _atom_site_type_symbol
 _atom_site_label
 _atom_site_symmetry_multiplicity
 _atom_site_fract_x
 _atom_site_fract_y
 _atom_site_fract_z
 _atom_site_occupancy
  Yb  Yb0  1  0.50000000  0.75000000  0.25000000  1
  Yb  Yb1  1  0.25000000  0.50000000  0.75000000  1
  Yb  Yb2  1  0.25000000  0.75000000  0.50000000  1
  Yb  Yb3  1  0.75000000  0.25000000  0.50000000  1
  Yb  Yb4  1  0.75000000  0.50000000  0.25000000  1
  Yb  Yb5  1  0.50000000  0.25000000  0.75000000  1
  Sb  Sb6  1  1.00000000  0.74863355  0.74863355  1
  Sb  Sb7  1  0.49995106  0.00000000  0.00000000  1
  Sb  Sb8  1  0.00000000  0.25136645  0.25136645  1
  Sb  Sb9  1  0.25136645  0.00000000  0.25136645  1
  Sb  Sb10  1  0.74863355  1.00000000  0.74863355  1
  Sb  Sb11  1  0.00000000  0.49995106  1.00000000  1
  Sb  Sb12  1  0.25136645  0.25136645  0.00000000  1
  Sb  Sb13  1  0.74863355  0.74863355  1.00000000  1
  Sb  Sb14  1  0.00000000  0.00000000  0.49995106  1
  Sb  Sb15  1  0.50004894  0.50004894  0.50004894  1
  O  O16  1  0.78364782  0.78364782  0.25022351  1
  O  O17  1  0.21635218  0.00000000  0.46657570  1
  O  O18  1  0.21566669  0.21566669  0.74941204  1
  O  O19  1  0.74941204  0.21566669  0.21566669  1
  O  O20  1  0.46625465  0.25058796  0.46625465  1
  O  O21  1  0.21566669  0.74941204  0.21566669  1
  O  O22  1  0.53374535  0.78433331  0.00000000  1
  O  O23  1  0.53342430  0.74977649  0.53342430  1
  O  O24  1  0.53374535  1.00000000  0.78433331  1
  O  O25  1  0.46657570  0.21635218  0.00000000  1
  O  O26  1  0.53342430  0.53342430  0.74977649  1
  O  O27  1  0.25022351  0.78364782  0.78364782  1
  O  O28  1  0.00000000  0.21635218  0.46657570  1
  O  O29  1  0.78364782  0.25022351  0.78364782  1
  O  O30  1  1.00000000  0.78433331  0.53374535  1
  O  O31  1  1.00000000  0.53374535  0.78433331  1
  O  O32  1  1.00000000  0.46657570  0.21635218  1
  O  O33  1  0.21635218  0.46657570  1.00000000  1
  O  O34  1  0.78433331  1.00000000  0.53374535  1
  O  O35  1  0.78433331  0.53374535  1.00000000  1
  O  O36  1  0.25058796  0.46625465  0.46625465  1
  O  O37  1  0.46625465  0.46625465  0.25058796  1
  O  O38  1  0.46657570  1.00000000  0.21635218  1
  O  O39  1  0.74977649  0.53342430  0.53342430  1
