# generated using pymatgen
data_KFe2S3
_symmetry_space_group_name_H-M   'P 1'
_cell_length_a   5.15732500
_cell_length_b   7.15994609
_cell_length_c   7.15994610
_cell_angle_alpha   103.88304061
_cell_angle_beta   90.00000000
_cell_angle_gamma   90.00000000
_symmetry_Int_Tables_number   1
_chemical_formula_structural   KFe2S3
_chemical_formula_sum   'K2 Fe4 S6'
_cell_volume   256.66591692
_cell_formula_units_Z   2
loop_
 _symmetry_equiv_pos_site_id
 _symmetry_equiv_pos_as_xyz
  1  'x, y, z'
loop_
 _atom_site_type_symbol
 _atom_site_label
 _atom_site_symmetry_multiplicity
 _atom_site_fract_x
 _atom_site_fract_y
 _atom_site_fract_z
 _atom_site_occupancy
  S  S0  1  0.75000000  0.17282755  0.38456828  1
  S  S1  1  0.25000000  0.82717245  0.61543172  1
  S  S2  1  0.25000000  0.38456828  0.17282755  1
  S  S3  1  0.75000000  0.10782717  0.89217283  1
  S  S4  1  0.25000000  0.89217283  0.10782717  1
  S  S5  1  0.75000000  0.61543172  0.82717245  1
  K  K6  1  0.25000000  0.32624584  0.67375416  1
  K  K7  1  0.75000000  0.67375416  0.32624584  1
  Fe  Fe8  1  0.00000000  0.85608339  0.85608339  1
  Fe  Fe9  1  0.50000000  0.14391661  0.14391661  1
  Fe  Fe10  1  0.00000000  0.14391661  0.14391661  1
  Fe  Fe11  1  0.50000000  0.85608339  0.85608339  1
