# generated using pymatgen
data_Li6Ti(BO3)3
_symmetry_space_group_name_H-M   'P 1'
_cell_length_a   7.07589269
_cell_length_b   16.24116200
_cell_length_c   6.52147862
_cell_angle_alpha   90.00000000
_cell_angle_beta   105.05230948
_cell_angle_gamma   90.00000000
_symmetry_Int_Tables_number   1
_chemical_formula_structural   Li6Ti(BO3)3
_chemical_formula_sum   'Li24 Ti4 B12 O36'
_cell_volume   723.73862906
_cell_formula_units_Z   4
loop_
 _symmetry_equiv_pos_site_id
 _symmetry_equiv_pos_as_xyz
  1  'x, y, z'
loop_
 _atom_site_type_symbol
 _atom_site_label
 _atom_site_symmetry_multiplicity
 _atom_site_fract_x
 _atom_site_fract_y
 _atom_site_fract_z
 _atom_site_occupancy
  Li  Li0  1  0.06758813  0.99532997  0.67905043  1
  Li  Li1  1  0.13638967  0.55443670  0.58580175  1
  Li  Li2  1  0.06758813  0.50467003  0.17905043  1
  Li  Li3  1  0.30485765  0.46339520  0.94676380  1
  Li  Li4  1  0.13638967  0.94556330  0.08580175  1
  Li  Li5  1  0.27562637  0.70787563  0.63715148  1
  Li  Li6  1  0.30485765  0.03660480  0.44676380  1
  Li  Li7  1  0.42161089  0.29328497  0.95456086  1
  Li  Li8  1  0.45893711  0.96970646  0.82993477  1
  Li  Li9  1  0.27562637  0.79212437  0.13715148  1
  Li  Li10  1  0.42161089  0.20671503  0.45456086  1
  Li  Li11  1  0.45893711  0.53029354  0.32993477  1
  Li  Li12  1  0.54106289  0.46970646  0.67006523  1
  Li  Li13  1  0.57838911  0.79328497  0.54543914  1
  Li  Li14  1  0.72437363  0.20787563  0.86284852  1
  Li  Li15  1  0.54106289  0.03029354  0.17006523  1
  Li  Li16  1  0.57838911  0.70671503  0.04543914  1
  Li  Li17  1  0.69514235  0.96339520  0.55323620  1
  Li  Li18  1  0.72437363  0.29212437  0.36284852  1
  Li  Li19  1  0.86361033  0.05443670  0.91419825  1
  Li  Li20  1  0.69514235  0.53660480  0.05323620  1
  Li  Li21  1  0.93241187  0.49532997  0.82094957  1
  Li  Li22  1  0.86361033  0.44556330  0.41419825  1
  Li  Li23  1  0.93241187  0.00467003  0.32094957  1
  Ti  Ti24  1  0.07623204  0.18674503  0.66153744  1
  Ti  Ti25  1  0.07623204  0.31325497  0.16153744  1
  Ti  Ti26  1  0.92376796  0.68674503  0.83846256  1
  Ti  Ti27  1  0.92376796  0.81325497  0.33846256  1
  B  B28  1  0.08253063  0.36143302  0.65809304  1
  B  B29  1  0.08253063  0.13856698  0.15809304  1
  B  B30  1  0.28162197  0.87529149  0.49880345  1
  B  B31  1  0.43103404  0.11949938  0.81129166  1
  B  B32  1  0.28162197  0.62470851  0.99880345  1
  B  B33  1  0.43103404  0.38050062  0.31129166  1
  B  B34  1  0.56896596  0.61949938  0.68870834  1
  B  B35  1  0.71837803  0.37529149  0.00119655  1
  B  B36  1  0.56896596  0.88050062  0.18870834  1
  B  B37  1  0.71837803  0.12470851  0.50119655  1
  B  B38  1  0.91746937  0.86143302  0.84190696  1
  B  B39  1  0.91746937  0.63856698  0.34190696  1
  O  O40  1  0.99068255  0.67133521  0.54323470  1
  O  O41  1  0.11030275  0.57811343  0.96054487  1
  O  O42  1  0.09872468  0.44551545  0.68023989  1
  O  O43  1  0.12384351  0.30729669  0.82842400  1
  O  O44  1  0.99068255  0.82866479  0.04323470  1
  O  O45  1  0.11030275  0.92188657  0.46054487  1
  O  O46  1  0.24917217  0.70550136  0.93595012  1
  O  O47  1  0.09872468  0.05448455  0.18023989  1
  O  O48  1  0.12384351  0.19270331  0.32842400  1
  O  O49  1  0.26291002  0.07271581  0.73054625  1
  O  O50  1  0.24917217  0.79449864  0.43595012  1
  O  O51  1  0.26291002  0.42728419  0.23054625  1
  O  O52  1  0.40730070  0.20207506  0.76269185  1
  O  O53  1  0.39912393  0.58202810  0.57566625  1
  O  O54  1  0.53785645  0.40947830  0.91738554  1
  O  O55  1  0.46214355  0.90947830  0.58261446  1
  O  O56  1  0.40730070  0.29792494  0.26269185  1
  O  O57  1  0.60087607  0.08202810  0.92433375  1
  O  O58  1  0.39912393  0.91797190  0.07566625  1
  O  O59  1  0.59269930  0.70207506  0.73730815  1
  O  O60  1  0.53785645  0.09052170  0.41738554  1
  O  O61  1  0.46214355  0.59052170  0.08261446  1
  O  O62  1  0.60087607  0.41797190  0.42433375  1
  O  O63  1  0.59269930  0.79792494  0.23730815  1
  O  O64  1  0.73708998  0.57271581  0.76945375  1
  O  O65  1  0.75082783  0.20550136  0.56404988  1
  O  O66  1  0.73708998  0.92728419  0.26945375  1
  O  O67  1  0.87615649  0.80729669  0.67157600  1
  O  O68  1  0.90127532  0.94551545  0.81976011  1
  O  O69  1  0.75082783  0.29449864  0.06404988  1
  O  O70  1  0.88969725  0.07811343  0.53945513  1
  O  O71  1  0.00931745  0.17133521  0.95676530  1
  O  O72  1  0.87615649  0.69270331  0.17157600  1
  O  O73  1  0.90127532  0.55448455  0.31976011  1
  O  O74  1  0.88969725  0.42188657  0.03945513  1
  O  O75  1  0.00931745  0.32866479  0.45676530  1
