# generated using pymatgen
data_LiVBO4
_symmetry_space_group_name_H-M   'P 1'
_cell_length_a   8.02472564
_cell_length_b   4.97740324
_cell_length_c   8.20211832
_cell_angle_alpha   90.00000000
_cell_angle_beta   107.01622767
_cell_angle_gamma   90.00000000
_symmetry_Int_Tables_number   1
_chemical_formula_structural   LiVBO4
_chemical_formula_sum   'Li4 V4 B4 O16'
_cell_volume   313.26923030
_cell_formula_units_Z   4
loop_
 _symmetry_equiv_pos_site_id
 _symmetry_equiv_pos_as_xyz
  1  'x, y, z'
loop_
 _atom_site_type_symbol
 _atom_site_label
 _atom_site_symmetry_multiplicity
 _atom_site_fract_x
 _atom_site_fract_y
 _atom_site_fract_z
 _atom_site_occupancy
  Li  Li0  1  0.09962476  0.81538433  0.97417121  1
  Li  Li1  1  0.25265628  0.30502078  0.49900342  1
  Li  Li2  1  0.59962476  0.18461567  0.97417121  1
  Li  Li3  1  0.75265628  0.69497922  0.49900342  1
  V  V4  1  0.99158359  0.68520414  0.25311890  1
  V  V5  1  0.34926346  0.80928587  0.73856716  1
  V  V6  1  0.49158359  0.31479586  0.25311890  1
  V  V7  1  0.84926346  0.19071413  0.73856716  1
  B  B8  1  0.23032714  0.31499472  0.86859073  1
  B  B9  1  0.36167195  0.81000186  0.36680469  1
  B  B10  1  0.73032714  0.68500528  0.86859073  1
  B  B11  1  0.86167195  0.18999814  0.36680469  1
  O  O12  1  0.06711111  0.19603531  0.88724383  1
  O  O13  1  0.00695716  0.34086766  0.33250606  1
  O  O14  1  0.20094281  0.60170964  0.81920552  1
  O  O15  1  0.28657140  0.16525457  0.73301395  1
  O  O16  1  0.20112582  0.78489120  0.22361349  1
  O  O17  1  0.32095073  0.69552363  0.52046067  1
  O  O18  1  0.56711111  0.80396469  0.88724383  1
  O  O19  1  0.41224400  0.09578502  0.39436216  1
  O  O20  1  0.37276878  0.29089645  0.02813822  1
  O  O21  1  0.50695716  0.65913234  0.33250606  1
  O  O22  1  0.70094281  0.39829036  0.81920552  1
  O  O23  1  0.78657140  0.83474543  0.73301395  1
  O  O24  1  0.70112582  0.21510880  0.22361349  1
  O  O25  1  0.82095073  0.30447637  0.52046067  1
  O  O26  1  0.91224400  0.90421498  0.39436216  1
  O  O27  1  0.87276878  0.70910355  0.02813822  1
