# generated using pymatgen
data_EuBO3
_symmetry_space_group_name_H-M   'P 1'
_cell_length_a   6.37996565
_cell_length_b   6.59220835
_cell_length_c   6.58313362
_cell_angle_alpha   93.22435667
_cell_angle_beta   106.13731467
_cell_angle_gamma   106.80095991
_symmetry_Int_Tables_number   1
_chemical_formula_structural   EuBO3
_chemical_formula_sum   'Eu4 B4 O12'
_cell_volume   251.78773519
_cell_formula_units_Z   4
loop_
 _symmetry_equiv_pos_site_id
 _symmetry_equiv_pos_as_xyz
  1  'x, y, z'
loop_
 _atom_site_type_symbol
 _atom_site_label
 _atom_site_symmetry_multiplicity
 _atom_site_fract_x
 _atom_site_fract_y
 _atom_site_fract_z
 _atom_site_occupancy
  B  B0  1  0.51159998  0.73376392  0.72330208  1
  B  B1  1  0.48840002  0.26623608  0.27669792  1
  B  B2  1  0.02004232  0.77923559  0.24137751  1
  B  B3  1  0.97995768  0.22076441  0.75862249  1
  O  O4  1  0.61909552  0.16216696  0.20275983  1
  O  O5  1  0.38090448  0.83783304  0.79724017  1
  O  O6  1  0.96325694  0.96327758  0.22639129  1
  O  O7  1  0.03674306  0.03672242  0.77360871  1
  O  O8  1  0.38084907  0.38395549  0.13616263  1
  O  O9  1  0.61915093  0.61604451  0.86383737  1
  O  O10  1  0.08374230  0.36474211  0.64060861  1
  O  O11  1  0.91625770  0.63525789  0.35939139  1
  O  O12  1  0.44615401  0.25263586  0.46733562  1
  O  O13  1  0.55384599  0.74736414  0.53266438  1
  O  O14  1  0.85194097  0.28644946  0.87121404  1
  O  O15  1  0.14805903  0.71355054  0.12878596  1
  Eu  Eu16  1  0.55428734  0.77627197  0.18732022  1
  Eu  Eu17  1  0.44571266  0.22372803  0.81267978  1
  Eu  Eu18  1  0.96067493  0.66988807  0.73596306  1
  Eu  Eu19  1  0.03932507  0.33011193  0.26403694  1
