# generated using pymatgen
data_Th2FeB10
_symmetry_space_group_name_H-M   'P 1'
_cell_length_a   4.18083788
_cell_length_b   5.62960722
_cell_length_c   11.24772514
_cell_angle_alpha   90.00000000
_cell_angle_beta   90.00000000
_cell_angle_gamma   90.00000000
_symmetry_Int_Tables_number   1
_chemical_formula_structural   Th2FeB10
_chemical_formula_sum   'Th4 Fe2 B20'
_cell_volume   264.73180286
_cell_formula_units_Z   2
loop_
 _symmetry_equiv_pos_site_id
 _symmetry_equiv_pos_as_xyz
  1  'x, y, z'
loop_
 _atom_site_type_symbol
 _atom_site_label
 _atom_site_symmetry_multiplicity
 _atom_site_fract_x
 _atom_site_fract_y
 _atom_site_fract_z
 _atom_site_occupancy
  B  B0  1  0.00000000  0.12687533  0.53998039  1
  B  B1  1  0.00000000  0.87312467  0.46001961  1
  B  B2  1  0.00000000  0.62687533  0.96001961  1
  B  B3  1  0.00000000  0.37312467  0.03998039  1
  B  B4  1  0.00000000  0.14770786  0.69703573  1
  B  B5  1  0.00000000  0.85229214  0.30296427  1
  B  B6  1  0.29952660  0.20501153  0.11383101  1
  B  B7  1  0.29952660  0.79498847  0.88616899  1
  B  B8  1  0.70047340  0.70501153  0.38616899  1
  B  B9  1  0.70047340  0.29498847  0.61383101  1
  B  B10  1  0.70047340  0.79498847  0.88616899  1
  B  B11  1  0.70047340  0.20501153  0.11383101  1
  B  B12  1  0.29952660  0.29498847  0.61383101  1
  B  B13  1  0.29952660  0.70501153  0.38616899  1
  B  B14  1  0.00000000  0.03964663  0.18746492  1
  B  B15  1  0.00000000  0.96035337  0.81253508  1
  B  B16  1  0.00000000  0.53964663  0.31253508  1
  B  B17  1  0.00000000  0.46035337  0.68746492  1
  B  B18  1  0.00000000  0.35229214  0.19703573  1
  B  B19  1  0.00000000  0.64770786  0.80296427  1
  Fe  Fe20  1  0.00000000  0.50000000  0.50000000  1
  Fe  Fe21  1  0.00000000  0.00000000  0.00000000  1
  Th  Th22  1  0.50000000  0.29088031  0.86874100  1
  Th  Th23  1  0.50000000  0.70911969  0.13125900  1
  Th  Th24  1  0.50000000  0.79088031  0.63125900  1
  Th  Th25  1  0.50000000  0.20911969  0.36874100  1
