# generated using pymatgen
data_BaIn2
_symmetry_space_group_name_H-M   'P 1'
_cell_length_a   5.34373832
_cell_length_b   6.69575925
_cell_length_c   6.69575926
_cell_angle_alpha   80.56768283
_cell_angle_beta   66.48188373
_cell_angle_gamma   66.48188382
_symmetry_Int_Tables_number   1
_chemical_formula_structural   BaIn2
_chemical_formula_sum   'Ba2 In4'
_cell_volume   201.42543267
_cell_formula_units_Z   2
loop_
 _symmetry_equiv_pos_site_id
 _symmetry_equiv_pos_as_xyz
  1  'x, y, z'
loop_
 _atom_site_type_symbol
 _atom_site_label
 _atom_site_symmetry_multiplicity
 _atom_site_fract_x
 _atom_site_fract_y
 _atom_site_fract_z
 _atom_site_occupancy
  In  In0  1  0.83818082  0.72973181  0.59390654  1
  In  In1  1  0.16181918  0.27026819  0.40609346  1
  In  In2  1  0.83818082  0.09390654  0.22973181  1
  In  In3  1  0.16181918  0.90609346  0.77026819  1
  Ba  Ba4  1  0.54862290  0.70137710  0.20137710  1
  Ba  Ba5  1  0.45137710  0.29862290  0.79862290  1
