# generated using pymatgen
data_Ca2BN2Cl
_symmetry_space_group_name_H-M   'P 1'
_cell_length_a   3.92043605
_cell_length_b   9.04460957
_cell_length_c   11.73074235
_cell_angle_alpha   90.00000000
_cell_angle_beta   90.00000000
_cell_angle_gamma   90.00000000
_symmetry_Int_Tables_number   1
_chemical_formula_structural   Ca2BN2Cl
_chemical_formula_sum   'Ca8 B4 N8 Cl4'
_cell_volume   415.95820422
_cell_formula_units_Z   4
loop_
 _symmetry_equiv_pos_site_id
 _symmetry_equiv_pos_as_xyz
  1  'x, y, z'
loop_
 _atom_site_type_symbol
 _atom_site_label
 _atom_site_symmetry_multiplicity
 _atom_site_fract_x
 _atom_site_fract_y
 _atom_site_fract_z
 _atom_site_occupancy
  B  B0  1  0.75000000  0.31821537  0.16549499  1
  B  B1  1  0.25000000  0.68178463  0.83450501  1
  B  B2  1  0.25000000  0.81821537  0.33450501  1
  B  B3  1  0.75000000  0.18178463  0.66549499  1
  N  N4  1  0.75000000  0.31653664  0.71292704  1
  N  N5  1  0.25000000  0.68346336  0.28707296  1
  N  N6  1  0.25000000  0.81653664  0.78707296  1
  N  N7  1  0.75000000  0.45718292  0.12244148  1
  N  N8  1  0.75000000  0.04281708  0.62244148  1
  N  N9  1  0.25000000  0.95718292  0.37755852  1
  N  N10  1  0.25000000  0.54281708  0.87755852  1
  N  N11  1  0.75000000  0.18346336  0.21292704  1
  Cl  Cl12  1  0.75000000  0.84738193  0.06117038  1
  Cl  Cl13  1  0.25000000  0.34738193  0.43882962  1
  Cl  Cl14  1  0.25000000  0.15261807  0.93882962  1
  Cl  Cl15  1  0.75000000  0.65261807  0.56117038  1
  Ca  Ca16  1  0.25000000  0.89164236  0.59018807  1
  Ca  Ca17  1  0.25000000  0.60835764  0.09018807  1
  Ca  Ca18  1  0.75000000  0.39164236  0.90981193  1
  Ca  Ca19  1  0.75000000  0.10835764  0.40981193  1
  Ca  Ca20  1  0.75000000  0.94926481  0.82969630  1
  Ca  Ca21  1  0.25000000  0.05073519  0.17030370  1
  Ca  Ca22  1  0.25000000  0.44926481  0.67030370  1
  Ca  Ca23  1  0.75000000  0.55073519  0.32969630  1
