# generated using pymatgen
data_In7Pt3
_symmetry_space_group_name_H-M   'P 1'
_cell_length_a   8.31642532
_cell_length_b   8.31642532
_cell_length_c   8.31642532
_cell_angle_alpha   109.47122063
_cell_angle_beta   109.47122063
_cell_angle_gamma   109.47122063
_symmetry_Int_Tables_number   1
_chemical_formula_structural   In7Pt3
_chemical_formula_sum   'In14 Pt6'
_cell_volume   442.78019375
_cell_formula_units_Z   2
loop_
 _symmetry_equiv_pos_site_id
 _symmetry_equiv_pos_as_xyz
  1  'x, y, z'
loop_
 _atom_site_type_symbol
 _atom_site_label
 _atom_site_symmetry_multiplicity
 _atom_site_fract_x
 _atom_site_fract_y
 _atom_site_fract_z
 _atom_site_occupancy
  In  In0  1  0.50000000  0.75000000  0.25000000  1
  In  In1  1  0.75000000  0.50000000  0.25000000  1
  In  In2  1  0.25000000  0.75000000  0.50000000  1
  In  In3  1  0.25000000  0.50000000  0.75000000  1
  In  In4  1  0.50000000  0.25000000  0.75000000  1
  In  In5  1  0.75000000  0.25000000  0.50000000  1
  In  In6  1  0.67379091  -0.00000000  -0.00000000  1
  In  In7  1  -0.00000000  0.67379091  -0.00000000  1
  In  In8  1  0.00000000  -0.00000000  0.67379091  1
  In  In9  1  0.32620909  0.32620909  0.32620909  1
  In  In10  1  0.32620909  0.00000000  0.00000000  1
  In  In11  1  0.00000000  0.32620909  0.00000000  1
  In  In12  1  -0.00000000  0.00000000  0.32620909  1
  In  In13  1  0.67379091  0.67379091  0.67379091  1
  Pt  Pt14  1  0.00000000  0.34441528  0.34441528  1
  Pt  Pt15  1  0.65558472  -0.00000000  0.65558472  1
  Pt  Pt16  1  0.65558472  0.65558472  -0.00000000  1
  Pt  Pt17  1  -0.00000000  0.65558472  0.65558472  1
  Pt  Pt18  1  0.34441528  0.00000000  0.34441528  1
  Pt  Pt19  1  0.34441528  0.34441528  0.00000000  1
