# generated using pymatgen
data_KBiS(ClO2)2
_symmetry_space_group_name_H-M   'P 1'
_cell_length_a   6.43314470
_cell_length_b   7.50207623
_cell_length_c   15.55898419
_cell_angle_alpha   90.00000000
_cell_angle_beta   90.00000000
_cell_angle_gamma   90.00000000
_symmetry_Int_Tables_number   1
_chemical_formula_structural   KBiS(ClO2)2
_chemical_formula_sum   'K4 Bi4 S4 Cl8 O16'
_cell_volume   750.90679159
_cell_formula_units_Z   4
loop_
 _symmetry_equiv_pos_site_id
 _symmetry_equiv_pos_as_xyz
  1  'x, y, z'
loop_
 _atom_site_type_symbol
 _atom_site_label
 _atom_site_symmetry_multiplicity
 _atom_site_fract_x
 _atom_site_fract_y
 _atom_site_fract_z
 _atom_site_occupancy
  O  O0  1  0.61913843  0.32789654  0.84872197  1
  O  O1  1  0.11913843  0.17210346  0.15127803  1
  O  O2  1  0.38086157  0.82789654  0.65127803  1
  O  O3  1  0.88086157  0.67210346  0.34872197  1
  O  O4  1  0.36923100  0.24656346  0.96301417  1
  O  O5  1  0.86923100  0.25343654  0.03698583  1
  O  O6  1  0.63076900  0.74656346  0.53698583  1
  O  O7  1  0.13076900  0.75343654  0.46301417  1
  O  O8  1  0.34329897  0.10576408  0.82439905  1
  O  O9  1  0.84329897  0.39423592  0.17560095  1
  O  O10  1  0.65670103  0.60576408  0.67560095  1
  O  O11  1  0.15670103  0.89423592  0.32439905  1
  O  O12  1  0.64249630  0.03755786  0.91510300  1
  O  O13  1  0.14249630  0.46244214  0.08489700  1
  O  O14  1  0.35750370  0.53755786  0.58489700  1
  O  O15  1  0.85750370  0.96244214  0.41510300  1
  S  S16  1  0.00578112  0.81632675  0.38800510  1
  S  S17  1  0.50578112  0.68367325  0.61199490  1
  S  S18  1  0.99421888  0.31632675  0.11199490  1
  S  S19  1  0.49421888  0.18367325  0.88800510  1
  Cl  Cl20  1  0.39769985  0.50597090  0.26578249  1
  Cl  Cl21  1  0.89769985  0.99402910  0.73421751  1
  Cl  Cl22  1  0.60230015  0.00597090  0.23421751  1
  Cl  Cl23  1  0.10230015  0.49402910  0.76578249  1
  Cl  Cl24  1  0.56975444  0.66514459  0.05222069  1
  Cl  Cl25  1  0.06975444  0.83485541  0.94777931  1
  Cl  Cl26  1  0.43024556  0.16514459  0.44777931  1
  Cl  Cl27  1  0.93024556  0.33485541  0.55222069  1
  K  K28  1  0.02867929  0.79796724  0.15624089  1
  K  K29  1  0.52867929  0.70203276  0.84375911  1
  K  K30  1  0.97132071  0.29796724  0.34375911  1
  K  K31  1  0.47132071  0.20203276  0.65624089  1
  Bi  Bi32  1  0.48556380  0.36446636  0.11687406  1
  Bi  Bi33  1  0.98556380  0.13553364  0.88312594  1
  Bi  Bi34  1  0.51443620  0.86446636  0.38312594  1
  Bi  Bi35  1  0.01443620  0.63553364  0.61687406  1
