# generated using pymatgen
data_Na15Pb4
_symmetry_space_group_name_H-M   'P 1'
_cell_length_a   11.54592383
_cell_length_b   11.54592383
_cell_length_c   11.54592383
_cell_angle_alpha   109.47122065
_cell_angle_beta   109.47122065
_cell_angle_gamma   109.47122062
_symmetry_Int_Tables_number   1
_chemical_formula_structural   Na15Pb4
_chemical_formula_sum   'Na30 Pb8'
_cell_volume   1184.85218404
_cell_formula_units_Z   2
loop_
 _symmetry_equiv_pos_site_id
 _symmetry_equiv_pos_as_xyz
  1  'x, y, z'
loop_
 _atom_site_type_symbol
 _atom_site_label
 _atom_site_symmetry_multiplicity
 _atom_site_fract_x
 _atom_site_fract_y
 _atom_site_fract_z
 _atom_site_occupancy
  Na  Na0  1  0.25000000  0.62500000  0.37500000  1
  Na  Na1  1  0.37500000  0.25000000  0.62500000  1
  Na  Na2  1  0.12500000  0.75000000  0.87500000  1
  Na  Na3  1  0.87500000  0.12500000  0.75000000  1
  Na  Na4  1  0.62500000  0.37500000  0.25000000  1
  Na  Na5  1  0.75000000  0.87500000  0.12500000  1
  Na  Na6  1  0.11675171  0.08374836  0.27690574  1
  Na  Na7  1  0.91625164  0.69315737  0.03300335  1
  Na  Na8  1  0.16015402  0.88324829  0.46699665  1
  Na  Na9  1  0.46699665  0.16015402  0.88324829  1
  Na  Na10  1  0.72309426  0.33984598  0.80684263  1
  Na  Na11  1  0.80684263  0.72309426  0.33984598  1
  Na  Na12  1  0.69315737  0.03300335  0.91625164  1
  Na  Na13  1  0.83984598  0.22309426  0.30684263  1
  Na  Na14  1  0.53300335  0.19315737  0.41625164  1
  Na  Na15  1  0.66015402  0.96699665  0.38324829  1
  Na  Na16  1  0.22309426  0.30684263  0.83984598  1
  Na  Na17  1  0.41625164  0.53300335  0.19315737  1
  Na  Na18  1  0.96699665  0.38324829  0.66015402  1
  Na  Na19  1  0.27690574  0.11675171  0.08374836  1
  Na  Na20  1  0.08374836  0.27690574  0.11675171  1
  Na  Na21  1  0.30684263  0.83984598  0.22309426  1
  Na  Na22  1  0.19315737  0.41625164  0.53300335  1
  Na  Na23  1  0.38324829  0.66015402  0.96699665  1
  Na  Na24  1  0.58374836  0.61675171  0.77690574  1
  Na  Na25  1  0.77690574  0.58374836  0.61675171  1
  Na  Na26  1  0.61675171  0.77690574  0.58374836  1
  Na  Na27  1  0.33984598  0.80684263  0.72309426  1
  Na  Na28  1  0.03300335  0.91625164  0.69315737  1
  Na  Na29  1  0.88324829  0.46699665  0.16015402  1
  Pb  Pb30  1  0.41742390  0.41742390  0.41742390  1
  Pb  Pb31  1  0.58257610  0.50000000  0.00000000  1
  Pb  Pb32  1  0.00000000  0.58257610  0.50000000  1
  Pb  Pb33  1  0.50000000  0.00000000  0.58257610  1
  Pb  Pb34  1  0.00000000  0.08257610  0.50000000  1
  Pb  Pb35  1  0.50000000  0.00000000  0.08257610  1
  Pb  Pb36  1  0.08257610  0.50000000  0.00000000  1
  Pb  Pb37  1  0.91742390  0.91742390  0.91742390  1
