# generated using pymatgen
data_TbSbRh
_symmetry_space_group_name_H-M   'P 1'
_cell_length_a   4.57451158
_cell_length_b   7.20177916
_cell_length_c   7.88180643
_cell_angle_alpha   90.00000000
_cell_angle_beta   90.00000000
_cell_angle_gamma   90.00000000
_symmetry_Int_Tables_number   1
_chemical_formula_structural   TbSbRh
_chemical_formula_sum   'Tb4 Sb4 Rh4'
_cell_volume   259.66313481
_cell_formula_units_Z   4
loop_
 _symmetry_equiv_pos_site_id
 _symmetry_equiv_pos_as_xyz
  1  'x, y, z'
loop_
 _atom_site_type_symbol
 _atom_site_label
 _atom_site_symmetry_multiplicity
 _atom_site_fract_x
 _atom_site_fract_y
 _atom_site_fract_z
 _atom_site_occupancy
  Rh  Rh0  1  0.75000000  0.19441897  0.91807472  1
  Rh  Rh1  1  0.25000000  0.30558103  0.41807472  1
  Rh  Rh2  1  0.75000000  0.69441897  0.58192528  1
  Rh  Rh3  1  0.25000000  0.80558103  0.08192528  1
  Sb  Sb4  1  0.25000000  0.19546212  0.09156432  1
  Sb  Sb5  1  0.75000000  0.30453788  0.59156432  1
  Sb  Sb6  1  0.25000000  0.69546212  0.40843568  1
  Sb  Sb7  1  0.75000000  0.80453788  0.90843568  1
  Tb  Tb8  1  0.25000000  0.50807471  0.79772384  1
  Tb  Tb9  1  0.75000000  0.49192529  0.20227616  1
  Tb  Tb10  1  0.25000000  0.00807471  0.70227616  1
  Tb  Tb11  1  0.75000000  0.99192529  0.29772384  1
