# generated using pymatgen
data_Cs4BiSbCl12
_symmetry_space_group_name_H-M   'P 1'
_cell_length_a   10.84433787
_cell_length_b   10.84433788
_cell_length_c   13.31879386
_cell_angle_alpha   114.02320530
_cell_angle_beta   114.02320533
_cell_angle_gamma   90.00000003
_symmetry_Int_Tables_number   1
_chemical_formula_structural   Cs4BiSbCl12
_chemical_formula_sum   'Cs8 Bi2 Sb2 Cl24'
_cell_volume   1280.65136642
_cell_formula_units_Z   2
loop_
 _symmetry_equiv_pos_site_id
 _symmetry_equiv_pos_as_xyz
  1  'x, y, z'
loop_
 _atom_site_type_symbol
 _atom_site_label
 _atom_site_symmetry_multiplicity
 _atom_site_fract_x
 _atom_site_fract_y
 _atom_site_fract_z
 _atom_site_occupancy
  Cl  Cl0  1  0.87049241  0.37240909  0.74098482  1
  Cl  Cl1  1  0.62759091  0.12950759  0.75901518  1
  Cl  Cl2  1  0.74963947  0.99963947  0.49927893  1
  Cl  Cl3  1  0.99963947  0.74963947  0.99927893  1
  Cl  Cl4  1  0.25036053  0.00036053  0.50072107  1
  Cl  Cl5  1  0.00036053  0.25036053  0.00072107  1
  Cl  Cl6  1  0.48607327  0.73607327  0.97214654  1
  Cl  Cl7  1  0.73607327  0.48607327  0.47214654  1
  Cl  Cl8  1  0.51392673  0.26392673  0.02785346  1
  Cl  Cl9  1  0.26392673  0.51392673  0.52785346  1
  Cl  Cl10  1  0.37549928  0.84894526  0.75099857  1
  Cl  Cl11  1  0.40205331  0.37549928  0.25099857  1
  Cl  Cl12  1  0.13142427  0.12950759  0.75901518  1
  Cl  Cl13  1  0.62450072  0.15105474  0.24900143  1
  Cl  Cl14  1  0.62450072  0.59794669  0.24900143  1
  Cl  Cl15  1  0.59794669  0.62450072  0.74900143  1
  Cl  Cl16  1  0.15105474  0.62450072  0.74900143  1
  Cl  Cl17  1  0.37549928  0.40205331  0.75099857  1
  Cl  Cl18  1  0.84894526  0.37549928  0.25099857  1
  Cl  Cl19  1  0.86857573  0.87049241  0.24098482  1
  Cl  Cl20  1  0.37240909  0.87049241  0.24098482  1
  Cl  Cl21  1  0.12950759  0.62759091  0.25901518  1
  Cl  Cl22  1  0.12950759  0.13142427  0.25901518  1
  Cl  Cl23  1  0.87049241  0.86857573  0.74098482  1
  Sb  Sb24  1  0.37500000  0.62500000  0.75000000  1
  Sb  Sb25  1  0.62500000  0.37500000  0.25000000  1
  Cs  Cs26  1  0.21963788  0.00000000  0.00000000  1
  Cs  Cs27  1  0.00000000  0.21963788  0.50000000  1
  Cs  Cs28  1  0.21963788  0.50000000  0.00000000  1
  Cs  Cs29  1  0.50000000  0.21963788  0.50000000  1
  Cs  Cs30  1  0.78036212  0.50000000  0.00000000  1
  Cs  Cs31  1  0.50000000  0.78036212  0.50000000  1
  Cs  Cs32  1  0.78036212  0.00000000  0.00000000  1
  Cs  Cs33  1  0.00000000  0.78036212  0.50000000  1
  Bi  Bi34  1  0.87500000  0.12500000  0.75000000  1
  Bi  Bi35  1  0.12500000  0.87500000  0.25000000  1
