# generated using pymatgen
data_YbF3
_symmetry_space_group_name_H-M   'P 1'
_cell_length_a   4.14281379
_cell_length_b   6.49728263
_cell_length_c   7.15615383
_cell_angle_alpha   90.00000000
_cell_angle_beta   90.00000000
_cell_angle_gamma   90.00000000
_symmetry_Int_Tables_number   1
_chemical_formula_structural   YbF3
_chemical_formula_sum   'Yb4 F12'
_cell_volume   192.62242219
_cell_formula_units_Z   4
loop_
 _symmetry_equiv_pos_site_id
 _symmetry_equiv_pos_as_xyz
  1  'x, y, z'
loop_
 _atom_site_type_symbol
 _atom_site_label
 _atom_site_symmetry_multiplicity
 _atom_site_fract_x
 _atom_site_fract_y
 _atom_site_fract_z
 _atom_site_occupancy
  F  F0  1  0.07209446  0.96142756  0.75000000  1
  F  F1  1  0.57209446  0.53857244  0.25000000  1
  F  F2  1  0.42790554  0.46142756  0.75000000  1
  F  F3  1  0.92790554  0.03857244  0.25000000  1
  F  F4  1  0.38222882  0.18229696  0.05243093  1
  F  F5  1  0.88222882  0.31770304  0.94756907  1
  F  F6  1  0.11777118  0.68229696  0.44756907  1
  F  F7  1  0.61777118  0.81770304  0.55243093  1
  F  F8  1  0.61777118  0.81770304  0.94756907  1
  F  F9  1  0.11777118  0.68229696  0.05243093  1
  F  F10  1  0.88222882  0.31770304  0.55243093  1
  F  F11  1  0.38222882  0.18229696  0.44756907  1
  Yb  Yb12  1  0.93286697  0.61350680  0.75000000  1
  Yb  Yb13  1  0.43286697  0.88649320  0.25000000  1
  Yb  Yb14  1  0.56713303  0.11350680  0.75000000  1
  Yb  Yb15  1  0.06713303  0.38649320  0.25000000  1
