# generated using pymatgen
data_B5Pb2BrO9
_symmetry_space_group_name_H-M   'P 1'
_cell_length_a   6.61706043
_cell_length_b   11.60022940
_cell_length_c   11.68033052
_cell_angle_alpha   90.00000000
_cell_angle_beta   90.00000000
_cell_angle_gamma   90.00000000
_symmetry_Int_Tables_number   1
_chemical_formula_structural   B5Pb2BrO9
_chemical_formula_sum   'B20 Pb8 Br4 O36'
_cell_volume   896.57538376
_cell_formula_units_Z   4
loop_
 _symmetry_equiv_pos_site_id
 _symmetry_equiv_pos_as_xyz
  1  'x, y, z'
loop_
 _atom_site_type_symbol
 _atom_site_label
 _atom_site_symmetry_multiplicity
 _atom_site_fract_x
 _atom_site_fract_y
 _atom_site_fract_z
 _atom_site_occupancy
  B  B0  1  0.51797409  0.00580187  0.74938056  1
  B  B1  1  0.51797409  0.99419813  0.25061944  1
  B  B2  1  0.01797409  0.49419813  0.24938056  1
  B  B3  1  0.01797409  0.50580187  0.75061944  1
  B  B4  1  0.18274024  0.26698903  0.95788253  1
  B  B5  1  0.18274024  0.73301097  0.04211747  1
  B  B6  1  0.68274024  0.23301097  0.45788253  1
  B  B7  1  0.68274024  0.76698903  0.54211747  1
  B  B8  1  0.96194074  0.28364360  0.78720528  1
  B  B9  1  0.96194074  0.71635640  0.21279472  1
  B  B10  1  0.46194074  0.21635640  0.28720528  1
  B  B11  1  0.46194074  0.78364360  0.71279472  1
  B  B12  1  0.64598146  0.20151731  0.68103576  1
  B  B13  1  0.64598146  0.79848269  0.31896424  1
  B  B14  1  0.14598146  0.29848269  0.18103576  1
  B  B15  1  0.14598146  0.70151731  0.81896424  1
  B  B16  1  0.29491403  0.17933446  0.77080093  1
  B  B17  1  0.29491403  0.82066554  0.22919907  1
  B  B18  1  0.79491403  0.32066554  0.27080093  1
  B  B19  1  0.79491403  0.67933446  0.72919907  1
  O  O20  1  0.05704444  0.39028558  0.73648821  1
  O  O21  1  0.05704444  0.60971442  0.26351179  1
  O  O22  1  0.55704444  0.10971442  0.23648821  1
  O  O23  1  0.55704444  0.89028558  0.76351179  1
  O  O24  1  0.99119324  0.28745535  0.91593406  1
  O  O25  1  0.99119324  0.71254465  0.08406594  1
  O  O26  1  0.49119324  0.21254465  0.41593406  1
  O  O27  1  0.49119324  0.78745535  0.58406594  1
  O  O28  1  0.42620876  0.22992513  0.68101891  1
  O  O29  1  0.42620876  0.77007487  0.31898109  1
  O  O30  1  0.92620876  0.27007487  0.18101891  1
  O  O31  1  0.92620876  0.72992513  0.81898109  1
  O  O32  1  0.33572318  0.23631147  0.88201641  1
  O  O33  1  0.33572318  0.76368853  0.11798359  1
  O  O34  1  0.83572318  0.26368853  0.38201641  1
  O  O35  1  0.83572318  0.73631147  0.61798359  1
  O  O36  1  0.33515971  0.05261885  0.78130588  1
  O  O37  1  0.33515971  0.94738115  0.21869412  1
  O  O38  1  0.83515971  0.44738115  0.28130588  1
  O  O39  1  0.83515971  0.55261885  0.71869412  1
  O  O40  1  0.73998135  0.22449491  0.56947538  1
  O  O41  1  0.73998135  0.77550509  0.43052462  1
  O  O42  1  0.23998135  0.27550509  0.06947538  1
  O  O43  1  0.23998135  0.72449491  0.93052462  1
  O  O44  1  0.74586500  0.27392366  0.76833235  1
  O  O45  1  0.74586500  0.72607634  0.23166765  1
  O  O46  1  0.24586500  0.22607634  0.26833235  1
  O  O47  1  0.24586500  0.77392366  0.73166765  1
  O  O48  1  0.67054182  0.07543479  0.70864921  1
  O  O49  1  0.67054182  0.92456521  0.29135079  1
  O  O50  1  0.17054182  0.42456521  0.20864921  1
  O  O51  1  0.17054182  0.57543479  0.79135079  1
  O  O52  1  0.08072862  0.18741852  0.73783766  1
  O  O53  1  0.08072862  0.81258148  0.26216234  1
  O  O54  1  0.58072862  0.31258148  0.23783766  1
  O  O55  1  0.58072862  0.68741852  0.76216234  1
  Br  Br56  1  0.14531066  0.00000000  0.50000000  1
  Br  Br57  1  0.64531066  0.50000000  0.00000000  1
  Br  Br58  1  0.39550007  0.50000000  0.50000000  1
  Br  Br59  1  0.89550007  0.00000000  0.00000000  1
  Pb  Pb60  1  0.16399093  0.26299009  0.52735593  1
  Pb  Pb61  1  0.16399093  0.73700991  0.47264407  1
  Pb  Pb62  1  0.66399093  0.23700991  0.02735593  1
  Pb  Pb63  1  0.66399093  0.76299009  0.97264407  1
  Pb  Pb64  1  0.49777701  0.45751303  0.75648384  1
  Pb  Pb65  1  0.49777701  0.54248697  0.24351616  1
  Pb  Pb66  1  0.99777701  0.04248697  0.25648384  1
  Pb  Pb67  1  0.99777701  0.95751303  0.74351616  1
