# generated using pymatgen
data_RbB3Te2O9
_symmetry_space_group_name_H-M   'P 1'
_cell_length_a   6.24648694
_cell_length_b   5.69515579
_cell_length_c   13.56357780
_cell_angle_alpha   90.00000000
_cell_angle_beta   104.30289974
_cell_angle_gamma   90.00000000
_symmetry_Int_Tables_number   1
_chemical_formula_structural   RbB3Te2O9
_chemical_formula_sum   'Rb2 B6 Te4 O18'
_cell_volume   467.56385674
_cell_formula_units_Z   2
loop_
 _symmetry_equiv_pos_site_id
 _symmetry_equiv_pos_as_xyz
  1  'x, y, z'
loop_
 _atom_site_type_symbol
 _atom_site_label
 _atom_site_symmetry_multiplicity
 _atom_site_fract_x
 _atom_site_fract_y
 _atom_site_fract_z
 _atom_site_occupancy
  Rb  Rb0  1  0.00000000  0.32414679  0.75000000  1
  Rb  Rb1  1  0.00000000  0.67585321  0.25000000  1
  B  B2  1  0.19914861  0.84313162  0.94226909  1
  B  B3  1  0.19914861  0.15686838  0.44226909  1
  B  B4  1  0.50000000  0.83930901  0.75000000  1
  B  B5  1  0.50000000  0.16069099  0.25000000  1
  B  B6  1  0.80085139  0.84313162  0.55773091  1
  B  B7  1  0.80085139  0.15686838  0.05773091  1
  Te  Te8  1  0.29731435  0.70523825  0.56463076  1
  Te  Te9  1  0.29731435  0.29476175  0.06463076  1
  Te  Te10  1  0.70268565  0.70523825  0.93536924  1
  Te  Te11  1  0.70268565  0.29476175  0.43536924  1
  O  O12  1  0.02063115  0.69980386  0.90468868  1
  O  O13  1  0.02063115  0.30019614  0.40468868  1
  O  O14  1  0.16395559  0.08631675  0.94982994  1
  O  O15  1  0.16395559  0.91368325  0.44982994  1
  O  O16  1  0.40435274  0.25800512  0.47020951  1
  O  O17  1  0.40435274  0.74199488  0.97020951  1
  O  O18  1  0.38021834  0.96384445  0.66475398  1
  O  O19  1  0.38021834  0.03615555  0.16475398  1
  O  O20  1  0.50000000  0.60154257  0.75000000  1
  O  O21  1  0.50000000  0.39845743  0.25000000  1
  O  O22  1  0.61978166  0.96384445  0.83524602  1
  O  O23  1  0.61978166  0.03615555  0.33524602  1
  O  O24  1  0.59564726  0.25800512  0.02979049  1
  O  O25  1  0.59564726  0.74199488  0.52979049  1
  O  O26  1  0.83604441  0.08631675  0.55017006  1
  O  O27  1  0.83604441  0.91368325  0.05017006  1
  O  O28  1  0.97936885  0.69980386  0.59531132  1
  O  O29  1  0.97936885  0.30019614  0.09531132  1
