# generated using pymatgen
data_Li4Mn5(Fe2O9)2
_symmetry_space_group_name_H-M   'P 1'
_cell_length_a   9.11755028
_cell_length_b   24.90984092
_cell_length_c   2.90992625
_cell_angle_alpha   89.99958488
_cell_angle_beta   89.99993798
_cell_angle_gamma   89.81858012
_symmetry_Int_Tables_number   1
_chemical_formula_structural   Li4Mn5(Fe2O9)2
_chemical_formula_sum   'Li8 Mn10 Fe8 O36'
_cell_volume   660.88961255
_cell_formula_units_Z   2
loop_
 _symmetry_equiv_pos_site_id
 _symmetry_equiv_pos_as_xyz
  1  'x, y, z'
loop_
 _atom_site_type_symbol
 _atom_site_label
 _atom_site_symmetry_multiplicity
 _atom_site_fract_x
 _atom_site_fract_y
 _atom_site_fract_z
 _atom_site_occupancy
  Li  Li0  1  0.17837031  0.99315224  0.00001516  1
  Li  Li1  1  0.20593757  0.20364229  0.99999933  1
  Li  Li2  1  0.29164080  0.70439308  0.99999896  1
  Li  Li3  1  0.32128209  0.49336175  0.00000241  1
  Li  Li4  1  0.67862995  0.50608584  0.99999716  1
  Li  Li5  1  0.71153992  0.29383204  0.99999837  1
  Li  Li6  1  0.79371590  0.79641600  0.00000316  1
  Li  Li7  1  0.82301748  0.00615018  0.00000114  1
  Mn  Mn8  1  0.99933625  0.50001151  0.00000026  1
  Mn  Mn9  1  0.00586914  0.10493155  0.00001694  1
  Mn  Mn10  1  0.14941659  0.80929393  0.49996892  1
  Mn  Mn11  1  0.34920426  0.30902781  0.49999968  1
  Mn  Mn12  1  0.49420536  0.60464989  0.00000093  1
  Mn  Mn13  1  0.49798057  0.99895564  0.00003197  1
  Mn  Mn14  1  0.50619138  0.39508900  0.99999622  1
  Mn  Mn15  1  0.64731814  0.69187037  0.49999606  1
  Mn  Mn16  1  0.85118413  0.19164977  0.50000496  1
  Mn  Mn17  1  0.99208554  0.89534482  0.99996259  1
  Fe  Fe18  1  0.01928559  0.30823849  0.00000260  1
  Fe  Fe19  1  0.14752041  0.58835622  0.49999605  1
  Fe  Fe20  1  0.35103251  0.08845055  0.50002241  1
  Fe  Fe21  1  0.48650802  0.80785054  0.99999219  1
  Fe  Fe22  1  0.51408183  0.19461863  0.00000319  1
  Fe  Fe23  1  0.64821603  0.91153121  0.50000549  1
  Fe  Fe24  1  0.85367369  0.41078972  0.50000325  1
  Fe  Fe25  1  0.98664539  0.69390290  0.99999566  1
  O  O26  1  -0.00209864  0.42286264  0.00000295  1
  O  O27  1  0.00294723  0.57827912  0.99999706  1
  O  O28  1  0.04191160  0.94161764  0.49995414  1
  O  O29  1  0.04877273  0.15846184  0.50001177  1
  O  O30  1  0.11823374  0.66836502  0.49999507  1
  O  O31  1  0.10246943  0.76122951  0.99997403  1
  O  O32  1  0.14214931  0.50355952  0.50000010  1
  O  O33  1  0.15216580  0.28271236  0.50000144  1
  O  O34  1  0.18513955  0.85845282  0.99996215  1
  O  O35  1  0.20363736  0.08104658  0.00002174  1
  O  O36  1  0.29804648  0.58149968  0.99999812  1
  O  O37  1  0.31216305  0.35861077  0.99999697  1
  O  O38  1  0.34843129  0.78515332  0.49998584  1
  O  O39  1  0.35561413  0.00191546  0.50003225  1
  O  O40  1  0.39332035  0.26107921  0.00000221  1
  O  O41  1  0.38674390  0.16642212  0.50000856  1
  O  O42  1  0.45265177  0.65879308  0.49999768  1
  O  O43  1  0.45512979  0.44183982  0.49999260  1
  O  O44  1  0.49464509  0.07602963  0.00002429  1
  O  O45  1  0.50326764  0.92099627  0.00001566  1
  O  O46  1  0.54728888  0.55865966  0.50000445  1
  O  O47  1  0.54584414  0.34152978  0.49999944  1
  O  O48  1  0.61727120  0.83300562  0.49999480  1
  O  O49  1  0.60248712  0.73968954  0.99999405  1
  O  O50  1  0.64091089  0.99604499  0.50002562  1
  O  O51  1  0.65103732  0.21699585  0.50000118  1
  O  O52  1  0.68608477  0.64260433  -0.00000060  1
  O  O53  1  0.70419221  0.41726151  0.00000105  1
  O  O54  1  0.79659673  0.91853835  0.99999507  1
  O  O55  1  0.81536359  0.14149495  0.00001018  1
  O  O56  1  0.84899236  0.71672691  0.49999427  1
  O  O57  1  0.85705874  0.49644492  0.50000041  1
  O  O58  1  0.89570573  0.23832343  0.00000190  1
  O  O59  1  0.88374302  0.33268847  0.50000225  1
  O  O60  1  0.95213515  0.84121340  0.49996343  1
  O  O61  1  0.95605769  0.05825594  0.50002280  1
