# generated using pymatgen
data_Tb(MnGe)6
_symmetry_space_group_name_H-M   'P 1'
_cell_length_a   5.19207202
_cell_length_b   5.18984563
_cell_length_c   8.16400372
_cell_angle_alpha   90.00000000
_cell_angle_beta   90.00000000
_cell_angle_gamma   120.01420179
_symmetry_Int_Tables_number   1
_chemical_formula_structural   Tb(MnGe)6
_chemical_formula_sum   'Tb1 Mn6 Ge6'
_cell_volume   190.48764165
_cell_formula_units_Z   1
loop_
 _symmetry_equiv_pos_site_id
 _symmetry_equiv_pos_as_xyz
  1  'x, y, z'
loop_
 _atom_site_type_symbol
 _atom_site_label
 _atom_site_symmetry_multiplicity
 _atom_site_fract_x
 _atom_site_fract_y
 _atom_site_fract_z
 _atom_site_occupancy
  Tb  Tb0  1  0.99989835  1.00000000  0.00000000  1
  Mn  Mn1  1  0.49991164  0.00000000  0.25069499  1
  Mn  Mn2  1  0.50004089  0.50005038  0.25073375  1
  Mn  Mn3  1  0.99999051  0.49994962  0.25073375  1
  Mn  Mn4  1  0.49991164  0.00000000  0.74930501  1
  Mn  Mn5  1  0.50004089  0.50005038  0.74926625  1
  Mn  Mn6  1  0.99999051  0.49994962  0.74926625  1
  Ge  Ge7  1  0.33338992  0.66675861  0.00000000  1
  Ge  Ge8  1  0.66663130  0.33324139  0.00000000  1
  Ge  Ge9  1  0.33338475  0.66685649  0.50000000  1
  Ge  Ge10  1  0.66652825  0.33314351  0.50000000  1
  Ge  Ge11  1  0.00004066  1.00000000  0.34428660  1
  Ge  Ge12  1  0.00004066  1.00000000  0.65571340  1
