# generated using pymatgen
data_SbPCl8O
_symmetry_space_group_name_H-M   'P 1'
_cell_length_a   8.55364883
_cell_length_b   9.34871173
_cell_length_c   17.35510908
_cell_angle_alpha   90.00000000
_cell_angle_beta   90.00000000
_cell_angle_gamma   90.00000000
_symmetry_Int_Tables_number   1
_chemical_formula_structural   SbPCl8O
_chemical_formula_sum   'Sb4 P4 Cl32 O4'
_cell_volume   1387.81166121
_cell_formula_units_Z   4
loop_
 _symmetry_equiv_pos_site_id
 _symmetry_equiv_pos_as_xyz
  1  'x, y, z'
loop_
 _atom_site_type_symbol
 _atom_site_label
 _atom_site_symmetry_multiplicity
 _atom_site_fract_x
 _atom_site_fract_y
 _atom_site_fract_z
 _atom_site_occupancy
  O  O0  1  0.25000000  0.87734407  0.92752703  1
  O  O1  1  0.25000000  0.62265593  0.42752703  1
  O  O2  1  0.75000000  0.37734407  0.57247297  1
  O  O3  1  0.75000000  0.12265593  0.07247297  1
  P  P4  1  0.25000000  0.71729275  0.92379708  1
  P  P5  1  0.75000000  0.28270725  0.07620292  1
  P  P6  1  0.75000000  0.21729275  0.57620292  1
  P  P7  1  0.25000000  0.78270725  0.42379708  1
  Cl  Cl8  1  0.56472647  0.13623154  0.62891157  1
  Cl  Cl9  1  0.93527353  0.36376846  0.12891157  1
  Cl  Cl10  1  0.43527353  0.63623154  0.87108843  1
  Cl  Cl11  1  0.06472647  0.86376846  0.37108843  1
  Cl  Cl12  1  0.25000000  0.92279155  0.74397818  1
  Cl  Cl13  1  0.75000000  0.07720845  0.25602182  1
  Cl  Cl14  1  0.75000000  0.42279155  0.75602182  1
  Cl  Cl15  1  0.25000000  0.57720845  0.24397818  1
  Cl  Cl16  1  0.25000000  0.19891429  0.97459071  1
  Cl  Cl17  1  0.75000000  0.80108571  0.02540929  1
  Cl  Cl18  1  0.75000000  0.69891429  0.52540929  1
  Cl  Cl19  1  0.25000000  0.30108571  0.47459071  1
  Cl  Cl20  1  0.25000000  0.28781447  0.77813921  1
  Cl  Cl21  1  0.75000000  0.71218553  0.22186079  1
  Cl  Cl22  1  0.75000000  0.78781447  0.72186079  1
  Cl  Cl23  1  0.25000000  0.21218553  0.27813921  1
  Cl  Cl24  1  0.97395460  0.05688438  0.86068360  1
  Cl  Cl25  1  0.47395460  0.94311562  0.13931640  1
  Cl  Cl26  1  0.02604540  0.55688438  0.63931640  1
  Cl  Cl27  1  0.52604540  0.44311562  0.36068360  1
  Cl  Cl28  1  0.02604540  0.94311562  0.13931640  1
  Cl  Cl29  1  0.52604540  0.05688438  0.86068360  1
  Cl  Cl30  1  0.97395460  0.44311562  0.36068360  1
  Cl  Cl31  1  0.47395460  0.55688438  0.63931640  1
  Cl  Cl32  1  0.25000000  0.86325282  0.52953741  1
  Cl  Cl33  1  0.75000000  0.13674718  0.47046259  1
  Cl  Cl34  1  0.75000000  0.36325282  0.97046259  1
  Cl  Cl35  1  0.25000000  0.63674718  0.02953741  1
  Cl  Cl36  1  0.06472647  0.63623154  0.87108843  1
  Cl  Cl37  1  0.56472647  0.36376846  0.12891157  1
  Cl  Cl38  1  0.93527353  0.13623154  0.62891157  1
  Cl  Cl39  1  0.43527353  0.86376846  0.37108843  1
  Sb  Sb40  1  0.25000000  0.42151615  0.35400119  1
  Sb  Sb41  1  0.75000000  0.57848385  0.64599881  1
  Sb  Sb42  1  0.75000000  0.92151615  0.14599881  1
  Sb  Sb43  1  0.25000000  0.07848385  0.85400119  1
