# generated using pymatgen
data_Na3AlH6
_symmetry_space_group_name_H-M   'P 1'
_cell_length_a   5.34582837
_cell_length_b   5.54309454
_cell_length_c   7.70949002
_cell_angle_alpha   90.00000000
_cell_angle_beta   89.97468042
_cell_angle_gamma   90.00000000
_symmetry_Int_Tables_number   1
_chemical_formula_structural   Na3AlH6
_chemical_formula_sum   'Na6 Al2 H12'
_cell_volume   228.45091698
_cell_formula_units_Z   2
loop_
 _symmetry_equiv_pos_site_id
 _symmetry_equiv_pos_as_xyz
  1  'x, y, z'
loop_
 _atom_site_type_symbol
 _atom_site_label
 _atom_site_symmetry_multiplicity
 _atom_site_fract_x
 _atom_site_fract_y
 _atom_site_fract_z
 _atom_site_occupancy
  H  H0  1  0.66047725  0.23293064  0.43639235  1
  H  H1  1  0.83952275  0.73293064  0.06360765  1
  H  H2  1  0.33952275  0.76706936  0.56360765  1
  H  H3  1  0.16047725  0.26706936  0.93639235  1
  H  H4  1  0.72823902  0.16921283  0.04361183  1
  H  H5  1  0.77176098  0.66921283  0.45638817  1
  H  H6  1  0.27176098  0.83078717  0.95638817  1
  H  H7  1  0.22823902  0.33078717  0.54361183  1
  H  H8  1  0.10001470  0.04793036  0.21623050  1
  H  H9  1  0.39998530  0.54793036  0.28376950  1
  H  H10  1  0.89998530  0.95206964  0.78376950  1
  H  H11  1  0.60001470  0.45206964  0.71623050  1
  Na  Na12  1  0.00000000  0.00000000  0.50000000  1
  Na  Na13  1  0.50000000  0.50000000  0.00000000  1
  Na  Na14  1  0.48922010  0.04692385  0.75394560  1
  Na  Na15  1  0.01077990  0.54692385  0.74605440  1
  Na  Na16  1  0.51077990  0.95307615  0.24605440  1
  Na  Na17  1  0.98922010  0.45307615  0.25394560  1
  Al  Al18  1  0.00000000  0.00000000  0.00000000  1
  Al  Al19  1  0.50000000  0.50000000  0.50000000  1
