# generated using pymatgen
data_VGeO4
_symmetry_space_group_name_H-M   'P 1'
_cell_length_a   4.31015150
_cell_length_b   4.74792455
_cell_length_c   11.62194451
_cell_angle_alpha   89.99897843
_cell_angle_beta   90.00875271
_cell_angle_gamma   89.98802057
_symmetry_Int_Tables_number   1
_chemical_formula_structural   VGeO4
_chemical_formula_sum   'V4 Ge4 O16'
_cell_volume   237.83465031
_cell_formula_units_Z   4
loop_
 _symmetry_equiv_pos_site_id
 _symmetry_equiv_pos_as_xyz
  1  'x, y, z'
loop_
 _atom_site_type_symbol
 _atom_site_label
 _atom_site_symmetry_multiplicity
 _atom_site_fract_x
 _atom_site_fract_y
 _atom_site_fract_z
 _atom_site_occupancy
  V  V0  1  0.99993500  0.75003318  0.57105368  1
  V  V1  1  0.49993591  0.74995873  0.07103719  1
  V  V2  1  0.50006409  0.25004127  0.92896281  1
  V  V3  1  0.00006500  0.24996682  0.42894632  1
  Ge  Ge4  1  -0.00002112  0.75004176  0.82238343  1
  Ge  Ge5  1  0.50002079  0.25004065  0.67772861  1
  Ge  Ge6  1  0.49997921  0.74995935  0.32227139  1
  Ge  Ge7  1  0.00002112  0.24995824  0.17761657  1
  O  O8  1  0.22969860  0.08151649  0.30683840  1
  O  O9  1  0.25218870  0.57709403  0.43874140  1
  O  O10  1  0.24781949  0.07706711  0.06130095  1
  O  O11  1  0.25210538  0.07731594  0.56129502  1
  O  O12  1  0.27022283  0.58143664  0.19324929  1
  O  O13  1  0.27014080  0.08176323  0.80673671  1
  O  O14  1  0.22977669  0.58184679  0.69317363  1
  O  O15  1  0.24790141  0.57728553  0.93866120  1
  O  O16  1  0.75209859  0.42271447  0.06133880  1
  O  O17  1  0.77022331  0.41815321  0.30682637  1
  O  O18  1  0.72985920  0.91823677  0.19326329  1
  O  O19  1  0.72977717  0.41856336  0.80675071  1
  O  O20  1  0.74789462  0.92268406  0.43870498  1
  O  O21  1  0.75218051  0.92293289  0.93869905  1
  O  O22  1  0.74781130  0.42290597  0.56125860  1
  O  O23  1  0.77030140  0.91848351  0.69316160  1
