# generated using pymatgen
data_K9Fe2Se7
_symmetry_space_group_name_H-M   'P 1'
_cell_length_a   13.25471047
_cell_length_b   13.25471047
_cell_length_c   13.25471047
_cell_angle_alpha   90.00000000
_cell_angle_beta   90.00000000
_cell_angle_gamma   90.00000000
_symmetry_Int_Tables_number   1
_chemical_formula_structural   K9Fe2Se7
_chemical_formula_sum   'K36 Fe8 Se28'
_cell_volume   2328.68495277
_cell_formula_units_Z   4
loop_
 _symmetry_equiv_pos_site_id
 _symmetry_equiv_pos_as_xyz
  1  'x, y, z'
loop_
 _atom_site_type_symbol
 _atom_site_label
 _atom_site_symmetry_multiplicity
 _atom_site_fract_x
 _atom_site_fract_y
 _atom_site_fract_z
 _atom_site_occupancy
  K  K0  1  0.83216842  0.00256367  0.30206898  1
  K  K1  1  0.30206898  0.83216842  0.00256367  1
  K  K2  1  0.00256367  0.30206898  0.83216842  1
  K  K3  1  0.49743633  0.69793102  0.33216842  1
  K  K4  1  0.80206898  0.66783158  0.99743633  1
  K  K5  1  0.99743633  0.80206898  0.66783158  1
  K  K6  1  0.19793102  0.16783158  0.50256367  1
  K  K7  1  0.69793102  0.33216842  0.49743633  1
  K  K8  1  0.50256367  0.19793102  0.16783158  1
  K  K9  1  0.33216842  0.49743633  0.69793102  1
  K  K10  1  0.16783158  0.50256367  0.19793102  1
  K  K11  1  0.66783158  0.99743633  0.80206898  1
  K  K12  1  0.17968918  0.04199542  0.79418726  1
  K  K13  1  0.79418726  0.17968918  0.04199542  1
  K  K14  1  0.04199542  0.79418726  0.17968918  1
  K  K15  1  0.45800458  0.20581274  0.67968918  1
  K  K16  1  0.29418726  0.32031082  0.95800458  1
  K  K17  1  0.95800458  0.29418726  0.32031082  1
  K  K18  1  0.70581274  0.82031082  0.54199542  1
  K  K19  1  0.20581274  0.67968918  0.45800458  1
  K  K20  1  0.54199542  0.70581274  0.82031082  1
  K  K21  1  0.67968918  0.45800458  0.20581274  1
  K  K22  1  0.82031082  0.54199542  0.70581274  1
  K  K23  1  0.32031082  0.95800458  0.29418726  1
  K  K24  1  0.41747208  0.41747208  0.41747208  1
  K  K25  1  0.08252792  0.58252792  0.91747208  1
  K  K26  1  0.91747208  0.08252792  0.58252792  1
  K  K27  1  0.58252792  0.91747208  0.08252792  1
  K  K28  1  0.24034179  0.24034179  0.24034179  1
  K  K29  1  0.25965821  0.75965821  0.74034179  1
  K  K30  1  0.74034179  0.25965821  0.75965821  1
  K  K31  1  0.75965821  0.74034179  0.25965821  1
  K  K32  1  0.05708060  0.05708060  0.05708060  1
  K  K33  1  0.44291940  0.94291940  0.55708060  1
  K  K34  1  0.55708060  0.44291940  0.94291940  1
  K  K35  1  0.94291940  0.55708060  0.44291940  1
  Fe  Fe36  1  0.57018169  0.57018169  0.57018169  1
  Fe  Fe37  1  0.92981831  0.42981831  0.07018169  1
  Fe  Fe38  1  0.07018169  0.92981831  0.42981831  1
  Fe  Fe39  1  0.42981831  0.07018169  0.92981831  1
  Fe  Fe40  1  0.89952436  0.89952436  0.89952436  1
  Fe  Fe41  1  0.60047564  0.10047564  0.39952436  1
  Fe  Fe42  1  0.39952436  0.60047564  0.10047564  1
  Fe  Fe43  1  0.10047564  0.39952436  0.60047564  1
  Se  Se44  1  0.91429112  0.06946830  0.83221941  1
  Se  Se45  1  0.83221941  0.91429112  0.06946830  1
  Se  Se46  1  0.06946830  0.83221941  0.91429112  1
  Se  Se47  1  0.43053170  0.16778059  0.41429112  1
  Se  Se48  1  0.33221941  0.58570888  0.93053170  1
  Se  Se49  1  0.93053170  0.33221941  0.58570888  1
  Se  Se50  1  0.66778059  0.08570888  0.56946830  1
  Se  Se51  1  0.16778059  0.41429112  0.43053170  1
  Se  Se52  1  0.56946830  0.66778059  0.08570888  1
  Se  Se53  1  0.41429112  0.43053170  0.16778059  1
  Se  Se54  1  0.08570888  0.56946830  0.66778059  1
  Se  Se55  1  0.58570888  0.93053170  0.33221941  1
  Se  Se56  1  0.07518000  0.06191298  0.31022087  1
  Se  Se57  1  0.31022087  0.07518000  0.06191298  1
  Se  Se58  1  0.06191298  0.31022087  0.07518000  1
  Se  Se59  1  0.43808702  0.68977913  0.57518000  1
  Se  Se60  1  0.81022087  0.42482000  0.93808702  1
  Se  Se61  1  0.93808702  0.81022087  0.42482000  1
  Se  Se62  1  0.18977913  0.92482000  0.56191298  1
  Se  Se63  1  0.68977913  0.57518000  0.43808702  1
  Se  Se64  1  0.56191298  0.18977913  0.92482000  1
  Se  Se65  1  0.57518000  0.43808702  0.68977913  1
  Se  Se66  1  0.92482000  0.56191298  0.18977913  1
  Se  Se67  1  0.42482000  0.93808702  0.81022087  1
  Se  Se68  1  0.79092760  0.79092760  0.79092760  1
  Se  Se69  1  0.70907240  0.20907240  0.29092760  1
  Se  Se70  1  0.29092760  0.70907240  0.20907240  1
  Se  Se71  1  0.20907240  0.29092760  0.70907240  1
