# generated using pymatgen
data_PRu2
_symmetry_space_group_name_H-M   'P 1'
_cell_length_a   3.89393543
_cell_length_b   5.90594119
_cell_length_c   7.01528841
_cell_angle_alpha   90.00000000
_cell_angle_beta   90.00000000
_cell_angle_gamma   90.00000000
_symmetry_Int_Tables_number   1
_chemical_formula_structural   PRu2
_chemical_formula_sum   'P4 Ru8'
_cell_volume   161.33306850
_cell_formula_units_Z   4
loop_
 _symmetry_equiv_pos_site_id
 _symmetry_equiv_pos_as_xyz
  1  'x, y, z'
loop_
 _atom_site_type_symbol
 _atom_site_label
 _atom_site_symmetry_multiplicity
 _atom_site_fract_x
 _atom_site_fract_y
 _atom_site_fract_z
 _atom_site_occupancy
  P  P0  1  0.25000000  0.74872665  0.38936055  1
  P  P1  1  0.75000000  0.25127335  0.61063945  1
  P  P2  1  0.25000000  0.24872665  0.11063945  1
  P  P3  1  0.75000000  0.75127335  0.88936055  1
  Ru  Ru4  1  0.75000000  0.01533490  0.34770388  1
  Ru  Ru5  1  0.25000000  0.98466510  0.65229612  1
  Ru  Ru6  1  0.75000000  0.51533490  0.15229612  1
  Ru  Ru7  1  0.25000000  0.48466510  0.84770388  1
  Ru  Ru8  1  0.25000000  0.36054890  0.42216020  1
  Ru  Ru9  1  0.75000000  0.63945110  0.57783980  1
  Ru  Ru10  1  0.25000000  0.86054890  0.07783980  1
  Ru  Ru11  1  0.75000000  0.13945110  0.92216020  1
