# generated using pymatgen
data_Sm3Si2ClO8
_symmetry_space_group_name_H-M   'P 1'
_cell_length_a   6.32324538
_cell_length_b   7.07480750
_cell_length_c   18.16531840
_cell_angle_alpha   90.00000000
_cell_angle_beta   90.00000000
_cell_angle_gamma   90.00000000
_symmetry_Int_Tables_number   1
_chemical_formula_structural   Sm3Si2ClO8
_chemical_formula_sum   'Sm12 Si8 Cl4 O32'
_cell_volume   812.63903069
_cell_formula_units_Z   4
loop_
 _symmetry_equiv_pos_site_id
 _symmetry_equiv_pos_as_xyz
  1  'x, y, z'
loop_
 _atom_site_type_symbol
 _atom_site_label
 _atom_site_symmetry_multiplicity
 _atom_site_fract_x
 _atom_site_fract_y
 _atom_site_fract_z
 _atom_site_occupancy
  O  O0  1  0.21393389  0.48223374  0.46891369  1
  O  O1  1  0.71393389  0.01776626  0.53108631  1
  O  O2  1  0.28606611  0.98223374  0.03108631  1
  O  O3  1  0.78606611  0.51776626  0.96891369  1
  O  O4  1  0.78606611  0.51776626  0.53108631  1
  O  O5  1  0.28606611  0.98223374  0.46891369  1
  O  O6  1  0.71393389  0.01776626  0.96891369  1
  O  O7  1  0.21393389  0.48223374  0.03108631  1
  O  O8  1  0.22527605  0.45477590  0.32506811  1
  O  O9  1  0.72527605  0.04522410  0.67493189  1
  O  O10  1  0.27472395  0.95477590  0.17493189  1
  O  O11  1  0.77472395  0.54522410  0.82506811  1
  O  O12  1  0.77472395  0.54522410  0.67493189  1
  O  O13  1  0.27472395  0.95477590  0.32506811  1
  O  O14  1  0.72527605  0.04522410  0.82506811  1
  O  O15  1  0.22527605  0.45477590  0.17493189  1
  O  O16  1  0.55087847  0.29662926  0.40541402  1
  O  O17  1  0.05087847  0.20337074  0.59458598  1
  O  O18  1  0.94912153  0.79662926  0.09458598  1
  O  O19  1  0.44912153  0.70337074  0.90541402  1
  O  O20  1  0.44912153  0.70337074  0.59458598  1
  O  O21  1  0.94912153  0.79662926  0.40541402  1
  O  O22  1  0.05087847  0.20337074  0.90541402  1
  O  O23  1  0.55087847  0.29662926  0.09458598  1
  O  O24  1  0.97013263  0.15454021  0.11856151  1
  O  O25  1  0.47013263  0.34545979  0.88143849  1
  O  O26  1  0.52986737  0.65454021  0.38143849  1
  O  O27  1  0.02986737  0.84545979  0.61856151  1
  O  O28  1  0.02986737  0.84545979  0.88143849  1
  O  O29  1  0.52986737  0.65454021  0.11856151  1
  O  O30  1  0.47013263  0.34545979  0.61856151  1
  O  O31  1  0.97013263  0.15454021  0.38143849  1
  Si  Si32  1  0.37889781  0.46756484  0.09993404  1
  Si  Si33  1  0.87889781  0.03243516  0.90006596  1
  Si  Si34  1  0.12110219  0.96756484  0.40006596  1
  Si  Si35  1  0.62110219  0.53243516  0.59993404  1
  Si  Si36  1  0.37889781  0.46756484  0.40006596  1
  Si  Si37  1  0.87889781  0.03243516  0.59993404  1
  Si  Si38  1  0.12110219  0.96756484  0.09993404  1
  Si  Si39  1  0.62110219  0.53243516  0.90006596  1
  Cl  Cl40  1  0.76199212  0.44493366  0.25000000  1
  Cl  Cl41  1  0.26199212  0.05506634  0.75000000  1
  Cl  Cl42  1  0.73800788  0.94493366  0.25000000  1
  Cl  Cl43  1  0.23800788  0.55506634  0.75000000  1
  Sm  Sm44  1  0.87311377  0.47718239  0.40939053  1
  Sm  Sm45  1  0.37311377  0.02281761  0.59060947  1
  Sm  Sm46  1  0.62688623  0.97718239  0.09060947  1
  Sm  Sm47  1  0.12688623  0.52281761  0.90939053  1
  Sm  Sm48  1  0.12688623  0.52281761  0.59060947  1
  Sm  Sm49  1  0.62688623  0.97718239  0.40939053  1
  Sm  Sm50  1  0.37311377  0.02281761  0.90939053  1
  Sm  Sm51  1  0.87311377  0.47718239  0.09060947  1
  Sm  Sm52  1  0.88466963  0.80582988  0.75000000  1
  Sm  Sm53  1  0.38466963  0.69417012  0.25000000  1
  Sm  Sm54  1  0.61533037  0.30582988  0.75000000  1
  Sm  Sm55  1  0.11533037  0.19417012  0.25000000  1
