# generated using pymatgen
data_Sc11(AlGe4)2
_symmetry_space_group_name_H-M   'P 1'
_cell_length_a   10.44689422
_cell_length_b   10.44689422
_cell_length_c   10.53890465
_cell_angle_alpha   119.71161354
_cell_angle_beta   119.71161356
_cell_angle_gamma   89.99999997
_symmetry_Int_Tables_number   1
_chemical_formula_structural   Sc11(AlGe4)2
_chemical_formula_sum   'Sc22 Al4 Ge16'
_cell_volume   820.34684307
_cell_formula_units_Z   2
loop_
 _symmetry_equiv_pos_site_id
 _symmetry_equiv_pos_as_xyz
  1  'x, y, z'
loop_
 _atom_site_type_symbol
 _atom_site_label
 _atom_site_symmetry_multiplicity
 _atom_site_fract_x
 _atom_site_fract_y
 _atom_site_fract_z
 _atom_site_occupancy
  Al  Al0  1  0.12714006  0.87285994  0.00000000  1
  Al  Al1  1  0.87285994  0.12714006  0.00000000  1
  Al  Al2  1  0.12714006  0.12714006  0.00000000  1
  Al  Al3  1  0.87285994  0.87285994  0.00000000  1
  Sc  Sc4  1  0.68973504  0.94118023  0.37947007  1
  Sc  Sc5  1  0.94118023  0.68973504  0.37947007  1
  Sc  Sc6  1  0.43828984  0.68973504  0.37947007  1
  Sc  Sc7  1  0.31026496  0.05881977  0.62052993  1
  Sc  Sc8  1  0.10276764  0.43880941  0.20553527  1
  Sc  Sc9  1  0.76672587  0.10276764  0.20553527  1
  Sc  Sc10  1  0.43880941  0.10276764  0.20553527  1
  Sc  Sc11  1  0.89723236  0.56119059  0.79446473  1
  Sc  Sc12  1  0.89723236  0.23327413  0.79446473  1
  Sc  Sc13  1  0.23327413  0.89723236  0.79446473  1
  Sc  Sc14  1  0.56119059  0.89723236  0.79446473  1
  Sc  Sc15  1  0.10276764  0.76672587  0.20553527  1
  Sc  Sc16  1  0.32830039  0.32830039  0.00000000  1
  Sc  Sc17  1  0.67169961  0.32830039  0.00000000  1
  Sc  Sc18  1  0.32830039  0.67169961  0.00000000  1
  Sc  Sc19  1  0.67169961  0.67169961  0.00000000  1
  Sc  Sc20  1  0.16927515  0.16927515  0.33855030  1
  Sc  Sc21  1  0.83072485  0.83072485  0.66144970  1
  Sc  Sc22  1  0.56171016  0.31026496  0.62052993  1
  Sc  Sc23  1  0.05881977  0.31026496  0.62052993  1
  Sc  Sc24  1  0.31026496  0.56171016  0.62052993  1
  Sc  Sc25  1  0.68973504  0.43828984  0.37947007  1
  Ge  Ge26  1  0.37445984  0.37445984  0.34120552  1
  Ge  Ge27  1  0.96674569  0.37445984  0.34120552  1
  Ge  Ge28  1  0.37445984  0.96674569  0.34120552  1
  Ge  Ge29  1  0.03325431  0.62554016  0.65879448  1
  Ge  Ge30  1  0.62554016  0.03325431  0.65879448  1
  Ge  Ge31  1  0.03325431  0.03325431  0.65879448  1
  Ge  Ge32  1  0.62554016  0.62554016  0.65879448  1
  Ge  Ge33  1  0.96674569  0.96674569  0.34120552  1
  Ge  Ge34  1  0.14705515  0.50000000  0.00000000  1
  Ge  Ge35  1  0.50000000  0.14705515  0.00000000  1
  Ge  Ge36  1  0.50000000  0.85294485  0.00000000  1
  Ge  Ge37  1  0.85294485  0.50000000  0.00000000  1
  Ge  Ge38  1  0.38198604  0.38198604  0.76397207  1
  Ge  Ge39  1  0.61801396  0.61801396  0.23602793  1
  Ge  Ge40  1  0.25000000  0.75000000  0.50000000  1
  Ge  Ge41  1  0.75000000  0.25000000  0.50000000  1
