# generated using pymatgen
data_YIn2Ni
_symmetry_space_group_name_H-M   'P 1'
_cell_length_a   4.33417747
_cell_length_b   5.68358973
_cell_length_c   7.38187358
_cell_angle_alpha   90.00000000
_cell_angle_beta   90.00000000
_cell_angle_gamma   112.41353263
_symmetry_Int_Tables_number   1
_chemical_formula_structural   YIn2Ni
_chemical_formula_sum   'Y2 In4 Ni2'
_cell_volume   168.10563123
_cell_formula_units_Z   2
loop_
 _symmetry_equiv_pos_site_id
 _symmetry_equiv_pos_as_xyz
  1  'x, y, z'
loop_
 _atom_site_type_symbol
 _atom_site_label
 _atom_site_symmetry_multiplicity
 _atom_site_fract_x
 _atom_site_fract_y
 _atom_site_fract_z
 _atom_site_occupancy
  Ni  Ni0  1  0.78713155  0.57426311  0.75000000  1
  Ni  Ni1  1  0.21286845  0.42573689  0.25000000  1
  Y  Y2  1  0.06798978  0.13597956  0.75000000  1
  Y  Y3  1  0.93201022  0.86402044  0.25000000  1
  In  In4  1  0.35671273  0.71342547  0.95092294  1
  In  In5  1  0.64328727  0.28657453  0.04907706  1
  In  In6  1  0.64328727  0.28657453  0.45092294  1
  In  In7  1  0.35671273  0.71342547  0.54907706  1
