# generated using pymatgen
data_NaBi(PO3)4
_symmetry_space_group_name_H-M   'P 1'
_cell_length_a   7.29915834
_cell_length_b   9.98425537
_cell_length_c   13.30596823
_cell_angle_alpha   90.00000000
_cell_angle_beta   90.00000000
_cell_angle_gamma   90.32769162
_symmetry_Int_Tables_number   1
_chemical_formula_structural   NaBi(PO3)4
_chemical_formula_sum   'Na4 Bi4 P16 O48'
_cell_volume   969.67867433
_cell_formula_units_Z   4
loop_
 _symmetry_equiv_pos_site_id
 _symmetry_equiv_pos_as_xyz
  1  'x, y, z'
loop_
 _atom_site_type_symbol
 _atom_site_label
 _atom_site_symmetry_multiplicity
 _atom_site_fract_x
 _atom_site_fract_y
 _atom_site_fract_z
 _atom_site_occupancy
  O  O0  1  0.71560118  0.36320947  0.52200798  1
  O  O1  1  0.78439882  0.13679053  0.02200798  1
  O  O2  1  0.28439882  0.63679053  0.47799202  1
  O  O3  1  0.21560118  0.86320947  0.97799202  1
  O  O4  1  0.75553058  0.41613164  0.33968578  1
  O  O5  1  0.74446942  0.08386836  0.83968578  1
  O  O6  1  0.24446942  0.58386836  0.66031422  1
  O  O7  1  0.25553058  0.91613164  0.16031422  1
  O  O8  1  0.71378011  0.39612841  0.70929523  1
  O  O9  1  0.78621989  0.10387159  0.20929523  1
  O  O10  1  0.28621989  0.60387159  0.29070477  1
  O  O11  1  0.21378011  0.89612841  0.79070477  1
  O  O12  1  0.90659612  0.70786459  0.33501404  1
  O  O13  1  0.59340388  0.79213541  0.83501404  1
  O  O14  1  0.09340388  0.29213541  0.66498596  1
  O  O15  1  0.40659612  0.20786459  0.16498596  1
  O  O16  1  0.68311414  0.15597634  0.63421877  1
  O  O17  1  0.19412260  0.10094360  0.35471747  1
  O  O18  1  0.81688586  0.34402366  0.13421877  1
  O  O19  1  0.18311414  0.65597634  0.86578123  1
  O  O20  1  0.57123045  0.20639255  0.39140701  1
  O  O21  1  0.92876955  0.29360745  0.89140701  1
  O  O22  1  0.42876955  0.79360745  0.60859299  1
  O  O23  1  0.07123045  0.70639255  0.10859299  1
  O  O24  1  0.63769347  0.84881318  0.18759707  1
  O  O25  1  0.86230653  0.65118682  0.68759707  1
  O  O26  1  0.36230653  0.15118682  0.81240293  1
  O  O27  1  0.13769347  0.34881318  0.31240293  1
  O  O28  1  0.92799779  0.83063017  0.87574742  1
  O  O29  1  0.57200221  0.66936983  0.37574742  1
  O  O30  1  0.07200221  0.16936983  0.12425258  1
  O  O31  1  0.42799779  0.33063017  0.62425258  1
  O  O32  1  0.71551257  0.78810187  0.01263071  1
  O  O33  1  0.78448743  0.71189813  0.51263071  1
  O  O34  1  0.28448743  0.21189813  0.98736929  1
  O  O35  1  0.21551257  0.28810187  0.48736929  1
  O  O36  1  0.21427964  0.40713746  0.10803917  1
  O  O37  1  0.28572036  0.09286254  0.60803917  1
  O  O38  1  0.78572036  0.59286254  0.89196083  1
  O  O39  1  0.71427964  0.90713746  0.39196083  1
  O  O40  1  0.41249739  0.71015725  0.08088555  1
  O  O41  1  0.08750261  0.78984275  0.58088555  1
  O  O42  1  0.58750261  0.28984275  0.91911445  1
  O  O43  1  0.91249739  0.21015725  0.41911445  1
  O  O44  1  0.69412260  0.60094360  0.14528253  1
  O  O45  1  0.80587740  0.89905640  0.64528253  1
  O  O46  1  0.30587740  0.39905640  0.85471747  1
  O  O47  1  0.31688586  0.84402366  0.36578123  1
  Na  Na48  1  0.50167785  0.43630173  0.22142800  1
  Na  Na49  1  0.99832215  0.06369827  0.72142800  1
  Na  Na50  1  0.49832215  0.56369827  0.77857200  1
  Na  Na51  1  0.00167785  0.93630173  0.27857200  1
  P  P52  1  0.12233129  0.23563206  0.38589747  1
  P  P53  1  0.85421695  0.19634085  0.12800100  1
  P  P54  1  0.35421695  0.69634085  0.37199900  1
  P  P55  1  0.14578305  0.80365915  0.87199900  1
  P  P56  1  0.75039946  0.75860637  0.39873757  1
  P  P57  1  0.74960054  0.74139363  0.89873757  1
  P  P58  1  0.24960054  0.24139363  0.60126243  1
  P  P59  1  0.25039946  0.25860637  0.10126243  1
  P  P60  1  0.64578305  0.30365915  0.62800100  1
  P  P61  1  0.37766871  0.26436794  0.88589747  1
  P  P62  1  0.22999222  0.79983503  0.08993534  1
  P  P63  1  0.62233129  0.73563206  0.11410253  1
  P  P64  1  0.72999222  0.29983503  0.41006466  1
  P  P65  1  0.77000778  0.20016497  0.91006466  1
  P  P66  1  0.27000778  0.70016497  0.58993534  1
  P  P67  1  0.87766871  0.76436794  0.61410253  1
  Bi  Bi68  1  0.98789202  0.52229680  0.21912487  1
  Bi  Bi69  1  0.51210798  0.97770320  0.71912487  1
  Bi  Bi70  1  0.01210798  0.47770320  0.78087513  1
  Bi  Bi71  1  0.48789202  0.02229680  0.28087513  1
