# generated using pymatgen
data_AgH3O2
_symmetry_space_group_name_H-M   'P 1'
_cell_length_a   12.19979281
_cell_length_b   6.32702798
_cell_length_c   6.14015095
_cell_angle_alpha   90.00000000
_cell_angle_beta   90.00000000
_cell_angle_gamma   90.00000000
_symmetry_Int_Tables_number   1
_chemical_formula_structural   AgH3O2
_chemical_formula_sum   'Ag8 H24 O16'
_cell_volume   473.94861461
_cell_formula_units_Z   8
loop_
 _symmetry_equiv_pos_site_id
 _symmetry_equiv_pos_as_xyz
  1  'x, y, z'
loop_
 _atom_site_type_symbol
 _atom_site_label
 _atom_site_symmetry_multiplicity
 _atom_site_fract_x
 _atom_site_fract_y
 _atom_site_fract_z
 _atom_site_occupancy
  Ag  Ag0  1  0.07990497  0.34045380  0.69417885  1
  Ag  Ag1  1  0.07990497  0.15954620  0.19417885  1
  Ag  Ag2  1  0.42009503  0.65954620  0.19417885  1
  Ag  Ag3  1  0.42009503  0.84045380  0.69417885  1
  Ag  Ag4  1  0.57990497  0.15954620  0.30582115  1
  Ag  Ag5  1  0.57990497  0.34045380  0.80582115  1
  Ag  Ag6  1  0.92009503  0.65954620  0.30582115  1
  Ag  Ag7  1  0.92009503  0.84045380  0.80582115  1
  H  H8  1  0.13416687  0.57620638  0.10166725  1
  H  H9  1  0.13416687  0.92379362  0.60166825  1
  H  H10  1  0.13467473  0.72378695  0.42710430  1
  H  H11  1  0.13467473  0.77621305  0.92710430  1
  H  H12  1  0.21307186  0.44097230  0.37804070  1
  H  H13  1  0.21307186  0.05902770  0.87804070  1
  H  H14  1  0.28692814  0.94097230  0.37804070  1
  H  H15  1  0.28692814  0.55902770  0.87804070  1
  H  H16  1  0.36532527  0.27621305  0.92710430  1
  H  H17  1  0.36532527  0.22378695  0.42710430  1
  H  H18  1  0.36583313  0.07620638  0.10166725  1
  H  H19  1  0.36583313  0.42379362  0.60166825  1
  H  H20  1  0.63416687  0.57620638  0.39833175  1
  H  H21  1  0.63416687  0.92379362  0.89833175  1
  H  H22  1  0.63467473  0.72378695  0.07289570  1
  H  H23  1  0.63467473  0.77621305  0.57289570  1
  H  H24  1  0.71307186  0.05902770  0.62195930  1
  H  H25  1  0.71307186  0.44097230  0.12195930  1
  H  H26  1  0.78692814  0.55902770  0.62195930  1
  H  H27  1  0.78692814  0.94097230  0.12195930  1
  H  H28  1  0.86532527  0.22378695  0.07289570  1
  H  H29  1  0.86532527  0.27621305  0.57289570  1
  H  H30  1  0.86583313  0.07620638  0.39833175  1
  H  H31  1  0.86583313  0.42379362  0.89833175  1
  O  O32  1  0.13429069  0.02614266  0.85713817  1
  O  O33  1  0.13429069  0.47385734  0.35713817  1
  O  O34  1  0.14055900  0.61719848  0.94369221  1
  O  O35  1  0.14055900  0.88280152  0.44369221  1
  O  O36  1  0.35944100  0.11719848  0.94369221  1
  O  O37  1  0.35944100  0.38280152  0.44369221  1
  O  O38  1  0.36570931  0.52614266  0.85713817  1
  O  O39  1  0.36570931  0.97385734  0.35713817  1
  O  O40  1  0.63429069  0.02614266  0.64286183  1
  O  O41  1  0.63429069  0.47385734  0.14286183  1
  O  O42  1  0.64055900  0.61719848  0.55630779  1
  O  O43  1  0.64055900  0.88280152  0.05630779  1
  O  O44  1  0.85944100  0.11719848  0.55630779  1
  O  O45  1  0.85944100  0.38280152  0.05630779  1
  O  O46  1  0.86570931  0.52614266  0.64286183  1
  O  O47  1  0.86570931  0.97385734  0.14286183  1
