# generated using pymatgen
data_NaMgH3
_symmetry_space_group_name_H-M   'P 1'
_cell_length_a   5.36201618
_cell_length_b   5.44202584
_cell_length_c   7.64192279
_cell_angle_alpha   90.00000000
_cell_angle_beta   90.00000000
_cell_angle_gamma   90.00000000
_symmetry_Int_Tables_number   1
_chemical_formula_structural   NaMgH3
_chemical_formula_sum   'Na4 Mg4 H12'
_cell_volume   222.99306929
_cell_formula_units_Z   4
loop_
 _symmetry_equiv_pos_site_id
 _symmetry_equiv_pos_as_xyz
  1  'x, y, z'
loop_
 _atom_site_type_symbol
 _atom_site_label
 _atom_site_symmetry_multiplicity
 _atom_site_fract_x
 _atom_site_fract_y
 _atom_site_fract_z
 _atom_site_occupancy
  Na  Na0  1  0.50555980  0.53042246  0.25000000  1
  Na  Na1  1  0.99444020  0.03042246  0.25000000  1
  Na  Na2  1  0.49444020  0.46957754  0.75000000  1
  Na  Na3  1  0.00555980  0.96957754  0.75000000  1
  Mg  Mg4  1  0.00000000  0.50000000  0.00000000  1
  Mg  Mg5  1  0.50000000  0.00000000  0.50000000  1
  Mg  Mg6  1  0.00000000  0.50000000  0.50000000  1
  Mg  Mg7  1  0.50000000  0.00000000  0.00000000  1
  H  H8  1  0.79481114  0.79322220  0.04359569  1
  H  H9  1  0.70518886  0.29322220  0.45640431  1
  H  H10  1  0.20518886  0.20677780  0.54359569  1
  H  H11  1  0.29481114  0.70677780  0.95640431  1
  H  H12  1  0.20518886  0.20677780  0.95640431  1
  H  H13  1  0.29481114  0.70677780  0.54359569  1
  H  H14  1  0.79481114  0.79322220  0.45640431  1
  H  H15  1  0.70518886  0.29322220  0.04359569  1
  H  H16  1  0.41665649  0.97259988  0.25000000  1
  H  H17  1  0.08334351  0.47259988  0.25000000  1
  H  H18  1  0.58334351  0.02740012  0.75000000  1
  H  H19  1  0.91665649  0.52740012  0.75000000  1
