# generated using pymatgen
data_NaAlH4
_symmetry_space_group_name_H-M   'P 1'
_cell_length_a   4.98411714
_cell_length_b   4.98411714
_cell_length_c   6.57100453
_cell_angle_alpha   112.28728177
_cell_angle_beta   112.28728170
_cell_angle_gamma   90.00000000
_symmetry_Int_Tables_number   1
_chemical_formula_structural   NaAlH4
_chemical_formula_sum   'Na2 Al2 H8'
_cell_volume   137.76890677
_cell_formula_units_Z   2
loop_
 _symmetry_equiv_pos_site_id
 _symmetry_equiv_pos_as_xyz
  1  'x, y, z'
loop_
 _atom_site_type_symbol
 _atom_site_label
 _atom_site_symmetry_multiplicity
 _atom_site_fract_x
 _atom_site_fract_y
 _atom_site_fract_z
 _atom_site_occupancy
  H  H0  1  0.69180232  0.34849192  0.91189937  1
  H  H1  1  0.56340745  0.19180232  0.41189937  1
  H  H2  1  0.84849192  0.72009705  0.41189937  1
  H  H3  1  0.22009705  0.06340745  0.91189937  1
  H  H4  1  0.77990295  0.93659255  0.08810063  1
  H  H5  1  0.15150808  0.27990295  0.58810063  1
  H  H6  1  0.43659255  0.80819768  0.58810063  1
  H  H7  1  0.30819768  0.65150808  0.08810063  1
  Na  Na8  1  0.12500000  0.37500000  0.25000000  1
  Na  Na9  1  0.87500000  0.62500000  0.75000000  1
  Al  Al10  1  0.62500000  0.87500000  0.25000000  1
  Al  Al11  1  0.37500000  0.12500000  0.75000000  1
