# generated using pymatgen
data_TlIO3
_symmetry_space_group_name_H-M   'P 1'
_cell_length_a   4.58640003
_cell_length_b   4.58640003
_cell_length_c   4.58640003
_cell_angle_alpha   88.64274926
_cell_angle_beta   88.64274924
_cell_angle_gamma   88.64274927
_symmetry_Int_Tables_number   1
_chemical_formula_structural   TlIO3
_chemical_formula_sum   'Tl1 I1 O3'
_cell_volume   96.39528310
_cell_formula_units_Z   1
loop_
 _symmetry_equiv_pos_site_id
 _symmetry_equiv_pos_as_xyz
  1  'x, y, z'
loop_
 _atom_site_type_symbol
 _atom_site_label
 _atom_site_symmetry_multiplicity
 _atom_site_fract_x
 _atom_site_fract_y
 _atom_site_fract_z
 _atom_site_occupancy
  O  O0  1  0.53696591  0.09607985  0.53696591  1
  O  O1  1  0.09607985  0.53696591  0.53696591  1
  O  O2  1  0.53696591  0.53696591  0.09607985  1
  I  I3  1  0.49479771  0.49479771  0.49479771  1
  Tl  Tl4  1  0.99749061  0.99749061  0.99749061  1
