# generated using pymatgen
data_LiCr2(PO4)2
_symmetry_space_group_name_H-M   'P 1'
_cell_length_a   5.64231551
_cell_length_b   10.85783104
_cell_length_c   10.25799984
_cell_angle_alpha   90.00000000
_cell_angle_beta   92.32653117
_cell_angle_gamma   90.00000000
_symmetry_Int_Tables_number   1
_chemical_formula_structural   LiCr2(PO4)2
_chemical_formula_sum   'Li4 Cr8 P8 O32'
_cell_volume   627.92098902
_cell_formula_units_Z   4
loop_
 _symmetry_equiv_pos_site_id
 _symmetry_equiv_pos_as_xyz
  1  'x, y, z'
loop_
 _atom_site_type_symbol
 _atom_site_label
 _atom_site_symmetry_multiplicity
 _atom_site_fract_x
 _atom_site_fract_y
 _atom_site_fract_z
 _atom_site_occupancy
  Li  Li0  1  0.11998522  0.12531341  0.90354588  1
  Li  Li1  1  0.11998522  0.37468659  0.40354588  1
  Li  Li2  1  0.88001478  0.62531341  0.59645412  1
  Li  Li3  1  0.88001478  0.87468659  0.09645412  1
  Cr  Cr4  1  0.13063476  0.90136952  0.73264354  1
  Cr  Cr5  1  0.13063476  0.59863048  0.23264354  1
  Cr  Cr6  1  0.33927052  0.37168777  0.98330383  1
  Cr  Cr7  1  0.33927052  0.12831223  0.48330383  1
  Cr  Cr8  1  0.66072948  0.87168777  0.51669617  1
  Cr  Cr9  1  0.66072948  0.62831223  0.01669617  1
  Cr  Cr10  1  0.86936524  0.40136952  0.76735646  1
  Cr  Cr11  1  0.86936524  0.09863048  0.26735646  1
  P  P12  1  0.11820784  0.64031644  0.91156433  1
  P  P13  1  0.11820784  0.85968356  0.41156433  1
  P  P14  1  0.36200903  0.39271914  0.66135818  1
  P  P15  1  0.36200903  0.10728086  0.16135818  1
  P  P16  1  0.63799097  0.89271914  0.83864182  1
  P  P17  1  0.63799097  0.60728086  0.33864182  1
  P  P18  1  0.88179216  0.14031644  0.58843567  1
  P  P19  1  0.88179216  0.35968356  0.08843567  1
  O  O20  1  0.05977738  0.80798401  0.54929022  1
  O  O21  1  0.10842410  0.06430098  0.63259872  1
  O  O22  1  0.05977738  0.69201599  0.04929022  1
  O  O23  1  0.10842410  0.43569902  0.13259872  1
  O  O24  1  0.12505900  0.47155418  0.64754434  1
  O  O25  1  0.16435492  0.73703524  0.80917608  1
  O  O26  1  0.12505900  0.02844582  0.14754434  1
  O  O27  1  0.16435492  0.76296476  0.30917608  1
  O  O28  1  0.33529766  0.55421660  0.92724086  1
  O  O29  1  0.33529766  0.94578340  0.42724086  1
  O  O30  1  0.35450289  0.31998367  0.79171727  1
  O  O31  1  0.35450289  0.18001633  0.29171727  1
  O  O32  1  0.35899960  0.30524582  0.54207765  1
  O  O33  1  0.40837361  0.97327613  0.83721457  1
  O  O34  1  0.35899960  0.19475418  0.04207765  1
  O  O35  1  0.40837361  0.52672387  0.33721457  1
  O  O36  1  0.59162639  0.47327613  0.66278543  1
  O  O37  1  0.64100040  0.80524582  0.95792235  1
  O  O38  1  0.59162639  0.02672387  0.16278543  1
  O  O39  1  0.64100040  0.69475418  0.45792235  1
  O  O40  1  0.64549711  0.81998367  0.70828273  1
  O  O41  1  0.64549711  0.68001633  0.20828273  1
  O  O42  1  0.66470234  0.05421660  0.57275914  1
  O  O43  1  0.66470234  0.44578340  0.07275914  1
  O  O44  1  0.83564508  0.23703524  0.69082392  1
  O  O45  1  0.87494100  0.97155418  0.85245566  1
  O  O46  1  0.83564508  0.26296476  0.19082392  1
  O  O47  1  0.87494100  0.52844582  0.35245566  1
  O  O48  1  0.89157590  0.56430098  0.86740128  1
  O  O49  1  0.94022262  0.30798401  0.95070978  1
  O  O50  1  0.89157590  0.93569902  0.36740128  1
  O  O51  1  0.94022262  0.19201599  0.45070978  1
