# generated using pymatgen
data_Ca3Sc2(GeO4)3
_symmetry_space_group_name_H-M   'P 1'
_cell_length_a   10.95559767
_cell_length_b   10.95559767
_cell_length_c   10.95559767
_cell_angle_alpha   109.47122063
_cell_angle_beta   109.47122063
_cell_angle_gamma   109.47122064
_symmetry_Int_Tables_number   1
_chemical_formula_structural   Ca3Sc2(GeO4)3
_chemical_formula_sum   'Ca12 Sc8 Ge12 O48'
_cell_volume   1012.24661755
_cell_formula_units_Z   4
loop_
 _symmetry_equiv_pos_site_id
 _symmetry_equiv_pos_as_xyz
  1  'x, y, z'
loop_
 _atom_site_type_symbol
 _atom_site_label
 _atom_site_symmetry_multiplicity
 _atom_site_fract_x
 _atom_site_fract_y
 _atom_site_fract_z
 _atom_site_occupancy
  O  O0  1  0.79259989  0.41330414  0.81047529  1
  O  O1  1  0.08669586  0.87929575  0.39717115  1
  O  O2  1  0.68952471  0.10282885  0.98212460  1
  O  O3  1  0.70740011  0.51787540  0.62070425  1
  O  O4  1  0.70740011  0.68952471  0.08669586  1
  O  O5  1  0.51787540  0.62070425  0.70740011  1
  O  O6  1  0.10282885  0.62070425  0.41330414  1
  O  O7  1  0.62070425  0.70740011  0.51787540  1
  O  O8  1  0.39717115  0.81047529  0.51787540  1
  O  O9  1  0.87929575  0.98212460  0.79259989  1
  O  O10  1  0.98212460  0.79259989  0.87929575  1
  O  O11  1  0.08669586  0.70740011  0.68952471  1
  O  O12  1  0.62070425  0.41330414  0.10282885  1
  O  O13  1  0.51787540  0.39717115  0.81047529  1
  O  O14  1  0.68952471  0.08669586  0.70740011  1
  O  O15  1  0.41330414  0.10282885  0.62070425  1
  O  O16  1  0.81047529  0.51787540  0.39717115  1
  O  O17  1  0.39717115  0.08669586  0.87929575  1
  O  O18  1  0.10282885  0.98212460  0.68952471  1
  O  O19  1  0.60282885  0.18952471  0.48212460  1
  O  O20  1  0.98212460  0.68952471  0.10282885  1
  O  O21  1  0.81047529  0.79259989  0.41330414  1
  O  O22  1  0.87929575  0.39717115  0.08669586  1
  O  O23  1  0.79259989  0.87929575  0.98212460  1
  O  O24  1  0.20740011  0.58669586  0.18952471  1
  O  O25  1  0.91330414  0.12070425  0.60282885  1
  O  O26  1  0.31047529  0.89717115  0.01787540  1
  O  O27  1  0.29259989  0.48212460  0.37929575  1
  O  O28  1  0.29259989  0.31047529  0.91330414  1
  O  O29  1  0.48212460  0.37929575  0.29259989  1
  O  O30  1  0.89717115  0.37929575  0.58669586  1
  O  O31  1  0.37929575  0.29259989  0.48212460  1
  O  O32  1  0.20740011  0.12070425  0.01787540  1
  O  O33  1  0.12070425  0.60282885  0.91330414  1
  O  O34  1  0.18952471  0.20740011  0.58669586  1
  O  O35  1  0.58669586  0.18952471  0.20740011  1
  O  O36  1  0.01787540  0.31047529  0.89717115  1
  O  O37  1  0.89717115  0.01787540  0.31047529  1
  O  O38  1  0.60282885  0.91330414  0.12070425  1
  O  O39  1  0.18952471  0.48212460  0.60282885  1
  O  O40  1  0.58669586  0.89717115  0.37929575  1
  O  O41  1  0.31047529  0.91330414  0.29259989  1
  O  O42  1  0.48212460  0.60282885  0.18952471  1
  O  O43  1  0.37929575  0.58669586  0.89717115  1
  O  O44  1  0.91330414  0.29259989  0.31047529  1
  O  O45  1  0.01787540  0.20740011  0.12070425  1
  O  O46  1  0.12070425  0.01787540  0.20740011  1
  O  O47  1  0.41330414  0.81047529  0.79259989  1
  Ca  Ca48  1  0.25000000  0.37500000  0.12500000  1
  Ca  Ca49  1  0.37500000  0.75000000  0.12500000  1
  Ca  Ca50  1  0.12500000  0.25000000  0.37500000  1
  Ca  Ca51  1  0.37500000  0.12500000  0.25000000  1
  Ca  Ca52  1  0.12500000  0.37500000  0.75000000  1
  Ca  Ca53  1  0.75000000  0.12500000  0.37500000  1
  Ca  Ca54  1  0.75000000  0.62500000  0.87500000  1
  Ca  Ca55  1  0.62500000  0.25000000  0.87500000  1
  Ca  Ca56  1  0.87500000  0.75000000  0.62500000  1
  Ca  Ca57  1  0.62500000  0.87500000  0.75000000  1
  Ca  Ca58  1  0.87500000  0.62500000  0.25000000  1
  Ca  Ca59  1  0.25000000  0.87500000  0.62500000  1
  Sc  Sc60  1  0.00000000  0.00000000  0.00000000  1
  Sc  Sc61  1  0.00000000  0.50000000  0.00000000  1
  Sc  Sc62  1  0.00000000  0.00000000  0.50000000  1
  Sc  Sc63  1  0.50000000  0.00000000  0.00000000  1
  Sc  Sc64  1  0.00000000  0.50000000  0.50000000  1
  Sc  Sc65  1  0.50000000  0.00000000  0.50000000  1
  Sc  Sc66  1  0.50000000  0.50000000  0.00000000  1
  Sc  Sc67  1  0.50000000  0.50000000  0.50000000  1
  Ge  Ge68  1  0.25000000  0.62500000  0.37500000  1
  Ge  Ge69  1  0.62500000  0.75000000  0.37500000  1
  Ge  Ge70  1  0.87500000  0.25000000  0.12500000  1
  Ge  Ge71  1  0.12500000  0.87500000  0.25000000  1
  Ge  Ge72  1  0.37500000  0.62500000  0.75000000  1
  Ge  Ge73  1  0.75000000  0.37500000  0.62500000  1
  Ge  Ge74  1  0.87500000  0.12500000  0.75000000  1
  Ge  Ge75  1  0.12500000  0.75000000  0.87500000  1
  Ge  Ge76  1  0.62500000  0.37500000  0.25000000  1
  Ge  Ge77  1  0.37500000  0.25000000  0.62500000  1
  Ge  Ge78  1  0.75000000  0.87500000  0.12500000  1
  Ge  Ge79  1  0.25000000  0.12500000  0.87500000  1
