# generated using pymatgen
data_RbLi2(IO3)3
_symmetry_space_group_name_H-M   'P 1'
_cell_length_a   8.42024200
_cell_length_b   11.41012925
_cell_length_c   11.44876584
_cell_angle_alpha   90.00000000
_cell_angle_beta   111.02339825
_cell_angle_gamma   90.00000000
_symmetry_Int_Tables_number   1
_chemical_formula_structural   RbLi2(IO3)3
_chemical_formula_sum   'Rb4 Li8 I12 O36'
_cell_volume   1026.73277623
_cell_formula_units_Z   4
loop_
 _symmetry_equiv_pos_site_id
 _symmetry_equiv_pos_as_xyz
  1  'x, y, z'
loop_
 _atom_site_type_symbol
 _atom_site_label
 _atom_site_symmetry_multiplicity
 _atom_site_fract_x
 _atom_site_fract_y
 _atom_site_fract_z
 _atom_site_occupancy
  Li  Li0  1  0.37354964  0.78408518  0.13955325  1
  Li  Li1  1  0.62645036  0.28408518  0.36044675  1
  Li  Li2  1  0.62645036  0.21591482  0.86044675  1
  Li  Li3  1  0.37354964  0.71591482  0.63955325  1
  Li  Li4  1  0.98359040  0.78926539  0.15264680  1
  Li  Li5  1  0.01640960  0.28926539  0.34735320  1
  Li  Li6  1  0.01640960  0.21073461  0.84735320  1
  Li  Li7  1  0.98359040  0.71073461  0.65264680  1
  O  O8  1  0.86743050  0.92045531  0.41664743  1
  O  O9  1  0.13256950  0.42045531  0.08335257  1
  O  O10  1  0.13256950  0.07954469  0.58335257  1
  O  O11  1  0.86743050  0.57954469  0.91664743  1
  O  O12  1  0.85972130  0.20490594  0.40873307  1
  O  O13  1  0.14027870  0.70490594  0.09126693  1
  O  O14  1  0.02592415  0.74282677  0.33070418  1
  O  O15  1  0.14027870  0.79509406  0.59126693  1
  O  O16  1  0.04489716  0.54165947  0.66999221  1
  O  O17  1  0.95510284  0.04165947  0.83000779  1
  O  O18  1  0.95510284  0.45834053  0.33000779  1
  O  O19  1  0.04489716  0.95834053  0.16999221  1
  O  O20  1  0.34991926  0.54391939  0.61703270  1
  O  O21  1  0.65008074  0.04391939  0.88296730  1
  O  O22  1  0.65008074  0.45608061  0.38296730  1
  O  O23  1  0.34991926  0.95608061  0.11703270  1
  O  O24  1  0.34824378  0.46307878  0.84757426  1
  O  O25  1  0.65175622  0.96307878  0.65242574  1
  O  O26  1  0.65175622  0.53692122  0.15242574  1
  O  O27  1  0.34824378  0.03692122  0.34757426  1
  O  O28  1  0.74119248  0.71177972  0.55261835  1
  O  O29  1  0.25880752  0.21177972  0.94738165  1
  O  O30  1  0.25880752  0.28822028  0.44738165  1
  O  O31  1  0.74119248  0.78822028  0.05261835  1
  O  O32  1  0.53524100  0.76168623  0.80435192  1
  O  O33  1  0.46475900  0.26168623  0.69564808  1
  O  O34  1  0.46475900  0.23831377  0.19564808  1
  O  O35  1  0.53524100  0.73831377  0.30435192  1
  O  O36  1  0.40150266  0.72425374  0.98822884  1
  O  O37  1  0.59849734  0.22425374  0.51177116  1
  O  O38  1  0.59849734  0.27574626  0.01177116  1
  O  O39  1  0.40150266  0.77574626  0.48822884  1
  O  O40  1  0.02592415  0.75717323  0.83070418  1
  O  O41  1  0.97407585  0.25717323  0.66929582  1
  O  O42  1  0.97407585  0.24282677  0.16929582  1
  O  O43  1  0.85972130  0.29509406  0.90873307  1
  Rb  Rb44  1  0.28842940  0.54439440  0.33865683  1
  Rb  Rb45  1  0.71157060  0.04439440  0.16134317  1
  Rb  Rb46  1  0.71157060  0.45560560  0.66134317  1
  Rb  Rb47  1  0.28842940  0.95560560  0.83865683  1
  I  I48  1  0.08353649  0.86800840  0.43830813  1
  I  I49  1  0.91646351  0.36800840  0.06169187  1
  I  I50  1  0.91646351  0.13199160  0.56169187  1
  I  I51  1  0.08353649  0.63199160  0.93830813  1
  I  I52  1  0.59063001  0.81788417  0.45399773  1
  I  I53  1  0.40936999  0.31788417  0.04600227  1
  I  I54  1  0.40936999  0.18211583  0.54600227  1
  I  I55  1  0.59063001  0.68211583  0.95399773  1
  I  I56  1  0.77348145  0.55263591  0.32001683  1
  I  I57  1  0.22651855  0.05263591  0.17998317  1
  I  I58  1  0.22651855  0.44736409  0.67998317  1
  I  I59  1  0.77348145  0.94736409  0.82001683  1
