# generated using pymatgen
data_Li2CrCSO7
_symmetry_space_group_name_H-M   'P 1'
_cell_length_a   8.83615968
_cell_length_b   6.46016496
_cell_length_c   5.15187589
_cell_angle_alpha   90.00000000
_cell_angle_beta   87.41713384
_cell_angle_gamma   90.00000000
_symmetry_Int_Tables_number   1
_chemical_formula_structural   Li2CrCSO7
_chemical_formula_sum   'Li4 Cr2 C2 S2 O14'
_cell_volume   293.78602125
_cell_formula_units_Z   2
loop_
 _symmetry_equiv_pos_site_id
 _symmetry_equiv_pos_as_xyz
  1  'x, y, z'
loop_
 _atom_site_type_symbol
 _atom_site_label
 _atom_site_symmetry_multiplicity
 _atom_site_fract_x
 _atom_site_fract_y
 _atom_site_fract_z
 _atom_site_occupancy
  Li  Li0  1  0.19125263  0.97744333  0.22700900  1
  Li  Li1  1  0.19125263  0.52255667  0.22700900  1
  Li  Li2  1  0.80874737  0.47744333  0.77299100  1
  Li  Li3  1  0.80874737  0.02255667  0.77299100  1
  Cr  Cr4  1  0.35880778  0.75000000  0.76348578  1
  Cr  Cr5  1  0.64119222  0.25000000  0.23651422  1
  C  C6  1  0.05954712  0.75000000  0.72200090  1
  C  C7  1  0.94045288  0.25000000  0.27799910  1
  S  S8  1  0.42177895  0.25000000  0.70840778  1
  S  S9  1  0.57822105  0.75000000  0.29159222  1
  O  O10  1  0.08504684  0.25000000  0.26097517  1
  O  O11  1  0.13896403  0.75000000  0.93443256  1
  O  O12  1  0.13716846  0.75000000  0.50131385  1
  O  O13  1  0.33791287  0.06706918  0.81213111  1
  O  O14  1  0.33791287  0.43293082  0.81213111  1
  O  O15  1  0.41825029  0.75000000  0.21325694  1
  O  O16  1  0.42299848  0.25000000  0.41627701  1
  O  O17  1  0.57700152  0.75000000  0.58372299  1
  O  O18  1  0.58174971  0.25000000  0.78674306  1
  O  O19  1  0.66208713  0.56706918  0.18786889  1
  O  O20  1  0.66208713  0.93293082  0.18786889  1
  O  O21  1  0.86283154  0.25000000  0.49868615  1
  O  O22  1  0.86103597  0.25000000  0.06556744  1
  O  O23  1  0.91495416  0.75000000  0.73902483  1
