# generated using pymatgen
data_K3B6BrO10
_symmetry_space_group_name_H-M   'P 1'
_cell_length_a   6.62621125
_cell_length_b   6.62621125
_cell_length_c   6.62621125
_cell_angle_alpha   100.86405553
_cell_angle_beta   100.86405550
_cell_angle_gamma   100.86405555
_symmetry_Int_Tables_number   1
_chemical_formula_structural   K3B6BrO10
_chemical_formula_sum   'K3 B6 Br1 O10'
_cell_volume   272.92661091
_cell_formula_units_Z   1
loop_
 _symmetry_equiv_pos_site_id
 _symmetry_equiv_pos_as_xyz
  1  'x, y, z'
loop_
 _atom_site_type_symbol
 _atom_site_label
 _atom_site_symmetry_multiplicity
 _atom_site_fract_x
 _atom_site_fract_y
 _atom_site_fract_z
 _atom_site_occupancy
  B  B0  1  0.64117803  0.64117803  0.37882212  1
  B  B1  1  0.64117803  0.37882212  0.64117803  1
  B  B2  1  0.37882212  0.64117803  0.64117803  1
  B  B3  1  0.52168216  0.96879132  0.52168216  1
  B  B4  1  0.52168216  0.52168216  0.96879132  1
  B  B5  1  0.96879132  0.52168216  0.52168216  1
  O  O6  1  0.17417448  0.51324031  0.51324031  1
  O  O7  1  0.55678549  0.55678549  0.55678549  1
  O  O8  1  0.51324031  0.17417448  0.51324031  1
  O  O9  1  0.51324031  0.51324031  0.17417448  1
  O  O10  1  0.86488738  0.63373865  0.39998830  1
  O  O11  1  0.39998830  0.86488738  0.63373865  1
  O  O12  1  0.63373865  0.39998830  0.86488738  1
  O  O13  1  0.63373865  0.86488738  0.39998830  1
  O  O14  1  0.39998830  0.63373865  0.86488738  1
  O  O15  1  0.86488738  0.39998830  0.63373865  1
  K  K16  1  0.07003856  0.07003856  0.52816816  1
  K  K17  1  0.07003856  0.52816816  0.07003856  1
  K  K18  1  0.52816816  0.07003856  0.07003856  1
  Br  Br19  1  0.00535168  0.00535168  0.00535168  1
