# generated using pymatgen
data_Yb4As6Rh7
_symmetry_space_group_name_H-M   'P 1'
_cell_length_a   7.23334047
_cell_length_b   7.23334047
_cell_length_c   7.23334047
_cell_angle_alpha   109.47122064
_cell_angle_beta   109.47122062
_cell_angle_gamma   109.47122066
_symmetry_Int_Tables_number   1
_chemical_formula_structural   Yb4As6Rh7
_chemical_formula_sum   'Yb4 As6 Rh7'
_cell_volume   291.33645553
_cell_formula_units_Z   1
loop_
 _symmetry_equiv_pos_site_id
 _symmetry_equiv_pos_as_xyz
  1  'x, y, z'
loop_
 _atom_site_type_symbol
 _atom_site_label
 _atom_site_symmetry_multiplicity
 _atom_site_fract_x
 _atom_site_fract_y
 _atom_site_fract_z
 _atom_site_occupancy
  As  As0  1  0.00000000  0.67983752  0.67983752  1
  As  As1  1  0.32016248  0.32016248  0.00000000  1
  As  As2  1  0.67983752  0.67983752  0.00000000  1
  As  As3  1  0.67983752  0.00000000  0.67983752  1
  As  As4  1  0.32016248  0.00000000  0.32016248  1
  As  As5  1  0.00000000  0.32016248  0.32016248  1
  Rh  Rh6  1  0.75000000  0.50000000  0.25000000  1
  Rh  Rh7  1  0.75000000  0.25000000  0.50000000  1
  Rh  Rh8  1  0.25000000  0.75000000  0.50000000  1
  Rh  Rh9  1  0.50000000  0.25000000  0.75000000  1
  Rh  Rh10  1  0.00000000  0.00000000  0.00000000  1
  Rh  Rh11  1  0.25000000  0.50000000  0.75000000  1
  Rh  Rh12  1  0.50000000  0.75000000  0.25000000  1
  Yb  Yb13  1  0.00000000  0.00000000  0.50000000  1
  Yb  Yb14  1  0.00000000  0.50000000  0.00000000  1
  Yb  Yb15  1  0.50000000  0.00000000  0.00000000  1
  Yb  Yb16  1  0.50000000  0.50000000  0.50000000  1
