# generated using pymatgen
data_AsSe6IF6
_symmetry_space_group_name_H-M   'P 1'
_cell_length_a   7.16780798
_cell_length_b   9.33605008
_cell_length_c   10.84504298
_cell_angle_alpha   107.79131601
_cell_angle_beta   90.00000000
_cell_angle_gamma   90.00000000
_symmetry_Int_Tables_number   1
_chemical_formula_structural   AsSe6IF6
_chemical_formula_sum   'As2 Se12 I2 F12'
_cell_volume   691.03160881
_cell_formula_units_Z   2
loop_
 _symmetry_equiv_pos_site_id
 _symmetry_equiv_pos_as_xyz
  1  'x, y, z'
loop_
 _atom_site_type_symbol
 _atom_site_label
 _atom_site_symmetry_multiplicity
 _atom_site_fract_x
 _atom_site_fract_y
 _atom_site_fract_z
 _atom_site_occupancy
  F  F0  1  0.09387553  0.67171165  0.60103678  1
  F  F1  1  0.09387553  0.82828835  0.89896322  1
  F  F2  1  0.90612447  0.32828835  0.39896322  1
  F  F3  1  0.90612447  0.17171165  0.10103678  1
  F  F4  1  0.91428790  0.59530904  0.39197472  1
  F  F5  1  0.91428790  0.90469096  0.10802528  1
  F  F6  1  0.08571210  0.40469096  0.60802528  1
  F  F7  1  0.08571210  0.09530904  0.89197472  1
  F  F8  1  0.78695212  0.53942019  0.58808431  1
  F  F9  1  0.78695212  0.96057981  0.91191569  1
  F  F10  1  0.21304788  0.46057981  0.41191569  1
  F  F11  1  0.21304788  0.03942019  0.08808431  1
  As  As12  1  0.00000000  0.00000000  0.00000000  1
  As  As13  1  0.00000000  0.50000000  0.50000000  1
  Se  Se14  1  0.74346044  0.94719796  0.61508441  1
  Se  Se15  1  0.24049040  0.05313228  0.60926875  1
  Se  Se16  1  0.75950960  0.55313228  0.10926875  1
  Se  Se17  1  0.75950960  0.94686772  0.39073125  1
  Se  Se18  1  0.25653956  0.44719796  0.11508441  1
  Se  Se19  1  0.25653956  0.05280204  0.38491559  1
  Se  Se20  1  0.74346044  0.55280204  0.88491559  1
  Se  Se21  1  0.42752369  0.85394112  0.61682313  1
  Se  Se22  1  0.57247631  0.35394112  0.11682313  1
  Se  Se23  1  0.57247631  0.14605888  0.38317687  1
  Se  Se24  1  0.42752369  0.64605888  0.88317687  1
  Se  Se25  1  0.24049040  0.44686772  0.89073125  1
  I  I26  1  0.27881840  0.75000000  0.25000000  1
  I  I27  1  0.72118160  0.25000000  0.75000000  1
