# generated using pymatgen
data_AsSe3(ClF2)3
_symmetry_space_group_name_H-M   'P 1'
_cell_length_a   8.11713142
_cell_length_b   12.40566708
_cell_length_c   12.62765447
_cell_angle_alpha   104.35367852
_cell_angle_beta   90.00000000
_cell_angle_gamma   90.00000000
_symmetry_Int_Tables_number   1
_chemical_formula_structural   AsSe3(ClF2)3
_chemical_formula_sum   'As4 Se12 Cl12 F24'
_cell_volume   1231.89105754
_cell_formula_units_Z   4
loop_
 _symmetry_equiv_pos_site_id
 _symmetry_equiv_pos_as_xyz
  1  'x, y, z'
loop_
 _atom_site_type_symbol
 _atom_site_label
 _atom_site_symmetry_multiplicity
 _atom_site_fract_x
 _atom_site_fract_y
 _atom_site_fract_z
 _atom_site_occupancy
  F  F0  1  0.91334075  0.41740618  0.79720882  1
  F  F1  1  0.41334075  0.08259382  0.20279118  1
  F  F2  1  0.08665925  0.58259382  0.20279118  1
  F  F3  1  0.58665925  0.91740618  0.79720882  1
  F  F4  1  0.66739007  0.58042989  0.66477830  1
  F  F5  1  0.16739007  0.91957011  0.33522170  1
  F  F6  1  0.33260993  0.41957011  0.33522170  1
  F  F7  1  0.83260993  0.08042989  0.66477830  1
  F  F8  1  0.92855009  0.61444092  0.77686123  1
  F  F9  1  0.42855009  0.88555908  0.22313877  1
  F  F10  1  0.07144991  0.38555908  0.22313877  1
  F  F11  1  0.57144991  0.11444092  0.77686123  1
  F  F12  1  0.32836665  0.45592013  0.14889892  1
  F  F13  1  0.82836665  0.04407987  0.85110108  1
  F  F14  1  0.65350900  0.38336044  0.68494694  1
  F  F15  1  0.15350900  0.11663956  0.31505306  1
  F  F16  1  0.34649100  0.61663956  0.31505306  1
  F  F17  1  0.17163335  0.95592013  0.14889892  1
  F  F18  1  0.90942171  0.45391091  0.61060523  1
  F  F19  1  0.67163335  0.54407987  0.85110108  1
  F  F20  1  0.40942171  0.04608909  0.38939477  1
  F  F21  1  0.09057829  0.54608909  0.38939477  1
  F  F22  1  0.59057829  0.95391091  0.61060523  1
  F  F23  1  0.84649100  0.88336044  0.68494694  1
  Cl  Cl24  1  0.79163330  0.87841174  0.35463496  1
  Cl  Cl25  1  0.82783225  0.17654294  0.46510773  1
  Cl  Cl26  1  0.29163330  0.62158826  0.64536504  1
  Cl  Cl27  1  0.32783225  0.32345706  0.53489227  1
  Cl  Cl28  1  0.27809831  0.66957906  0.98192305  1
  Cl  Cl29  1  0.22190169  0.16957906  0.98192305  1
  Cl  Cl30  1  0.72190169  0.33042094  0.01807695  1
  Cl  Cl31  1  0.17216775  0.82345706  0.53489227  1
  Cl  Cl32  1  0.20836670  0.12158826  0.64536504  1
  Cl  Cl33  1  0.70836670  0.37841174  0.35463496  1
  Cl  Cl34  1  0.67216775  0.67654294  0.46510773  1
  Cl  Cl35  1  0.77809831  0.83042094  0.01807695  1
  As  As36  1  0.79103505  0.49938471  0.73096581  1
  As  As37  1  0.20896495  0.50061529  0.26903419  1
  As  As38  1  0.70896495  0.99938471  0.73096581  1
  As  As39  1  0.29103505  0.00061529  0.26903419  1
  Se  Se40  1  0.65132266  0.63369493  0.16332500  1
  Se  Se41  1  0.37141648  0.79058273  0.89295403  1
  Se  Se42  1  0.12858352  0.29058273  0.89295403  1
  Se  Se43  1  0.62858352  0.20941727  0.10704597  1
  Se  Se44  1  0.87141648  0.70941727  0.10704597  1
  Se  Se45  1  0.15132266  0.86630507  0.83667500  1
  Se  Se46  1  0.34867734  0.36630507  0.83667500  1
  Se  Se47  1  0.84867734  0.13369493  0.16332500  1
  Se  Se48  1  0.58587776  0.77158834  0.35414339  1
  Se  Se49  1  0.08587776  0.72841166  0.64585661  1
  Se  Se50  1  0.41412224  0.22841166  0.64585661  1
  Se  Se51  1  0.91412224  0.27158834  0.35414339  1
