# generated using pymatgen
data_SrNb2Bi2O9
_symmetry_space_group_name_H-M   'P 1'
_cell_length_a   5.64761477
_cell_length_b   5.68848358
_cell_length_c   13.01244549
_cell_angle_alpha   90.00000000
_cell_angle_beta   102.53337074
_cell_angle_gamma   90.00000000
_symmetry_Int_Tables_number   1
_chemical_formula_structural   SrNb2Bi2O9
_chemical_formula_sum   'Sr2 Nb4 Bi4 O18'
_cell_volume   408.08051293
_cell_formula_units_Z   2
loop_
 _symmetry_equiv_pos_site_id
 _symmetry_equiv_pos_as_xyz
  1  'x, y, z'
loop_
 _atom_site_type_symbol
 _atom_site_label
 _atom_site_symmetry_multiplicity
 _atom_site_fract_x
 _atom_site_fract_y
 _atom_site_fract_z
 _atom_site_occupancy
  O  O0  1  0.41050855  0.28396325  0.86937088  1
  O  O1  1  0.58949145  0.78396325  0.13062912  1
  O  O2  1  0.45886233  0.78396325  0.86937088  1
  O  O3  1  0.54113767  0.28396325  0.13062912  1
  O  O4  1  0.88477599  0.33094005  0.82746329  1
  O  O5  1  0.11522401  0.83094005  0.17253671  1
  O  O6  1  0.94268730  0.83094005  0.82746329  1
  O  O7  1  0.05731270  0.33094005  0.17253671  1
  O  O8  1  0.72905872  0.22559209  0.50132283  1
  O  O9  1  0.27094128  0.72559209  0.49867717  1
  O  O10  1  0.19354343  0.56596654  0.00000000  1
  O  O11  1  0.80645657  0.06596654  0.00000000  1
  O  O12  1  0.17598678  0.56214511  0.68981493  1
  O  O13  1  0.82401322  0.06214511  0.31018507  1
  O  O14  1  0.51382815  0.06214511  0.68981493  1
  O  O15  1  0.48617185  0.56214511  0.31018507  1
  O  O16  1  0.22773590  0.22559209  0.49867717  1
  O  O17  1  0.77226410  0.72559209  0.50132283  1
  Sr  Sr18  1  0.25159725  0.01657727  0.00000000  1
  Sr  Sr19  1  0.74840275  0.51657727  0.00000000  1
  Nb  Nb20  1  0.66860261  0.02467895  0.83462992  1
  Nb  Nb21  1  0.16602731  0.52467895  0.83462992  1
  Nb  Nb22  1  0.83397269  0.02467895  0.16537008  1
  Nb  Nb23  1  0.33139739  0.52467895  0.16537008  1
  Bi  Bi24  1  0.08596495  0.93440864  0.59948796  1
  Bi  Bi25  1  0.91403505  0.43440864  0.40051204  1
  Bi  Bi26  1  0.51352301  0.43440864  0.59948796  1
  Bi  Bi27  1  0.48647699  0.93440864  0.40051204  1
