# generated using pymatgen
data_Mn(InS2)2
_symmetry_space_group_name_H-M   'P 1'
_cell_length_a   7.63784122
_cell_length_b   7.63784123
_cell_length_c   7.63784123
_cell_angle_alpha   60.00000003
_cell_angle_beta   60.00000001
_cell_angle_gamma   60.00000005
_symmetry_Int_Tables_number   1
_chemical_formula_structural   Mn(InS2)2
_chemical_formula_sum   'Mn2 In4 S8'
_cell_volume   315.06262044
_cell_formula_units_Z   2
loop_
 _symmetry_equiv_pos_site_id
 _symmetry_equiv_pos_as_xyz
  1  'x, y, z'
loop_
 _atom_site_type_symbol
 _atom_site_label
 _atom_site_symmetry_multiplicity
 _atom_site_fract_x
 _atom_site_fract_y
 _atom_site_fract_z
 _atom_site_occupancy
  S  S0  1  0.74506676  0.74506676  0.74506676  1
  S  S1  1  0.25493324  0.25493324  0.73520028  1
  S  S2  1  0.25493324  0.73520028  0.25493324  1
  S  S3  1  0.73520028  0.25493324  0.25493324  1
  S  S4  1  0.74506676  0.26479972  0.74506676  1
  S  S5  1  0.26479972  0.74506676  0.74506676  1
  S  S6  1  0.25493324  0.25493324  0.25493324  1
  S  S7  1  0.74506676  0.74506676  0.26479972  1
  Mn  Mn8  1  0.12500000  0.12500000  0.12500000  1
  Mn  Mn9  1  0.87500000  0.87500000  0.87500000  1
  In  In10  1  0.50000000  0.00000000  0.50000000  1
  In  In11  1  0.00000000  0.50000000  0.50000000  1
  In  In12  1  0.50000000  0.50000000  0.00000000  1
  In  In13  1  0.50000000  0.50000000  0.50000000  1
