# generated using pymatgen
data_ZnSeO4
_symmetry_space_group_name_H-M   'P 1'
_cell_length_a   7.20527656
_cell_length_b   5.80977647
_cell_length_c   7.09942853
_cell_angle_alpha   90.00000000
_cell_angle_beta   90.00000000
_cell_angle_gamma   90.00000000
_symmetry_Int_Tables_number   1
_chemical_formula_structural   ZnSeO4
_chemical_formula_sum   'Zn4 Se4 O16'
_cell_volume   297.18950582
_cell_formula_units_Z   4
loop_
 _symmetry_equiv_pos_site_id
 _symmetry_equiv_pos_as_xyz
  1  'x, y, z'
loop_
 _atom_site_type_symbol
 _atom_site_label
 _atom_site_symmetry_multiplicity
 _atom_site_fract_x
 _atom_site_fract_y
 _atom_site_fract_z
 _atom_site_occupancy
  Zn  Zn0  1  0.18782506  0.25000000  0.22274012  1
  Zn  Zn1  1  0.31217494  0.75000000  0.72274012  1
  Zn  Zn2  1  0.68782506  0.25000000  0.27725988  1
  Zn  Zn3  1  0.81217494  0.75000000  0.77725988  1
  Se  Se4  1  0.00306289  0.25000000  0.64750233  1
  Se  Se5  1  0.49693711  0.75000000  0.14750233  1
  Se  Se6  1  0.50306289  0.25000000  0.85249767  1
  Se  Se7  1  0.99693711  0.75000000  0.35249767  1
  O  O8  1  0.01418577  0.00899626  0.77955352  1
  O  O9  1  0.01418577  0.49100374  0.77955352  1
  O  O10  1  0.20021328  0.75000000  0.46686383  1
  O  O11  1  0.19332699  0.25000000  0.50994633  1
  O  O12  1  0.30667301  0.75000000  0.00994633  1
  O  O13  1  0.29978672  0.25000000  0.96686383  1
  O  O14  1  0.48581423  0.99100374  0.27955352  1
  O  O15  1  0.48581423  0.50899626  0.27955352  1
  O  O16  1  0.51418577  0.00899626  0.72044648  1
  O  O17  1  0.51418577  0.49100374  0.72044648  1
  O  O18  1  0.70021328  0.75000000  0.03313617  1
  O  O19  1  0.69332699  0.25000000  0.99005367  1
  O  O20  1  0.80667301  0.75000000  0.49005367  1
  O  O21  1  0.79978672  0.25000000  0.53313617  1
  O  O22  1  0.98581423  0.50899626  0.22044648  1
  O  O23  1  0.98581423  0.99100374  0.22044648  1
