# generated using pymatgen
data_TaBi4ClO8
_symmetry_space_group_name_H-M   'P 1'
_cell_length_a   5.52436595
_cell_length_b   5.58979447
_cell_length_c   29.42567358
_cell_angle_alpha   90.00000000
_cell_angle_beta   90.00000000
_cell_angle_gamma   90.00000000
_symmetry_Int_Tables_number   1
_chemical_formula_structural   TaBi4ClO8
_chemical_formula_sum   'Ta4 Bi16 Cl4 O32'
_cell_volume   908.66686694
_cell_formula_units_Z   4
loop_
 _symmetry_equiv_pos_site_id
 _symmetry_equiv_pos_as_xyz
  1  'x, y, z'
loop_
 _atom_site_type_symbol
 _atom_site_label
 _atom_site_symmetry_multiplicity
 _atom_site_fract_x
 _atom_site_fract_y
 _atom_site_fract_z
 _atom_site_occupancy
  O  O0  1  0.73171593  0.54123246  0.23491286  1
  O  O1  1  0.23171593  0.45876754  0.76508714  1
  O  O2  1  0.73171593  0.95876754  0.73491286  1
  O  O3  1  0.23171593  0.04123246  0.26508714  1
  O  O4  1  0.23708271  0.54098919  0.26508083  1
  O  O5  1  0.73708271  0.45901081  0.73491917  1
  O  O6  1  0.23708271  0.95901081  0.76508083  1
  O  O7  1  0.73708271  0.04098919  0.23491917  1
  O  O8  1  0.88506982  0.81177419  0.31471097  1
  O  O9  1  0.38506982  0.18822581  0.68528903  1
  O  O10  1  0.88506982  0.68822581  0.81471097  1
  O  O11  1  0.38506982  0.31177419  0.18528903  1
  O  O12  1  0.08429841  0.81166663  0.18527740  1
  O  O13  1  0.58429841  0.18833337  0.81472260  1
  O  O14  1  0.08429841  0.68833337  0.68527740  1
  O  O15  1  0.58429841  0.31166663  0.31472260  1
  O  O16  1  0.23244820  0.48813320  0.10552992  1
  O  O17  1  0.73244820  0.51186680  0.89447008  1
  O  O18  1  0.23244820  0.01186680  0.60552992  1
  O  O19  1  0.73244820  0.98813320  0.39447008  1
  O  O20  1  0.72943607  0.48122446  0.10682059  1
  O  O21  1  0.22943607  0.51877554  0.89317941  1
  O  O22  1  0.72943607  0.01877554  0.60682059  1
  O  O23  1  0.22943607  0.98122446  0.39317941  1
  O  O24  1  0.23978339  0.48138876  0.39319341  1
  O  O25  1  0.73978339  0.51861124  0.60680659  1
  O  O26  1  0.23978339  0.01861124  0.89319341  1
  O  O27  1  0.73978339  0.98138876  0.10680659  1
  O  O28  1  0.73680667  0.48802734  0.39449759  1
  O  O29  1  0.23680667  0.51197266  0.60550241  1
  O  O30  1  0.73680667  0.01197266  0.89449759  1
  O  O31  1  0.23680667  0.98802734  0.10550241  1
  Cl  Cl32  1  0.98525580  0.25031365  0.49994124  1
  Cl  Cl33  1  0.48525580  0.74968635  0.50005876  1
  Cl  Cl34  1  0.98525580  0.24968635  0.99994124  1
  Cl  Cl35  1  0.48525580  0.75031365  0.00005876  1
  Ta  Ta36  1  0.48456371  0.23895146  0.75001350  1
  Ta  Ta37  1  0.98456371  0.73895146  0.74998650  1
  Ta  Ta38  1  0.48456371  0.26104854  0.25001350  1
  Ta  Ta39  1  0.98456371  0.76104854  0.24998650  1
  Bi  Bi40  1  0.97490826  0.72758231  0.06873296  1
  Bi  Bi41  1  0.96206154  0.31373774  0.84284287  1
  Bi  Bi42  1  0.46206154  0.81373774  0.65715713  1
  Bi  Bi43  1  0.96206154  0.18626226  0.34284287  1
  Bi  Bi44  1  0.46206154  0.68626226  0.15715713  1
  Bi  Bi45  1  0.99420177  0.77238043  0.93128820  1
  Bi  Bi46  1  0.49420177  0.27238043  0.56871180  1
  Bi  Bi47  1  0.99420177  0.72761957  0.43128820  1
  Bi  Bi48  1  0.50736770  0.68632638  0.34291283  1
  Bi  Bi49  1  0.00736770  0.31367362  0.65708717  1
  Bi  Bi50  1  0.50736770  0.81367362  0.84291283  1
  Bi  Bi51  1  0.00736770  0.18632638  0.15708717  1
  Bi  Bi52  1  0.47490826  0.27241769  0.93126704  1
  Bi  Bi53  1  0.97490826  0.77241769  0.56873296  1
  Bi  Bi54  1  0.47490826  0.22758231  0.43126704  1
  Bi  Bi55  1  0.49420177  0.22761957  0.06871180  1
