# generated using pymatgen
data_Te3(PbO4)2
_symmetry_space_group_name_H-M   'P 1'
_cell_length_a   7.22616165
_cell_length_b   10.68551443
_cell_length_c   19.23715940
_cell_angle_alpha   90.00000000
_cell_angle_beta   90.00000000
_cell_angle_gamma   109.76291514
_symmetry_Int_Tables_number   1
_chemical_formula_structural   Te3(PbO4)2
_chemical_formula_sum   'Te18 Pb12 O48'
_cell_volume   1397.91170778
_cell_formula_units_Z   6
loop_
 _symmetry_equiv_pos_site_id
 _symmetry_equiv_pos_as_xyz
  1  'x, y, z'
loop_
 _atom_site_type_symbol
 _atom_site_label
 _atom_site_symmetry_multiplicity
 _atom_site_fract_x
 _atom_site_fract_y
 _atom_site_fract_z
 _atom_site_occupancy
  O  O0  1  0.67909685  0.66484001  0.75000000  1
  O  O1  1  0.01425684  0.33515999  0.75000000  1
  O  O2  1  0.32090315  0.33515999  0.25000000  1
  O  O3  1  0.98574316  0.66484001  0.25000000  1
  O  O4  1  0.36551143  0.85606661  0.75000000  1
  O  O5  1  0.50944482  0.14393339  0.75000000  1
  O  O6  1  0.63448857  0.14393339  0.25000000  1
  O  O7  1  0.49055518  0.85606661  0.25000000  1
  O  O8  1  0.14433601  0.14421261  0.11335640  1
  O  O9  1  1.00012340  0.85578739  0.38664360  1
  O  O10  1  0.85566399  0.85578739  0.61335640  1
  O  O11  1  -0.00012340  0.14421261  0.88664360  1
  O  O12  1  0.85566399  0.85578739  0.88664360  1
  O  O13  1  -0.00012340  0.14421261  0.61335640  1
  O  O14  1  0.14433601  0.14421261  0.38664360  1
  O  O15  1  1.00012340  0.85578739  0.11335640  1
  O  O16  1  0.64536632  0.35290009  0.38419986  1
  O  O17  1  0.29246623  0.64709991  0.11580014  1
  O  O18  1  0.35463368  0.64709991  0.88419986  1
  O  O19  1  0.70753377  0.35290009  0.61580014  1
  O  O20  1  0.35463368  0.64709991  0.61580014  1
  O  O21  1  0.70753377  0.35290009  0.88419986  1
  O  O22  1  0.64536632  0.35290009  0.11580014  1
  O  O23  1  0.29246623  0.64709991  0.38419986  1
  O  O24  1  0.97800345  0.32825143  0.32144817  1
  O  O25  1  0.64975201  0.67174857  0.17855183  1
  O  O26  1  0.02199655  0.67174857  0.82144817  1
  O  O27  1  0.35024799  0.32825143  0.67855183  1
  O  O28  1  0.02199655  0.67174857  0.67855183  1
  O  O29  1  0.35024799  0.32825143  0.82144817  1
  O  O30  1  0.41450712  0.00000000  0.13661537  1
  O  O31  1  0.41450712  0.00000000  0.36338463  1
  O  O32  1  0.58549288  0.00000000  0.63661537  1
  O  O33  1  0.58549288  0.00000000  0.86338463  1
  O  O34  1  0.41256594  0.82513188  0.50000000  1
  O  O35  1  0.58743406  0.17486812  0.00000000  1
  O  O36  1  0.58743406  0.17486812  0.50000000  1
  O  O37  1  0.41256594  0.82513188  0.00000000  1
  O  O38  1  0.62571862  0.64524228  0.46760486  1
  O  O39  1  0.98047634  0.35475772  0.03239514  1
  O  O40  1  0.37428138  0.35475772  0.96760486  1
  O  O41  1  0.01952366  0.64524228  0.53239514  1
  O  O42  1  0.37428138  0.35475772  0.53239514  1
  O  O43  1  0.01952366  0.64524228  0.96760486  1
  O  O44  1  0.62571862  0.64524228  0.03239514  1
  O  O45  1  0.98047634  0.35475772  0.46760486  1
  O  O46  1  0.64975201  0.67174857  0.32144817  1
  O  O47  1  0.97800345  0.32825143  0.17855183  1
  Te  Te48  1  0.94857364  0.77254521  0.75000000  1
  Te  Te49  1  0.17602843  0.22745479  0.75000000  1
  Te  Te50  1  0.05142636  0.22745479  0.25000000  1
  Te  Te51  1  0.82397157  0.77254521  0.25000000  1
  Te  Te52  1  0.76928795  0.23343811  0.41632375  1
  Te  Te53  1  0.53584984  0.76656189  0.08367625  1
  Te  Te54  1  0.23071205  0.76656189  0.91632375  1
  Te  Te55  1  0.46415016  0.23343811  0.58367625  1
  Te  Te56  1  0.23071205  0.76656189  0.58367625  1
  Te  Te57  1  0.46415016  0.23343811  0.91632375  1
  Te  Te58  1  0.76928795  0.23343811  0.08367625  1
  Te  Te59  1  0.53584984  0.76656189  0.41632375  1
  Te  Te60  1  0.79465918  0.00000000  0.92512606  1
  Te  Te61  1  0.79465918  0.00000000  0.57487394  1
  Te  Te62  1  0.20534082  0.00000000  0.42512606  1
  Te  Te63  1  0.20534082  0.00000000  0.07487394  1
  Te  Te64  1  0.60305382  0.00000000  0.75000000  1
  Te  Te65  1  0.39694618  0.00000000  0.25000000  1
  Pb  Pb66  1  0.69815682  0.37945071  0.75000000  1
  Pb  Pb67  1  0.31870611  0.62054929  0.75000000  1
  Pb  Pb68  1  0.30184318  0.62054929  0.25000000  1
  Pb  Pb69  1  0.68129389  0.37945071  0.25000000  1
  Pb  Pb70  1  0.31814003  0.38150434  0.41030778  1
  Pb  Pb71  1  0.93663569  0.61849566  0.08969222  1
  Pb  Pb72  1  0.68185997  0.61849566  0.91030778  1
  Pb  Pb73  1  0.06336431  0.38150434  0.58969222  1
  Pb  Pb74  1  0.68185997  0.61849566  0.58969222  1
  Pb  Pb75  1  0.06336431  0.38150434  0.91030778  1
  Pb  Pb76  1  0.31814003  0.38150434  0.08969222  1
  Pb  Pb77  1  0.93663569  0.61849566  0.41030778  1
