# generated using pymatgen
data_Sm2Ge2Ru
_symmetry_space_group_name_H-M   'P 1'
_cell_length_a   4.33954839
_cell_length_b   5.94855811
_cell_length_c   9.41365681
_cell_angle_alpha   82.74671700
_cell_angle_beta   76.67395033
_cell_angle_gamma   68.60741274
_symmetry_Int_Tables_number   1
_chemical_formula_structural   Sm2Ge2Ru
_chemical_formula_sum   'Sm4 Ge4 Ru2'
_cell_volume   219.93132647
_cell_formula_units_Z   2
loop_
 _symmetry_equiv_pos_site_id
 _symmetry_equiv_pos_as_xyz
  1  'x, y, z'
loop_
 _atom_site_type_symbol
 _atom_site_label
 _atom_site_symmetry_multiplicity
 _atom_site_fract_x
 _atom_site_fract_y
 _atom_site_fract_z
 _atom_site_occupancy
  Ge  Ge0  1  0.00611273  0.86117820  0.12659635  1
  Ge  Ge1  1  0.99388727  0.13882180  0.87340365  1
  Ge  Ge2  1  0.84982862  0.73374751  0.56659526  1
  Ge  Ge3  1  0.15017138  0.26625249  0.43340474  1
  Ru  Ru4  1  0.22656771  0.92207327  0.62479130  1
  Ru  Ru5  1  0.77343229  0.07792673  0.37520870  1
  Sm  Sm6  1  0.31512391  0.25954682  0.11020536  1
  Sm  Sm7  1  0.68487609  0.74045318  0.88979464  1
  Sm  Sm8  1  0.49810376  0.32991432  0.67387815  1
  Sm  Sm9  1  0.50189624  0.67008568  0.32612185  1
