# generated using pymatgen
data_Sc2SiB2Ir5
_symmetry_space_group_name_H-M   'P 1'
_cell_length_a   3.13392934
_cell_length_b   9.24687714
_cell_length_c   9.24687714
_cell_angle_alpha   90.00000000
_cell_angle_beta   90.00000000
_cell_angle_gamma   90.00000000
_symmetry_Int_Tables_number   1
_chemical_formula_structural   Sc2SiB2Ir5
_chemical_formula_sum   'Sc4 Si2 B4 Ir10'
_cell_volume   267.96580350
_cell_formula_units_Z   2
loop_
 _symmetry_equiv_pos_site_id
 _symmetry_equiv_pos_as_xyz
  1  'x, y, z'
loop_
 _atom_site_type_symbol
 _atom_site_label
 _atom_site_symmetry_multiplicity
 _atom_site_fract_x
 _atom_site_fract_y
 _atom_site_fract_z
 _atom_site_occupancy
  B  B0  1  0.00000000  0.87648703  0.37648703  1
  B  B1  1  0.00000000  0.62351297  0.87648703  1
  B  B2  1  0.00000000  0.37648703  0.12351297  1
  B  B3  1  0.00000000  0.12351297  0.62351297  1
  Si  Si4  1  0.00000000  0.00000000  0.00000000  1
  Si  Si5  1  0.00000000  0.50000000  0.50000000  1
  Sc  Sc6  1  0.00000000  0.67536047  0.17536047  1
  Sc  Sc7  1  0.00000000  0.82463953  0.67536047  1
  Sc  Sc8  1  0.00000000  0.17536047  0.32463953  1
  Sc  Sc9  1  0.00000000  0.32463953  0.82463953  1
  Ir  Ir10  1  0.50000000  0.50000000  0.00000000  1
  Ir  Ir11  1  0.50000000  0.00000000  0.50000000  1
  Ir  Ir12  1  0.50000000  0.42984632  0.28772150  1
  Ir  Ir13  1  0.50000000  0.57015368  0.71227850  1
  Ir  Ir14  1  0.50000000  0.28772150  0.57015368  1
  Ir  Ir15  1  0.50000000  0.71227850  0.42984632  1
  Ir  Ir16  1  0.50000000  0.78772150  0.92984632  1
  Ir  Ir17  1  0.50000000  0.07015368  0.78772150  1
  Ir  Ir18  1  0.50000000  0.92984632  0.21227850  1
  Ir  Ir19  1  0.50000000  0.21227850  0.07015368  1
