# generated using pymatgen
data_SmGa4Co
_symmetry_space_group_name_H-M   'P 1'
_cell_length_a   4.12918974
_cell_length_b   6.51772833
_cell_length_c   8.12179416
_cell_angle_alpha   90.00000000
_cell_angle_beta   104.72644045
_cell_angle_gamma   90.00000000
_symmetry_Int_Tables_number   1
_chemical_formula_structural   SmGa4Co
_chemical_formula_sum   'Sm2 Ga8 Co2'
_cell_volume   211.40105705
_cell_formula_units_Z   2
loop_
 _symmetry_equiv_pos_site_id
 _symmetry_equiv_pos_as_xyz
  1  'x, y, z'
loop_
 _atom_site_type_symbol
 _atom_site_label
 _atom_site_symmetry_multiplicity
 _atom_site_fract_x
 _atom_site_fract_y
 _atom_site_fract_z
 _atom_site_occupancy
  Co  Co0  1  0.77717196  0.25000000  0.55434392  1
  Co  Co1  1  0.22282804  0.75000000  0.44565608  1
  Ga  Ga2  1  0.68988777  0.94846190  0.37977554  1
  Ga  Ga3  1  0.31011223  0.05153810  0.62022446  1
  Ga  Ga4  1  0.31011223  0.44846190  0.62022446  1
  Ga  Ga5  1  0.68988777  0.55153810  0.37977554  1
  Ga  Ga6  1  0.92501938  0.25000000  0.85003877  1
  Ga  Ga7  1  0.07498062  0.75000000  0.14996123  1
  Ga  Ga8  1  0.50000000  0.50000000  0.00000000  1
  Ga  Ga9  1  0.50000000  0.00000000  0.00000000  1
  Sm  Sm10  1  0.88256823  0.75000000  0.76513646  1
  Sm  Sm11  1  0.11743177  0.25000000  0.23486354  1
