# generated using pymatgen
data_KBiP2S7
_symmetry_space_group_name_H-M   'P 1'
_cell_length_a   9.23819848
_cell_length_b   9.77734704
_cell_length_c   12.74412392
_cell_angle_alpha   90.00000000
_cell_angle_beta   90.00000000
_cell_angle_gamma   90.42117973
_symmetry_Int_Tables_number   1
_chemical_formula_structural   KBiP2S7
_chemical_formula_sum   'K4 Bi4 P8 S28'
_cell_volume   1151.08281662
_cell_formula_units_Z   4
loop_
 _symmetry_equiv_pos_site_id
 _symmetry_equiv_pos_as_xyz
  1  'x, y, z'
loop_
 _atom_site_type_symbol
 _atom_site_label
 _atom_site_symmetry_multiplicity
 _atom_site_fract_x
 _atom_site_fract_y
 _atom_site_fract_z
 _atom_site_occupancy
  P  P0  1  0.98307900  0.22778812  0.39126585  1
  P  P1  1  0.51692100  0.77221188  0.89126585  1
  P  P2  1  0.01692100  0.77221188  0.60873415  1
  P  P3  1  0.48307900  0.22778812  0.10873415  1
  P  P4  1  0.69796296  0.67915858  0.46582793  1
  P  P5  1  0.80203704  0.32084142  0.96582793  1
  P  P6  1  0.30203704  0.32084142  0.53417207  1
  P  P7  1  0.19796296  0.67915858  0.03417207  1
  S  S8  1  0.15527367  0.65539607  0.18876754  1
  S  S9  1  0.34472633  0.34460393  0.68876754  1
  S  S10  1  0.84472633  0.34460393  0.81123246  1
  S  S11  1  0.65527367  0.65539607  0.31123246  1
  S  S12  1  0.10960658  0.12384371  0.28907591  1
  S  S13  1  0.39039342  0.87615629  0.78907591  1
  S  S14  1  0.89039342  0.87615629  0.71092409  1
  S  S15  1  0.60960658  0.12384371  0.21092409  1
  S  S16  1  0.93023752  0.17401457  0.03136595  1
  S  S17  1  0.56976248  0.82598543  0.53136595  1
  S  S18  1  0.06976248  0.82598543  0.96863405  1
  S  S19  1  0.43023752  0.17401457  0.46863405  1
  S  S20  1  0.43057928  0.41002373  0.17531833  1
  S  S21  1  0.06942072  0.58997627  0.67531833  1
  S  S22  1  0.56942072  0.58997627  0.82468167  1
  S  S23  1  0.93057928  0.41002373  0.32468167  1
  S  S24  1  0.18438864  0.50274767  0.94961487  1
  S  S25  1  0.31561136  0.49725233  0.44961487  1
  S  S26  1  0.81561136  0.49725233  0.05038513  1
  S  S27  1  0.68438864  0.50274767  0.55038513  1
  S  S28  1  0.08277925  0.24878778  0.54251061  1
  S  S29  1  0.41722075  0.75121222  0.04251061  1
  S  S30  1  0.91722075  0.75121222  0.45748939  1
  S  S31  1  0.58277925  0.24878778  0.95748939  1
  S  S32  1  0.29742908  0.13363043  0.05768052  1
  S  S33  1  0.20257092  0.86636957  0.55768052  1
  S  S34  1  0.70257092  0.86636957  0.94231948  1
  S  S35  1  0.79742908  0.13363043  0.44231948  1
  K  K36  1  0.37399418  0.88816163  0.31164936  1
  K  K37  1  0.12600582  0.11183837  0.81164936  1
  K  K38  1  0.62600582  0.11183837  0.68835064  1
  K  K39  1  0.87399418  0.88816163  0.18835064  1
  Bi  Bi40  1  0.62639896  0.34831411  0.36302091  1
  Bi  Bi41  1  0.87360104  0.65168589  0.86302091  1
  Bi  Bi42  1  0.37360104  0.65168589  0.63697909  1
  Bi  Bi43  1  0.12639896  0.34831411  0.13697909  1
