# generated using pymatgen
data_CaH2
_symmetry_space_group_name_H-M   'P 1'
_cell_length_a   3.57168068
_cell_length_b   5.90137342
_cell_length_c   6.77097118
_cell_angle_alpha   90.00000000
_cell_angle_beta   90.00000000
_cell_angle_gamma   90.00000000
_symmetry_Int_Tables_number   1
_chemical_formula_structural   CaH2
_chemical_formula_sum   'Ca4 H8'
_cell_volume   142.71732144
_cell_formula_units_Z   4
loop_
 _symmetry_equiv_pos_site_id
 _symmetry_equiv_pos_as_xyz
  1  'x, y, z'
loop_
 _atom_site_type_symbol
 _atom_site_label
 _atom_site_symmetry_multiplicity
 _atom_site_fract_x
 _atom_site_fract_y
 _atom_site_fract_z
 _atom_site_occupancy
  H  H0  1  0.25000000  0.47414513  0.82292681  1
  H  H1  1  0.75000000  0.52585487  0.17707319  1
  H  H2  1  0.25000000  0.97414513  0.67707319  1
  H  H3  1  0.75000000  0.02585487  0.32292681  1
  H  H4  1  0.75000000  0.64440737  0.57245704  1
  H  H5  1  0.25000000  0.35559263  0.42754296  1
  H  H6  1  0.75000000  0.14440737  0.92754296  1
  H  H7  1  0.25000000  0.85559263  0.07245704  1
  Ca  Ca8  1  0.25000000  0.73934874  0.38969875  1
  Ca  Ca9  1  0.75000000  0.26065126  0.61030125  1
  Ca  Ca10  1  0.25000000  0.23934874  0.11030125  1
  Ca  Ca11  1  0.75000000  0.76065126  0.88969875  1
