# generated using pymatgen
data_Dy3(CuGe)4
_symmetry_space_group_name_H-M   'P 1'
_cell_length_a   4.18958878
_cell_length_b   6.64667307
_cell_length_c   7.98525830
_cell_angle_alpha   114.59589819
_cell_angle_beta   105.20852160
_cell_angle_gamma   90.00000001
_symmetry_Int_Tables_number   1
_chemical_formula_structural   Dy3(CuGe)4
_chemical_formula_sum   'Dy3 Cu4 Ge4'
_cell_volume   193.59040602
_cell_formula_units_Z   1
loop_
 _symmetry_equiv_pos_site_id
 _symmetry_equiv_pos_as_xyz
  1  'x, y, z'
loop_
 _atom_site_type_symbol
 _atom_site_label
 _atom_site_symmetry_multiplicity
 _atom_site_fract_x
 _atom_site_fract_y
 _atom_site_fract_z
 _atom_site_occupancy
  Cu  Cu0  1  0.66894545  0.85860329  0.33789089  1
  Cu  Cu1  1  0.33105455  0.14139671  0.66210911  1
  Cu  Cu2  1  0.66895021  0.47921431  0.33790043  1
  Cu  Cu3  1  0.33104979  0.52078569  0.66209957  1
  Ge  Ge4  1  0.78318243  0.28316672  0.56636487  1
  Ge  Ge5  1  0.50000242  0.80840183  0.00000485  1
  Ge  Ge6  1  0.49999758  0.19159817  0.99999515  1
  Ge  Ge7  1  0.21681757  0.71683328  0.43363513  1
  Dy  Dy8  1  0.86990325  0.86990310  0.73980650  1
  Dy  Dy9  1  0.13009675  0.13009690  0.26019350  1
  Dy  Dy10  1  0.00000000  0.50000000  0.00000000  1
