# generated using pymatgen
data_Ba(InS2)2
_symmetry_space_group_name_H-M   'P 1'
_cell_length_a   12.87890944
_cell_length_b   12.87890943
_cell_length_c   13.00249114
_cell_angle_alpha   105.36476548
_cell_angle_beta   105.36476549
_cell_angle_gamma   117.70948599
_symmetry_Int_Tables_number   1
_chemical_formula_structural   Ba(InS2)2
_chemical_formula_sum   'Ba8 In16 S32'
_cell_volume   1639.76127918
_cell_formula_units_Z   8
loop_
 _symmetry_equiv_pos_site_id
 _symmetry_equiv_pos_as_xyz
  1  'x, y, z'
loop_
 _atom_site_type_symbol
 _atom_site_label
 _atom_site_symmetry_multiplicity
 _atom_site_fract_x
 _atom_site_fract_y
 _atom_site_fract_z
 _atom_site_occupancy
  S  S0  1  0.81208846  0.14936533  0.99720101  1
  S  S1  1  0.15216432  0.31488745  0.50279899  1
  S  S2  1  0.85063467  0.18791154  0.50279899  1
  S  S3  1  0.68511255  0.84783568  0.99720101  1
  S  S4  1  0.18791154  0.85063467  0.00279899  1
  S  S5  1  0.84783568  0.68511255  0.49720101  1
  S  S6  1  0.14936533  0.81208846  0.49720101  1
  S  S7  1  0.31488745  0.15216432  0.00279899  1
  S  S8  1  0.15498734  0.34527090  0.00201286  1
  S  S9  1  0.34325804  0.65297448  0.49798714  1
  S  S10  1  0.65472910  0.84501266  0.49798714  1
  S  S11  1  0.34702552  0.65674196  0.00201286  1
  S  S12  1  0.84501266  0.65472910  0.99798714  1
  S  S13  1  0.65674196  0.34702552  0.50201286  1
  S  S14  1  0.34527090  0.15498734  0.50201286  1
  S  S15  1  0.65297448  0.34325804  0.99798714  1
  S  S16  1  0.58331120  0.08332122  0.66779791  1
  S  S17  1  0.41552331  0.41551328  0.83220209  1
  S  S18  1  0.91667878  0.41668880  0.83220209  1
  S  S19  1  0.58448672  0.58447669  0.66779791  1
  S  S20  1  0.41668880  0.91667878  0.33220209  1
  S  S21  1  0.58447669  0.58448672  0.16779791  1
  S  S22  1  0.08332122  0.58331120  0.16779791  1
  S  S23  1  0.41551328  0.41552331  0.33220209  1
  S  S24  1  0.91536440  0.41522241  0.33283481  1
  S  S25  1  0.08238760  0.08252958  0.16716519  1
  S  S26  1  0.58477759  0.08463560  0.16716519  1
  S  S27  1  0.91747042  0.91761240  0.33283481  1
  S  S28  1  0.08463560  0.58477759  0.66716519  1
  S  S29  1  0.91761240  0.91747042  0.83283481  1
  S  S30  1  0.41522241  0.91536440  0.83283481  1
  S  S31  1  0.08252958  0.08238760  0.66716519  1
  In  In32  1  0.88791181  0.86140244  0.99899370  1
  In  In33  1  0.86240874  0.38891812  0.50100630  1
  In  In34  1  0.13859756  0.11208819  0.50100630  1
  In  In35  1  0.61108188  0.13759126  0.99899370  1
  In  In36  1  0.11208819  0.13859756  0.00100630  1
  In  In37  1  0.13759126  0.61108188  0.49899370  1
  In  In38  1  0.86140244  0.88791181  0.49899370  1
  In  In39  1  0.38891812  0.86240874  0.00100630  1
  In  In40  1  0.53620115  0.64304688  0.99996660  1
  In  In41  1  0.64308028  0.03623455  0.50003340  1
  In  In42  1  0.35695312  0.46379885  0.50003340  1
  In  In43  1  0.96376545  0.35691972  0.99996660  1
  In  In44  1  0.46379885  0.35695312  0.00003340  1
  In  In45  1  0.35691972  0.96376545  0.49996660  1
  In  In46  1  0.64304688  0.53620115  0.49996660  1
  In  In47  1  0.03623455  0.64308028  0.00003340  1
  Ba  Ba48  1  0.87228475  0.62228475  0.24456951  1
  Ba  Ba49  1  0.37771525  0.12771525  0.25543049  1
  Ba  Ba50  1  0.12771525  0.37771525  0.75543049  1
  Ba  Ba51  1  0.62228475  0.87228475  0.74456951  1
  Ba  Ba52  1  0.62500000  0.37500000  0.75000000  1
  Ba  Ba53  1  0.37500000  0.62500000  0.25000000  1
  Ba  Ba54  1  0.12500000  0.87500000  0.75000000  1
  Ba  Ba55  1  0.87500000  0.12500000  0.25000000  1
