# generated using pymatgen
data_K4PbO3
_symmetry_space_group_name_H-M   'P 1'
_cell_length_a   6.66701541
_cell_length_b   11.74599584
_cell_length_c   18.97148086
_cell_angle_alpha   90.00000000
_cell_angle_beta   90.00000000
_cell_angle_gamma   90.00000000
_symmetry_Int_Tables_number   1
_chemical_formula_structural   K4PbO3
_chemical_formula_sum   'K32 Pb8 O24'
_cell_volume   1485.67061533
_cell_formula_units_Z   8
loop_
 _symmetry_equiv_pos_site_id
 _symmetry_equiv_pos_as_xyz
  1  'x, y, z'
loop_
 _atom_site_type_symbol
 _atom_site_label
 _atom_site_symmetry_multiplicity
 _atom_site_fract_x
 _atom_site_fract_y
 _atom_site_fract_z
 _atom_site_occupancy
  O  O0  1  0.95738323  0.35161653  0.56560825  1
  O  O1  1  0.45738323  0.14838347  0.43439175  1
  O  O2  1  0.04261677  0.85161653  0.93439175  1
  O  O3  1  0.54261677  0.64838347  0.06560825  1
  O  O4  1  0.04261677  0.64838347  0.43439175  1
  O  O5  1  0.54261677  0.85161653  0.56560825  1
  O  O6  1  0.95738323  0.14838347  0.06560825  1
  O  O7  1  0.45738323  0.35161653  0.93439175  1
  O  O8  1  0.54269069  0.39362566  0.15725080  1
  O  O9  1  0.04269069  0.10637434  0.84274920  1
  O  O10  1  0.45730931  0.89362566  0.34274920  1
  O  O11  1  0.95730931  0.60637434  0.65725080  1
  O  O12  1  0.45730931  0.60637434  0.84274920  1
  O  O13  1  0.95730931  0.89362566  0.15725080  1
  O  O14  1  0.54269069  0.10637434  0.65725080  1
  O  O15  1  0.04269069  0.39362566  0.34274920  1
  O  O16  1  0.88757273  0.48858954  0.90045265  1
  O  O17  1  0.38757273  0.01141046  0.09954735  1
  O  O18  1  0.11242727  0.98858954  0.59954735  1
  O  O19  1  0.61242727  0.51141046  0.40045265  1
  O  O20  1  0.11242727  0.51141046  0.09954735  1
  O  O21  1  0.61242727  0.98858954  0.90045265  1
  O  O22  1  0.88757273  0.01141046  0.40045265  1
  O  O23  1  0.38757273  0.48858954  0.59954735  1
  K  K24  1  0.94506209  0.38116583  0.20107465  1
  K  K25  1  0.44506209  0.11883417  0.79892535  1
  K  K26  1  0.05493791  0.88116583  0.29892535  1
  K  K27  1  0.55493791  0.61883417  0.70107465  1
  K  K28  1  0.05493791  0.61883417  0.79892535  1
  K  K29  1  0.55493791  0.88116583  0.20107465  1
  K  K30  1  0.94506209  0.11883417  0.70107465  1
  K  K31  1  0.44506209  0.38116583  0.29892535  1
  K  K32  1  0.76494940  0.18783107  0.94319653  1
  K  K33  1  0.26494940  0.31216893  0.05680347  1
  K  K34  1  0.23505060  0.68783107  0.55680347  1
  K  K35  1  0.73505060  0.81216893  0.44319653  1
  K  K36  1  0.23505060  0.81216893  0.05680347  1
  K  K37  1  0.73505060  0.68783107  0.94319653  1
  K  K38  1  0.76494940  0.31216893  0.44319653  1
  K  K39  1  0.26494940  0.18783107  0.55680347  1
  K  K40  1  0.74730076  0.05462598  0.53360560  1
  K  K41  1  0.24730076  0.44537402  0.46639440  1
  K  K42  1  0.25269924  0.55462598  0.96639440  1
  K  K43  1  0.75269924  0.94537402  0.03360560  1
  K  K44  1  0.25269924  0.94537402  0.46639440  1
  K  K45  1  0.75269924  0.55462598  0.53360560  1
  K  K46  1  0.74730076  0.44537402  0.03360560  1
  K  K47  1  0.24730076  0.05462598  0.96639440  1
  K  K48  1  0.62688349  0.17227533  0.14765939  1
  K  K49  1  0.12688349  0.32772467  0.85234061  1
  K  K50  1  0.37311651  0.67227533  0.35234061  1
  K  K51  1  0.87311651  0.82772467  0.64765939  1
  K  K52  1  0.37311651  0.82772467  0.85234061  1
  K  K53  1  0.87311651  0.67227533  0.14765939  1
  K  K54  1  0.62688349  0.32772467  0.64765939  1
  K  K55  1  0.12688349  0.17227533  0.35234061  1
  Pb  Pb56  1  0.61097860  0.06217298  0.34567670  1
  Pb  Pb57  1  0.11097860  0.43782702  0.65432330  1
  Pb  Pb58  1  0.38902140  0.56217298  0.15432330  1
  Pb  Pb59  1  0.88902140  0.93782702  0.84567670  1
  Pb  Pb60  1  0.38902140  0.93782702  0.65432330  1
  Pb  Pb61  1  0.88902140  0.56217298  0.34567670  1
  Pb  Pb62  1  0.61097860  0.43782702  0.84567670  1
  Pb  Pb63  1  0.11097860  0.06217298  0.15432330  1
