# generated using pymatgen
data_DyGeAu
_symmetry_space_group_name_H-M   'P 1'
_cell_length_a   4.48064434
_cell_length_b   4.48064434
_cell_length_c   7.32916360
_cell_angle_alpha   90.00000000
_cell_angle_beta   90.00000000
_cell_angle_gamma   120.00000002
_symmetry_Int_Tables_number   1
_chemical_formula_structural   DyGeAu
_chemical_formula_sum   'Dy2 Ge2 Au2'
_cell_volume   127.42833011
_cell_formula_units_Z   2
loop_
 _symmetry_equiv_pos_site_id
 _symmetry_equiv_pos_as_xyz
  1  'x, y, z'
loop_
 _atom_site_type_symbol
 _atom_site_label
 _atom_site_symmetry_multiplicity
 _atom_site_fract_x
 _atom_site_fract_y
 _atom_site_fract_z
 _atom_site_occupancy
  Ge  Ge0  1  0.66666667  0.33333333  0.05046148  1
  Ge  Ge1  1  0.33333333  0.66666667  0.55046148  1
  Dy  Dy2  1  0.00000000  0.00000000  0.84226372  1
  Dy  Dy3  1  0.00000000  0.00000000  0.34226372  1
  Au  Au4  1  0.66666667  0.33333333  0.63327480  1
  Au  Au5  1  0.33333333  0.66666667  0.13327480  1
