# generated using pymatgen
data_Ce(SO4)2
_symmetry_space_group_name_H-M   'P 1'
_cell_length_a   9.17119226
_cell_length_b   9.57062253
_cell_length_c   13.70778241
_cell_angle_alpha   90.00000000
_cell_angle_beta   90.00000000
_cell_angle_gamma   90.00000000
_symmetry_Int_Tables_number   1
_chemical_formula_structural   Ce(SO4)2
_chemical_formula_sum   'Ce8 S16 O64'
_cell_volume   1203.18715741
_cell_formula_units_Z   8
loop_
 _symmetry_equiv_pos_site_id
 _symmetry_equiv_pos_as_xyz
  1  'x, y, z'
loop_
 _atom_site_type_symbol
 _atom_site_label
 _atom_site_symmetry_multiplicity
 _atom_site_fract_x
 _atom_site_fract_y
 _atom_site_fract_z
 _atom_site_occupancy
  Ce  Ce0  1  0.72007055  0.96244183  0.39681378  1
  Ce  Ce1  1  0.22007055  0.53755817  0.39681378  1
  Ce  Ce2  1  0.77992945  0.46244183  0.60318622  1
  Ce  Ce3  1  0.27992945  0.03755817  0.60318622  1
  Ce  Ce4  1  0.27992945  0.53755817  0.89681378  1
  Ce  Ce5  1  0.77992945  0.96244183  0.89681378  1
  Ce  Ce6  1  0.22007055  0.03755817  0.10318622  1
  Ce  Ce7  1  0.72007055  0.46244183  0.10318622  1
  S  S8  1  0.50065551  0.27854537  0.44417371  1
  S  S9  1  1.00065551  0.22145463  0.44417371  1
  S  S10  1  0.32666165  0.89650378  0.34280707  1
  S  S11  1  0.32666165  0.39650378  0.15719293  1
  S  S12  1  0.67333835  0.10349622  0.65719293  1
  S  S13  1  -0.00065551  0.27854537  0.94417371  1
  S  S14  1  0.82666165  0.10349622  0.15719293  1
  S  S15  1  0.17333835  0.39650378  0.65719293  1
  S  S16  1  0.67333835  0.60349622  0.84280707  1
  S  S17  1  0.50065551  0.77854537  0.05582629  1
  S  S18  1  1.00065551  0.72145463  0.05582629  1
  S  S19  1  0.49934449  0.22145463  0.94417371  1
  S  S20  1  0.82666165  0.60349622  0.34280707  1
  S  S21  1  0.49934449  0.72145463  0.55582629  1
  S  S22  1  -0.00065551  0.77854537  0.55582629  1
  S  S23  1  0.17333835  0.89650378  0.84280707  1
  O  O24  1  0.08396518  0.87636744  0.61792174  1
  O  O25  1  0.21665666  0.93204630  0.94390609  1
  O  O26  1  0.21665666  0.43204630  0.55609391  1
  O  O27  1  0.40356021  0.80901734  0.61732115  1
  O  O28  1  0.91514024  0.36002481  0.01659980  1
  O  O29  1  0.01290185  0.91132387  0.83143170  1
  O  O30  1  0.91603482  0.12363256  0.38207826  1
  O  O31  1  0.90356021  0.19098266  0.88267885  1
  O  O32  1  0.10385518  0.18625328  0.99707465  1
  O  O33  1  0.74762369  0.00886853  0.72715990  1
  O  O34  1  0.28334334  0.93204630  0.44390609  1
  O  O35  1  0.98709815  0.08867613  0.16856830  1
  O  O36  1  0.78148685  0.24968738  0.17916233  1
  O  O37  1  0.78334334  0.06795370  0.05609391  1
  O  O38  1  0.58485976  0.86002481  0.98340020  1
  O  O39  1  0.41514024  0.63997519  0.48340020  1
  O  O40  1  0.28148685  0.75031262  0.32083767  1
  O  O41  1  0.08485976  0.13997519  0.51659980  1
  O  O42  1  0.71851315  0.74968738  0.82083767  1
  O  O43  1  0.48709815  0.91132387  0.33143170  1
  O  O44  1  0.75237631  0.00886853  0.22715990  1
  O  O45  1  0.60385518  0.31374672  0.99707465  1
  O  O46  1  0.78148685  0.74968738  0.32083767  1
  O  O47  1  0.01290185  0.41132387  0.66856830  1
  O  O48  1  0.28148685  0.25031262  0.17916233  1
  O  O49  1  0.91514024  0.86002481  0.48340020  1
  O  O50  1  0.40356021  0.30901734  0.88267885  1
  O  O51  1  0.98709815  0.58867613  0.33143170  1
  O  O52  1  0.41603482  0.37636744  0.38207826  1
  O  O53  1  0.60385518  0.81374672  0.50292535  1
  O  O54  1  0.24762369  0.49113147  0.72715990  1
  O  O55  1  0.39614482  0.68625328  0.00292535  1
  O  O56  1  0.74762369  0.50886853  0.77284010  1
  O  O57  1  0.91603482  0.62363256  0.11792174  1
  O  O58  1  0.21851315  0.25031262  0.67916233  1
  O  O59  1  0.09643979  0.80901734  0.11732115  1
  O  O60  1  0.71851315  0.24968738  0.67916233  1
  O  O61  1  0.21851315  0.75031262  0.82083767  1
  O  O62  1  0.89614482  0.81374672  0.00292535  1
  O  O63  1  0.48709815  0.41132387  0.16856830  1
  O  O64  1  0.51290185  0.58867613  0.83143170  1
  O  O65  1  0.28334334  0.43204630  0.05609391  1
  O  O66  1  0.89614482  0.31374672  0.49707465  1
  O  O67  1  0.58396518  0.12363256  0.88207826  1
  O  O68  1  0.59643979  0.19098266  0.38267885  1
  O  O69  1  0.08485976  0.63997519  0.98340020  1
  O  O70  1  0.78334334  0.56795370  0.44390609  1
  O  O71  1  0.41603482  0.87636744  0.11792174  1
  O  O72  1  0.10385518  0.68625328  0.50292535  1
  O  O73  1  0.25237631  0.49113147  0.22715990  1
  O  O74  1  0.71665666  0.06795370  0.55609391  1
  O  O75  1  0.71665666  0.56795370  0.94390609  1
  O  O76  1  0.51290185  0.08867613  0.66856830  1
  O  O77  1  0.41514024  0.13997519  0.01659980  1
  O  O78  1  0.58396518  0.62363256  0.61792174  1
  O  O79  1  0.59643979  0.69098266  0.11732115  1
  O  O80  1  0.08396518  0.37636744  0.88207826  1
  O  O81  1  0.75237631  0.50886853  0.27284010  1
  O  O82  1  0.90356021  0.69098266  0.61732115  1
  O  O83  1  0.39614482  0.18625328  0.49707465  1
  O  O84  1  0.25237631  0.99113147  0.27284010  1
  O  O85  1  0.24762369  0.99113147  0.77284010  1
  O  O86  1  0.09643979  0.30901734  0.38267885  1
  O  O87  1  0.58485976  0.36002481  0.51659980  1
