# generated using pymatgen
data_La3(OsO5)2
_symmetry_space_group_name_H-M   'P 1'
_cell_length_a   5.64052666
_cell_length_b   5.64052667
_cell_length_c   7.03410518
_cell_angle_alpha   107.64535298
_cell_angle_beta   107.64535299
_cell_angle_gamma   90.47229395
_symmetry_Int_Tables_number   1
_chemical_formula_structural   La3(OsO5)2
_chemical_formula_sum   'La3 Os2 O10'
_cell_volume   201.99160483
_cell_formula_units_Z   1
loop_
 _symmetry_equiv_pos_site_id
 _symmetry_equiv_pos_as_xyz
  1  'x, y, z'
loop_
 _atom_site_type_symbol
 _atom_site_label
 _atom_site_symmetry_multiplicity
 _atom_site_fract_x
 _atom_site_fract_y
 _atom_site_fract_z
 _atom_site_occupancy
  O  O0  1  0.17008239  0.17008239  0.47275536  1
  O  O1  1  0.82991761  0.82991761  0.52724464  1
  O  O2  1  0.40319575  0.40319575  0.28336034  1
  O  O3  1  0.59680425  0.59680425  0.71663966  1
  O  O4  1  0.10122678  0.62327103  0.78906341  1
  O  O5  1  0.14409543  0.14409543  0.89811730  1
  O  O6  1  0.85590457  0.85590457  0.10188270  1
  O  O7  1  0.62327103  0.10122678  0.78906341  1
  O  O8  1  0.89877322  0.37672897  0.21093659  1
  O  O9  1  0.37672897  0.89877322  0.21093659  1
  La  La10  1  0.50000000  0.50000000  0.00000000  1
  La  La11  1  0.75623496  0.24376504  0.50000000  1
  La  La12  1  0.24376504  0.75623496  0.50000000  1
  Os  Os13  1  0.86946626  0.86946626  0.82409233  1
  Os  Os14  1  0.13053374  0.13053374  0.17590767  1
