# generated using pymatgen
data_LiH3O2
_symmetry_space_group_name_H-M   'P 1'
_cell_length_a   3.24693536
_cell_length_b   5.61631605
_cell_length_c   5.61631606
_cell_angle_alpha   95.94516097
_cell_angle_beta   103.97204372
_cell_angle_gamma   103.97204366
_symmetry_Int_Tables_number   1
_chemical_formula_structural   LiH3O2
_chemical_formula_sum   'Li2 H6 O4'
_cell_volume   95.01180704
_cell_formula_units_Z   2
loop_
 _symmetry_equiv_pos_site_id
 _symmetry_equiv_pos_as_xyz
  1  'x, y, z'
loop_
 _atom_site_type_symbol
 _atom_site_label
 _atom_site_symmetry_multiplicity
 _atom_site_fract_x
 _atom_site_fract_y
 _atom_site_fract_z
 _atom_site_occupancy
  H  H0  1  0.86898344  0.01874399  0.75508952  1
  H  H1  1  0.13101656  0.24491048  0.98125601  1
  H  H2  1  0.13101656  0.98125601  0.24491048  1
  H  H3  1  0.34859740  0.73720741  0.73720741  1
  H  H4  1  0.65140260  0.26279259  0.26279259  1
  H  H5  1  0.86898344  0.75508952  0.01874399  1
  Li  Li6  1  0.50000000  0.34587646  0.65412354  1
  Li  Li7  1  0.50000000  0.65412354  0.34587646  1
  O  O8  1  0.62958791  0.71704254  0.71704254  1
  O  O9  1  0.37041209  0.28295746  0.28295746  1
  O  O10  1  0.00000000  0.79280414  0.20719586  1
  O  O11  1  0.00000000  0.20719586  0.79280414  1
