# generated using pymatgen
data_Tl3CoCl5
_symmetry_space_group_name_H-M   'P 1'
_cell_length_a   8.58970642
_cell_length_b   8.58970641
_cell_length_c   9.48574794
_cell_angle_alpha   116.92148343
_cell_angle_beta   116.92148340
_cell_angle_gamma   90.00000002
_symmetry_Int_Tables_number   1
_chemical_formula_structural   Tl3CoCl5
_chemical_formula_sum   'Tl6 Co2 Cl10'
_cell_volume   537.59393007
_cell_formula_units_Z   2
loop_
 _symmetry_equiv_pos_site_id
 _symmetry_equiv_pos_as_xyz
  1  'x, y, z'
loop_
 _atom_site_type_symbol
 _atom_site_label
 _atom_site_symmetry_multiplicity
 _atom_site_fract_x
 _atom_site_fract_y
 _atom_site_fract_z
 _atom_site_occupancy
  Cl  Cl0  1  0.50000000  0.50000000  0.00000000  1
  Cl  Cl1  1  0.00000000  0.00000000  0.00000000  1
  Cl  Cl2  1  0.00874224  0.50874224  0.31183588  1
  Cl  Cl3  1  0.69690636  0.19690636  0.68816412  1
  Cl  Cl4  1  0.99125776  0.49125776  0.68816412  1
  Cl  Cl5  1  0.19690636  0.99125776  0.68816412  1
  Cl  Cl6  1  0.49125776  0.69690636  0.68816412  1
  Cl  Cl7  1  0.80309364  0.00874224  0.31183588  1
  Cl  Cl8  1  0.30309364  0.80309364  0.31183588  1
  Cl  Cl9  1  0.50874224  0.30309364  0.31183588  1
  Co  Co10  1  0.75000000  0.25000000  0.50000000  1
  Co  Co11  1  0.25000000  0.75000000  0.50000000  1
  Tl  Tl12  1  0.75000000  0.75000000  0.50000000  1
  Tl  Tl13  1  0.25000000  0.25000000  0.50000000  1
  Tl  Tl14  1  0.33551138  0.83551138  0.00000000  1
  Tl  Tl15  1  0.16448862  0.33551138  0.00000000  1
  Tl  Tl16  1  0.83551138  0.66448862  0.00000000  1
  Tl  Tl17  1  0.66448862  0.16448862  0.00000000  1
