# generated using pymatgen
data_ZrP2(HO3)2
_symmetry_space_group_name_H-M   'P 1'
_cell_length_a   5.51773381
_cell_length_b   5.51773381
_cell_length_c   5.84426098
_cell_angle_alpha   90.00000000
_cell_angle_beta   90.00000000
_cell_angle_gamma   120.00000005
_symmetry_Int_Tables_number   1
_chemical_formula_structural   ZrP2(HO3)2
_chemical_formula_sum   'Zr1 P2 H2 O6'
_cell_volume   154.09257881
_cell_formula_units_Z   1
loop_
 _symmetry_equiv_pos_site_id
 _symmetry_equiv_pos_as_xyz
  1  'x, y, z'
loop_
 _atom_site_type_symbol
 _atom_site_label
 _atom_site_symmetry_multiplicity
 _atom_site_fract_x
 _atom_site_fract_y
 _atom_site_fract_z
 _atom_site_occupancy
  H  H0  1  0.66666667  0.33333333  0.47760427  1
  H  H1  1  0.33333333  0.66666667  0.52239573  1
  O  O2  1  0.35930191  0.17965095  0.79381144  1
  O  O3  1  0.17965095  0.82034905  0.20618856  1
  O  O4  1  0.17965095  0.35930191  0.20618856  1
  O  O5  1  0.64069809  0.82034905  0.20618856  1
  O  O6  1  0.82034905  0.17965095  0.79381144  1
  O  O7  1  0.82034905  0.64069809  0.79381144  1
  P  P8  1  0.66666667  0.33333333  0.71784205  1
  P  P9  1  0.33333333  0.66666667  0.28215795  1
  Zr  Zr10  1  0.00000000  0.00000000  0.00000000  1
