# generated using pymatgen
data_LiCrNiO4
_symmetry_space_group_name_H-M   'P 1'
_cell_length_a   5.80967795
_cell_length_b   5.84466709
_cell_length_c   5.84574585
_cell_angle_alpha   60.52989003
_cell_angle_beta   60.20518211
_cell_angle_gamma   60.19294597
_symmetry_Int_Tables_number   1
_chemical_formula_structural   LiCrNiO4
_chemical_formula_sum   'Li2 Cr2 Ni2 O8'
_cell_volume   141.33720900
_cell_formula_units_Z   2
loop_
 _symmetry_equiv_pos_site_id
 _symmetry_equiv_pos_as_xyz
  1  'x, y, z'
loop_
 _atom_site_type_symbol
 _atom_site_label
 _atom_site_symmetry_multiplicity
 _atom_site_fract_x
 _atom_site_fract_y
 _atom_site_fract_z
 _atom_site_occupancy
  Li  Li0  1  0.12067649  0.12935125  0.12932135  1
  Li  Li1  1  0.87934177  0.87064786  0.87064871  1
  Cr  Cr2  1  0.50000054  0.00000415  0.49999761  1
  Cr  Cr3  1  0.49999620  0.49998830  0.00000830  1
  Ni  Ni4  1  0.99999680  0.50000411  0.50000273  1
  Ni  Ni5  1  0.49999678  0.50000461  0.50000193  1
  O  O6  1  0.26525382  0.26152747  0.26153769  1
  O  O7  1  0.26237195  0.26931711  0.70706323  1
  O  O8  1  0.26227965  0.70703889  0.26945464  1
  O  O9  1  0.71186002  0.26214367  0.26212856  1
  O  O10  1  0.28813949  0.73785524  0.73787892  1
  O  O11  1  0.73762777  0.73068355  0.29293744  1
  O  O12  1  0.73771744  0.29296498  0.73054689  1
  O  O13  1  0.73473926  0.73847081  0.73847200  1
