# generated using pymatgen
data_NaZn2P2HO8
_symmetry_space_group_name_H-M   'P 1'
_cell_length_a   5.18248673
_cell_length_b   8.73823318
_cell_length_c   8.97027667
_cell_angle_alpha   96.98878667
_cell_angle_beta   100.24835672
_cell_angle_gamma   106.33672002
_symmetry_Int_Tables_number   1
_chemical_formula_structural   NaZn2P2HO8
_chemical_formula_sum   'Na2 Zn4 P4 H2 O16'
_cell_volume   377.20952455
_cell_formula_units_Z   2
loop_
 _symmetry_equiv_pos_site_id
 _symmetry_equiv_pos_as_xyz
  1  'x, y, z'
loop_
 _atom_site_type_symbol
 _atom_site_label
 _atom_site_symmetry_multiplicity
 _atom_site_fract_x
 _atom_site_fract_y
 _atom_site_fract_z
 _atom_site_occupancy
  H  H0  1  0.92199443  0.43085262  0.62143818  1
  H  H1  1  0.07800557  0.56914738  0.37856182  1
  O  O2  1  0.18930124  0.72891310  0.04914360  1
  O  O3  1  0.81069876  0.27108690  0.95085640  1
  O  O4  1  0.72554587  0.61462420  0.12911083  1
  O  O5  1  0.27445413  0.38537580  0.87088917  1
  O  O6  1  0.94023682  0.91068534  0.16353868  1
  O  O7  1  0.05976318  0.08931466  0.83646132  1
  O  O8  1  0.41232858  0.90303847  0.65423586  1
  O  O9  1  0.58767142  0.09696153  0.34576414  1
  O  O10  1  0.86693693  0.38332237  0.32100579  1
  O  O11  1  0.13306307  0.61667763  0.67899421  1
  O  O12  1  0.79793870  0.31533473  0.58048262  1
  O  O13  1  0.20206130  0.68466527  0.41951738  1
  O  O14  1  0.10733007  0.19660590  0.44311493  1
  O  O15  1  0.89266993  0.80339410  0.55688507  1
  O  O16  1  0.27542616  0.26150258  0.10531502  1
  O  O17  1  0.72457384  0.73849742  0.89468498  1
  Na  Na18  1  0.40765225  0.18661216  0.68837431  1
  Na  Na19  1  0.59234775  0.81338784  0.31162569  1
  P  P20  1  0.90726181  0.74921815  0.06039612  1
  P  P21  1  0.84217768  0.24580718  0.41686267  1
  P  P22  1  0.09273819  0.25078185  0.93960388  1
  P  P23  1  0.15782232  0.75419282  0.58313733  1
  Zn  Zn24  1  0.77765347  0.88676738  0.74236136  1
  Zn  Zn25  1  0.22234653  0.11323262  0.25763864  1
  Zn  Zn26  1  0.32394160  0.61759821  0.89236422  1
  Zn  Zn27  1  0.67605840  0.38240179  0.10763578  1
