# generated using pymatgen
data_PCl3O
_symmetry_space_group_name_H-M   'P 1'
_cell_length_a   6.07125292
_cell_length_b   9.90284307
_cell_length_c   9.81334385
_cell_angle_alpha   90.00000000
_cell_angle_beta   90.00000000
_cell_angle_gamma   90.00000000
_symmetry_Int_Tables_number   1
_chemical_formula_structural   PCl3O
_chemical_formula_sum   'P4 Cl12 O4'
_cell_volume   590.00438389
_cell_formula_units_Z   4
loop_
 _symmetry_equiv_pos_site_id
 _symmetry_equiv_pos_as_xyz
  1  'x, y, z'
loop_
 _atom_site_type_symbol
 _atom_site_label
 _atom_site_symmetry_multiplicity
 _atom_site_fract_x
 _atom_site_fract_y
 _atom_site_fract_z
 _atom_site_occupancy
  O  O0  1  0.01778301  0.31381979  0.23789053  1
  O  O1  1  0.98221699  0.68618021  0.73789053  1
  O  O2  1  0.48221699  0.81381979  0.23789053  1
  O  O3  1  0.51778301  0.18618021  0.73789053  1
  P  P4  1  0.12671332  0.18106361  0.24237233  1
  P  P5  1  0.87328668  0.81893639  0.74237233  1
  P  P6  1  0.37328668  0.68106361  0.24237233  1
  P  P7  1  0.62671332  0.31893639  0.74237233  1
  Cl  Cl8  1  0.82353308  0.35627042  0.58234646  1
  Cl  Cl9  1  0.17646692  0.64372958  0.08234646  1
  Cl  Cl10  1  0.67646692  0.85627042  0.58234646  1
  Cl  Cl11  1  0.32353308  0.14372958  0.08234646  1
  Cl  Cl12  1  0.91824363  0.02381614  0.24638053  1
  Cl  Cl13  1  0.08175637  0.97618386  0.74638053  1
  Cl  Cl14  1  0.58175637  0.52381614  0.24638053  1
  Cl  Cl15  1  0.41824363  0.47618386  0.74638053  1
  Cl  Cl16  1  0.32055097  0.15339092  0.40581015  1
  Cl  Cl17  1  0.67944903  0.84660908  0.90581015  1
  Cl  Cl18  1  0.17944903  0.65339092  0.40581015  1
  Cl  Cl19  1  0.82055097  0.34660908  0.90581015  1
