# generated using pymatgen
data_BaH6Cl2O11
_symmetry_space_group_name_H-M   'P 1'
_cell_length_a   7.43277395
_cell_length_b   7.43277395
_cell_length_c   9.81676847
_cell_angle_alpha   90.00000000
_cell_angle_beta   90.00000000
_cell_angle_gamma   120.00000005
_symmetry_Int_Tables_number   1
_chemical_formula_structural   BaH6Cl2O11
_chemical_formula_sum   'Ba2 H12 Cl4 O22'
_cell_volume   469.67887787
_cell_formula_units_Z   2
loop_
 _symmetry_equiv_pos_site_id
 _symmetry_equiv_pos_as_xyz
  1  'x, y, z'
loop_
 _atom_site_type_symbol
 _atom_site_label
 _atom_site_symmetry_multiplicity
 _atom_site_fract_x
 _atom_site_fract_y
 _atom_site_fract_z
 _atom_site_occupancy
  H  H0  1  0.72639863  0.69377484  0.75000000  1
  H  H1  1  0.03262379  0.72639863  0.25000000  1
  H  H2  1  0.69377484  0.96737621  0.25000000  1
  H  H3  1  0.30622516  0.03262379  0.75000000  1
  H  H4  1  0.96737621  0.27360137  0.75000000  1
  H  H5  1  0.27360137  0.30622516  0.25000000  1
  H  H6  1  0.81371288  0.20779901  0.25000000  1
  H  H7  1  0.18628712  0.79220099  0.75000000  1
  H  H8  1  0.20779901  0.39408613  0.75000000  1
  H  H9  1  0.39408613  0.18628712  0.25000000  1
  H  H10  1  0.60591387  0.81371288  0.75000000  1
  H  H11  1  0.79220099  0.60591387  0.25000000  1
  O  O12  1  0.73182106  0.18934405  0.58390923  1
  O  O13  1  0.54247701  0.73182106  0.08390923  1
  O  O14  1  0.26817894  0.81065595  0.08390923  1
  O  O15  1  0.81065595  0.54247701  0.58390923  1
  O  O16  1  0.45752299  0.26817894  0.58390923  1
  O  O17  1  0.26817894  0.81065595  0.41609077  1
  O  O18  1  0.54247701  0.73182106  0.41609077  1
  O  O19  1  0.45752299  0.26817894  0.91609077  1
  O  O20  1  0.73182106  0.18934405  0.91609077  1
  O  O21  1  0.18934405  0.45752299  0.41609077  1
  O  O22  1  0.25319553  0.16542162  0.25000000  1
  O  O23  1  0.08777392  0.25319553  0.75000000  1
  O  O24  1  0.16542162  0.91222608  0.75000000  1
  O  O25  1  0.83457838  0.08777392  0.25000000  1
  O  O26  1  0.91222608  0.74680447  0.25000000  1
  O  O27  1  0.74680447  0.83457838  0.75000000  1
  O  O28  1  0.33333333  0.66666667  0.61472441  1
  O  O29  1  0.66666667  0.33333333  0.11472441  1
  O  O30  1  0.66666667  0.33333333  0.38527559  1
  O  O31  1  0.33333333  0.66666667  0.88527559  1
  O  O32  1  0.81065595  0.54247701  0.91609077  1
  O  O33  1  0.18934405  0.45752299  0.08390923  1
  Cl  Cl34  1  0.33333333  0.66666667  0.46619830  1
  Cl  Cl35  1  0.66666667  0.33333333  0.96619830  1
  Cl  Cl36  1  0.66666667  0.33333333  0.53380170  1
  Cl  Cl37  1  0.33333333  0.66666667  0.03380170  1
  Ba  Ba38  1  0.00000000  0.00000000  0.50000000  1
  Ba  Ba39  1  0.00000000  0.00000000  0.00000000  1
