# generated using pymatgen
data_B(HO)3
_symmetry_space_group_name_H-M   'P 1'
_cell_length_a   6.88106491
_cell_length_b   6.96595044
_cell_length_c   6.97554270
_cell_angle_alpha   119.98792647
_cell_angle_beta   92.46155629
_cell_angle_gamma   100.48816110
_symmetry_Int_Tables_number   1
_chemical_formula_structural   B(HO)3
_chemical_formula_sum   'B4 H12 O12'
_cell_volume   281.21761114
_cell_formula_units_Z   4
loop_
 _symmetry_equiv_pos_site_id
 _symmetry_equiv_pos_as_xyz
  1  'x, y, z'
loop_
 _atom_site_type_symbol
 _atom_site_label
 _atom_site_symmetry_multiplicity
 _atom_site_fract_x
 _atom_site_fract_y
 _atom_site_fract_z
 _atom_site_occupancy
  H  H0  1  0.75770907  0.73126194  0.97617133  1
  H  H1  1  0.25529753  0.33820184  0.38405714  1
  H  H2  1  0.74470247  0.66179816  0.61594286  1
  H  H3  1  0.24847337  0.68592035  0.15791316  1
  H  H4  1  0.24229093  0.26873806  0.02382867  1
  H  H5  1  0.75371895  0.95582098  0.54998122  1
  H  H6  1  0.24628105  0.04417902  0.45001878  1
  H  H7  1  0.74476239  0.37844923  0.19915985  1
  H  H8  1  0.25523761  0.62155077  0.80084015  1
  H  H9  1  0.74884015  0.08755409  0.26733181  1
  H  H10  1  0.25115985  0.91244591  0.73266819  1
  H  H11  1  0.75152663  0.31407965  0.84208684  1
  B  B12  1  0.75678834  0.68983369  0.24239641  1
  B  B13  1  0.24321166  0.31016631  0.75760359  1
  B  B14  1  0.25644881  0.64691481  0.42618359  1
  B  B15  1  0.74355119  0.35308519  0.57381641  1
  O  O16  1  0.76412196  0.81891601  0.14331343  1
  O  O17  1  0.75347447  0.78928908  0.46935472  1
  O  O18  1  0.24652553  0.21071092  0.53064528  1
  O  O19  1  0.75136118  0.46062711  0.11447904  1
  O  O20  1  0.24863882  0.53937289  0.88552096  1
  O  O21  1  0.74048680  0.25152863  0.34597908  1
  O  O22  1  0.25951320  0.74847137  0.65402092  1
  O  O23  1  0.74973232  0.22756087  0.67557210  1
  O  O24  1  0.25026768  0.77243913  0.32442790  1
  O  O25  1  0.74194375  0.58031338  0.70097371  1
  O  O26  1  0.25805625  0.41968662  0.29902629  1
  O  O27  1  0.23587804  0.18108399  0.85668657  1
