# generated using pymatgen
data_GdH12(ClO2)3
_symmetry_space_group_name_H-M   'P 1'
_cell_length_a   6.59862425
_cell_length_b   7.91967397
_cell_length_c   9.68469677
_cell_angle_alpha   93.03870514
_cell_angle_beta   90.00000000
_cell_angle_gamma   90.00000000
_symmetry_Int_Tables_number   1
_chemical_formula_structural   GdH12(ClO2)3
_chemical_formula_sum   'Gd2 H24 Cl6 O12'
_cell_volume   505.40049284
_cell_formula_units_Z   2
loop_
 _symmetry_equiv_pos_site_id
 _symmetry_equiv_pos_as_xyz
  1  'x, y, z'
loop_
 _atom_site_type_symbol
 _atom_site_label
 _atom_site_symmetry_multiplicity
 _atom_site_fract_x
 _atom_site_fract_y
 _atom_site_fract_z
 _atom_site_occupancy
  H  H0  1  0.75175714  0.49156831  0.96467176  1
  H  H1  1  0.75175714  0.00843169  0.53532824  1
  H  H2  1  0.24824286  0.50843169  0.03532824  1
  H  H3  1  0.24824286  0.99156831  0.46467176  1
  H  H4  1  0.67135506  0.66200782  0.03342063  1
  H  H5  1  0.67135506  0.83799218  0.46657937  1
  H  H6  1  0.32864494  0.33799218  0.96657937  1
  H  H7  1  0.32864494  0.16200782  0.53342063  1
  H  H8  1  0.44783654  0.64716112  0.61508958  1
  H  H9  1  0.44783654  0.85283888  0.88491042  1
  H  H10  1  0.55216346  0.35283888  0.38491042  1
  H  H11  1  0.55216346  0.14716112  0.11508958  1
  H  H12  1  0.52509004  0.48176072  0.68160098  1
  H  H13  1  0.52509004  0.01823928  0.81839902  1
  H  H14  1  0.47490996  0.51823928  0.31839902  1
  H  H15  1  0.47490996  0.98176072  0.18160098  1
  H  H16  1  0.90512981  0.11041710  0.87032993  1
  H  H17  1  0.90512981  0.38958290  0.62967007  1
  H  H18  1  0.09487019  0.88958290  0.12967007  1
  H  H19  1  0.09487019  0.61041710  0.37032993  1
  H  H20  1  0.91513914  0.58803817  0.26468713  1
  H  H21  1  0.91513914  0.91196183  0.23531287  1
  H  H22  1  0.08486086  0.41196183  0.73531287  1
  H  H23  1  0.08486086  0.08803817  0.76468713  1
  O  O24  1  0.70615443  0.60628079  0.94276819  1
  O  O25  1  0.70615443  0.89371921  0.55723181  1
  O  O26  1  0.29384557  0.39371921  0.05723181  1
  O  O27  1  0.29384557  0.10628079  0.44276819  1
  O  O28  1  0.57233126  0.58942081  0.64575147  1
  O  O29  1  0.57233126  0.91057919  0.85424853  1
  O  O30  1  0.42766874  0.41057919  0.35424853  1
  O  O31  1  0.42766874  0.08942081  0.14575147  1
  O  O32  1  0.94918421  0.04381153  0.78584198  1
  O  O33  1  0.94918421  0.45618847  0.71415802  1
  O  O34  1  0.05081579  0.95618847  0.21415802  1
  O  O35  1  0.05081579  0.54381153  0.28584198  1
  Cl  Cl36  1  0.16798900  0.75828492  0.55728198  1
  Cl  Cl37  1  0.16798900  0.74171508  0.94271802  1
  Cl  Cl38  1  0.83201100  0.24171508  0.44271802  1
  Cl  Cl39  1  0.83201100  0.25828492  0.05728198  1
  Cl  Cl40  1  0.63419485  0.75000000  0.25000000  1
  Cl  Cl41  1  0.36580515  0.25000000  0.75000000  1
  Gd  Gd42  1  0.84665627  0.75000000  0.75000000  1
  Gd  Gd43  1  0.15334373  0.25000000  0.25000000  1
