# generated using pymatgen
data_Na3H(SO4)2
_symmetry_space_group_name_H-M   'P 1'
_cell_length_a   8.76019215
_cell_length_b   9.24518608
_cell_length_c   9.78555898
_cell_angle_alpha   90.00000000
_cell_angle_beta   90.00000000
_cell_angle_gamma   108.54570536
_symmetry_Int_Tables_number   1
_chemical_formula_structural   Na3H(SO4)2
_chemical_formula_sum   'Na12 H4 S8 O32'
_cell_volume   751.37274949
_cell_formula_units_Z   4
loop_
 _symmetry_equiv_pos_site_id
 _symmetry_equiv_pos_as_xyz
  1  'x, y, z'
loop_
 _atom_site_type_symbol
 _atom_site_label
 _atom_site_symmetry_multiplicity
 _atom_site_fract_x
 _atom_site_fract_y
 _atom_site_fract_z
 _atom_site_occupancy
  H  H0  1  0.39536809  0.38280249  0.26354803  1
  H  H1  1  0.60463191  0.11719751  0.76354803  1
  H  H2  1  0.60463191  0.61719751  0.73645197  1
  H  H3  1  0.39536809  0.88280249  0.23645197  1
  O  O4  1  0.03615519  0.27617905  0.09361315  1
  O  O5  1  0.96384481  0.22382095  0.59361315  1
  O  O6  1  0.96384481  0.72382095  0.90638685  1
  O  O7  1  0.03615519  0.77617905  0.40638685  1
  O  O8  1  0.31037903  0.41675906  0.16372716  1
  O  O9  1  0.68962097  0.08324094  0.66372716  1
  O  O10  1  0.68962097  0.58324094  0.83627284  1
  O  O11  1  0.31037903  0.91675906  0.33627284  1
  O  O12  1  0.11502396  0.54972763  0.13449057  1
  O  O13  1  0.88497604  0.95027237  0.63449057  1
  O  O14  1  0.88497604  0.45027237  0.86550943  1
  O  O15  1  0.11502396  0.04972763  0.36550943  1
  O  O16  1  0.09005577  0.37349722  0.32646881  1
  O  O17  1  0.90994423  0.12650278  0.82646881  1
  O  O18  1  0.90994423  0.62650278  0.67353119  1
  O  O19  1  0.09005577  0.87349722  0.17353119  1
  O  O20  1  0.46621170  0.85551821  0.15179293  1
  O  O21  1  0.53378830  0.64448179  0.65179293  1
  O  O22  1  0.53378830  0.14448179  0.84820707  1
  O  O23  1  0.46621170  0.35551821  0.34820707  1
  O  O24  1  0.75415754  0.99226419  0.12470655  1
  O  O25  1  0.24584246  0.50773581  0.62470655  1
  O  O26  1  0.24584246  0.00773581  0.87529345  1
  O  O27  1  0.75415754  0.49226419  0.37529345  1
  O  O28  1  0.65388805  0.87381848  0.34251973  1
  O  O29  1  0.34611195  0.62618152  0.84251973  1
  O  O30  1  0.34611195  0.12618152  0.65748027  1
  O  O31  1  0.65388805  0.37381848  0.15748027  1
  O  O32  1  0.65732059  0.71471512  0.14239405  1
  O  O33  1  0.34267941  0.78528488  0.64239405  1
  O  O34  1  0.34267941  0.28528488  0.85760595  1
  O  O35  1  0.65732059  0.21471512  0.35760595  1
  Na  Na36  1  0.00000000  0.50000000  0.50000000  1
  Na  Na37  1  0.00000000  0.00000000  0.00000000  1
  Na  Na38  1  0.50000000  0.50000000  0.00000000  1
  Na  Na39  1  0.50000000  0.00000000  0.50000000  1
  Na  Na40  1  0.88672279  0.62833634  0.15603137  1
  Na  Na41  1  0.11327721  0.87166366  0.65603137  1
  Na  Na42  1  0.11327721  0.37166366  0.84396863  1
  Na  Na43  1  0.88672279  0.12833634  0.34396863  1
  Na  Na44  1  0.75942825  0.72497252  0.49567526  1
  Na  Na45  1  0.24057175  0.77502748  0.99567526  1
  Na  Na46  1  0.24057175  0.27502748  0.50432474  1
  Na  Na47  1  0.75942825  0.22497252  0.00432474  1
  S  S48  1  0.13478736  0.40454852  0.18006517  1
  S  S49  1  0.86521264  0.09545148  0.68006517  1
  S  S50  1  0.86521264  0.59545148  0.81993483  1
  S  S51  1  0.13478736  0.90454852  0.31993483  1
  S  S52  1  0.63915007  0.35799195  0.30836788  1
  S  S53  1  0.36084993  0.14200805  0.80836788  1
  S  S54  1  0.36084993  0.64200805  0.69163212  1
  S  S55  1  0.63915007  0.85799195  0.19163212  1
