# generated using pymatgen
data_Hg3As2F12
_symmetry_space_group_name_H-M   'P 1'
_cell_length_a   6.11801194
_cell_length_b   8.78142084
_cell_length_c   11.56345283
_cell_angle_alpha   90.00000000
_cell_angle_beta   92.34326669
_cell_angle_gamma   90.00000000
_symmetry_Int_Tables_number   1
_chemical_formula_structural   Hg3As2F12
_chemical_formula_sum   'Hg6 As4 F24'
_cell_volume   620.72514352
_cell_formula_units_Z   2
loop_
 _symmetry_equiv_pos_site_id
 _symmetry_equiv_pos_as_xyz
  1  'x, y, z'
loop_
 _atom_site_type_symbol
 _atom_site_label
 _atom_site_symmetry_multiplicity
 _atom_site_fract_x
 _atom_site_fract_y
 _atom_site_fract_z
 _atom_site_occupancy
  F  F0  1  0.42465496  0.03244751  0.62116173  1
  F  F1  1  0.57534504  0.53244751  0.87883827  1
  F  F2  1  0.57534504  0.96755249  0.37883827  1
  F  F3  1  0.42465496  0.46755249  0.12116173  1
  F  F4  1  0.56684194  0.78631797  0.70170423  1
  F  F5  1  0.43315806  0.28631797  0.79829577  1
  F  F6  1  0.43315806  0.21368203  0.29829577  1
  F  F7  1  0.56684194  0.71368203  0.20170423  1
  F  F8  1  0.30130381  0.93652389  0.81384736  1
  F  F9  1  0.69869619  0.43652389  0.68615264  1
  F  F10  1  0.17587190  0.80990580  0.22032888  1
  F  F11  1  0.82412810  0.30990580  0.27967112  1
  F  F12  1  0.82412810  0.19009420  0.77967112  1
  F  F13  1  0.17587190  0.69009420  0.72032888  1
  F  F14  1  0.30884943  0.71788806  0.02999491  1
  F  F15  1  0.69115057  0.21788806  0.47000509  1
  F  F16  1  0.69115057  0.28211194  0.97000509  1
  F  F17  1  0.30884943  0.78211194  0.52999491  1
  F  F18  1  0.04156814  0.55896114  0.13840837  1
  F  F19  1  0.95843186  0.05896114  0.36159163  1
  F  F20  1  0.95843186  0.44103886  0.86159163  1
  F  F21  1  0.04156814  0.94103886  0.63840837  1
  F  F22  1  0.30130381  0.56347611  0.31384736  1
  F  F23  1  0.69869619  0.06347611  0.18615264  1
  As  As24  1  0.29948772  0.85850230  0.67224682  1
  As  As25  1  0.70051228  0.35850230  0.82775318  1
  As  As26  1  0.70051228  0.14149770  0.32775318  1
  As  As27  1  0.29948772  0.64149770  0.17224682  1
  Hg  Hg28  1  0.23887887  0.26470891  0.57025640  1
  Hg  Hg29  1  0.76112113  0.76470891  0.92974360  1
  Hg  Hg30  1  0.76112113  0.73529109  0.42974360  1
  Hg  Hg31  1  0.23887887  0.23529109  0.07025640  1
  Hg  Hg32  1  0.00000000  0.50000000  0.50000000  1
  Hg  Hg33  1  0.00000000  0.00000000  0.00000000  1
