# generated using pymatgen
data_Ca3PI3
_symmetry_space_group_name_H-M   'P 1'
_cell_length_a   10.77558042
_cell_length_b   10.77558042
_cell_length_c   10.77558042
_cell_angle_alpha   109.47122063
_cell_angle_beta   109.47122063
_cell_angle_gamma   109.47122066
_symmetry_Int_Tables_number   1
_chemical_formula_structural   Ca3PI3
_chemical_formula_sum   'Ca12 P4 I12'
_cell_volume   963.16374502
_cell_formula_units_Z   4
loop_
 _symmetry_equiv_pos_site_id
 _symmetry_equiv_pos_as_xyz
  1  'x, y, z'
loop_
 _atom_site_type_symbol
 _atom_site_label
 _atom_site_symmetry_multiplicity
 _atom_site_fract_x
 _atom_site_fract_y
 _atom_site_fract_z
 _atom_site_occupancy
  P  P0  1  0.25000000  0.25000000  0.25000000  1
  P  P1  1  0.25000000  0.50000000  0.00000000  1
  P  P2  1  0.00000000  0.25000000  0.50000000  1
  P  P3  1  0.50000000  0.00000000  0.25000000  1
  Ca  Ca4  1  0.01853150  0.03706299  0.26853150  1
  Ca  Ca5  1  0.01853150  0.48146850  0.75000000  1
  Ca  Ca6  1  0.26853150  0.75000000  0.23146850  1
  Ca  Ca7  1  0.26853150  0.01853150  0.03706299  1
  Ca  Ca8  1  0.75000000  0.01853150  0.48146850  1
  Ca  Ca9  1  0.75000000  0.23146850  0.26853150  1
  Ca  Ca10  1  0.23146850  0.26853150  0.75000000  1
  Ca  Ca11  1  0.48146850  0.23146850  0.46293701  1
  Ca  Ca12  1  0.23146850  0.46293701  0.48146850  1
  Ca  Ca13  1  0.48146850  0.75000000  0.01853150  1
  Ca  Ca14  1  0.03706299  0.26853150  0.01853150  1
  Ca  Ca15  1  0.46293701  0.48146850  0.23146850  1
  I  I16  1  0.25000000  0.75264170  0.74735830  1
  I  I17  1  0.50264170  0.25000000  0.99735830  1
  I  I18  1  0.75264170  0.50528341  0.50264170  1
  I  I19  1  0.74735830  0.99735830  0.99471659  1
  I  I20  1  0.99471659  0.74735830  0.99735830  1
  I  I21  1  0.50528341  0.50264170  0.75264170  1
  I  I22  1  0.50264170  0.75264170  0.50528341  1
  I  I23  1  0.75264170  0.74735830  0.25000000  1
  I  I24  1  0.74735830  0.25000000  0.75264170  1
  I  I25  1  0.99735830  0.99471659  0.74735830  1
  I  I26  1  0.25000000  0.99735830  0.50264170  1
  I  I27  1  0.99735830  0.50264170  0.25000000  1
