# generated using pymatgen
data_LiB2SbO5
_symmetry_space_group_name_H-M   'P 1'
_cell_length_a   7.44964014
_cell_length_b   7.44964014
_cell_length_c   10.14781072
_cell_angle_alpha   71.07528672
_cell_angle_beta   108.92471328
_cell_angle_gamma   86.60313031
_symmetry_Int_Tables_number   1
_chemical_formula_structural   LiB2SbO5
_chemical_formula_sum   'Li4 B8 Sb4 O20'
_cell_volume   495.35352479
_cell_formula_units_Z   4
loop_
 _symmetry_equiv_pos_site_id
 _symmetry_equiv_pos_as_xyz
  1  'x, y, z'
loop_
 _atom_site_type_symbol
 _atom_site_label
 _atom_site_symmetry_multiplicity
 _atom_site_fract_x
 _atom_site_fract_y
 _atom_site_fract_z
 _atom_site_occupancy
  Li  Li0  1  0.13629871  0.13629871  0.75000000  1
  Li  Li1  1  0.62200880  0.62200880  0.75000000  1
  Li  Li2  1  0.37799120  0.37799120  0.25000000  1
  Li  Li3  1  0.86370129  0.86370129  0.25000000  1
  B  B4  1  0.20265718  0.74546892  0.89467405  1
  B  B5  1  0.26407135  0.37794256  0.98930566  1
  B  B6  1  0.25453108  0.79734282  0.39467405  1
  B  B7  1  0.62205744  0.73592865  0.48930566  1
  B  B8  1  0.37794256  0.26407135  0.51069434  1
  B  B9  1  0.74546892  0.20265718  0.60532595  1
  B  B10  1  0.73592865  0.62205744  0.01069434  1
  B  B11  1  0.79734282  0.25453108  0.10532595  1
  Sb  Sb12  1  0.06013693  0.59224603  0.63820383  1
  Sb  Sb13  1  0.40775397  0.93986307  0.13820383  1
  Sb  Sb14  1  0.59224603  0.06013693  0.86179617  1
  Sb  Sb15  1  0.93986307  0.40775397  0.36179617  1
  O  O16  1  0.20882925  0.90447628  0.93172464  1
  O  O17  1  0.14514373  0.77169216  0.74418814  1
  O  O18  1  0.09552372  0.79117075  0.43172464  1
  O  O19  1  0.19555025  0.35482423  0.85579303  1
  O  O20  1  0.65469269  0.77561323  0.87444424  1
  O  O21  1  0.22830784  0.85485627  0.24418814  1
  O  O22  1  0.44206723  0.73729239  0.50863361  1
  O  O23  1  0.73729239  0.44206723  0.99136639  1
  O  O24  1  0.64517577  0.80444975  0.35579303  1
  O  O25  1  0.22438677  0.34530731  0.37444424  1
  O  O26  1  0.77561323  0.65469269  0.62555576  1
  O  O27  1  0.35482423  0.19555025  0.64420697  1
  O  O28  1  0.26270761  0.55793277  0.00863361  1
  O  O29  1  0.55793277  0.26270761  0.49136639  1
  O  O30  1  0.77169216  0.14514373  0.75581186  1
  O  O31  1  0.34530731  0.22438677  0.12555576  1
  O  O32  1  0.80444975  0.64517577  0.14420697  1
  O  O33  1  0.90447628  0.20882925  0.56827536  1
  O  O34  1  0.85485627  0.22830784  0.25581186  1
  O  O35  1  0.79117075  0.09552372  0.06827536  1
