# generated using pymatgen
data_H4CN2O
_symmetry_space_group_name_H-M   'P 1'
_cell_length_a   4.70584376
_cell_length_b   5.64448788
_cell_length_c   5.64448788
_cell_angle_alpha   90.00000000
_cell_angle_beta   90.00000000
_cell_angle_gamma   90.00000000
_symmetry_Int_Tables_number   1
_chemical_formula_structural   H4CN2O
_chemical_formula_sum   'H8 C2 N4 O2'
_cell_volume   149.92932773
_cell_formula_units_Z   2
loop_
 _symmetry_equiv_pos_site_id
 _symmetry_equiv_pos_as_xyz
  1  'x, y, z'
loop_
 _atom_site_type_symbol
 _atom_site_label
 _atom_site_symmetry_multiplicity
 _atom_site_fract_x
 _atom_site_fract_y
 _atom_site_fract_z
 _atom_site_occupancy
  H  H0  1  0.96153542  0.85724282  0.35724282  1
  H  H1  1  0.03846458  0.35724282  0.14275718  1
  H  H2  1  0.03846458  0.64275718  0.85724282  1
  H  H3  1  0.96153542  0.14275718  0.64275718  1
  H  H4  1  0.28179606  0.25680963  0.75680963  1
  H  H5  1  0.71820394  0.24319037  0.25680963  1
  H  H6  1  0.71820394  0.75680963  0.74319037  1
  H  H7  1  0.28179606  0.74319037  0.24319037  1
  C  C8  1  0.67264850  0.50000000  0.00000000  1
  C  C9  1  0.32735150  0.00000000  0.50000000  1
  N  N10  1  0.82194666  0.35538589  0.14461411  1
  N  N11  1  0.17805334  0.14461411  0.64461411  1
  N  N12  1  0.82194666  0.64461411  0.85538589  1
  N  N13  1  0.17805334  0.85538589  0.35538589  1
  O  O14  1  0.59872292  0.00000000  0.50000000  1
  O  O15  1  0.40127708  0.50000000  0.00000000  1
