# generated using pymatgen
data_CsAlCl4
_symmetry_space_group_name_H-M   'P 1'
_cell_length_a   7.31213851
_cell_length_b   9.67774812
_cell_length_c   11.94691917
_cell_angle_alpha   90.00000000
_cell_angle_beta   90.00000000
_cell_angle_gamma   90.00000000
_symmetry_Int_Tables_number   1
_chemical_formula_structural   CsAlCl4
_chemical_formula_sum   'Cs4 Al4 Cl16'
_cell_volume   845.42414984
_cell_formula_units_Z   4
loop_
 _symmetry_equiv_pos_site_id
 _symmetry_equiv_pos_as_xyz
  1  'x, y, z'
loop_
 _atom_site_type_symbol
 _atom_site_label
 _atom_site_symmetry_multiplicity
 _atom_site_fract_x
 _atom_site_fract_y
 _atom_site_fract_z
 _atom_site_occupancy
  Al  Al0  1  0.25000000  0.69428765  0.57180399  1
  Al  Al1  1  0.75000000  0.30571235  0.42819601  1
  Al  Al2  1  0.75000000  0.19428765  0.92819601  1
  Al  Al3  1  0.25000000  0.80571235  0.07180399  1
  Cl  Cl4  1  0.25000000  0.55112959  0.71006265  1
  Cl  Cl5  1  0.75000000  0.44887041  0.28993735  1
  Cl  Cl6  1  0.75000000  0.05112959  0.78993735  1
  Cl  Cl7  1  0.25000000  0.94887041  0.21006265  1
  Cl  Cl8  1  0.25000000  0.59160747  0.41248211  1
  Cl  Cl9  1  0.75000000  0.40839253  0.58751789  1
  Cl  Cl10  1  0.75000000  0.09160747  0.08751789  1
  Cl  Cl11  1  0.25000000  0.90839253  0.91248211  1
  Cl  Cl12  1  0.01100344  0.82579120  0.58523217  1
  Cl  Cl13  1  0.51100344  0.17420880  0.41476783  1
  Cl  Cl14  1  0.98899656  0.32579120  0.91476783  1
  Cl  Cl15  1  0.48899656  0.67420880  0.08523217  1
  Cl  Cl16  1  0.98899656  0.17420880  0.41476783  1
  Cl  Cl17  1  0.48899656  0.82579120  0.58523217  1
  Cl  Cl18  1  0.01100344  0.67420880  0.08523217  1
  Cl  Cl19  1  0.51100344  0.32579120  0.91476783  1
  Cs  Cs20  1  0.25000000  0.16526388  0.67974330  1
  Cs  Cs21  1  0.75000000  0.83473612  0.32025670  1
  Cs  Cs22  1  0.75000000  0.66526388  0.82025670  1
  Cs  Cs23  1  0.25000000  0.33473612  0.17974330  1
