# generated using pymatgen
data_Tl8Ge5O14
_symmetry_space_group_name_H-M   'P 1'
_cell_length_a   9.76916508
_cell_length_b   9.76916483
_cell_length_c   14.87771749
_cell_angle_alpha   70.87333766
_cell_angle_beta   70.87333692
_cell_angle_gamma   60.02565455
_symmetry_Int_Tables_number   1
_chemical_formula_structural   Tl8Ge5O14
_chemical_formula_sum   'Tl16 Ge10 O28'
_cell_volume   1138.51319784
_cell_formula_units_Z   2
loop_
 _symmetry_equiv_pos_site_id
 _symmetry_equiv_pos_as_xyz
  1  'x, y, z'
loop_
 _atom_site_type_symbol
 _atom_site_label
 _atom_site_symmetry_multiplicity
 _atom_site_fract_x
 _atom_site_fract_y
 _atom_site_fract_z
 _atom_site_occupancy
  Tl  Tl0  1  0.15964954  0.82312444  0.39644631  1
  Tl  Tl1  1  0.17687556  0.84035046  0.10355369  1
  Tl  Tl2  1  0.84035046  0.17687556  0.60355369  1
  Tl  Tl3  1  0.82312444  0.15964954  0.89644631  1
  Tl  Tl4  1  0.34050760  0.37941141  0.10301989  1
  Tl  Tl5  1  0.62058859  0.65949240  0.39698011  1
  Tl  Tl6  1  0.65949240  0.62058859  0.89698011  1
  Tl  Tl7  1  0.37941141  0.34050760  0.60301989  1
  Tl  Tl8  1  0.05461842  0.55411534  0.33691905  1
  Tl  Tl9  1  0.44588466  0.94538158  0.16308095  1
  Tl  Tl10  1  0.94538158  0.44588466  0.66308095  1
  Tl  Tl11  1  0.55411534  0.05461842  0.83691905  1
  Tl  Tl12  1  0.88007849  0.67654020  0.10303671  1
  Tl  Tl13  1  0.32345980  0.11992151  0.39696329  1
  Tl  Tl14  1  0.11992151  0.32345980  0.89696329  1
  Tl  Tl15  1  0.67654020  0.88007849  0.60303671  1
  Ge  Ge16  1  0.48020963  0.51979037  0.25000000  1
  Ge  Ge17  1  0.51979037  0.48020963  0.75000000  1
  Ge  Ge18  1  0.79647755  0.29657714  0.10989326  1
  Ge  Ge19  1  0.70342286  0.20352245  0.39010674  1
  Ge  Ge20  1  0.20352245  0.70342286  0.89010674  1
  Ge  Ge21  1  0.29657714  0.79647755  0.60989326  1
  Ge  Ge22  1  0.02000756  0.24995997  0.24983835  1
  Ge  Ge23  1  0.75004003  0.97999244  0.25016165  1
  Ge  Ge24  1  0.97999244  0.75004003  0.75016165  1
  Ge  Ge25  1  0.24995997  0.02000756  0.74983835  1
  O  O26  1  0.97941892  0.21338529  0.15192989  1
  O  O27  1  0.78661471  0.02058108  0.34807011  1
  O  O28  1  0.02058108  0.78661471  0.84807011  1
  O  O29  1  0.21338529  0.97941892  0.65192989  1
  O  O30  1  0.31209905  0.55239143  0.21173846  1
  O  O31  1  0.44760857  0.68790095  0.28826154  1
  O  O32  1  0.68790095  0.44760857  0.78826154  1
  O  O33  1  0.55239143  0.31209905  0.71173846  1
  O  O34  1  0.05286464  0.42354782  0.21156351  1
  O  O35  1  0.57645218  0.94713536  0.28843649  1
  O  O36  1  0.94713536  0.57645218  0.78843649  1
  O  O37  1  0.42354782  0.05286464  0.71156351  1
  O  O38  1  0.92373568  0.81198319  0.21189145  1
  O  O39  1  0.18801681  0.07626432  0.28810855  1
  O  O40  1  0.07626432  0.18801681  0.78810855  1
  O  O41  1  0.81198319  0.92373568  0.71189145  1
  O  O42  1  0.65508460  0.47933144  0.15215116  1
  O  O43  1  0.52066856  0.34491540  0.34784884  1
  O  O44  1  0.34491540  0.52066856  0.84784884  1
  O  O45  1  0.47933144  0.65508460  0.65215116  1
  O  O46  1  0.16163595  0.66120715  0.01665563  1
  O  O47  1  0.33879285  0.83836405  0.48334437  1
  O  O48  1  0.83836405  0.33879285  0.98334437  1
  O  O49  1  0.66120715  0.16163595  0.51665563  1
  O  O50  1  0.84506862  0.28689472  0.34767815  1
  O  O51  1  0.71310528  0.15493138  0.15232185  1
  O  O52  1  0.28689472  0.84506862  0.84767815  1
  O  O53  1  0.15493138  0.71310528  0.65232185  1
