# generated using pymatgen
data_Cd2H3ClO3
_symmetry_space_group_name_H-M   'P 1'
_cell_length_a   6.92518368
_cell_length_b   7.59970993
_cell_length_c   10.04201828
_cell_angle_alpha   90.00000000
_cell_angle_beta   90.00000000
_cell_angle_gamma   90.00000000
_symmetry_Int_Tables_number   1
_chemical_formula_structural   Cd2H3ClO3
_chemical_formula_sum   'Cd8 H12 Cl4 O12'
_cell_volume   528.50526813
_cell_formula_units_Z   4
loop_
 _symmetry_equiv_pos_site_id
 _symmetry_equiv_pos_as_xyz
  1  'x, y, z'
loop_
 _atom_site_type_symbol
 _atom_site_label
 _atom_site_symmetry_multiplicity
 _atom_site_fract_x
 _atom_site_fract_y
 _atom_site_fract_z
 _atom_site_occupancy
  H  H0  1  0.92656776  0.95390457  0.27959083  1
  H  H1  1  0.42656776  0.54609543  0.22040917  1
  H  H2  1  0.07343224  0.45390457  0.72040917  1
  H  H3  1  0.57343224  0.04609543  0.77959083  1
  H  H4  1  0.07343224  0.04609543  0.72040917  1
  H  H5  1  0.57343224  0.45390457  0.77959083  1
  H  H6  1  0.92656776  0.54609543  0.27959083  1
  H  H7  1  0.42656776  0.95390457  0.22040917  1
  H  H8  1  0.19230513  0.75000000  0.48690327  1
  H  H9  1  0.69230513  0.75000000  0.01309673  1
  H  H10  1  0.80769487  0.25000000  0.51309673  1
  H  H11  1  0.30769487  0.25000000  0.98690327  1
  O  O12  1  0.17890141  0.25000000  0.02650609  1
  O  O13  1  0.67890141  0.25000000  0.47349391  1
  O  O14  1  0.82109859  0.75000000  0.97349391  1
  O  O15  1  0.32109859  0.75000000  0.52650609  1
  O  O16  1  0.44329063  0.05394824  0.28048669  1
  O  O17  1  0.94329063  0.44605176  0.21951331  1
  O  O18  1  0.55670937  0.55394824  0.71951331  1
  O  O19  1  0.05670937  0.94605176  0.78048669  1
  O  O20  1  0.55670937  0.94605176  0.71951331  1
  O  O21  1  0.05670937  0.55394824  0.78048669  1
  O  O22  1  0.44329063  0.44605176  0.28048669  1
  O  O23  1  0.94329063  0.05394824  0.21951331  1
  Cl  Cl24  1  0.18986847  0.25000000  0.53860609  1
  Cl  Cl25  1  0.68986847  0.25000000  0.96139391  1
  Cl  Cl26  1  0.81013153  0.75000000  0.46139391  1
  Cl  Cl27  1  0.31013153  0.75000000  0.03860609  1
  Cd  Cd28  1  0.30914854  0.75000000  0.76240993  1
  Cd  Cd29  1  0.80914854  0.75000000  0.73759007  1
  Cd  Cd30  1  0.69085146  0.25000000  0.23759007  1
  Cd  Cd31  1  0.19085146  0.25000000  0.26240993  1
  Cd  Cd32  1  0.50000000  0.00000000  0.50000000  1
  Cd  Cd33  1  0.00000000  0.50000000  0.00000000  1
  Cd  Cd34  1  0.50000000  0.50000000  0.50000000  1
  Cd  Cd35  1  0.00000000  0.00000000  0.00000000  1
