# generated using pymatgen
data_Na4Sn3F10
_symmetry_space_group_name_H-M   'P 1'
_cell_length_a   5.55515482
_cell_length_b   11.10159282
_cell_length_c   11.10159281
_cell_angle_alpha   112.44977866
_cell_angle_beta   90.90241960
_cell_angle_gamma   90.90241957
_symmetry_Int_Tables_number   1
_chemical_formula_structural   Na4Sn3F10
_chemical_formula_sum   'Na8 Sn6 F20'
_cell_volume   632.50685501
_cell_formula_units_Z   2
loop_
 _symmetry_equiv_pos_site_id
 _symmetry_equiv_pos_as_xyz
  1  'x, y, z'
loop_
 _atom_site_type_symbol
 _atom_site_label
 _atom_site_symmetry_multiplicity
 _atom_site_fract_x
 _atom_site_fract_y
 _atom_site_fract_z
 _atom_site_occupancy
  F  F0  1  0.48350926  0.20332654  0.72123584  1
  F  F1  1  0.01649074  0.27876416  0.79667346  1
  F  F2  1  0.51649074  0.79667346  0.27876416  1
  F  F3  1  0.98350926  0.72123584  0.20332654  1
  F  F4  1  0.39109372  0.09726624  0.43729286  1
  F  F5  1  0.10890628  0.56270714  0.90273376  1
  F  F6  1  0.60890628  0.90273376  0.56270714  1
  F  F7  1  0.89109372  0.43729286  0.09726624  1
  F  F8  1  0.38642840  0.34694828  0.44339365  1
  F  F9  1  0.11357160  0.55660635  0.65305172  1
  F  F10  1  0.61357160  0.65305172  0.55660635  1
  F  F11  1  0.88642840  0.44339365  0.34694828  1
  F  F12  1  0.06308604  0.00951146  0.65355997  1
  F  F13  1  0.43691396  0.34644003  0.99048854  1
  F  F14  1  0.45175656  0.50414642  0.25675324  1
  F  F15  1  0.04824344  0.74324676  0.49585358  1
  F  F16  1  0.54824344  0.49585358  0.74324676  1
  F  F17  1  0.95175656  0.25675324  0.50414642  1
  F  F18  1  0.56308604  0.65355997  0.00951146  1
  F  F19  1  0.93691396  0.99048854  0.34644003  1
  Na  Na20  1  0.24739491  0.55582590  0.09776849  1
  Na  Na21  1  0.25260509  0.90223151  0.44417410  1
  Na  Na22  1  0.75260509  0.44417410  0.90223151  1
  Na  Na23  1  0.74739491  0.09776849  0.55582590  1
  Na  Na24  1  0.75000000  0.65690470  0.34309530  1
  Na  Na25  1  0.25000000  0.34309530  0.65690470  1
  Na  Na26  1  0.25000000  0.54724300  0.45275700  1
  Na  Na27  1  0.75000000  0.45275700  0.54724300  1
  Sn  Sn28  1  0.33700729  0.66387398  0.82674676  1
  Sn  Sn29  1  0.16299271  0.17325324  0.33612602  1
  Sn  Sn30  1  0.66299271  0.33612602  0.17325324  1
  Sn  Sn31  1  0.83700729  0.82674676  0.66387398  1
  Sn  Sn32  1  0.75000000  0.84219360  0.15780640  1
  Sn  Sn33  1  0.25000000  0.15780640  0.84219360  1
