# generated using pymatgen
data_K2LiAlH6
_symmetry_space_group_name_H-M   'P 1'
_cell_length_a   9.67600743
_cell_length_b   9.67600743
_cell_length_c   9.67600743
_cell_angle_alpha   33.75245522
_cell_angle_beta   33.75245527
_cell_angle_gamma   33.75245524
_symmetry_Int_Tables_number   1
_chemical_formula_structural   K2LiAlH6
_chemical_formula_sum   'K4 Li2 Al2 H12'
_cell_volume   249.17524385
_cell_formula_units_Z   2
loop_
 _symmetry_equiv_pos_site_id
 _symmetry_equiv_pos_as_xyz
  1  'x, y, z'
loop_
 _atom_site_type_symbol
 _atom_site_label
 _atom_site_symmetry_multiplicity
 _atom_site_fract_x
 _atom_site_fract_y
 _atom_site_fract_z
 _atom_site_occupancy
  H  H0  1  0.18819764  0.18819764  0.73540355  1
  H  H1  1  0.18819764  0.73540355  0.18819764  1
  H  H2  1  0.73540355  0.18819764  0.18819764  1
  H  H3  1  0.26459645  0.81180236  0.81180236  1
  H  H4  1  0.81180236  0.81180236  0.26459645  1
  H  H5  1  0.81180236  0.26459645  0.81180236  1
  H  H6  1  0.39535784  0.39535784  0.82715198  1
  H  H7  1  0.39535784  0.82715198  0.39535784  1
  H  H8  1  0.60464216  0.17284802  0.60464216  1
  H  H9  1  0.60464216  0.60464216  0.17284802  1
  H  H10  1  0.17284802  0.60464216  0.60464216  1
  H  H11  1  0.82715198  0.39535784  0.39535784  1
  Li  Li12  1  0.40774023  0.40774023  0.40774023  1
  Li  Li13  1  0.59225977  0.59225977  0.59225977  1
  Al  Al14  1  0.00000000  0.00000000  0.00000000  1
  Al  Al15  1  0.50000000  0.50000000  0.50000000  1
  K  K16  1  0.12711446  0.12711446  0.12711446  1
  K  K17  1  0.87288554  0.87288554  0.87288554  1
  K  K18  1  0.28659284  0.28659284  0.28659284  1
  K  K19  1  0.71340716  0.71340716  0.71340716  1
