# generated using pymatgen
data_MgBHO3
_symmetry_space_group_name_H-M   'P 1'
_cell_length_a   3.17566077
_cell_length_b   10.49283709
_cell_length_c   12.68830026
_cell_angle_alpha   90.00000000
_cell_angle_beta   95.81732493
_cell_angle_gamma   90.00000000
_symmetry_Int_Tables_number   1
_chemical_formula_structural   MgBHO3
_chemical_formula_sum   'Mg8 B8 H8 O24'
_cell_volume   420.61826919
_cell_formula_units_Z   8
loop_
 _symmetry_equiv_pos_site_id
 _symmetry_equiv_pos_as_xyz
  1  'x, y, z'
loop_
 _atom_site_type_symbol
 _atom_site_label
 _atom_site_symmetry_multiplicity
 _atom_site_fract_x
 _atom_site_fract_y
 _atom_site_fract_z
 _atom_site_occupancy
  H  H0  1  0.86221076  0.75649994  0.16183391  1
  H  H1  1  0.13778924  0.25649994  0.33816609  1
  H  H2  1  0.13778924  0.24350006  0.83816609  1
  H  H3  1  0.86221076  0.74350006  0.66183391  1
  H  H4  1  0.31673147  0.88179140  0.30671534  1
  H  H5  1  0.68326853  0.38179140  0.19328466  1
  H  H6  1  0.68326853  0.11820860  0.69328466  1
  H  H7  1  0.31673147  0.61820860  0.80671534  1
  B  B8  1  0.24051682  0.83200991  0.86171242  1
  B  B9  1  0.75948318  0.33200991  0.63828758  1
  B  B10  1  0.75948318  0.16799009  0.13828758  1
  B  B11  1  0.24051682  0.66799009  0.36171242  1
  B  B12  1  0.37260629  0.95191424  0.69296946  1
  B  B13  1  0.62739371  0.45191424  0.80703054  1
  B  B14  1  0.62739371  0.04808576  0.30703054  1
  B  B15  1  0.37260629  0.54808576  0.19296946  1
  O  O16  1  0.22247443  0.93749166  0.92394258  1
  O  O17  1  0.77752557  0.43749166  0.57605742  1
  O  O18  1  0.77752557  0.06250834  0.07605742  1
  O  O19  1  0.22247443  0.56250834  0.42394258  1
  O  O20  1  0.23097299  0.70845841  0.89837523  1
  O  O21  1  0.76902701  0.20845841  0.60162477  1
  O  O22  1  0.76902701  0.29154159  0.10162477  1
  O  O23  1  0.23097299  0.79154159  0.39837523  1
  O  O24  1  0.26853123  0.84601076  0.75146543  1
  O  O25  1  0.73146877  0.34601076  0.74853457  1
  O  O26  1  0.73146877  0.15398924  0.24853457  1
  O  O27  1  0.26853123  0.65398924  0.25146543  1
  O  O28  1  0.39846700  0.54986265  0.75367104  1
  O  O29  1  0.60153300  0.04986265  0.74632896  1
  O  O30  1  0.60153300  0.45013735  0.24632896  1
  O  O31  1  0.39846700  0.95013735  0.25367104  1
  O  O32  1  0.27984497  0.95624068  0.58540720  1
  O  O33  1  0.72015503  0.45624068  0.91459280  1
  O  O34  1  0.72015503  0.04375932  0.41459280  1
  O  O35  1  0.27984497  0.54375932  0.08540720  1
  O  O36  1  0.79604103  0.70527303  0.59172399  1
  O  O37  1  0.20395897  0.20527303  0.90827601  1
  O  O38  1  0.20395897  0.29472697  0.40827601  1
  O  O39  1  0.79604103  0.79472697  0.09172399  1
  Mg  Mg40  1  0.29301819  0.92069826  0.08816221  1
  Mg  Mg41  1  0.70698181  0.42069826  0.41183779  1
  Mg  Mg42  1  0.70698181  0.07930174  0.91183779  1
  Mg  Mg43  1  0.29301819  0.57930174  0.58816221  1
  Mg  Mg44  1  0.76727766  0.63757119  0.99510233  1
  Mg  Mg45  1  0.23272234  0.13757119  0.50489767  1
  Mg  Mg46  1  0.23272234  0.36242881  0.00489767  1
  Mg  Mg47  1  0.76727766  0.86242881  0.49510233  1
