# generated using pymatgen
data_Li9Al(NiO4)2
_symmetry_space_group_name_H-M   'P 1'
_cell_length_a   15.82697923
_cell_length_b   6.37031201
_cell_length_c   7.51001506
_cell_angle_alpha   90.00000708
_cell_angle_beta   89.99624221
_cell_angle_gamma   89.99996375
_symmetry_Int_Tables_number   1
_chemical_formula_structural   Li9Al(NiO4)2
_chemical_formula_sum   'Li36 Al4 Ni8 O32'
_cell_volume   757.18071409
_cell_formula_units_Z   4
loop_
 _symmetry_equiv_pos_site_id
 _symmetry_equiv_pos_as_xyz
  1  'x, y, z'
loop_
 _atom_site_type_symbol
 _atom_site_label
 _atom_site_symmetry_multiplicity
 _atom_site_fract_x
 _atom_site_fract_y
 _atom_site_fract_z
 _atom_site_occupancy
  Li  Li0  1  0.06952625  0.51927734  0.53655404  1
  Li  Li1  1  0.06952626  0.98072275  0.53655397  1
  Li  Li2  1  0.13878186  0.25000023  0.33938124  1
  Li  Li3  1  0.11934960  0.50702790  0.10148327  1
  Li  Li4  1  0.11934950  0.99297220  0.10148326  1
  Li  Li5  1  0.16102779  0.75000032  0.32932896  1
  Li  Li6  1  0.19370792  0.25000045  0.80466947  1
  Li  Li7  1  0.21191171  0.00792980  0.55071489  1
  Li  Li8  1  0.21191174  0.49207042  0.55071490  1
  Li  Li9  1  0.28807099  0.50803901  0.05060148  1
  Li  Li10  1  0.28807100  0.99196110  0.05060130  1
  Li  Li11  1  0.30628085  0.75000015  0.30464332  1
  Li  Li12  1  0.33896018  0.25000078  0.82935406  1
  Li  Li13  1  0.38064026  0.49302204  0.60151502  1
  Li  Li14  1  0.38064025  0.00697850  0.60151512  1
  Li  Li15  1  0.36117602  0.74999989  0.83936672  1
  Li  Li16  1  0.43048400  0.01922712  0.03657184  1
  Li  Li17  1  0.43048397  0.48077351  0.03657164  1
  Li  Li18  1  0.56953700  0.51924632  0.96341582  1
  Li  Li19  1  0.56953712  0.98075412  0.96341576  1
  Li  Li20  1  0.63881560  0.25000037  0.16063818  1
  Li  Li21  1  0.61937595  0.99297608  0.39852522  1
  Li  Li22  1  0.61937621  0.50702423  0.39852565  1
  Li  Li23  1  0.66104388  0.74999994  0.17064895  1
  Li  Li24  1  0.69369912  0.25000030  0.69533510  1
  Li  Li25  1  0.71192425  0.00795589  0.94931859  1
  Li  Li26  1  0.71192443  0.49204435  0.94931827  1
  Li  Li27  1  0.78808284  0.50799380  0.44934582  1
  Li  Li28  1  0.78808274  0.99200638  0.44934614  1
  Li  Li29  1  0.80636178  0.74999989  0.19532930  1
  Li  Li30  1  0.83896069  0.25000059  0.67063569  1
  Li  Li31  1  0.88062776  0.49300620  0.89853877  1
  Li  Li32  1  0.88062795  0.00699412  0.89853897  1
  Li  Li33  1  0.86118225  0.74999979  0.66065203  1
  Li  Li34  1  0.93046470  0.01915781  0.46333584  1
  Li  Li35  1  0.93046449  0.48084214  0.46333556  1
  Al  Al36  1  0.00553070  0.74999982  0.84121342  1
  Al  Al37  1  0.49445450  0.25000088  0.34121077  1
  Al  Al38  1  0.50553596  0.74999986  0.65880053  1
  Al  Al39  1  0.99446047  0.24999960  0.15878367  1
  Ni  Ni40  1  0.03138015  0.24999880  0.76672773  1
  Ni  Ni41  1  0.19998151  0.75000135  0.79797174  1
  Ni  Ni42  1  0.30004744  0.24999811  0.29800727  1
  Ni  Ni43  1  0.46855911  0.75000091  0.26674311  1
  Ni  Ni44  1  0.53139338  0.24999816  0.73324114  1
  Ni  Ni45  1  0.69997264  0.75000199  0.70200023  1
  Ni  Ni46  1  0.80001664  0.24999332  0.20202569  1
  Ni  Ni47  1  0.96866059  0.74999803  0.23326880  1
  O  O48  1  0.02233026  0.47427187  0.28924914  1
  O  O49  1  0.02233015  0.02572645  0.28924827  1
  O  O50  1  0.08272572  0.25000069  0.00318180  1
  O  O51  1  0.12901962  0.25000069  0.59249301  1
  O  O52  1  0.14268676  0.75000015  0.56944268  1
  O  O53  1  0.10179626  0.75000023  0.96096021  1
  O  O54  1  0.22099804  0.00594934  0.27599985  1
  O  O55  1  0.22099794  0.49405043  0.27599870  1
  O  O56  1  0.27903114  0.50591468  0.77598460  1
  O  O57  1  0.27903042  0.99408610  0.77598449  1
  O  O58  1  0.39820379  0.24999990  0.46091606  1
  O  O59  1  0.35729964  0.25000004  0.06946363  1
  O  O60  1  0.37096140  0.75000027  0.09244648  1
  O  O61  1  0.41725873  0.75000032  0.50327027  1
  O  O62  1  0.47767335  0.97431225  0.78923887  1
  O  O63  1  0.47767316  0.52568793  0.78923850  1
  O  O64  1  0.52231613  0.47429308  0.21076757  1
  O  O65  1  0.52231620  0.02570792  0.21076850  1
  O  O66  1  0.58274770  0.25000025  0.49681584  1
  O  O67  1  0.62902901  0.24999968  0.90753588  1
  O  O68  1  0.64267786  0.75000038  0.93051887  1
  O  O69  1  0.60181847  0.75000044  0.53907525  1
  O  O70  1  0.72098356  0.00592144  0.22401495  1
  O  O71  1  0.72098416  0.49407728  0.22401456  1
  O  O72  1  0.77902092  0.50593136  0.72401419  1
  O  O73  1  0.77902011  0.99407025  0.72401413  1
  O  O74  1  0.89818435  0.24999994  0.03907256  1
  O  O75  1  0.85731858  0.24999998  0.43051111  1
  O  O76  1  0.87096461  0.75000021  0.40755420  1
  O  O77  1  0.91724912  0.74999991  0.99685209  1
  O  O78  1  0.97768527  0.97428571  0.71076794  1
  O  O79  1  0.97768557  0.52571420  0.71076756  1
