# generated using pymatgen
data_AlH12(ClO2)3
_symmetry_space_group_name_H-M   'P 1'
_cell_length_a   7.94466205
_cell_length_b   7.94466205
_cell_length_c   7.94466205
_cell_angle_alpha   96.46801259
_cell_angle_beta   96.46801256
_cell_angle_gamma   96.46801263
_symmetry_Int_Tables_number   1
_chemical_formula_structural   AlH12(ClO2)3
_chemical_formula_sum   'Al2 H24 Cl6 O12'
_cell_volume   491.07959521
_cell_formula_units_Z   2
loop_
 _symmetry_equiv_pos_site_id
 _symmetry_equiv_pos_as_xyz
  1  'x, y, z'
loop_
 _atom_site_type_symbol
 _atom_site_label
 _atom_site_symmetry_multiplicity
 _atom_site_fract_x
 _atom_site_fract_y
 _atom_site_fract_z
 _atom_site_occupancy
  H  H0  1  0.79170983  0.38670294  0.58534532  1
  H  H1  1  0.38670294  0.58534532  0.79170983  1
  H  H2  1  0.58534532  0.79170983  0.38670294  1
  H  H3  1  0.91465468  0.11329706  0.70829017  1
  H  H4  1  0.11329706  0.70829017  0.91465468  1
  H  H5  1  0.70829017  0.91465468  0.11329706  1
  H  H6  1  0.20829017  0.61329706  0.41465468  1
  H  H7  1  0.61329706  0.41465468  0.20829017  1
  H  H8  1  0.41465468  0.20829017  0.61329706  1
  H  H9  1  0.08534532  0.88670294  0.29170983  1
  H  H10  1  0.88670294  0.29170983  0.08534532  1
  H  H11  1  0.29170983  0.08534532  0.88670294  1
  H  H12  1  0.71466800  0.45779019  0.75826551  1
  H  H13  1  0.45779019  0.75826551  0.71466800  1
  H  H14  1  0.75826551  0.71466800  0.45779019  1
  H  H15  1  0.74173449  0.04220981  0.78533200  1
  H  H16  1  0.04220981  0.78533200  0.74173449  1
  H  H17  1  0.78533200  0.74173449  0.04220981  1
  H  H18  1  0.28533200  0.54220981  0.24173449  1
  H  H19  1  0.54220981  0.24173449  0.28533200  1
  H  H20  1  0.21466800  0.25826551  0.95779019  1
  H  H21  1  0.95779019  0.21466800  0.25826551  1
  H  H22  1  0.25826551  0.95779019  0.21466800  1
  H  H23  1  0.24173449  0.28533200  0.54220981  1
  O  O24  1  0.69738218  0.44475777  0.63040222  1
  O  O25  1  0.44475777  0.63040222  0.69738218  1
  O  O26  1  0.63040222  0.69738218  0.44475777  1
  O  O27  1  0.86959778  0.05524223  0.80261782  1
  O  O28  1  0.05524223  0.80261782  0.86959778  1
  O  O29  1  0.80261782  0.86959778  0.05524223  1
  O  O30  1  0.30261782  0.55524223  0.36959778  1
  O  O31  1  0.55524223  0.36959778  0.30261782  1
  O  O32  1  0.36959778  0.30261782  0.55524223  1
  O  O33  1  0.13040222  0.94475777  0.19738218  1
  O  O34  1  0.94475777  0.19738218  0.13040222  1
  O  O35  1  0.19738218  0.13040222  0.94475777  1
  Al  Al36  1  0.00000000  0.00000000  0.00000000  1
  Al  Al37  1  0.50000000  0.50000000  0.50000000  1
  Cl  Cl38  1  0.48130298  0.01869702  0.75000000  1
  Cl  Cl39  1  0.98130298  0.25000000  0.51869702  1
  Cl  Cl40  1  0.25000000  0.51869702  0.98130298  1
  Cl  Cl41  1  0.51869702  0.98130298  0.25000000  1
  Cl  Cl42  1  0.75000000  0.48130298  0.01869702  1
  Cl  Cl43  1  0.01869702  0.75000000  0.48130298  1
