# generated using pymatgen
data_Sb3(BrF8)2
_symmetry_space_group_name_H-M   'P 1'
_cell_length_a   7.86225635
_cell_length_b   7.88231433
_cell_length_c   14.81219115
_cell_angle_alpha   93.90291036
_cell_angle_beta   90.00000000
_cell_angle_gamma   119.91585821
_symmetry_Int_Tables_number   1
_chemical_formula_structural   Sb3(BrF8)2
_chemical_formula_sum   'Sb6 Br4 F32'
_cell_volume   793.18634389
_cell_formula_units_Z   2
loop_
 _symmetry_equiv_pos_site_id
 _symmetry_equiv_pos_as_xyz
  1  'x, y, z'
loop_
 _atom_site_type_symbol
 _atom_site_label
 _atom_site_symmetry_multiplicity
 _atom_site_fract_x
 _atom_site_fract_y
 _atom_site_fract_z
 _atom_site_occupancy
  F  F0  1  0.34835500  0.16478393  0.51688216  1
  F  F1  1  0.18357107  0.83521607  0.98311784  1
  F  F2  1  0.65164500  0.83521607  0.48311784  1
  F  F3  1  0.81642893  0.16478393  0.01688216  1
  F  F4  1  0.40721073  0.19222583  0.70455885  1
  F  F5  1  0.21498490  0.80777417  0.79544115  1
  F  F6  1  0.59278927  0.80777417  0.29544115  1
  F  F7  1  0.78501510  0.19222583  0.20455885  1
  F  F8  1  0.17224068  0.36926349  0.70938520  1
  F  F9  1  0.80297719  0.63073651  0.79061480  1
  F  F10  1  0.21136700  0.33433844  0.02443801  1
  F  F11  1  0.87702855  0.66566156  0.47556199  1
  F  F12  1  0.78863300  0.66566156  0.97556199  1
  F  F13  1  0.12297145  0.33433844  0.52443801  1
  F  F14  1  0.51478802  0.70902055  0.07696141  1
  F  F15  1  0.80576747  0.29097945  0.42303859  1
  F  F16  1  0.48521198  0.29097945  0.92303859  1
  F  F17  1  0.19423253  0.70902055  0.57696141  1
  F  F18  1  0.56430589  0.40203355  0.09957567  1
  F  F19  1  0.16227233  0.59796645  0.40042433  1
  F  F20  1  0.43569411  0.59796645  0.90042433  1
  F  F21  1  0.83772767  0.40203355  0.59957567  1
  F  F22  1  0.98690730  0.01707477  0.12050912  1
  F  F23  1  0.96983254  0.98292523  0.37949088  1
  F  F24  1  0.01309270  0.98292523  0.87949088  1
  F  F25  1  0.03016746  0.01707477  0.62050912  1
  F  F26  1  0.03186055  0.51783258  0.10900264  1
  F  F27  1  0.51402796  0.48216742  0.39099736  1
  F  F28  1  0.96813945  0.48216742  0.89099736  1
  F  F29  1  0.48597204  0.51783258  0.60900264  1
  F  F30  1  0.19702281  0.36926349  0.20938520  1
  F  F31  1  0.82775932  0.63073651  0.29061480  1
  Br  Br32  1  0.26630745  0.86314352  0.20341938  1
  Br  Br33  1  0.40316392  0.13685648  0.29658062  1
  Br  Br34  1  0.73369255  0.13685648  0.79658062  1
  Br  Br35  1  0.59683608  0.86314352  0.70341938  1
  Sb  Sb36  1  0.72858347  0.74219628  0.37879549  1
  Sb  Sb37  1  0.98638719  0.25780372  0.12120451  1
  Sb  Sb38  1  0.01361281  0.74219628  0.87879549  1
  Sb  Sb39  1  0.27141653  0.25780372  0.62120451  1
  Sb  Sb40  1  0.50000000  0.50000000  0.00000000  1
  Sb  Sb41  1  0.00000000  0.50000000  0.50000000  1
