# generated using pymatgen
data_AuClO
_symmetry_space_group_name_H-M   'P 1'
_cell_length_a   8.36400582
_cell_length_b   8.36400582
_cell_length_c   8.36400582
_cell_angle_alpha   113.43106338
_cell_angle_beta   113.43106333
_cell_angle_gamma   113.43106330
_symmetry_Int_Tables_number   1
_chemical_formula_structural   AuClO
_chemical_formula_sum   'Au6 Cl6 O6'
_cell_volume   370.00590905
_cell_formula_units_Z   6
loop_
 _symmetry_equiv_pos_site_id
 _symmetry_equiv_pos_as_xyz
  1  'x, y, z'
loop_
 _atom_site_type_symbol
 _atom_site_label
 _atom_site_symmetry_multiplicity
 _atom_site_fract_x
 _atom_site_fract_y
 _atom_site_fract_z
 _atom_site_occupancy
  O  O0  1  0.46829077  0.30971527  0.87071047  1
  O  O1  1  0.30971527  0.87071047  0.46829077  1
  O  O2  1  0.87071047  0.46829077  0.30971527  1
  O  O3  1  0.53170923  0.69028473  0.12928953  1
  O  O4  1  0.69028473  0.12928953  0.53170923  1
  O  O5  1  0.12928953  0.53170923  0.69028473  1
  Cl  Cl6  1  0.08759793  0.13357795  0.38307482  1
  Cl  Cl7  1  0.38307482  0.08759793  0.13357795  1
  Cl  Cl8  1  0.13357795  0.38307482  0.08759793  1
  Cl  Cl9  1  0.91240207  0.86642205  0.61692518  1
  Cl  Cl10  1  0.61692518  0.91240207  0.86642205  1
  Cl  Cl11  1  0.86642205  0.61692518  0.91240207  1
  Au  Au12  1  0.58332329  0.23277506  0.70289184  1
  Au  Au13  1  0.23277506  0.70289184  0.58332329  1
  Au  Au14  1  0.70289184  0.58332329  0.23277506  1
  Au  Au15  1  0.41667671  0.76722494  0.29710816  1
  Au  Au16  1  0.76722494  0.29710816  0.41667671  1
  Au  Au17  1  0.29710816  0.41667671  0.76722494  1
