# generated using pymatgen
data_LuHCl
_symmetry_space_group_name_H-M   'P 1'
_cell_length_a   9.47242727
_cell_length_b   9.47242727
_cell_length_c   9.47242727
_cell_angle_alpha   22.24253369
_cell_angle_beta   22.24253370
_cell_angle_gamma   22.24253371
_symmetry_Int_Tables_number   1
_chemical_formula_structural   LuHCl
_chemical_formula_sum   'Lu2 H2 Cl2'
_cell_volume   106.78945721
_cell_formula_units_Z   2
loop_
 _symmetry_equiv_pos_site_id
 _symmetry_equiv_pos_as_xyz
  1  'x, y, z'
loop_
 _atom_site_type_symbol
 _atom_site_label
 _atom_site_symmetry_multiplicity
 _atom_site_fract_x
 _atom_site_fract_y
 _atom_site_fract_z
 _atom_site_occupancy
  H  H0  1  0.80365362  0.80365362  0.80365362  1
  H  H1  1  0.19634638  0.19634638  0.19634638  1
  Cl  Cl2  1  0.39231653  0.39231653  0.39231653  1
  Cl  Cl3  1  0.60768347  0.60768347  0.60768347  1
  Lu  Lu4  1  0.88049262  0.88049262  0.88049262  1
  Lu  Lu5  1  0.11950738  0.11950738  0.11950738  1
