# generated using pymatgen
data_RbAuBr3
_symmetry_space_group_name_H-M   'P 1'
_cell_length_a   7.48102219
_cell_length_b   7.48486778
_cell_length_c   8.77410477
_cell_angle_alpha   62.45149054
_cell_angle_beta   64.76622731
_cell_angle_gamma   60.01699430
_symmetry_Int_Tables_number   1
_chemical_formula_structural   RbAuBr3
_chemical_formula_sum   'Rb2 Au2 Br6'
_cell_volume   364.91374183
_cell_formula_units_Z   2
loop_
 _symmetry_equiv_pos_site_id
 _symmetry_equiv_pos_as_xyz
  1  'x, y, z'
loop_
 _atom_site_type_symbol
 _atom_site_label
 _atom_site_symmetry_multiplicity
 _atom_site_fract_x
 _atom_site_fract_y
 _atom_site_fract_z
 _atom_site_occupancy
  Br  Br0  1  0.19883952  0.25125628  0.82259642  1
  Br  Br1  1  0.27269222  0.74874372  0.17740358  1
  Br  Br2  1  0.80116048  0.74874372  0.17740358  1
  Br  Br3  1  0.72730778  0.25125628  0.82259642  1
  Br  Br4  1  0.71328832  0.20835549  0.36506787  1
  Br  Br5  1  0.28671168  0.79164451  0.63493213  1
  Rb  Rb6  1  0.27418645  0.22208708  0.22954002  1
  Rb  Rb7  1  0.72581355  0.77791292  0.77045998  1
  Au  Au8  1  0.00000000  0.00000000  0.00000000  1
  Au  Au9  1  0.50000000  0.50000000  0.50000000  1
