# generated using pymatgen
data_AgH5S2O9
_symmetry_space_group_name_H-M   'P 1'
_cell_length_a   7.41014569
_cell_length_b   8.28320654
_cell_length_c   13.30717479
_cell_angle_alpha   90.00000000
_cell_angle_beta   90.00000000
_cell_angle_gamma   107.72294623
_symmetry_Int_Tables_number   1
_chemical_formula_structural   AgH5S2O9
_chemical_formula_sum   'Ag4 H20 S8 O36'
_cell_volume   778.02608514
_cell_formula_units_Z   4
loop_
 _symmetry_equiv_pos_site_id
 _symmetry_equiv_pos_as_xyz
  1  'x, y, z'
loop_
 _atom_site_type_symbol
 _atom_site_label
 _atom_site_symmetry_multiplicity
 _atom_site_fract_x
 _atom_site_fract_y
 _atom_site_fract_z
 _atom_site_occupancy
  H  H0  1  0.68748026  0.45484823  0.77249387  1
  H  H1  1  0.31251974  0.04515177  0.27249387  1
  H  H2  1  0.31251974  0.54515177  0.22750613  1
  H  H3  1  0.68748026  0.95484823  0.72750613  1
  H  H4  1  0.54564694  0.29545542  0.70138168  1
  H  H5  1  0.45435306  0.20454458  0.20138168  1
  H  H6  1  0.45435306  0.70454458  0.29861832  1
  H  H7  1  0.54564694  0.79545542  0.79861832  1
  H  H8  1  0.53381000  0.28290086  0.82861780  1
  H  H9  1  0.46619000  0.21709914  0.32861780  1
  H  H10  1  0.46619000  0.71709914  0.17138220  1
  H  H11  1  0.53381000  0.78290086  0.67138220  1
  H  H12  1  0.14096256  0.45433125  0.77882119  1
  H  H13  1  0.85903744  0.04566875  0.27882119  1
  H  H14  1  0.85903744  0.54566875  0.22117881  1
  H  H15  1  0.14096256  0.95433125  0.72117881  1
  H  H16  1  0.63522720  0.02291134  0.06794996  1
  H  H17  1  0.36477280  0.47708866  0.56794996  1
  H  H18  1  0.36477280  0.97708866  0.93205004  1
  H  H19  1  0.63522720  0.52291134  0.43205004  1
  O  O20  1  0.55819572  0.36079124  0.76769844  1
  O  O21  1  0.44180428  0.13920876  0.26769844  1
  O  O22  1  0.44180428  0.63920876  0.23230156  1
  O  O23  1  0.55819572  0.86079124  0.73230156  1
  O  O24  1  0.18054683  0.56801066  0.74181466  1
  O  O25  1  0.81945317  0.93198934  0.24181466  1
  O  O26  1  0.81945317  0.43198934  0.25818534  1
  O  O27  1  0.18054683  0.06801066  0.75818534  1
  O  O28  1  0.86783877  0.60321898  0.77708698  1
  O  O29  1  0.13216123  0.89678102  0.27708698  1
  O  O30  1  0.13216123  0.39678102  0.22291302  1
  O  O31  1  0.86783877  0.10321898  0.72291302  1
  O  O32  1  0.92421789  0.49250529  0.61404677  1
  O  O33  1  0.07578211  0.00749471  0.11404677  1
  O  O34  1  0.07578211  0.50749471  0.38595323  1
  O  O35  1  0.92421789  0.99250529  0.88595323  1
  O  O36  1  0.08956656  0.78564833  0.65638470  1
  O  O37  1  0.91043344  0.71435167  0.15638470  1
  O  O38  1  0.91043344  0.21435167  0.34361530  1
  O  O39  1  0.08956656  0.28564833  0.84361530  1
  O  O40  1  0.71465971  0.14707427  0.06645680  1
  O  O41  1  0.28534029  0.35292573  0.56645680  1
  O  O42  1  0.28534029  0.85292573  0.93354320  1
  O  O43  1  0.71465971  0.64707427  0.43354320  1
  O  O44  1  0.46829878  0.28658765  0.09559555  1
  O  O45  1  0.53170122  0.21341235  0.59559555  1
  O  O46  1  0.53170122  0.71341235  0.90440445  1
  O  O47  1  0.46829878  0.78658765  0.40440445  1
  O  O48  1  0.49998222  0.17342166  0.92963569  1
  O  O49  1  0.50001778  0.32657834  0.42963569  1
  O  O50  1  0.50001778  0.82657834  0.07036431  1
  O  O51  1  0.49998222  0.67342166  0.57036431  1
  O  O52  1  0.75088067  0.41847054  0.99223420  1
  O  O53  1  0.24911933  0.08152946  0.49223420  1
  O  O54  1  0.24911933  0.58152946  0.00776580  1
  O  O55  1  0.75088067  0.91847054  0.50776580  1
  S  S56  1  0.00634559  0.61157897  0.69461392  1
  S  S57  1  0.99365441  0.88842103  0.19461392  1
  S  S58  1  0.99365441  0.38842103  0.30538608  1
  S  S59  1  0.00634559  0.11157897  0.80538608  1
  S  S60  1  0.60372897  0.26508545  0.01957049  1
  S  S61  1  0.39627103  0.23491455  0.51957049  1
  S  S62  1  0.39627103  0.73491455  0.98042951  1
  S  S63  1  0.60372897  0.76508545  0.48042951  1
  Ag  Ag64  1  0.10337276  0.27847451  0.03842890  1
  Ag  Ag65  1  0.89662724  0.22152549  0.53842890  1
  Ag  Ag66  1  0.89662724  0.72152549  0.96157110  1
  Ag  Ag67  1  0.10337276  0.77847451  0.46157110  1
