# generated using pymatgen
data_RbMgH3
_symmetry_space_group_name_H-M   'P 1'
_cell_length_a   5.92870619
_cell_length_b   5.92870619
_cell_length_c   14.37280791
_cell_angle_alpha   90.00000000
_cell_angle_beta   90.00000000
_cell_angle_gamma   120.00000005
_symmetry_Int_Tables_number   1
_chemical_formula_structural   RbMgH3
_chemical_formula_sum   'Rb6 Mg6 H18'
_cell_volume   437.51415639
_cell_formula_units_Z   6
loop_
 _symmetry_equiv_pos_site_id
 _symmetry_equiv_pos_as_xyz
  1  'x, y, z'
loop_
 _atom_site_type_symbol
 _atom_site_label
 _atom_site_symmetry_multiplicity
 _atom_site_fract_x
 _atom_site_fract_y
 _atom_site_fract_z
 _atom_site_occupancy
  H  H0  1  0.47629727  0.95259454  0.75000000  1
  H  H1  1  0.52370273  0.47629727  0.25000000  1
  H  H2  1  0.95259454  0.47629727  0.25000000  1
  H  H3  1  0.04740546  0.52370273  0.75000000  1
  H  H4  1  0.47629727  0.52370273  0.75000000  1
  H  H5  1  0.52370273  0.04740546  0.25000000  1
  H  H6  1  0.16584846  0.83415154  0.92014239  1
  H  H7  1  0.16584846  0.33169692  0.92014239  1
  H  H8  1  0.66830308  0.83415154  0.92014239  1
  H  H9  1  0.33169692  0.16584846  0.42014239  1
  H  H10  1  0.83415154  0.66830308  0.07985761  1
  H  H11  1  0.83415154  0.16584846  0.42014239  1
  H  H12  1  0.16584846  0.33169692  0.57985761  1
  H  H13  1  0.83415154  0.16584846  0.07985761  1
  H  H14  1  0.33169692  0.16584846  0.07985761  1
  H  H15  1  0.66830308  0.83415154  0.57985761  1
  H  H16  1  0.16584846  0.83415154  0.57985761  1
  H  H17  1  0.83415154  0.66830308  0.42014239  1
  Mg  Mg18  1  0.33333333  0.66666667  0.84579920  1
  Mg  Mg19  1  0.66666667  0.33333333  0.34579920  1
  Mg  Mg20  1  0.66666667  0.33333333  0.15420080  1
  Mg  Mg21  1  0.33333333  0.66666667  0.65420080  1
  Mg  Mg22  1  0.00000000  0.00000000  0.50000000  1
  Mg  Mg23  1  0.00000000  0.00000000  0.00000000  1
  Rb  Rb24  1  0.00000000  0.00000000  0.75000000  1
  Rb  Rb25  1  0.00000000  0.00000000  0.25000000  1
  Rb  Rb26  1  0.33333333  0.66666667  0.40481709  1
  Rb  Rb27  1  0.66666667  0.33333333  0.90481709  1
  Rb  Rb28  1  0.66666667  0.33333333  0.59518291  1
  Rb  Rb29  1  0.33333333  0.66666667  0.09518291  1
