# generated using pymatgen
data_SbBrF8
_symmetry_space_group_name_H-M   'P 1'
_cell_length_a   5.99039117
_cell_length_b   10.24253224
_cell_length_c   11.23724129
_cell_angle_alpha   90.00000000
_cell_angle_beta   90.00000000
_cell_angle_gamma   90.00000000
_symmetry_Int_Tables_number   1
_chemical_formula_structural   SbBrF8
_chemical_formula_sum   'Sb4 Br4 F32'
_cell_volume   689.48088196
_cell_formula_units_Z   4
loop_
 _symmetry_equiv_pos_site_id
 _symmetry_equiv_pos_as_xyz
  1  'x, y, z'
loop_
 _atom_site_type_symbol
 _atom_site_label
 _atom_site_symmetry_multiplicity
 _atom_site_fract_x
 _atom_site_fract_y
 _atom_site_fract_z
 _atom_site_occupancy
  F  F0  1  0.09859654  0.38598418  0.18326267  1
  F  F1  1  0.09859654  0.61401582  0.31673733  1
  F  F2  1  0.90140346  0.88598418  0.31673733  1
  F  F3  1  0.90140346  0.11401582  0.18326267  1
  F  F4  1  0.90140346  0.61401582  0.81673733  1
  F  F5  1  0.90140346  0.38598418  0.68326267  1
  F  F6  1  0.09859654  0.11401582  0.68326267  1
  F  F7  1  0.09859654  0.88598418  0.81673733  1
  F  F8  1  0.63602554  0.88868878  0.81166726  1
  F  F9  1  0.63602554  0.11131122  0.68833274  1
  F  F10  1  0.36397446  0.38868878  0.68833274  1
  F  F11  1  0.36397446  0.61131122  0.81166726  1
  F  F12  1  0.36397446  0.11131122  0.18833274  1
  F  F13  1  0.36397446  0.88868878  0.31166726  1
  F  F14  1  0.63602554  0.61131122  0.31166726  1
  F  F15  1  0.63602554  0.38868878  0.18833274  1
  F  F16  1  0.61757391  0.85494496  0.05705591  1
  F  F17  1  0.61757391  0.14505504  0.44294409  1
  F  F18  1  0.38242609  0.35494496  0.44294409  1
  F  F19  1  0.38242609  0.64505504  0.05705591  1
  F  F20  1  0.38242609  0.14505504  0.94294409  1
  F  F21  1  0.38242609  0.85494496  0.55705591  1
  F  F22  1  0.61757391  0.64505504  0.55705591  1
  F  F23  1  0.61757391  0.35494496  0.94294409  1
  F  F24  1  0.86230911  0.90180718  0.60722316  1
  F  F25  1  0.86230911  0.09819282  0.89277684  1
  F  F26  1  0.13769089  0.40180718  0.89277684  1
  F  F27  1  0.13769089  0.59819282  0.60722316  1
  F  F28  1  0.13769089  0.09819282  0.39277684  1
  F  F29  1  0.13769089  0.90180718  0.10722316  1
  F  F30  1  0.86230911  0.59819282  0.10722316  1
  F  F31  1  0.86230911  0.40180718  0.39277684  1
  Br  Br32  1  0.50000000  0.75000000  0.94932615  1
  Br  Br33  1  0.50000000  0.25000000  0.55067385  1
  Br  Br34  1  0.50000000  0.25000000  0.05067385  1
  Br  Br35  1  0.50000000  0.75000000  0.44932615  1
  Sb  Sb36  1  0.88272386  0.00000000  0.75000000  1
  Sb  Sb37  1  0.11727614  0.50000000  0.75000000  1
  Sb  Sb38  1  0.11727614  0.00000000  0.25000000  1
  Sb  Sb39  1  0.88272386  0.50000000  0.25000000  1
