# generated using pymatgen
data_NaAg3O2
_symmetry_space_group_name_H-M   'P 1'
_cell_length_a   6.05810354
_cell_length_b   6.26049755
_cell_length_c   6.85742059
_cell_angle_alpha   117.15995098
_cell_angle_beta   116.21360055
_cell_angle_gamma   89.99999997
_symmetry_Int_Tables_number   1
_chemical_formula_structural   NaAg3O2
_chemical_formula_sum   'Na2 Ag6 O4'
_cell_volume   200.87073052
_cell_formula_units_Z   2
loop_
 _symmetry_equiv_pos_site_id
 _symmetry_equiv_pos_as_xyz
  1  'x, y, z'
loop_
 _atom_site_type_symbol
 _atom_site_label
 _atom_site_symmetry_multiplicity
 _atom_site_fract_x
 _atom_site_fract_y
 _atom_site_fract_z
 _atom_site_occupancy
  O  O0  1  0.61027501  0.82241997  0.22055003  1
  O  O1  1  0.11027501  0.39813005  0.22055003  1
  O  O2  1  0.88972499  0.60186995  0.77944997  1
  O  O3  1  0.38972499  0.17758003  0.77944997  1
  Na  Na4  1  0.75000000  0.50000000  0.00000000  1
  Na  Na5  1  0.25000000  0.50000000  0.00000000  1
  Ag  Ag6  1  0.00000000  0.50000000  0.50000000  1
  Ag  Ag7  1  0.50000000  0.00000000  0.50000000  1
  Ag  Ag8  1  0.50000000  0.50000000  0.50000000  1
  Ag  Ag9  1  0.50000000  0.00000000  0.00000000  1
  Ag  Ag10  1  0.00000000  0.00000000  0.00000000  1
  Ag  Ag11  1  0.00000000  0.00000000  0.50000000  1
