# generated using pymatgen
data_BeH8(ClO2)2
_symmetry_space_group_name_H-M   'P 1'
_cell_length_a   6.66342449
_cell_length_b   7.93286791
_cell_length_c   13.12322438
_cell_angle_alpha   90.00000000
_cell_angle_beta   90.00000000
_cell_angle_gamma   104.00928497
_symmetry_Int_Tables_number   1
_chemical_formula_structural   BeH8(ClO2)2
_chemical_formula_sum   'Be4 H32 Cl8 O16'
_cell_volume   673.06161415
_cell_formula_units_Z   4
loop_
 _symmetry_equiv_pos_site_id
 _symmetry_equiv_pos_as_xyz
  1  'x, y, z'
loop_
 _atom_site_type_symbol
 _atom_site_label
 _atom_site_symmetry_multiplicity
 _atom_site_fract_x
 _atom_site_fract_y
 _atom_site_fract_z
 _atom_site_occupancy
  H  H0  1  0.02436570  0.23672016  0.68705259  1
  H  H1  1  0.97563430  0.26327984  0.18705259  1
  H  H2  1  0.97563430  0.76327984  0.31294741  1
  H  H3  1  0.02436570  0.73672016  0.81294741  1
  H  H4  1  0.13888093  0.43252749  0.64862743  1
  H  H5  1  0.86111907  0.06747251  0.14862743  1
  H  H6  1  0.86111907  0.56747251  0.35137257  1
  H  H7  1  0.13888093  0.93252749  0.85137257  1
  H  H8  1  0.61244638  0.42216436  0.65763765  1
  H  H9  1  0.38755362  0.07783564  0.15763765  1
  H  H10  1  0.38755362  0.57783564  0.34236235  1
  H  H11  1  0.61244638  0.92216436  0.84236235  1
  H  H12  1  0.64021195  0.36802160  0.53977384  1
  H  H13  1  0.35978805  0.13197840  0.03977384  1
  H  H14  1  0.23905778  0.13798346  0.42040992  1
  H  H15  1  0.35978805  0.63197840  0.46022616  1
  H  H16  1  0.27611704  0.93351809  0.61689055  1
  H  H17  1  0.72388296  0.56648191  0.11689055  1
  H  H18  1  0.72388296  0.06648191  0.38310945  1
  H  H19  1  0.27611704  0.43351809  0.88310945  1
  H  H20  1  0.48871886  0.05026837  0.66292430  1
  H  H21  1  0.51128114  0.44973163  0.16292430  1
  H  H22  1  0.51128114  0.94973163  0.33707570  1
  H  H23  1  0.48871886  0.55026837  0.83707570  1
  H  H24  1  0.08861136  0.25574718  0.46156469  1
  H  H25  1  0.91138864  0.24425282  0.96156469  1
  H  H26  1  0.91138864  0.74425282  0.53843531  1
  H  H27  1  0.08861136  0.75574718  0.03843531  1
  H  H28  1  0.23905778  0.63798346  0.07959008  1
  H  H29  1  0.76094222  0.86201654  0.57959008  1
  H  H30  1  0.76094222  0.36201654  0.92040992  1
  H  H31  1  0.64021195  0.86802160  0.96022616  1
  Be  Be32  1  0.31371405  0.73639830  0.90765476  1
  Be  Be33  1  0.68628595  0.76360170  0.40765476  1
  Be  Be34  1  0.68628595  0.26360170  0.09234524  1
  Be  Be35  1  0.31371405  0.23639830  0.59234524  1
  O  O36  1  0.21349744  0.71122950  0.02140466  1
  O  O37  1  0.78650256  0.78877050  0.52140466  1
  O  O38  1  0.78650256  0.28877050  0.97859534  1
  O  O39  1  0.21349744  0.21122950  0.47859534  1
  O  O40  1  0.15807485  0.31496979  0.66552494  1
  O  O41  1  0.84192515  0.18503021  0.16552494  1
  O  O42  1  0.84192515  0.68503021  0.33447506  1
  O  O43  1  0.15807485  0.81496979  0.83447506  1
  O  O44  1  0.53691458  0.37901569  0.59339137  1
  O  O45  1  0.46308542  0.12098431  0.09339137  1
  O  O46  1  0.46308542  0.62098431  0.40660863  1
  O  O47  1  0.53691458  0.87901569  0.90660863  1
  O  O48  1  0.34844397  0.05476760  0.63655033  1
  O  O49  1  0.65155603  0.44523240  0.13655033  1
  O  O50  1  0.65155603  0.94523240  0.36344967  1
  O  O51  1  0.34844397  0.55476760  0.86344967  1
  Cl  Cl52  1  0.82574511  0.82153639  0.07535171  1
  Cl  Cl53  1  0.17425489  0.67846361  0.57535171  1
  Cl  Cl54  1  0.17425489  0.17846361  0.92464829  1
  Cl  Cl55  1  0.82574511  0.32153639  0.42464829  1
  Cl  Cl56  1  0.76398322  0.01856061  0.70705642  1
  Cl  Cl57  1  0.23601678  0.48143939  0.20705642  1
  Cl  Cl58  1  0.23601678  0.98143939  0.29294358  1
  Cl  Cl59  1  0.76398322  0.51856061  0.79294358  1
