# generated using pymatgen
data_Li2Hf2O5
_symmetry_space_group_name_H-M   'P 1'
_cell_length_a   10.26480790
_cell_length_b   3.89635718
_cell_length_c   11.37030003
_cell_angle_alpha   90.00000000
_cell_angle_beta   106.68951815
_cell_angle_gamma   90.00000000
_symmetry_Int_Tables_number   1
_chemical_formula_structural   Li2Hf2O5
_chemical_formula_sum   'Li8 Hf8 O20'
_cell_volume   435.60251003
_cell_formula_units_Z   4
loop_
 _symmetry_equiv_pos_site_id
 _symmetry_equiv_pos_as_xyz
  1  'x, y, z'
loop_
 _atom_site_type_symbol
 _atom_site_label
 _atom_site_symmetry_multiplicity
 _atom_site_fract_x
 _atom_site_fract_y
 _atom_site_fract_z
 _atom_site_occupancy
  Li  Li0  1  0.09491996  0.26012568  0.04584953  1
  Li  Li1  1  0.25356228  0.29870924  0.32836281  1
  Li  Li2  1  0.24643772  0.79870924  0.17163719  1
  Li  Li3  1  0.40508004  0.76012568  0.45415047  1
  Li  Li4  1  0.59491996  0.23987432  0.54584953  1
  Li  Li5  1  0.75356228  0.20129076  0.82836281  1
  Li  Li6  1  0.74643772  0.70129076  0.67163719  1
  Li  Li7  1  0.90508004  0.73987432  0.95415047  1
  Hf  Hf8  1  0.18401923  0.67831865  0.85266590  1
  Hf  Hf9  1  0.03279678  0.86813468  0.36642215  1
  Hf  Hf10  1  0.31598077  0.17831865  0.64733410  1
  Hf  Hf11  1  0.53279678  0.63186532  0.86642215  1
  Hf  Hf12  1  0.46720322  0.36813468  0.13357785  1
  Hf  Hf13  1  0.68401923  0.82168135  0.35266590  1
  Hf  Hf14  1  0.96720322  0.13186532  0.63357785  1
  Hf  Hf15  1  0.81598077  0.32168135  0.14733410  1
  O  O16  1  0.10241203  0.74615046  0.98347181  1
  O  O17  1  0.17109083  0.16923109  0.78704727  1
  O  O18  1  0.99683234  0.34746323  0.29813498  1
  O  O19  1  0.12112428  0.11830489  0.53509231  1
  O  O20  1  0.37887572  0.61830489  0.96490769  1
  O  O21  1  0.21096739  0.80692150  0.33658927  1
  O  O22  1  0.32890917  0.66923109  0.71295273  1
  O  O23  1  0.39758797  0.24615046  0.51652819  1
  O  O24  1  0.28903261  0.30692150  0.16341073  1
  O  O25  1  0.49683234  0.15253677  0.79813498  1
  O  O26  1  0.50316766  0.84746323  0.20186502  1
  O  O27  1  0.71096739  0.69307850  0.83658927  1
  O  O28  1  0.60241203  0.75384954  0.48347181  1
  O  O29  1  0.67109083  0.33076891  0.28704727  1
  O  O30  1  0.78903261  0.19307850  0.66341073  1
  O  O31  1  0.62112428  0.38169511  0.03509231  1
  O  O32  1  0.87887572  0.88169511  0.46490769  1
  O  O33  1  0.00316766  0.65253677  0.70186502  1
  O  O34  1  0.82890917  0.83076891  0.21295273  1
  O  O35  1  0.89758797  0.25384954  0.01652819  1
