# generated using pymatgen
data_KHSO4
_symmetry_space_group_name_H-M   'P 1'
_cell_length_a   8.47732282
_cell_length_b   10.02338124
_cell_length_c   19.38196238
_cell_angle_alpha   90.00000000
_cell_angle_beta   90.00000000
_cell_angle_gamma   90.00000000
_symmetry_Int_Tables_number   1
_chemical_formula_structural   KHSO4
_chemical_formula_sum   'K16 H16 S16 O64'
_cell_volume   1646.91322476
_cell_formula_units_Z   16
loop_
 _symmetry_equiv_pos_site_id
 _symmetry_equiv_pos_as_xyz
  1  'x, y, z'
loop_
 _atom_site_type_symbol
 _atom_site_label
 _atom_site_symmetry_multiplicity
 _atom_site_fract_x
 _atom_site_fract_y
 _atom_site_fract_z
 _atom_site_occupancy
  H  H0  1  0.76969317  0.06337524  0.22466298  1
  H  H1  1  0.26969317  0.43662476  0.77533702  1
  H  H2  1  0.23030683  0.56337524  0.27533702  1
  H  H3  1  0.73030683  0.93662476  0.72466298  1
  H  H4  1  0.23030683  0.93662476  0.77533702  1
  H  H5  1  0.73030683  0.56337524  0.22466298  1
  H  H6  1  0.76969317  0.43662476  0.72466298  1
  H  H7  1  0.26969317  0.06337524  0.27533702  1
  H  H8  1  0.91017633  0.09791845  0.49868498  1
  H  H9  1  0.41017633  0.40208155  0.50131502  1
  H  H10  1  0.08982367  0.59791845  0.00131502  1
  H  H11  1  0.58982367  0.90208155  0.99868498  1
  H  H12  1  0.08982367  0.90208155  0.50131502  1
  H  H13  1  0.58982367  0.59791845  0.49868498  1
  H  H14  1  0.91017633  0.40208155  0.99868498  1
  H  H15  1  0.41017633  0.09791845  0.00131502  1
  O  O16  1  0.57810974  0.89286052  0.17999749  1
  O  O17  1  0.07810974  0.60713948  0.82000251  1
  O  O18  1  0.42189026  0.39286052  0.32000251  1
  O  O19  1  0.92189026  0.10713948  0.67999749  1
  O  O20  1  0.42189026  0.10713948  0.82000251  1
  O  O21  1  0.92189026  0.39286052  0.17999749  1
  O  O22  1  0.57810974  0.60713948  0.67999749  1
  O  O23  1  0.07810974  0.89286052  0.32000251  1
  O  O24  1  0.42119214  0.09655997  0.15847498  1
  O  O25  1  0.92119214  0.40344003  0.84152502  1
  O  O26  1  0.57880786  0.59655997  0.34152502  1
  O  O27  1  0.07880786  0.90344003  0.65847498  1
  O  O28  1  0.57880786  0.90344003  0.84152502  1
  O  O29  1  0.07880786  0.59655997  0.15847498  1
  O  O30  1  0.42119214  0.40344003  0.65847498  1
  O  O31  1  0.92119214  0.09655997  0.34152502  1
  O  O32  1  0.43487829  0.00172050  0.27422578  1
  O  O33  1  0.93487829  0.49827950  0.72577422  1
  O  O34  1  0.56512171  0.50172050  0.22577422  1
  O  O35  1  0.06512171  0.99827950  0.77422578  1
  O  O36  1  0.56512171  0.99827950  0.72577422  1
  O  O37  1  0.06512171  0.50172050  0.27422578  1
  O  O38  1  0.43487829  0.49827950  0.77422578  1
  O  O39  1  0.93487829  0.00172050  0.22577422  1
  O  O40  1  0.66318916  0.11348498  0.22321082  1
  O  O41  1  0.16318916  0.38651502  0.77678918  1
  O  O42  1  0.33681084  0.61348498  0.27678918  1
  O  O43  1  0.83681084  0.88651502  0.72321082  1
  O  O44  1  0.33681084  0.88651502  0.77678918  1
  O  O45  1  0.83681084  0.61348498  0.22321082  1
  O  O46  1  0.66318916  0.38651502  0.72321082  1
  O  O47  1  0.16318916  0.11348498  0.27678918  1
  O  O48  1  0.66679219  0.89914234  0.43379376  1
  O  O49  1  0.16679219  0.60085766  0.56620624  1
  O  O50  1  0.33320781  0.39914234  0.06620624  1
  O  O51  1  0.83320781  0.10085766  0.93379376  1
  O  O52  1  0.33320781  0.10085766  0.56620624  1
  O  O53  1  0.83320781  0.39914234  0.43379376  1
  O  O54  1  0.66679219  0.60085766  0.93379376  1
  O  O55  1  0.16679219  0.89914234  0.06620624  1
  O  O56  1  0.66773268  0.89533775  0.56043032  1
  O  O57  1  0.16773268  0.60466225  0.43956968  1
  O  O58  1  0.33226732  0.39533775  0.93956968  1
  O  O59  1  0.83226732  0.10466225  0.06043032  1
  O  O60  1  0.33226732  0.10466225  0.43956968  1
  O  O61  1  0.83226732  0.39533775  0.56043032  1
  O  O62  1  0.66773268  0.60466225  0.06043032  1
  O  O63  1  0.16773268  0.89533775  0.93956968  1
  O  O64  1  0.91125146  0.85393180  0.49623261  1
  O  O65  1  0.41125146  0.64606820  0.50376739  1
  O  O66  1  0.08874854  0.35393180  0.00376739  1
  O  O67  1  0.58874854  0.14606820  0.99623261  1
  O  O68  1  0.08874854  0.14606820  0.50376739  1
  O  O69  1  0.58874854  0.35393180  0.49623261  1
  O  O70  1  0.91125146  0.64606820  0.99623261  1
  O  O71  1  0.41125146  0.85393180  0.00376739  1
  O  O72  1  0.79220323  0.07911359  0.49879181  1
  O  O73  1  0.29220323  0.42088641  0.50120819  1
  O  O74  1  0.20779677  0.57911359  0.00120819  1
  O  O75  1  0.70779677  0.92088641  0.99879181  1
  O  O76  1  0.20779677  0.92088641  0.50120819  1
  O  O77  1  0.70779677  0.57911359  0.49879181  1
  O  O78  1  0.79220323  0.42088641  0.99879181  1
  O  O79  1  0.29220323  0.07911359  0.00120819  1
  S  S80  1  0.51667358  0.01891114  0.20648271  1
  S  S81  1  0.01667358  0.48108886  0.79351729  1
  S  S82  1  0.48332642  0.51891114  0.29351729  1
  S  S83  1  0.98332642  0.98108886  0.70648271  1
  S  S84  1  0.48332642  0.98108886  0.79351729  1
  S  S85  1  0.98332642  0.51891114  0.20648271  1
  S  S86  1  0.51667358  0.48108886  0.70648271  1
  S  S87  1  0.01667358  0.01891114  0.29351729  1
  S  S88  1  0.75621100  0.92223031  0.49715532  1
  S  S89  1  0.25621100  0.57776969  0.50284468  1
  S  S90  1  0.24378900  0.42223031  0.00284468  1
  S  S91  1  0.74378900  0.07776969  0.99715532  1
  S  S92  1  0.24378900  0.07776969  0.50284468  1
  S  S93  1  0.74378900  0.42223031  0.49715532  1
  S  S94  1  0.75621100  0.57776969  0.99715532  1
  S  S95  1  0.25621100  0.92223031  0.00284468  1
  K  K96  1  0.12343527  0.31801209  0.38109289  1
  K  K97  1  0.62343527  0.18198791  0.61890711  1
  K  K98  1  0.87656473  0.81801209  0.11890711  1
  K  K99  1  0.37656473  0.68198791  0.88109289  1
  K  K100  1  0.87656473  0.68198791  0.61890711  1
  K  K101  1  0.37656473  0.81801209  0.38109289  1
  K  K102  1  0.12343527  0.18198791  0.88109289  1
  K  K103  1  0.62343527  0.31801209  0.11890711  1
  K  K104  1  0.61646225  0.18025389  0.37535896  1
  K  K105  1  0.11646225  0.31974611  0.62464104  1
  K  K106  1  0.38353775  0.68025389  0.12464104  1
  K  K107  1  0.88353775  0.81974611  0.87535896  1
  K  K108  1  0.38353775  0.81974611  0.62464104  1
  K  K109  1  0.88353775  0.68025389  0.37535896  1
  K  K110  1  0.61646225  0.31974611  0.87535896  1
  K  K111  1  0.11646225  0.18025389  0.12464104  1
