# generated using pymatgen
data_La4Zn3O9
_symmetry_space_group_name_H-M   'P 1'
_cell_length_a   5.56609143
_cell_length_b   28.42317063
_cell_length_c   5.79028548
_cell_angle_alpha   90.00000000
_cell_angle_beta   90.00000000
_cell_angle_gamma   90.00000000
_symmetry_Int_Tables_number   1
_chemical_formula_structural   La4Zn3O9
_chemical_formula_sum   'La16 Zn12 O36'
_cell_volume   916.05771043
_cell_formula_units_Z   4
loop_
 _symmetry_equiv_pos_site_id
 _symmetry_equiv_pos_as_xyz
  1  'x, y, z'
loop_
 _atom_site_type_symbol
 _atom_site_label
 _atom_site_symmetry_multiplicity
 _atom_site_fract_x
 _atom_site_fract_y
 _atom_site_fract_z
 _atom_site_occupancy
  La  La0  1  0.24126100  0.17226659  0.02001456  1
  La  La1  1  0.24126100  0.32773341  0.02001456  1
  La  La2  1  0.25633440  0.95050720  0.48311463  1
  La  La3  1  0.25633440  0.54949280  0.48311463  1
  La  La4  1  0.24366560  0.04949280  0.98311363  1
  La  La5  1  0.24366560  0.45050720  0.98311363  1
  La  La6  1  0.25873900  0.67226659  0.52001456  1
  La  La7  1  0.25873900  0.82773341  0.52001456  1
  La  La8  1  0.74126100  0.17226659  0.47998544  1
  La  La9  1  0.74126100  0.32773341  0.47998544  1
  La  La10  1  0.75633440  0.54949280  0.01688637  1
  La  La11  1  0.75633440  0.95050720  0.01688637  1
  La  La12  1  0.74366560  0.04949280  0.51688637  1
  La  La13  1  0.74366560  0.45050720  0.51688637  1
  La  La14  1  0.75873900  0.67226659  0.97998544  1
  La  La15  1  0.75873900  0.82773341  0.97998544  1
  Zn  Zn16  1  0.20441998  0.25000000  0.55747765  1
  Zn  Zn17  1  0.25199024  0.61017858  0.00096584  1
  Zn  Zn18  1  0.25199024  0.88982142  0.00096584  1
  Zn  Zn19  1  0.24800976  0.11017858  0.50096584  1
  Zn  Zn20  1  0.24800976  0.38982142  0.50096584  1
  Zn  Zn21  1  0.29558002  0.75000000  0.05747765  1
  Zn  Zn22  1  0.70441998  0.25000000  0.94252235  1
  Zn  Zn23  1  0.75199024  0.61017858  0.49903416  1
  Zn  Zn24  1  0.75199024  0.88982142  0.49903416  1
  Zn  Zn25  1  0.74800976  0.11017858  0.99903416  1
  Zn  Zn26  1  0.74800976  0.38982142  0.99903416  1
  Zn  Zn27  1  0.79558002  0.75000000  0.44252235  1
  O  O28  1  0.00021274  0.61999480  0.24949779  1
  O  O29  1  0.00021274  0.88000520  0.24949779  1
  O  O30  1  0.00745319  0.60136131  0.74413408  1
  O  O31  1  0.00745319  0.89863869  0.74413408  1
  O  O32  1  0.16802912  0.75000000  0.38742339  1
  O  O33  1  0.24104033  0.52911746  0.07962150  1
  O  O34  1  0.24104033  0.97088254  0.07962150  1
  O  O35  1  0.27561266  0.31056013  0.41529684  1
  O  O36  1  0.27561266  0.18943987  0.41529684  1
  O  O37  1  0.22438734  0.81056013  0.91529684  1
  O  O38  1  0.22438734  0.68943987  0.91529684  1
  O  O39  1  0.25895967  0.02911746  0.57962150  1
  O  O40  1  0.25895967  0.47088254  0.57962150  1
  O  O41  1  0.33197088  0.25000000  0.88742339  1
  O  O42  1  0.49254681  0.10136131  0.24413408  1
  O  O43  1  0.49254681  0.39863869  0.24413408  1
  O  O44  1  0.49978726  0.11999480  0.74949779  1
  O  O45  1  0.49978726  0.38000520  0.74949779  1
  O  O46  1  0.50021274  0.88000520  0.25050221  1
  O  O47  1  0.50021274  0.61999480  0.25050221  1
  O  O48  1  0.50745319  0.60136131  0.75586592  1
  O  O49  1  0.50745319  0.89863869  0.75586592  1
  O  O50  1  0.66802912  0.75000000  0.11257661  1
  O  O51  1  0.74104033  0.52911746  0.42037850  1
  O  O52  1  0.74104033  0.97088254  0.42037850  1
  O  O53  1  0.77561266  0.18943987  0.08470316  1
  O  O54  1  0.77561266  0.31056013  0.08470316  1
  O  O55  1  0.72438734  0.68943987  0.58470316  1
  O  O56  1  0.72438734  0.81056013  0.58470316  1
  O  O57  1  0.75895967  0.02911746  0.92037850  1
  O  O58  1  0.75895967  0.47088254  0.92037850  1
  O  O59  1  0.83197088  0.25000000  0.61257661  1
  O  O60  1  0.99254681  0.10136131  0.25586592  1
  O  O61  1  0.99254681  0.39863869  0.25586592  1
  O  O62  1  0.99978726  0.11999480  0.75050221  1
  O  O63  1  0.99978726  0.38000520  0.75050221  1
