# generated using pymatgen
data_CsB5(H2O3)4
_symmetry_space_group_name_H-M   'P 1'
_cell_length_a   7.24615242
_cell_length_b   11.69589231
_cell_length_c   14.08106781
_cell_angle_alpha   92.07225591
_cell_angle_beta   90.00000000
_cell_angle_gamma   90.00000000
_symmetry_Int_Tables_number   1
_chemical_formula_structural   CsB5(H2O3)4
_chemical_formula_sum   'Cs4 B20 H32 O48'
_cell_volume   1192.59313001
_cell_formula_units_Z   4
loop_
 _symmetry_equiv_pos_site_id
 _symmetry_equiv_pos_as_xyz
  1  'x, y, z'
loop_
 _atom_site_type_symbol
 _atom_site_label
 _atom_site_symmetry_multiplicity
 _atom_site_fract_x
 _atom_site_fract_y
 _atom_site_fract_z
 _atom_site_occupancy
  H  H0  1  0.74704068  0.25281866  0.34443241  1
  H  H1  1  0.24704068  0.74718134  0.15556759  1
  H  H2  1  0.25295932  0.74718134  0.65556759  1
  H  H3  1  0.75295932  0.25281866  0.84443241  1
  H  H4  1  0.69961216  0.24773203  0.45594000  1
  H  H5  1  0.19961216  0.75226797  0.04406000  1
  H  H6  1  0.30038784  0.75226797  0.54406000  1
  H  H7  1  0.80038784  0.24773203  0.95594000  1
  H  H8  1  0.96741261  0.73966041  0.31836736  1
  H  H9  1  0.46741261  0.26033959  0.18163264  1
  H  H10  1  0.03258739  0.26033959  0.68163264  1
  H  H11  1  0.53258739  0.73966041  0.81836736  1
  H  H12  1  0.74621173  0.74893832  0.32934544  1
  H  H13  1  0.24621173  0.25106168  0.17065456  1
  H  H14  1  0.25378827  0.25106168  0.67065456  1
  H  H15  1  0.75378827  0.74893832  0.82934544  1
  H  H16  1  0.87483768  0.92465703  0.31120995  1
  H  H17  1  0.37483768  0.07534297  0.18879005  1
  H  H18  1  0.12516232  0.07534297  0.68879005  1
  H  H19  1  0.62516232  0.92465703  0.81120995  1
  H  H20  1  0.72818298  0.01595679  0.93095913  1
  H  H21  1  0.22818298  0.98404321  0.56904087  1
  H  H22  1  0.27181702  0.98404321  0.06904087  1
  H  H23  1  0.77181702  0.01595679  0.43095913  1
  H  H24  1  0.18903685  0.56571015  0.10623498  1
  H  H25  1  0.68903685  0.43428985  0.39376502  1
  H  H26  1  0.81096315  0.43428985  0.89376502  1
  H  H27  1  0.31096315  0.56571015  0.60623498  1
  H  H28  1  0.43076406  0.48402830  0.14302255  1
  H  H29  1  0.93076406  0.51597170  0.35697745  1
  H  H30  1  0.56923594  0.51597170  0.85697745  1
  H  H31  1  0.06923594  0.48402830  0.64302255  1
  B  B32  1  0.86313023  0.06625295  0.23533860  1
  B  B33  1  0.36313023  0.93374705  0.26466140  1
  B  B34  1  0.13686977  0.93374705  0.76466140  1
  B  B35  1  0.63686977  0.06625295  0.73533860  1
  B  B36  1  0.81507488  0.05606427  0.06607417  1
  B  B37  1  0.31507488  0.94393573  0.43392583  1
  B  B38  1  0.18492512  0.94393573  0.93392583  1
  B  B39  1  0.68492512  0.05606427  0.56607417  1
  B  B40  1  0.03220719  0.42828194  0.12972402  1
  B  B41  1  0.53220719  0.57171806  0.37027598  1
  B  B42  1  0.96779281  0.57171806  0.87027598  1
  B  B43  1  0.46779281  0.42828194  0.62972402  1
  B  B44  1  0.70258089  0.44363310  0.14660329  1
  B  B45  1  0.20258089  0.55636690  0.35339671  1
  B  B46  1  0.29741911  0.55636690  0.85339671  1
  B  B47  1  0.79741911  0.44363310  0.64660329  1
  B  B48  1  0.84728164  0.24892750  0.14866974  1
  B  B49  1  0.34728164  0.75107250  0.35133026  1
  B  B50  1  0.15271836  0.75107250  0.85133026  1
  B  B51  1  0.65271836  0.24892750  0.64866974  1
  O  O52  1  0.68626522  0.29385380  0.39847702  1
  O  O53  1  0.18626522  0.70614620  0.10152298  1
  O  O54  1  0.31373478  0.70614620  0.60152298  1
  O  O55  1  0.81373478  0.29385380  0.89847702  1
  O  O56  1  0.85686854  0.78467124  0.30166503  1
  O  O57  1  0.35686854  0.21532876  0.19833497  1
  O  O58  1  0.14313146  0.21532876  0.69833497  1
  O  O59  1  0.64313146  0.78467124  0.80166503  1
  O  O60  1  0.87804956  0.01092575  0.31943519  1
  O  O61  1  0.37804956  0.98907425  0.18056481  1
  O  O62  1  0.12195044  0.98907425  0.68056481  1
  O  O63  1  0.62195044  0.01092575  0.81943519  1
  O  O64  1  0.77394063  0.98393049  0.99066487  1
  O  O65  1  0.27394063  0.01606951  0.50933513  1
  O  O66  1  0.22605937  0.01606951  0.00933513  1
  O  O67  1  0.72605937  0.98393049  0.49066487  1
  O  O68  1  0.19891860  0.48030746  0.11368599  1
  O  O69  1  0.69891860  0.51969254  0.38631401  1
  O  O70  1  0.80108140  0.51969254  0.88631401  1
  O  O71  1  0.30108140  0.48030746  0.61368599  1
  O  O72  1  0.55630541  0.51715458  0.14698384  1
  O  O73  1  0.05630541  0.48284542  0.35301616  1
  O  O74  1  0.44369459  0.48284542  0.85301616  1
  O  O75  1  0.94369459  0.51715458  0.64698384  1
  O  O76  1  0.85215243  0.00185824  0.15076185  1
  O  O77  1  0.35215243  0.99814176  0.34923815  1
  O  O78  1  0.14784757  0.99814176  0.84923815  1
  O  O79  1  0.64784757  0.00185824  0.65076185  1
  O  O80  1  0.87410303  0.49513977  0.13442938  1
  O  O81  1  0.37410303  0.50486023  0.36557062  1
  O  O82  1  0.12589697  0.50486023  0.86557062  1
  O  O83  1  0.62589697  0.49513977  0.63442938  1
  O  O84  1  0.85758743  0.18343768  0.23672990  1
  O  O85  1  0.35758743  0.81656232  0.26327010  1
  O  O86  1  0.14241257  0.81656232  0.76327010  1
  O  O87  1  0.64241257  0.18343768  0.73672990  1
  O  O88  1  0.81648605  0.17299727  0.06311306  1
  O  O89  1  0.31648605  0.82700273  0.43688694  1
  O  O90  1  0.18351395  0.82700273  0.93688694  1
  O  O91  1  0.68351395  0.17299727  0.56311306  1
  O  O92  1  0.02434331  0.31184693  0.13645369  1
  O  O93  1  0.52434331  0.68815307  0.36354631  1
  O  O94  1  0.97565669  0.68815307  0.86354631  1
  O  O95  1  0.47565669  0.31184693  0.63645369  1
  O  O96  1  0.68761002  0.32810092  0.15667559  1
  O  O97  1  0.18761002  0.67189908  0.34332441  1
  O  O98  1  0.31238998  0.67189908  0.84332441  1
  O  O99  1  0.81238998  0.32810092  0.65667559  1
  Cs  Cs100  1  0.73472354  0.74662999  0.08516155  1
  Cs  Cs101  1  0.23472354  0.25337001  0.41483845  1
  Cs  Cs102  1  0.26527646  0.25337001  0.91483845  1
  Cs  Cs103  1  0.76527646  0.74662999  0.58516155  1
