# generated using pymatgen
data_Li4TiNi5(PO4)6
_symmetry_space_group_name_H-M   'P 1'
_cell_length_a   8.38947782
_cell_length_b   8.77276555
_cell_length_c   8.75454939
_cell_angle_alpha   60.08643356
_cell_angle_beta   59.12773511
_cell_angle_gamma   59.19600029
_symmetry_Int_Tables_number   1
_chemical_formula_structural   Li4TiNi5(PO4)6
_chemical_formula_sum   'Li4 Ti1 Ni5 P6 O24'
_cell_volume   450.03450319
_cell_formula_units_Z   1
loop_
 _symmetry_equiv_pos_site_id
 _symmetry_equiv_pos_as_xyz
  1  'x, y, z'
loop_
 _atom_site_type_symbol
 _atom_site_label
 _atom_site_symmetry_multiplicity
 _atom_site_fract_x
 _atom_site_fract_y
 _atom_site_fract_z
 _atom_site_occupancy
  Li  Li0  1  0.25482335  0.85084859  0.64231141  1
  Li  Li1  1  0.78667237  0.15102837  0.34902541  1
  Li  Li2  1  0.78703114  0.71063715  0.14735950  1
  Li  Li3  1  0.78906547  0.35426186  0.71073055  1
  Ti  Ti4  1  0.55020375  0.15224834  0.14969322  1
  Ni  Ni5  1  0.00965078  0.99911841  0.00038486  1
  Ni  Ni6  1  0.07091582  0.64250948  0.64522312  1
  Ni  Ni7  1  0.49777437  0.49715682  0.49802711  1
  Ni  Ni8  1  0.43375517  0.85354985  0.85553422  1
  Ni  Ni9  1  0.93912088  0.35289719  0.35256873  1
  P  P10  1  0.24020449  0.25710074  0.55642573  1
  P  P11  1  0.24112436  0.95063360  0.24920851  1
  P  P12  1  0.24044853  0.55592482  0.95139006  1
  P  P13  1  0.74858045  0.45428410  0.04330887  1
  P  P14  1  0.76203323  0.04145388  0.75145664  1
  P  P15  1  0.73566144  0.75470719  0.45681246  1
  O  O16  1  0.05020147  0.10338446  0.31683824  1
  O  O17  1  0.04992960  0.52490194  0.10400081  1
  O  O18  1  0.04843526  0.32941661  0.52294760  1
  O  O19  1  0.22403111  0.09192398  0.74269563  1
  O  O20  1  0.41785213  0.18635285  0.38607246  1
  O  O21  1  0.28448036  0.40650972  0.55675102  1
  O  O22  1  0.22644538  0.92637513  0.09563013  1
  O  O23  1  0.28537355  0.76445339  0.41023750  1
  O  O24  1  0.56320133  0.59908098  0.00283520  1
  O  O25  1  0.28725792  0.56262140  0.75229761  1
  O  O26  1  0.76913264  0.24479545  0.08254031  1
  O  O27  1  0.59029534  0.98250355  0.82268145  1
  O  O28  1  0.42000550  0.01578309  0.17573716  1
  O  O29  1  0.21968875  0.75298542  0.92563164  1
  O  O30  1  0.72186614  0.43753137  0.24410815  1
  O  O31  1  0.41913224  0.38793144  0.01106192  1
  O  O32  1  0.72875937  0.23975174  0.59356976  1
  O  O33  1  0.76891025  0.08599371  0.90533559  1
  O  O34  1  0.72418495  0.59333799  0.43280405  1
  O  O35  1  0.53521192  0.82429751  0.59946205  1
  O  O36  1  0.76306122  0.90642922  0.24930172  1
  O  O37  1  0.91141261  0.70457509  0.50050462  1
  O  O38  1  0.93957632  0.47920752  0.89071287  1
  O  O39  1  0.96448804  0.89449406  0.69378212  1
