# generated using pymatgen
data_Rb5Zr4F21
_symmetry_space_group_name_H-M   'P 1'
_cell_length_a   8.02553474
_cell_length_b   11.45095330
_cell_length_c   11.75179593
_cell_angle_alpha   90.00000000
_cell_angle_beta   98.24456358
_cell_angle_gamma   90.00000000
_symmetry_Int_Tables_number   1
_chemical_formula_structural   Rb5Zr4F21
_chemical_formula_sum   'Rb10 Zr8 F42'
_cell_volume   1068.82862019
_cell_formula_units_Z   2
loop_
 _symmetry_equiv_pos_site_id
 _symmetry_equiv_pos_as_xyz
  1  'x, y, z'
loop_
 _atom_site_type_symbol
 _atom_site_label
 _atom_site_symmetry_multiplicity
 _atom_site_fract_x
 _atom_site_fract_y
 _atom_site_fract_z
 _atom_site_occupancy
  F  F0  1  0.94126045  0.10392079  0.71230943  1
  F  F1  1  0.05873955  0.60392079  0.28769057  1
  F  F2  1  0.62364053  0.06374471  0.60237812  1
  F  F3  1  0.37635947  0.56374471  0.39762188  1
  F  F4  1  0.94766977  0.12250530  0.49722700  1
  F  F5  1  0.05233023  0.62250530  0.50277300  1
  F  F6  1  0.48005749  0.16779220  0.80994281  1
  F  F7  1  0.51994251  0.66779220  0.19005719  1
  F  F8  1  0.88673989  0.35637879  0.55981064  1
  F  F9  1  0.11326011  0.85637879  0.44018936  1
  F  F10  1  0.43464022  0.33193799  0.30161658  1
  F  F11  1  0.56535978  0.83193799  0.69838342  1
  F  F12  1  0.54370542  0.30340781  0.59856998  1
  F  F13  1  0.45629458  0.80340781  0.40143002  1
  F  F14  1  0.32835676  0.20618917  0.12620256  1
  F  F15  1  0.34479229  0.40370758  0.88226833  1
  F  F16  1  0.29561758  0.12992153  0.38300578  1
  F  F17  1  0.70438242  0.62992153  0.61699422  1
  F  F18  1  0.61069465  0.00242139  0.32377115  1
  F  F19  1  0.38930535  0.50242139  0.67622885  1
  F  F20  1  0.01312060  0.89345265  0.99013262  1
  F  F21  1  0.98687940  0.39345265  0.00986738  1
  F  F22  1  0.00671796  0.79419001  0.76401894  1
  F  F23  1  0.99328204  0.29419001  0.23598106  1
  F  F24  1  0.34678693  0.99559888  0.19884237  1
  F  F25  1  0.65321307  0.49559888  0.80115763  1
  F  F26  1  0.10373649  0.64874081  0.96644243  1
  F  F27  1  0.89626351  0.14874081  0.03355757  1
  F  F28  1  0.23659730  0.77931587  0.24147606  1
  F  F29  1  0.76340270  0.27931587  0.75852394  1
  F  F30  1  0.28544724  0.94513695  0.84443560  1
  F  F31  1  0.71455276  0.44513695  0.15556440  1
  F  F32  1  0.32962012  0.69328281  0.81963684  1
  F  F33  1  0.67037988  0.19328281  0.18036316  1
  F  F34  1  0.34685780  0.70613811  0.58116101  1
  F  F35  1  0.65314220  0.20613811  0.41883899  1
  F  F36  1  0.73960621  0.79381453  0.31067345  1
  F  F37  1  0.26039379  0.29381453  0.68932655  1
  F  F38  1  0.36193840  0.81775146  0.04776769  1
  F  F39  1  0.63806160  0.31775146  0.95223231  1
  F  F40  1  0.67164324  0.70618917  0.87379744  1
  F  F41  1  0.65520771  0.90370758  0.11773167  1
  Rb  Rb42  1  0.31526800  0.47850295  0.11441593  1
  Rb  Rb43  1  0.68473200  0.97850295  0.88558407  1
  Rb  Rb44  1  0.02409632  0.51008910  0.74429400  1
  Rb  Rb45  1  0.97590368  0.01008910  0.25570600  1
  Rb  Rb46  1  0.16611675  0.17352142  0.90475185  1
  Rb  Rb47  1  0.83388325  0.67352142  0.09524815  1
  Rb  Rb48  1  0.19343558  0.35985387  0.45577138  1
  Rb  Rb49  1  0.80656442  0.85985387  0.54422862  1
  Rb  Rb50  1  0.28221977  0.02412762  0.60834633  1
  Rb  Rb51  1  0.71778023  0.52412762  0.39165367  1
  Zr  Zr52  1  0.46572983  0.15809163  0.27630996  1
  Zr  Zr53  1  0.53427017  0.65809163  0.72369004  1
  Zr  Zr54  1  0.82567963  0.30533695  0.09247792  1
  Zr  Zr55  1  0.17432037  0.80533695  0.90752208  1
  Zr  Zr56  1  0.49757525  0.33991826  0.77149907  1
  Zr  Zr57  1  0.50242475  0.83991826  0.22850093  1
  Zr  Zr58  1  0.78388561  0.19820887  0.59355623  1
  Zr  Zr59  1  0.21611439  0.69820887  0.40644377  1
