# generated using pymatgen
data_Ba7(BIr)12
_symmetry_space_group_name_H-M   'P 1'
_cell_length_a   9.35230047
_cell_length_b   9.35230121
_cell_length_c   9.35230094
_cell_angle_alpha   111.38396106
_cell_angle_beta   111.38396275
_cell_angle_gamma   111.38396615
_symmetry_Int_Tables_number   1
_chemical_formula_structural   Ba7(BIr)12
_chemical_formula_sum   'Ba7 B12 Ir12'
_cell_volume   580.85042846
_cell_formula_units_Z   1
loop_
 _symmetry_equiv_pos_site_id
 _symmetry_equiv_pos_as_xyz
  1  'x, y, z'
loop_
 _atom_site_type_symbol
 _atom_site_label
 _atom_site_symmetry_multiplicity
 _atom_site_fract_x
 _atom_site_fract_y
 _atom_site_fract_z
 _atom_site_occupancy
  Ir  Ir0  1  0.33043167  0.66956833  0.00000000  1
  Ir  Ir1  1  0.00000000  0.33043167  0.66956833  1
  Ir  Ir2  1  0.66956833  1.00000000  0.33043167  1
  Ir  Ir3  1  0.66956833  0.33043167  1.00000000  1
  Ir  Ir4  1  1.00000000  0.66956833  0.33043167  1
  Ir  Ir5  1  0.33043167  0.00000000  0.66956833  1
  Ir  Ir6  1  0.23590686  0.61525434  0.23590686  1
  Ir  Ir7  1  0.23590686  0.23590686  0.61525434  1
  Ir  Ir8  1  0.61525434  0.23590686  0.23590686  1
  Ir  Ir9  1  0.38474566  0.76409314  0.76409314  1
  Ir  Ir10  1  0.76409314  0.38474566  0.76409314  1
  Ir  Ir11  1  0.76409314  0.76409314  0.38474566  1
  Ba  Ba12  1  0.70739003  0.01099427  0.70739003  1
  Ba  Ba13  1  0.70739003  0.70739003  0.01099427  1
  Ba  Ba14  1  0.01099427  0.70739003  0.70739003  1
  Ba  Ba15  1  0.98900573  0.29260997  0.29260997  1
  Ba  Ba16  1  0.29260997  0.98900573  0.29260997  1
  Ba  Ba17  1  0.29260997  0.29260997  0.98900573  1
  Ba  Ba18  1  0.50000000  0.50000000  0.50000000  1
  B  B19  1  0.72703013  0.27296987  0.50000000  1
  B  B20  1  0.50000000  0.72703013  0.27296987  1
  B  B21  1  0.27296987  0.50000000  0.72703013  1
  B  B22  1  0.27296987  0.72703013  0.50000000  1
  B  B23  1  0.50000000  0.27296987  0.72703013  1
  B  B24  1  0.72703013  0.50000000  0.27296987  1
  B  B25  1  0.94079015  0.05920985  0.50000000  1
  B  B26  1  0.50000000  0.94079015  0.05920985  1
  B  B27  1  0.05920985  0.50000000  0.94079015  1
  B  B28  1  0.05920985  0.94079015  0.50000000  1
  B  B29  1  0.50000000  0.05920985  0.94079015  1
  B  B30  1  0.94079015  0.50000000  0.05920985  1
