# generated using pymatgen
data_Rb3H(SO4)2
_symmetry_space_group_name_H-M   'P 1'
_cell_length_a   6.01119647
_cell_length_b   8.32349410
_cell_length_c   10.33024278
_cell_angle_alpha   101.63649345
_cell_angle_beta   90.00000000
_cell_angle_gamma   111.16765190
_symmetry_Int_Tables_number   1
_chemical_formula_structural   Rb3H(SO4)2
_chemical_formula_sum   'Rb6 H2 S4 O16'
_cell_volume   470.58125008
_cell_formula_units_Z   2
loop_
 _symmetry_equiv_pos_site_id
 _symmetry_equiv_pos_as_xyz
  1  'x, y, z'
loop_
 _atom_site_type_symbol
 _atom_site_label
 _atom_site_symmetry_multiplicity
 _atom_site_fract_x
 _atom_site_fract_y
 _atom_site_fract_z
 _atom_site_occupancy
  H  H0  1  0.50000000  0.00000000  0.50000000  1
  H  H1  1  0.50000000  0.00000000  0.00000000  1
  O  O2  1  0.80289467  0.75059519  0.60338895  1
  O  O3  1  0.05229948  0.24940481  0.89661105  1
  O  O4  1  0.19710533  0.24940481  0.39661105  1
  O  O5  1  0.94770052  0.75059519  0.10338895  1
  O  O6  1  0.57925572  0.69686116  0.39028811  1
  O  O7  1  0.88239455  0.30313884  0.10971189  1
  O  O8  1  0.42074428  0.30313884  0.60971189  1
  O  O9  1  0.11760545  0.69686116  0.89028811  1
  O  O10  1  0.31334172  0.97175721  0.05392494  1
  O  O11  1  0.34158452  0.02824279  0.44607506  1
  O  O12  1  0.68665828  0.02824279  0.94607506  1
  O  O13  1  0.65841548  0.97175721  0.55392494  1
  O  O14  1  0.32214698  0.69467381  0.09477862  1
  O  O15  1  0.62747317  0.30532619  0.40522138  1
  O  O16  1  0.67785302  0.30532619  0.90522138  1
  O  O17  1  0.37252683  0.69467381  0.59477862  1
  S  S18  1  0.60134943  0.76969226  0.53515734  1
  S  S19  1  0.83165717  0.23030774  0.96484266  1
  S  S20  1  0.39865057  0.23030774  0.46484266  1
  S  S21  1  0.16834283  0.76969226  0.03515734  1
  Rb  Rb22  1  0.41328289  0.37966269  0.15231064  1
  Rb  Rb23  1  0.03362021  0.62033731  0.34768936  1
  Rb  Rb24  1  0.58671711  0.62033731  0.84768936  1
  Rb  Rb25  1  0.96637979  0.37966269  0.65231064  1
  Rb  Rb26  1  0.24410248  0.00000000  0.75000000  1
  Rb  Rb27  1  0.75589752  0.00000000  0.25000000  1
