# generated using pymatgen
data_TlPb2Cl5
_symmetry_space_group_name_H-M   'P 1'
_cell_length_a   8.09239638
_cell_length_b   9.04336491
_cell_length_c   12.78297754
_cell_angle_alpha   90.05272535
_cell_angle_beta   90.00000000
_cell_angle_gamma   90.00000000
_symmetry_Int_Tables_number   1
_chemical_formula_structural   TlPb2Cl5
_chemical_formula_sum   'Tl4 Pb8 Cl20'
_cell_volume   935.48977369
_cell_formula_units_Z   4
loop_
 _symmetry_equiv_pos_site_id
 _symmetry_equiv_pos_as_xyz
  1  'x, y, z'
loop_
 _atom_site_type_symbol
 _atom_site_label
 _atom_site_symmetry_multiplicity
 _atom_site_fract_x
 _atom_site_fract_y
 _atom_site_fract_z
 _atom_site_occupancy
  Cl  Cl0  1  0.84668904  0.22327526  0.31282440  1
  Cl  Cl1  1  0.34668904  0.77672474  0.18717560  1
  Cl  Cl2  1  0.15331096  0.77672474  0.68717560  1
  Cl  Cl3  1  0.65331096  0.22327526  0.81282440  1
  Cl  Cl4  1  0.81543773  0.77162938  0.28193880  1
  Cl  Cl5  1  0.31543773  0.22837062  0.21806120  1
  Cl  Cl6  1  0.18456227  0.22837062  0.71806120  1
  Cl  Cl7  1  0.68456227  0.77162938  0.78193880  1
  Cl  Cl8  1  0.67382814  0.46334464  0.08272089  1
  Cl  Cl9  1  0.17382814  0.53665536  0.41727911  1
  Cl  Cl10  1  0.32617186  0.53665536  0.91727911  1
  Cl  Cl11  1  0.82617186  0.46334464  0.58272089  1
  Cl  Cl12  1  0.83529655  0.03983697  0.60004808  1
  Cl  Cl13  1  0.33529655  0.96016303  0.89995192  1
  Cl  Cl14  1  0.16470345  0.96016303  0.39995192  1
  Cl  Cl15  1  0.66470345  0.03983697  0.10004808  1
  Cl  Cl16  1  0.95488690  0.78341004  0.00193923  1
  Cl  Cl17  1  0.45488690  0.21658996  0.49806077  1
  Cl  Cl18  1  0.04511310  0.21658996  0.99806077  1
  Cl  Cl19  1  0.54511310  0.78341004  0.50193923  1
  Tl  Tl20  1  0.95350403  0.48753921  0.83162402  1
  Tl  Tl21  1  0.45350403  0.51246079  0.66837598  1
  Tl  Tl22  1  0.04649597  0.51246079  0.16837598  1
  Tl  Tl23  1  0.54649597  0.48753921  0.33162402  1
  Pb  Pb24  1  0.50383783  0.99226202  0.32464545  1
  Pb  Pb25  1  0.00383783  0.00773798  0.17535455  1
  Pb  Pb26  1  0.49616217  0.00773798  0.67535455  1
  Pb  Pb27  1  0.99616217  0.99226202  0.82464545  1
  Pb  Pb28  1  0.56193797  0.74747568  0.00459354  1
  Pb  Pb29  1  0.06193797  0.25252432  0.49540646  1
  Pb  Pb30  1  0.43806203  0.25252432  0.99540646  1
  Pb  Pb31  1  0.93806203  0.74747568  0.50459354  1
