# generated using pymatgen
data_Li2AlFeO4
_symmetry_space_group_name_H-M   'P 1'
_cell_length_a   6.47952437
_cell_length_b   10.82700885
_cell_length_c   5.13735952
_cell_angle_alpha   90.00000000
_cell_angle_beta   90.00000000
_cell_angle_gamma   90.04577755
_symmetry_Int_Tables_number   1
_chemical_formula_structural   Li2AlFeO4
_chemical_formula_sum   'Li8 Al4 Fe4 O16'
_cell_volume   360.40552512
_cell_formula_units_Z   4
loop_
 _symmetry_equiv_pos_site_id
 _symmetry_equiv_pos_as_xyz
  1  'x, y, z'
loop_
 _atom_site_type_symbol
 _atom_site_label
 _atom_site_symmetry_multiplicity
 _atom_site_fract_x
 _atom_site_fract_y
 _atom_site_fract_z
 _atom_site_occupancy
  Li  Li0  1  0.00029915  0.58313095  0.32155539  1
  Li  Li1  1  0.00029915  0.08313095  0.17844461  1
  Li  Li2  1  0.24462166  0.66429688  0.82982062  1
  Li  Li3  1  0.24462166  0.16429688  0.67017938  1
  Li  Li4  1  0.75537834  0.83570312  0.32982062  1
  Li  Li5  1  0.75537834  0.33570312  0.17017938  1
  Li  Li6  1  0.99970085  0.91686905  0.82155539  1
  Li  Li7  1  0.99970085  0.41686905  0.67844461  1
  Al  Al8  1  0.50062180  0.90967970  0.82814153  1
  Al  Al9  1  0.50062180  0.40967970  0.67185847  1
  Al  Al10  1  0.49937820  0.59032030  0.32814153  1
  Al  Al11  1  0.49937820  0.09032030  0.17185847  1
  Fe  Fe12  1  0.23863914  0.83345927  0.33031519  1
  Fe  Fe13  1  0.23863914  0.33345927  0.16968481  1
  Fe  Fe14  1  0.76136086  0.66654073  0.83031519  1
  Fe  Fe15  1  0.76136086  0.16654073  0.66968481  1
  O  O16  1  0.00618142  0.90310684  0.20749581  1
  O  O17  1  0.00618142  0.40310684  0.29250419  1
  O  O18  1  0.27474711  0.84400989  0.70141766  1
  O  O19  1  0.27474711  0.34400989  0.79858234  1
  O  O20  1  0.27585159  0.66460732  0.21836015  1
  O  O21  1  0.27585159  0.16460732  0.28163985  1
  O  O22  1  0.48676133  0.92192434  0.18575742  1
  O  O23  1  0.48676133  0.42192434  0.31424258  1
  O  O24  1  0.51323867  0.57807566  0.68575742  1
  O  O25  1  0.51323867  0.07807566  0.81424258  1
  O  O26  1  0.72414841  0.83539268  0.71836015  1
  O  O27  1  0.72414841  0.33539268  0.78163985  1
  O  O28  1  0.72525289  0.65599011  0.20141766  1
  O  O29  1  0.72525289  0.15599011  0.29858234  1
  O  O30  1  0.99381858  0.59689316  0.70749581  1
  O  O31  1  0.99381858  0.09689316  0.79250419  1
