# generated using pymatgen
data_K3GeTe3
_symmetry_space_group_name_H-M   'P 1'
_cell_length_a   9.83809432
_cell_length_b   10.67277162
_cell_length_c   10.67277162
_cell_angle_alpha   81.37828913
_cell_angle_beta   85.78541576
_cell_angle_gamma   85.78541580
_symmetry_Int_Tables_number   1
_chemical_formula_structural   K3GeTe3
_chemical_formula_sum   'K12 Ge4 Te12'
_cell_volume   1102.75817909
_cell_formula_units_Z   4
loop_
 _symmetry_equiv_pos_site_id
 _symmetry_equiv_pos_as_xyz
  1  'x, y, z'
loop_
 _atom_site_type_symbol
 _atom_site_label
 _atom_site_symmetry_multiplicity
 _atom_site_fract_x
 _atom_site_fract_y
 _atom_site_fract_z
 _atom_site_occupancy
  K  K0  1  0.77497844  0.24806160  0.22481214  1
  K  K1  1  0.72502156  0.77518786  0.75193840  1
  K  K2  1  0.22502156  0.75193840  0.77518786  1
  K  K3  1  0.27497844  0.22481214  0.24806160  1
  K  K4  1  0.86549153  0.36785729  0.81011750  1
  K  K5  1  0.63450847  0.18988250  0.63214271  1
  K  K6  1  0.13450847  0.63214271  0.18988250  1
  K  K7  1  0.36549153  0.81011750  0.36785729  1
  K  K8  1  0.75000000  0.59690633  0.40309367  1
  K  K9  1  0.25000000  0.40309367  0.59690633  1
  K  K10  1  0.75000000  0.90591217  0.09408783  1
  K  K11  1  0.25000000  0.09408783  0.90591217  1
  Ge  Ge12  1  0.04061642  0.07551970  0.56839416  1
  Ge  Ge13  1  0.45938358  0.43160584  0.92448030  1
  Ge  Ge14  1  0.95938358  0.92448030  0.43160584  1
  Ge  Ge15  1  0.54061642  0.56839416  0.07551970  1
  Te  Te16  1  0.30903216  0.05333995  0.56829855  1
  Te  Te17  1  0.19096784  0.43170145  0.94666005  1
  Te  Te18  1  0.69096784  0.94666005  0.43170145  1
  Te  Te19  1  0.80903216  0.56829855  0.05333995  1
  Te  Te20  1  0.96183647  0.30979742  0.47701884  1
  Te  Te21  1  0.53816353  0.52298116  0.69020258  1
  Te  Te22  1  0.03816353  0.69020258  0.52298116  1
  Te  Te23  1  0.46183647  0.47701884  0.30979742  1
  Te  Te24  1  0.93741113  0.02173810  0.80081454  1
  Te  Te25  1  0.56258887  0.19918546  0.97826190  1
  Te  Te26  1  0.06258887  0.97826190  0.19918546  1
  Te  Te27  1  0.43741113  0.80081454  0.02173810  1
