# generated using pymatgen
data_Nb2SeF14
_symmetry_space_group_name_H-M   'P 1'
_cell_length_a   7.82361588
_cell_length_b   9.04874990
_cell_length_c   17.59701745
_cell_angle_alpha   90.00000000
_cell_angle_beta   90.00000000
_cell_angle_gamma   103.77906237
_symmetry_Int_Tables_number   1
_chemical_formula_structural   Nb2SeF14
_chemical_formula_sum   'Nb8 Se4 F56'
_cell_volume   1209.91094207
_cell_formula_units_Z   4
loop_
 _symmetry_equiv_pos_site_id
 _symmetry_equiv_pos_as_xyz
  1  'x, y, z'
loop_
 _atom_site_type_symbol
 _atom_site_label
 _atom_site_symmetry_multiplicity
 _atom_site_fract_x
 _atom_site_fract_y
 _atom_site_fract_z
 _atom_site_occupancy
  F  F0  1  0.82148651  0.30763323  0.66731188  1
  F  F1  1  0.17851349  0.19236677  0.16731188  1
  F  F2  1  0.17851349  0.69236677  0.33268812  1
  F  F3  1  0.82148651  0.80763323  0.83268812  1
  F  F4  1  0.67963456  0.03244035  0.70091697  1
  F  F5  1  0.32036544  0.46755965  0.20091697  1
  F  F6  1  0.32036544  0.96755965  0.29908303  1
  F  F7  1  0.67963456  0.53244035  0.79908303  1
  F  F8  1  0.68148870  0.12821257  0.56651383  1
  F  F9  1  0.31851130  0.37178743  0.06651383  1
  F  F10  1  0.31851130  0.87178743  0.43348617  1
  F  F11  1  0.68148870  0.62821257  0.93348617  1
  F  F12  1  0.02787602  0.66157147  0.75703677  1
  F  F13  1  0.97212398  0.83842853  0.25703677  1
  F  F14  1  0.97212398  0.33842853  0.24296323  1
  F  F15  1  0.02787602  0.16157147  0.74296323  1
  F  F16  1  0.38062006  0.79477652  0.60060631  1
  F  F17  1  0.61937994  0.70522348  0.10060631  1
  F  F18  1  0.61937994  0.20522348  0.39939369  1
  F  F19  1  0.38062006  0.29477652  0.89939369  1
  F  F20  1  0.39181485  0.76733002  0.75809756  1
  F  F21  1  0.60818515  0.73266998  0.25809756  1
  F  F22  1  0.60818515  0.23266998  0.24190244  1
  F  F23  1  0.39181485  0.26733002  0.74190244  1
  F  F24  1  0.15693085  0.91927090  0.67820941  1
  F  F25  1  0.84306915  0.58072910  0.17820941  1
  F  F26  1  0.84306915  0.08072910  0.32179059  1
  F  F27  1  0.15693085  0.41927090  0.82179059  1
  F  F28  1  0.21701588  0.52067619  0.66233675  1
  F  F29  1  0.78298412  0.97932381  0.16233675  1
  F  F30  1  0.78298412  0.47932381  0.33766325  1
  F  F31  1  0.21701588  0.02067619  0.83766325  1
  F  F32  1  0.01001691  0.67622164  0.60093800  1
  F  F33  1  0.98998309  0.82377836  0.10093800  1
  F  F34  1  0.98998309  0.32377836  0.39906200  1
  F  F35  1  0.01001691  0.17622164  0.89906200  1
  F  F36  1  0.95289419  0.75768051  0.45639568  1
  F  F37  1  0.04710581  0.74231949  0.95639568  1
  F  F38  1  0.04710581  0.24231949  0.54360432  1
  F  F39  1  0.95289419  0.25768051  0.04360432  1
  F  F40  1  0.65407368  0.60747467  0.62791771  1
  F  F41  1  0.34592632  0.89252533  0.12791771  1
  F  F42  1  0.34592632  0.39252533  0.37208229  1
  F  F43  1  0.65407368  0.10747467  0.87208229  1
  F  F44  1  0.59229093  0.67963765  0.47648488  1
  F  F45  1  0.40770907  0.82036235  0.97648488  1
  F  F46  1  0.40770907  0.32036235  0.52351512  1
  F  F47  1  0.59229093  0.17963765  0.02351512  1
  F  F48  1  0.82182117  0.88433565  0.57551487  1
  F  F49  1  0.17817883  0.61566435  0.07551487  1
  F  F50  1  0.17817883  0.11566435  0.42448513  1
  F  F51  1  0.82182117  0.38433565  0.92448513  1
  F  F52  1  0.79639522  0.47317881  0.51214869  1
  F  F53  1  0.20360478  0.02682119  0.01214869  1
  F  F54  1  0.20360478  0.52682119  0.48785131  1
  F  F55  1  0.79639522  0.97317881  0.98785131  1
  Se  Se56  1  0.83523878  0.62892497  0.86293370  1
  Se  Se57  1  0.16476122  0.87107503  0.36293370  1
  Se  Se58  1  0.16476122  0.37107503  0.13706630  1
  Se  Se59  1  0.83523878  0.12892497  0.63706630  1
  Nb  Nb60  1  0.22149119  0.22843385  0.81859445  1
  Nb  Nb61  1  0.77850881  0.27156615  0.31859445  1
  Nb  Nb62  1  0.77850881  0.77156615  0.18140555  1
  Nb  Nb63  1  0.22149119  0.72843385  0.68140555  1
  Nb  Nb64  1  0.78409058  0.67215458  0.53866454  1
  Nb  Nb65  1  0.21590942  0.82784542  0.03866454  1
  Nb  Nb66  1  0.21590942  0.32784542  0.46133546  1
  Nb  Nb67  1  0.78409058  0.17215458  0.96133546  1
