# generated using pymatgen
data_NaGaH4
_symmetry_space_group_name_H-M   'P 1'
_cell_length_a   4.81948662
_cell_length_b   4.81948663
_cell_length_c   7.08934664
_cell_angle_alpha   90.00000000
_cell_angle_beta   90.00000000
_cell_angle_gamma   94.69511102
_symmetry_Int_Tables_number   1
_chemical_formula_structural   NaGaH4
_chemical_formula_sum   'Na2 Ga2 H8'
_cell_volume   164.11489180
_cell_formula_units_Z   2
loop_
 _symmetry_equiv_pos_site_id
 _symmetry_equiv_pos_as_xyz
  1  'x, y, z'
loop_
 _atom_site_type_symbol
 _atom_site_label
 _atom_site_symmetry_multiplicity
 _atom_site_fract_x
 _atom_site_fract_y
 _atom_site_fract_z
 _atom_site_occupancy
  H  H0  1  0.20838347  0.84276272  0.75000000  1
  H  H1  1  0.79161653  0.15723728  0.25000000  1
  H  H2  1  0.84276272  0.20838347  0.75000000  1
  H  H3  1  0.15723728  0.79161653  0.25000000  1
  H  H4  1  0.68510546  0.68510546  0.43004396  1
  H  H5  1  0.31489454  0.31489454  0.93004396  1
  H  H6  1  0.68510546  0.68510546  0.06995604  1
  H  H7  1  0.31489454  0.31489454  0.56995604  1
  Na  Na8  1  0.33805060  0.33805060  0.25000000  1
  Na  Na9  1  0.66194940  0.66194940  0.75000000  1
  Ga  Ga10  1  0.83192265  0.83192265  0.25000000  1
  Ga  Ga11  1  0.16807735  0.16807735  0.75000000  1
