# generated using pymatgen
data_Ca9Zn4Bi9
_symmetry_space_group_name_H-M   'P 1'
_cell_length_a   4.69127650
_cell_length_b   12.75886608
_cell_length_c   22.27041516
_cell_angle_alpha   90.00000000
_cell_angle_beta   90.00000000
_cell_angle_gamma   90.00000000
_symmetry_Int_Tables_number   1
_chemical_formula_structural   Ca9Zn4Bi9
_chemical_formula_sum   'Ca18 Zn8 Bi18'
_cell_volume   1333.00390845
_cell_formula_units_Z   2
loop_
 _symmetry_equiv_pos_site_id
 _symmetry_equiv_pos_as_xyz
  1  'x, y, z'
loop_
 _atom_site_type_symbol
 _atom_site_label
 _atom_site_symmetry_multiplicity
 _atom_site_fract_x
 _atom_site_fract_y
 _atom_site_fract_z
 _atom_site_occupancy
  Ca  Ca0  1  0.50000000  0.50000000  0.50000000  1
  Ca  Ca1  1  0.50000000  0.00000000  0.00000000  1
  Ca  Ca2  1  0.00000000  0.87394009  0.23465641  1
  Ca  Ca3  1  0.00000000  0.12605991  0.76534359  1
  Ca  Ca4  1  0.00000000  0.37394009  0.26534359  1
  Ca  Ca5  1  0.00000000  0.62605991  0.73465641  1
  Ca  Ca6  1  0.50000000  0.70470290  0.10078435  1
  Ca  Ca7  1  0.50000000  0.29529710  0.89921565  1
  Ca  Ca8  1  0.50000000  0.20470290  0.39921565  1
  Ca  Ca9  1  0.50000000  0.79529710  0.60078435  1
  Ca  Ca10  1  0.00000000  0.92785586  0.41129936  1
  Ca  Ca11  1  0.00000000  0.07214414  0.58870064  1
  Ca  Ca12  1  0.00000000  0.42785586  0.08870064  1
  Ca  Ca13  1  0.00000000  0.57214414  0.91129936  1
  Ca  Ca14  1  0.00000000  0.63114944  0.36208366  1
  Ca  Ca15  1  0.00000000  0.36885056  0.63791634  1
  Ca  Ca16  1  0.00000000  0.13114944  0.13791634  1
  Ca  Ca17  1  0.00000000  0.86885056  0.86208366  1
  Zn  Zn18  1  0.50000000  0.72904400  0.95283195  1
  Zn  Zn19  1  0.50000000  0.27095600  0.04716805  1
  Zn  Zn20  1  0.50000000  0.22904400  0.54716805  1
  Zn  Zn21  1  0.50000000  0.77095600  0.45283195  1
  Zn  Zn22  1  0.50000000  0.88932583  0.76306526  1
  Zn  Zn23  1  0.50000000  0.11067417  0.23693474  1
  Zn  Zn24  1  0.50000000  0.38932583  0.73693474  1
  Zn  Zn25  1  0.50000000  0.61067417  0.26306526  1
  Bi  Bi26  1  0.50000000  0.00000000  0.50000000  1
  Bi  Bi27  1  0.50000000  0.50000000  0.00000000  1
  Bi  Bi28  1  0.00000000  0.61372399  0.19319326  1
  Bi  Bi29  1  0.00000000  0.38627601  0.80680674  1
  Bi  Bi30  1  0.00000000  0.11372399  0.30680674  1
  Bi  Bi31  1  0.00000000  0.88627601  0.69319326  1
  Bi  Bi32  1  0.50000000  0.80894557  0.32951022  1
  Bi  Bi33  1  0.50000000  0.19105443  0.67048978  1
  Bi  Bi34  1  0.50000000  0.30894557  0.17048978  1
  Bi  Bi35  1  0.50000000  0.69105443  0.82951022  1
  Bi  Bi36  1  0.50000000  0.95352307  0.14467694  1
  Bi  Bi37  1  0.50000000  0.04647693  0.85532306  1
  Bi  Bi38  1  0.50000000  0.45352307  0.35532306  1
  Bi  Bi39  1  0.50000000  0.54647693  0.64467694  1
  Bi  Bi40  1  0.00000000  0.80959580  0.00906054  1
  Bi  Bi41  1  0.00000000  0.19040420  0.99093946  1
  Bi  Bi42  1  0.00000000  0.30959580  0.49093946  1
  Bi  Bi43  1  0.00000000  0.69040420  0.50906054  1
