# generated using pymatgen
data_Rb3Au3Cl8
_symmetry_space_group_name_H-M   'P 1'
_cell_length_a   7.27038699
_cell_length_b   7.27038699
_cell_length_c   18.76096200
_cell_angle_alpha   83.39086187
_cell_angle_beta   83.39086186
_cell_angle_gamma   64.04993610
_symmetry_Int_Tables_number   1
_chemical_formula_structural   Rb3Au3Cl8
_chemical_formula_sum   'Rb6 Au6 Cl16'
_cell_volume   883.43684623
_cell_formula_units_Z   2
loop_
 _symmetry_equiv_pos_site_id
 _symmetry_equiv_pos_as_xyz
  1  'x, y, z'
loop_
 _atom_site_type_symbol
 _atom_site_label
 _atom_site_symmetry_multiplicity
 _atom_site_fract_x
 _atom_site_fract_y
 _atom_site_fract_z
 _atom_site_occupancy
  Cl  Cl0  1  0.49768436  0.09770346  0.24657520  1
  Cl  Cl1  1  0.90229654  0.50231564  0.25342480  1
  Cl  Cl2  1  0.50231564  0.90229654  0.75342480  1
  Cl  Cl3  1  0.09770346  0.49768436  0.74657520  1
  Cl  Cl4  1  0.24588580  0.67166791  0.37592197  1
  Cl  Cl5  1  0.32833209  0.75411420  0.12407803  1
  Cl  Cl6  1  0.75411420  0.32833209  0.62407803  1
  Cl  Cl7  1  0.67166791  0.24588580  0.87592197  1
  Cl  Cl8  1  0.28457910  0.84110779  0.57074788  1
  Cl  Cl9  1  0.15889221  0.71542090  0.92925212  1
  Cl  Cl10  1  0.71542090  0.15889221  0.42925212  1
  Cl  Cl11  1  0.84110779  0.28457910  0.07074788  1
  Cl  Cl12  1  0.20542803  0.14837065  0.93623394  1
  Cl  Cl13  1  0.85162935  0.79457197  0.56376606  1
  Cl  Cl14  1  0.79457197  0.85162935  0.06376606  1
  Cl  Cl15  1  0.14837065  0.20542803  0.43623394  1
  Rb  Rb16  1  0.01576741  0.98423259  0.75000000  1
  Rb  Rb17  1  0.98423259  0.01576741  0.25000000  1
  Rb  Rb18  1  0.32204625  0.31305141  0.58377976  1
  Rb  Rb19  1  0.68694859  0.67795375  0.91622024  1
  Rb  Rb20  1  0.67795375  0.68694859  0.41622024  1
  Rb  Rb21  1  0.31305141  0.32204625  0.08377976  1
  Au  Au22  1  0.00000000  0.00000000  0.00000000  1
  Au  Au23  1  0.00000000  0.00000000  0.50000000  1
  Au  Au24  1  0.38846446  0.38226700  0.80883071  1
  Au  Au25  1  0.61773300  0.61153554  0.69116929  1
  Au  Au26  1  0.61153554  0.61773300  0.19116929  1
  Au  Au27  1  0.38226700  0.38846446  0.30883071  1
