# generated using pymatgen
data_H4CSN2
_symmetry_space_group_name_H-M   'P 1'
_cell_length_a   5.74980095
_cell_length_b   7.92450374
_cell_length_c   8.66005262
_cell_angle_alpha   90.00000000
_cell_angle_beta   90.00000000
_cell_angle_gamma   90.00000000
_symmetry_Int_Tables_number   1
_chemical_formula_structural   H4CSN2
_chemical_formula_sum   'H16 C4 S4 N8'
_cell_volume   394.58940128
_cell_formula_units_Z   4
loop_
 _symmetry_equiv_pos_site_id
 _symmetry_equiv_pos_as_xyz
  1  'x, y, z'
loop_
 _atom_site_type_symbol
 _atom_site_label
 _atom_site_symmetry_multiplicity
 _atom_site_fract_x
 _atom_site_fract_y
 _atom_site_fract_z
 _atom_site_occupancy
  H  H0  1  0.80483070  0.09318700  0.48710742  1
  H  H1  1  0.30483070  0.40681300  0.51289258  1
  H  H2  1  0.69516930  0.59318700  0.01289258  1
  H  H3  1  0.19516930  0.90681300  0.98710742  1
  H  H4  1  0.19516930  0.90681300  0.51289258  1
  H  H5  1  0.69516930  0.59318700  0.48710742  1
  H  H6  1  0.30483070  0.40681300  0.98710742  1
  H  H7  1  0.80483070  0.09318700  0.01289258  1
  H  H8  1  0.59537215  0.20584098  0.37902257  1
  H  H9  1  0.59537215  0.20584098  0.12097743  1
  H  H10  1  0.90462785  0.70584098  0.12097743  1
  H  H11  1  0.40462785  0.79415902  0.87902257  1
  H  H12  1  0.40462785  0.79415902  0.62097743  1
  H  H13  1  0.90462785  0.70584098  0.37902257  1
  H  H14  1  0.09537215  0.29415902  0.87902257  1
  H  H15  1  0.09537215  0.29415902  0.62097743  1
  C  C16  1  0.66008896  0.58177001  0.25000000  1
  C  C17  1  0.83991104  0.08177001  0.25000000  1
  C  C18  1  0.33991104  0.41822999  0.75000000  1
  C  C19  1  0.16008896  0.91822999  0.75000000  1
  N  N20  1  0.73838041  0.12919010  0.38230793  1
  N  N21  1  0.76161959  0.62919010  0.38230793  1
  N  N22  1  0.23838041  0.37080990  0.88230793  1
  N  N23  1  0.73838041  0.12919010  0.11769207  1
  N  N24  1  0.26161959  0.87080990  0.61769207  1
  N  N25  1  0.26161959  0.87080990  0.88230793  1
  N  N26  1  0.76161959  0.62919010  0.11769207  1
  N  N27  1  0.23838041  0.37080990  0.61769207  1
  S  S28  1  0.90758596  0.03441337  0.75000000  1
  S  S29  1  0.40758596  0.46558663  0.25000000  1
  S  S30  1  0.59241404  0.53441337  0.75000000  1
  S  S31  1  0.09241404  0.96558663  0.25000000  1
