# generated using pymatgen
data_KScBP2HO9
_symmetry_space_group_name_H-M   'P 1'
_cell_length_a   5.33972906
_cell_length_b   8.39899012
_cell_length_c   8.47306144
_cell_angle_alpha   88.21737700
_cell_angle_beta   79.93687721
_cell_angle_gamma   86.65886274
_symmetry_Int_Tables_number   1
_chemical_formula_structural   KScBP2HO9
_chemical_formula_sum   'K2 Sc2 B2 P4 H2 O18'
_cell_volume   373.43603096
_cell_formula_units_Z   2
loop_
 _symmetry_equiv_pos_site_id
 _symmetry_equiv_pos_as_xyz
  1  'x, y, z'
loop_
 _atom_site_type_symbol
 _atom_site_label
 _atom_site_symmetry_multiplicity
 _atom_site_fract_x
 _atom_site_fract_y
 _atom_site_fract_z
 _atom_site_occupancy
  H  H0  1  0.58092976  0.86815063  0.51609859  1
  H  H1  1  0.41907024  0.13184937  0.48390141  1
  B  B2  1  0.88757780  0.72881756  0.55850443  1
  B  B3  1  0.11242220  0.27118244  0.44149557  1
  O  O4  1  0.56012235  0.36339592  0.79588216  1
  O  O5  1  0.43987765  0.63660408  0.20411784  1
  O  O6  1  0.71834938  0.80336957  0.45319774  1
  O  O7  1  0.28165062  0.19663043  0.54680226  1
  O  O8  1  0.46647286  0.00339565  0.24747657  1
  O  O9  1  0.53352714  0.99660435  0.75252343  1
  O  O10  1  0.02821148  0.40673223  0.79341145  1
  O  O11  1  0.97178852  0.59326777  0.20658855  1
  O  O12  1  0.03843143  0.15395894  0.33485302  1
  O  O13  1  0.96156857  0.84604106  0.66514698  1
  O  O14  1  0.05924362  0.92343664  0.15554910  1
  O  O15  1  0.94075638  0.07656336  0.84445090  1
  O  O16  1  0.12510290  0.66490977  0.46374718  1
  O  O17  1  0.87489710  0.33509023  0.53625282  1
  O  O18  1  0.26803544  0.17952467  0.04981211  1
  O  O19  1  0.73196456  0.82047533  0.95018789  1
  O  O20  1  0.25759181  0.39640426  0.34037388  1
  O  O21  1  0.74240819  0.60359574  0.65962612  1
  P  P22  1  0.78703973  0.93957340  0.80646145  1
  P  P23  1  0.21296027  0.06042660  0.19353855  1
  P  P24  1  0.80630513  0.42404002  0.69919844  1
  P  P25  1  0.19369487  0.57595998  0.30080156  1
  K  K26  1  0.71966642  0.32313435  0.12042329  1
  K  K27  1  0.28033358  0.67686565  0.87957671  1
  Sc  Sc28  1  0.27644854  0.19658565  0.80446406  1
  Sc  Sc29  1  0.72355146  0.80341435  0.19553594  1
