# generated using pymatgen
data_Mg2PHO5
_symmetry_space_group_name_H-M   'P 1'
_cell_length_a   6.20164673
_cell_length_b   7.45925146
_cell_length_c   8.36219025
_cell_angle_alpha   90.00000000
_cell_angle_beta   90.00000000
_cell_angle_gamma   90.00000000
_symmetry_Int_Tables_number   1
_chemical_formula_structural   Mg2PHO5
_chemical_formula_sum   'Mg8 P4 H4 O20'
_cell_volume   386.83193086
_cell_formula_units_Z   4
loop_
 _symmetry_equiv_pos_site_id
 _symmetry_equiv_pos_as_xyz
  1  'x, y, z'
loop_
 _atom_site_type_symbol
 _atom_site_label
 _atom_site_symmetry_multiplicity
 _atom_site_fract_x
 _atom_site_fract_y
 _atom_site_fract_z
 _atom_site_occupancy
  H  H0  1  0.25000000  0.73420401  0.94638702  1
  H  H1  1  0.75000000  0.26579599  0.05361298  1
  H  H2  1  0.75000000  0.23420401  0.55361298  1
  H  H3  1  0.25000000  0.76579599  0.44638702  1
  O  O4  1  0.25000000  0.81363767  0.03945247  1
  O  O5  1  0.75000000  0.18636233  0.96054753  1
  O  O6  1  0.75000000  0.31363767  0.46054753  1
  O  O7  1  0.25000000  0.68636233  0.53945247  1
  O  O8  1  0.25000000  0.43929010  0.97913630  1
  O  O9  1  0.75000000  0.56070990  0.02086370  1
  O  O10  1  0.75000000  0.93929010  0.52086370  1
  O  O11  1  0.25000000  0.06070990  0.47913630  1
  O  O12  1  0.45414790  0.12357095  0.22251194  1
  O  O13  1  0.95414790  0.87642905  0.77748806  1
  O  O14  1  0.54585210  0.62357095  0.27748806  1
  O  O15  1  0.04585210  0.37642905  0.72251194  1
  O  O16  1  0.54585210  0.87642905  0.77748806  1
  O  O17  1  0.04585210  0.12357095  0.22251194  1
  O  O18  1  0.45414790  0.37642905  0.72251194  1
  O  O19  1  0.95414790  0.62357095  0.27748806  1
  O  O20  1  0.25000000  0.37251393  0.36440072  1
  O  O21  1  0.75000000  0.62748607  0.63559928  1
  O  O22  1  0.75000000  0.87251393  0.13559928  1
  O  O23  1  0.25000000  0.12748607  0.86440072  1
  Mg  Mg24  1  0.25000000  0.57660118  0.17582815  1
  Mg  Mg25  1  0.75000000  0.42339882  0.82417185  1
  Mg  Mg26  1  0.75000000  0.07660118  0.32417185  1
  Mg  Mg27  1  0.25000000  0.92339882  0.67582815  1
  Mg  Mg28  1  0.50000000  0.00000000  0.00000000  1
  Mg  Mg29  1  0.00000000  0.00000000  0.00000000  1
  Mg  Mg30  1  0.50000000  0.50000000  0.50000000  1
  Mg  Mg31  1  0.00000000  0.50000000  0.50000000  1
  P  P32  1  0.25000000  0.33417792  0.82361773  1
  P  P33  1  0.75000000  0.66582208  0.17638227  1
  P  P34  1  0.75000000  0.83417792  0.67638227  1
  P  P35  1  0.25000000  0.16582208  0.32361773  1
