# generated using pymatgen
data_Sr7(H6Cl)2
_symmetry_space_group_name_H-M   'P 1'
_cell_length_a   9.99830700
_cell_length_b   9.99830700
_cell_length_c   3.95357337
_cell_angle_alpha   90.00000000
_cell_angle_beta   90.00000000
_cell_angle_gamma   120.00000000
_symmetry_Int_Tables_number   1
_chemical_formula_structural   Sr7(H6Cl)2
_chemical_formula_sum   'Sr7 H12 Cl2'
_cell_volume   342.27357427
_cell_formula_units_Z   1
loop_
 _symmetry_equiv_pos_site_id
 _symmetry_equiv_pos_as_xyz
  1  'x, y, z'
loop_
 _atom_site_type_symbol
 _atom_site_label
 _atom_site_symmetry_multiplicity
 _atom_site_fract_x
 _atom_site_fract_y
 _atom_site_fract_z
 _atom_site_occupancy
  H  H0  1  0.56352753  0.11786020  0.50000000  1
  H  H1  1  0.88213980  0.44566732  0.50000000  1
  H  H2  1  0.55433268  0.43647247  0.50000000  1
  H  H3  1  0.71566375  0.77277479  0.50000000  1
  H  H4  1  0.22722521  0.94288896  0.50000000  1
  H  H5  1  0.05711104  0.28433625  0.50000000  1
  H  H6  1  0.82382677  0.21429177  0.00000000  1
  H  H7  1  0.78570823  0.60953500  0.00000000  1
  H  H8  1  0.39046500  0.17617323  0.00000000  1
  H  H9  1  0.30151499  0.39333942  0.00000000  1
  H  H10  1  0.09182442  0.69848501  0.00000000  1
  H  H11  1  0.60666058  0.90817558  0.00000000  1
  Cl  Cl12  1  0.00000000  0.00000000  0.00000000  1
  Cl  Cl13  1  0.33333333  0.66666667  0.50000000  1
  Sr  Sr14  1  0.26768072  0.21696893  0.50000000  1
  Sr  Sr15  1  0.55965783  0.63819879  0.00000000  1
  Sr  Sr16  1  0.36180121  0.92145904  0.00000000  1
  Sr  Sr17  1  0.07854096  0.44034217  0.00000000  1
  Sr  Sr18  1  0.66666667  0.33333333  0.00000000  1
  Sr  Sr19  1  0.94928822  0.73231928  0.50000000  1
  Sr  Sr20  1  0.78303107  0.05071178  0.50000000  1
