# generated using pymatgen
data_LiH6BrO7
_symmetry_space_group_name_H-M   'P 1'
_cell_length_a   7.89848394
_cell_length_b   7.89848394
_cell_length_c   5.69737216
_cell_angle_alpha   90.00000000
_cell_angle_beta   90.00000000
_cell_angle_gamma   120.00000001
_symmetry_Int_Tables_number   1
_chemical_formula_structural   LiH6BrO7
_chemical_formula_sum   'Li2 H12 Br2 O14'
_cell_volume   307.81706961
_cell_formula_units_Z   2
loop_
 _symmetry_equiv_pos_site_id
 _symmetry_equiv_pos_as_xyz
  1  'x, y, z'
loop_
 _atom_site_type_symbol
 _atom_site_label
 _atom_site_symmetry_multiplicity
 _atom_site_fract_x
 _atom_site_fract_y
 _atom_site_fract_z
 _atom_site_occupancy
  H  H0  1  0.73825737  0.67422179  0.94865930  1
  H  H1  1  0.26174263  0.93596442  0.44865930  1
  H  H2  1  0.32577821  0.06403558  0.94865930  1
  H  H3  1  0.93596442  0.26174263  0.94865930  1
  H  H4  1  0.06403558  0.73825737  0.44865930  1
  H  H5  1  0.26174263  0.32577821  0.44865930  1
  H  H6  1  0.67422179  0.93596442  0.44865930  1
  H  H7  1  0.73825737  0.06403558  0.94865930  1
  H  H8  1  0.67422179  0.73825737  0.44865930  1
  H  H9  1  0.06403558  0.32577821  0.44865930  1
  H  H10  1  0.93596442  0.67422179  0.94865930  1
  H  H11  1  0.32577821  0.26174263  0.94865930  1
  Li  Li12  1  0.00000000  0.00000000  0.70656466  1
  Li  Li13  1  0.00000000  0.00000000  0.20656466  1
  O  O14  1  0.88056147  0.76112294  0.95374387  1
  O  O15  1  0.55290809  0.10581618  0.40214903  1
  O  O16  1  0.76112294  0.88056147  0.45374387  1
  O  O17  1  0.88056147  0.11943853  0.95374387  1
  O  O18  1  0.11943853  0.88056147  0.45374387  1
  O  O19  1  0.55290809  0.44709191  0.40214903  1
  O  O20  1  0.10581618  0.55290809  0.90214903  1
  O  O21  1  0.44709191  0.89418382  0.90214903  1
  O  O22  1  0.11943853  0.23887706  0.45374387  1
  O  O23  1  0.89418382  0.44709191  0.40214903  1
  O  O24  1  0.44709191  0.55290809  0.90214903  1
  O  O25  1  0.66666667  0.33333333  0.79085131  1
  O  O26  1  0.33333333  0.66666667  0.29085131  1
  O  O27  1  0.23887706  0.11943853  0.95374387  1
  Br  Br28  1  0.33333333  0.66666667  0.00224952  1
  Br  Br29  1  0.66666667  0.33333333  0.50224952  1
