# generated using pymatgen
data_KPHNO2
_symmetry_space_group_name_H-M   'P 1'
_cell_length_a   8.19564138
_cell_length_b   8.19564138
_cell_length_c   8.19564138
_cell_angle_alpha   103.79679192
_cell_angle_beta   103.79679193
_cell_angle_gamma   103.79679198
_symmetry_Int_Tables_number   1
_chemical_formula_structural   KPHNO2
_chemical_formula_sum   'K6 P6 H6 N6 O12'
_cell_volume   493.06676363
_cell_formula_units_Z   6
loop_
 _symmetry_equiv_pos_site_id
 _symmetry_equiv_pos_as_xyz
  1  'x, y, z'
loop_
 _atom_site_type_symbol
 _atom_site_label
 _atom_site_symmetry_multiplicity
 _atom_site_fract_x
 _atom_site_fract_y
 _atom_site_fract_z
 _atom_site_occupancy
  H  H0  1  0.73813525  0.43146203  0.54161890  1
  H  H1  1  0.43146203  0.54161890  0.73813525  1
  H  H2  1  0.54161890  0.73813525  0.43146203  1
  H  H3  1  0.26186475  0.56853797  0.45838110  1
  H  H4  1  0.56853797  0.45838110  0.26186475  1
  H  H5  1  0.45838110  0.26186475  0.56853797  1
  N  N6  1  0.79441786  0.55225241  0.64099761  1
  N  N7  1  0.55225241  0.64099761  0.79441786  1
  N  N8  1  0.64099761  0.79441786  0.55225241  1
  N  N9  1  0.20558214  0.44774759  0.35900239  1
  N  N10  1  0.44774759  0.35900239  0.20558214  1
  N  N11  1  0.35900239  0.20558214  0.44774759  1
  O  O12  1  0.19835735  0.35931068  0.64085058  1
  O  O13  1  0.64085058  0.19835735  0.35931068  1
  O  O14  1  0.35931068  0.64085058  0.19835735  1
  O  O15  1  0.80164265  0.64068932  0.35914942  1
  O  O16  1  0.35914942  0.80164265  0.64068932  1
  O  O17  1  0.64068932  0.35914942  0.80164265  1
  O  O18  1  0.33143343  0.01516244  0.12923753  1
  O  O19  1  0.12923753  0.33143343  0.01516244  1
  O  O20  1  0.01516244  0.12923753  0.33143343  1
  O  O21  1  0.66856657  0.98483756  0.87076247  1
  O  O22  1  0.87076247  0.66856657  0.98483756  1
  O  O23  1  0.98483756  0.87076247  0.66856657  1
  P  P24  1  0.18005597  0.27861518  0.44756123  1
  P  P25  1  0.27861518  0.44756123  0.18005597  1
  P  P26  1  0.44756123  0.18005597  0.27861518  1
  P  P27  1  0.81994403  0.72138482  0.55243877  1
  P  P28  1  0.72138482  0.55243877  0.81994403  1
  P  P29  1  0.55243877  0.81994403  0.72138482  1
  K  K30  1  0.87170076  0.17311985  0.68526941  1
  K  K31  1  0.17311985  0.68526941  0.87170076  1
  K  K32  1  0.68526941  0.87170076  0.17311985  1
  K  K33  1  0.12829924  0.82688015  0.31473059  1
  K  K34  1  0.82688015  0.31473059  0.12829924  1
  K  K35  1  0.31473059  0.12829924  0.82688015  1
