# generated using pymatgen
data_NbSeF9
_symmetry_space_group_name_H-M   'P 1'
_cell_length_a   9.14132002
_cell_length_b   9.14132002
_cell_length_c   9.14132002
_cell_angle_alpha   93.27253641
_cell_angle_beta   93.27253642
_cell_angle_gamma   93.27253647
_symmetry_Int_Tables_number   1
_chemical_formula_structural   NbSeF9
_chemical_formula_sum   'Nb4 Se4 F36'
_cell_volume   759.99686901
_cell_formula_units_Z   4
loop_
 _symmetry_equiv_pos_site_id
 _symmetry_equiv_pos_as_xyz
  1  'x, y, z'
loop_
 _atom_site_type_symbol
 _atom_site_label
 _atom_site_symmetry_multiplicity
 _atom_site_fract_x
 _atom_site_fract_y
 _atom_site_fract_z
 _atom_site_occupancy
  F  F0  1  0.57452352  0.49946291  0.09174669  1
  F  F1  1  0.49946291  0.09174669  0.57452352  1
  F  F2  1  0.09174669  0.57452352  0.49946291  1
  F  F3  1  0.87635679  0.05113487  0.17086182  1
  F  F4  1  0.05113487  0.17086182  0.87635679  1
  F  F5  1  0.17086182  0.87635679  0.05113487  1
  F  F6  1  0.71041383  0.79426304  0.14827515  1
  F  F7  1  0.79426304  0.14827515  0.71041383  1
  F  F8  1  0.64738488  0.40882417  0.55313204  1
  F  F9  1  0.55313204  0.64738488  0.40882417  1
  F  F10  1  0.40882417  0.55313204  0.64738488  1
  F  F11  1  0.81258695  0.67197827  0.57751563  1
  F  F12  1  0.57751563  0.81258695  0.67197827  1
  F  F13  1  0.67197827  0.57751563  0.81258695  1
  F  F14  1  0.25638936  0.63941002  0.19937524  1
  F  F15  1  0.19937524  0.25638936  0.63941002  1
  F  F16  1  0.63941002  0.19937524  0.25638936  1
  F  F17  1  0.40889031  0.73237778  0.96185503  1
  F  F18  1  0.96185503  0.40889031  0.73237778  1
  F  F19  1  0.73237778  0.96185503  0.40889031  1
  F  F20  1  0.23952475  0.81649383  0.52840041  1
  F  F21  1  0.52840041  0.23952475  0.81649383  1
  F  F22  1  0.81649383  0.52840041  0.23952475  1
  F  F23  1  0.00159826  0.79416947  0.37604293  1
  F  F24  1  0.37604293  0.00159826  0.79416947  1
  F  F25  1  0.79416947  0.37604293  0.00159826  1
  F  F26  1  0.23919644  0.47057218  0.93892271  1
  F  F27  1  0.93892271  0.23919644  0.47057218  1
  F  F28  1  0.47057218  0.93892271  0.23919644  1
  F  F29  1  0.00158702  0.62126582  0.02525215  1
  F  F30  1  0.02525215  0.00158702  0.62126582  1
  F  F31  1  0.62126582  0.02525215  0.00158702  1
  F  F32  1  0.29831925  0.17204066  0.08043520  1
  F  F33  1  0.08043520  0.29831925  0.17204066  1
  F  F34  1  0.17204066  0.08043520  0.29831925  1
  F  F35  1  0.14827515  0.71041383  0.79426304  1
  Se  Se36  1  0.06016998  0.75446278  0.55278557  1
  Se  Se37  1  0.55278557  0.06016998  0.75446278  1
  Se  Se38  1  0.75446278  0.55278557  0.06016998  1
  Se  Se39  1  0.11984418  0.11984418  0.11984418  1
  Nb  Nb40  1  0.21499838  0.66818057  0.99891642  1
  Nb  Nb41  1  0.99891642  0.21499838  0.66818057  1
  Nb  Nb42  1  0.66818057  0.99891642  0.21499838  1
  Nb  Nb43  1  0.60396270  0.60396270  0.60396270  1
