# generated using pymatgen
data_Ba(Ag3O2)2
_symmetry_space_group_name_H-M   'P 1'
_cell_length_a   6.77627779
_cell_length_b   9.24756497
_cell_length_c   12.98540327
_cell_angle_alpha   90.00000000
_cell_angle_beta   90.00000000
_cell_angle_gamma   90.00000000
_symmetry_Int_Tables_number   1
_chemical_formula_structural   Ba(Ag3O2)2
_chemical_formula_sum   'Ba4 Ag24 O16'
_cell_volume   813.71820803
_cell_formula_units_Z   4
loop_
 _symmetry_equiv_pos_site_id
 _symmetry_equiv_pos_as_xyz
  1  'x, y, z'
loop_
 _atom_site_type_symbol
 _atom_site_label
 _atom_site_symmetry_multiplicity
 _atom_site_fract_x
 _atom_site_fract_y
 _atom_site_fract_z
 _atom_site_occupancy
  O  O0  1  0.57614573  0.33482781  0.60545495  1
  O  O1  1  0.57614573  0.16517219  0.89454505  1
  O  O2  1  0.92385427  0.33482781  0.39454505  1
  O  O3  1  0.92385427  0.16517219  0.10545495  1
  O  O4  1  0.07614573  0.66517219  0.60545495  1
  O  O5  1  0.07614573  0.83482781  0.89454505  1
  O  O6  1  0.05119415  0.09171110  0.62793558  1
  O  O7  1  0.05119415  0.40828890  0.87206442  1
  O  O8  1  0.44880585  0.09171110  0.37206442  1
  O  O9  1  0.44880585  0.40828890  0.12793558  1
  O  O10  1  0.94880585  0.90828890  0.37206442  1
  O  O11  1  0.94880585  0.59171110  0.12793558  1
  O  O12  1  0.55119415  0.90828890  0.62793558  1
  O  O13  1  0.55119415  0.59171110  0.87206442  1
  O  O14  1  0.42385427  0.66517219  0.39454505  1
  O  O15  1  0.42385427  0.83482781  0.10545495  1
  Ag  Ag16  1  0.29208335  0.23845351  0.62662113  1
  Ag  Ag17  1  0.07691298  0.53412048  0.73721399  1
  Ag  Ag18  1  0.42308702  0.96587952  0.23721399  1
  Ag  Ag19  1  0.07691298  0.96587952  0.76278601  1
  Ag  Ag20  1  0.92308702  0.03412048  0.23721399  1
  Ag  Ag21  1  0.92308702  0.46587952  0.26278601  1
  Ag  Ag22  1  0.57691298  0.03412048  0.76278601  1
  Ag  Ag23  1  0.57691298  0.46587952  0.73721399  1
  Ag  Ag24  1  0.40197277  0.75000000  0.75000000  1
  Ag  Ag25  1  0.09802723  0.75000000  0.25000000  1
  Ag  Ag26  1  0.59802723  0.25000000  0.25000000  1
  Ag  Ag27  1  0.90197277  0.25000000  0.75000000  1
  Ag  Ag28  1  0.20791665  0.23845351  0.37337887  1
  Ag  Ag29  1  0.20791665  0.26154649  0.12662113  1
  Ag  Ag30  1  0.70791665  0.76154649  0.37337887  1
  Ag  Ag31  1  0.70791665  0.73845351  0.12662113  1
  Ag  Ag32  1  0.79208335  0.76154649  0.62662113  1
  Ag  Ag33  1  0.79208335  0.73845351  0.87337887  1
  Ag  Ag34  1  0.50000000  0.50000000  0.50000000  1
  Ag  Ag35  1  0.50000000  0.00000000  0.00000000  1
  Ag  Ag36  1  0.00000000  0.50000000  0.50000000  1
  Ag  Ag37  1  0.00000000  0.00000000  0.00000000  1
  Ag  Ag38  1  0.42308702  0.53412048  0.26278601  1
  Ag  Ag39  1  0.29208335  0.26154649  0.87337887  1
  Ba  Ba40  1  0.25000000  0.87594372  0.50000000  1
  Ba  Ba41  1  0.25000000  0.62405628  0.00000000  1
  Ba  Ba42  1  0.75000000  0.12405628  0.50000000  1
  Ba  Ba43  1  0.75000000  0.37594372  0.00000000  1
