# generated using pymatgen
data_H2SeO4
_symmetry_space_group_name_H-M   'P 1'
_cell_length_a   4.71127054
_cell_length_b   8.43967899
_cell_length_c   9.09317355
_cell_angle_alpha   90.00000000
_cell_angle_beta   90.00000000
_cell_angle_gamma   90.00000000
_symmetry_Int_Tables_number   1
_chemical_formula_structural   H2SeO4
_chemical_formula_sum   'H8 Se4 O16'
_cell_volume   361.55922938
_cell_formula_units_Z   4
loop_
 _symmetry_equiv_pos_site_id
 _symmetry_equiv_pos_as_xyz
  1  'x, y, z'
loop_
 _atom_site_type_symbol
 _atom_site_label
 _atom_site_symmetry_multiplicity
 _atom_site_fract_x
 _atom_site_fract_y
 _atom_site_fract_z
 _atom_site_occupancy
  H  H0  1  0.42330025  0.52926871  0.54299991  1
  H  H1  1  0.92330025  0.47073129  0.95700009  1
  H  H2  1  0.07669975  0.02926871  0.45700009  1
  H  H3  1  0.57669975  0.97073129  0.04299991  1
  H  H4  1  0.98420051  0.79039444  0.73547954  1
  H  H5  1  0.48420051  0.20960556  0.76452046  1
  H  H6  1  0.51579949  0.29039444  0.26452046  1
  H  H7  1  0.01579949  0.70960556  0.23547954  1
  O  O8  1  0.07261820  0.39315080  0.92047804  1
  O  O9  1  0.42738180  0.89315080  0.07952196  1
  O  O10  1  0.92738180  0.10684920  0.42047804  1
  O  O11  1  0.22005370  0.37532875  0.51248211  1
  O  O12  1  0.27994630  0.87532875  0.48751789  1
  O  O13  1  0.77994630  0.12467125  0.01248211  1
  O  O14  1  0.80682479  0.37880963  0.29100552  1
  O  O15  1  0.72005370  0.62467125  0.98751789  1
  O  O16  1  0.69317521  0.87880963  0.70899448  1
  O  O17  1  0.19317521  0.12119037  0.79100552  1
  O  O18  1  0.82607081  0.76462678  0.25918051  1
  O  O19  1  0.30682479  0.62119037  0.20899448  1
  O  O20  1  0.17392919  0.73537322  0.75918051  1
  O  O21  1  0.67392919  0.26462678  0.74081949  1
  O  O22  1  0.32607081  0.23537322  0.24081949  1
  O  O23  1  0.57261820  0.60684920  0.57952196  1
  Se  Se24  1  0.42689140  0.78785311  0.62900617  1
  Se  Se25  1  0.57310860  0.71214689  0.12900617  1
  Se  Se26  1  0.07310860  0.28785311  0.37099383  1
  Se  Se27  1  0.92689140  0.21214689  0.87099383  1
