# generated using pymatgen
data_NdMnO3
_symmetry_space_group_name_H-M   'P 1'
_cell_length_a   5.48601368
_cell_length_b   5.91686627
_cell_length_c   7.67666404
_cell_angle_alpha   90.00000000
_cell_angle_beta   90.00000000
_cell_angle_gamma   90.00000000
_symmetry_Int_Tables_number   1
_chemical_formula_structural   NdMnO3
_chemical_formula_sum   'Nd4 Mn4 O12'
_cell_volume   249.18458613
_cell_formula_units_Z   4
loop_
 _symmetry_equiv_pos_site_id
 _symmetry_equiv_pos_as_xyz
  1  'x, y, z'
loop_
 _atom_site_type_symbol
 _atom_site_label
 _atom_site_symmetry_multiplicity
 _atom_site_fract_x
 _atom_site_fract_y
 _atom_site_fract_z
 _atom_site_occupancy
  O  O0  1  0.71249906  0.31638405  0.45110974  1
  O  O1  1  0.21249817  0.18361591  0.54888922  1
  O  O2  1  0.78750179  0.81638401  0.04888974  1
  O  O3  1  0.28750090  0.68361587  0.95111050  1
  O  O4  1  0.28750090  0.68361587  0.54888922  1
  O  O5  1  0.78750179  0.81638401  0.45110974  1
  O  O6  1  0.21249817  0.18361591  0.95111050  1
  O  O7  1  0.71249906  0.31638405  0.04888974  1
  O  O8  1  0.09792467  0.47242985  0.24999974  1
  O  O9  1  0.59792373  0.02757011  0.75000050  1
  O  O10  1  0.90207529  0.52757008  0.75000050  1
  O  O11  1  0.40207623  0.97242981  0.24999974  1
  Mn  Mn12  1  0.50000089  0.00000000  0.49999948  1
  Mn  Mn13  1  0.00000000  0.49999996  0.49999948  1
  Mn  Mn14  1  0.00000000  0.49999996  0.00000000  1
  Mn  Mn15  1  0.50000089  0.00000000  0.00000000  1
  Nd  Nd16  1  0.01629320  0.92791676  0.75000050  1
  Nd  Nd17  1  0.51629409  0.57208312  0.24999974  1
  Nd  Nd18  1  0.48370769  0.42791680  0.75000050  1
  Nd  Nd19  1  0.98370676  0.07208316  0.24999974  1
