# generated using pymatgen
data_Cr2WO6
_symmetry_space_group_name_H-M   'P 1'
_cell_length_a   4.66667023
_cell_length_b   4.66667023
_cell_length_c   9.05893698
_cell_angle_alpha   90.00000000
_cell_angle_beta   90.00000000
_cell_angle_gamma   90.00000000
_symmetry_Int_Tables_number   1
_chemical_formula_structural   Cr2WO6
_chemical_formula_sum   'Cr4 W2 O12'
_cell_volume   197.28381773
_cell_formula_units_Z   2
loop_
 _symmetry_equiv_pos_site_id
 _symmetry_equiv_pos_as_xyz
  1  'x, y, z'
loop_
 _atom_site_type_symbol
 _atom_site_label
 _atom_site_symmetry_multiplicity
 _atom_site_fract_x
 _atom_site_fract_y
 _atom_site_fract_z
 _atom_site_occupancy
  Cr  Cr0  1  0.00000000  0.00000000  0.33488311  1
  Cr  Cr1  1  0.50000000  0.50000000  0.16511689  1
  Cr  Cr2  1  0.50000000  0.50000000  0.83485572  1
  Cr  Cr3  1  0.00000000  0.00000000  0.66514428  1
  W  W4  1  0.00000000  0.00000000  -0.00000009  1
  W  W5  1  0.50000000  0.50000000  0.50000009  1
  O  O6  1  0.29827893  0.29827893  0.00000894  1
  O  O7  1  0.20172107  0.79827893  0.49999106  1
  O  O8  1  0.79827893  0.20172107  0.49999106  1
  O  O9  1  0.70172107  0.70172107  0.00000894  1
  O  O10  1  0.69473767  0.69473767  0.66040015  1
  O  O11  1  0.30526233  0.30526233  0.66040015  1
  O  O12  1  0.69474663  0.69474663  0.33957706  1
  O  O13  1  0.19474663  0.80525337  0.16042294  1
  O  O14  1  0.80525337  0.19474663  0.16042294  1
  O  O15  1  0.80526233  0.19473767  0.83959985  1
  O  O16  1  0.30525337  0.30525337  0.33957706  1
  O  O17  1  0.19473767  0.80526233  0.83959985  1
