# generated using pymatgen
data_K3AlH6
_symmetry_space_group_name_H-M   'P 1'
_cell_length_a   6.01486530
_cell_length_b   6.07418101
_cell_length_c   8.57078040
_cell_angle_alpha   90.00000000
_cell_angle_beta   90.69809833
_cell_angle_gamma   90.00000000
_symmetry_Int_Tables_number   1
_chemical_formula_structural   K3AlH6
_chemical_formula_sum   'K6 Al2 H12'
_cell_volume   313.11348103
_cell_formula_units_Z   2
loop_
 _symmetry_equiv_pos_site_id
 _symmetry_equiv_pos_as_xyz
  1  'x, y, z'
loop_
 _atom_site_type_symbol
 _atom_site_label
 _atom_site_symmetry_multiplicity
 _atom_site_fract_x
 _atom_site_fract_y
 _atom_site_fract_z
 _atom_site_occupancy
  H  H0  1  0.66469020  0.73968109  0.53787944  1
  H  H1  1  0.83530980  0.23968109  0.96212056  1
  H  H2  1  0.33530980  0.26031891  0.46212056  1
  H  H3  1  0.16469020  0.76031891  0.03787944  1
  H  H4  1  0.76163063  0.83162334  0.96980294  1
  H  H5  1  0.73836937  0.33162334  0.53019706  1
  H  H6  1  0.23836937  0.16837666  0.03019706  1
  H  H7  1  0.26163063  0.66837666  0.46980294  1
  H  H8  1  0.06125317  0.97771525  0.79785696  1
  H  H9  1  0.43874683  0.47771525  0.70214304  1
  H  H10  1  0.93874683  0.02228475  0.20214304  1
  H  H11  1  0.56125317  0.52228475  0.29785696  1
  Al  Al12  1  0.50000000  0.50000000  0.50000000  1
  Al  Al13  1  0.00000000  0.00000000  0.00000000  1
  K  K14  1  0.50000000  0.50000000  0.00000000  1
  K  K15  1  0.00000000  0.00000000  0.50000000  1
  K  K16  1  0.49349749  0.96964503  0.25094393  1
  K  K17  1  0.00650251  0.46964503  0.24905607  1
  K  K18  1  0.50650251  0.03035497  0.74905607  1
  K  K19  1  0.99349749  0.53035497  0.75094393  1
