# generated using pymatgen
data_LiVSiCO7
_symmetry_space_group_name_H-M   'P 1'
_cell_length_a   8.16728391
_cell_length_b   6.37317845
_cell_length_c   5.29400367
_cell_angle_alpha   90.00000000
_cell_angle_beta   83.88044521
_cell_angle_gamma   90.00000000
_symmetry_Int_Tables_number   1
_chemical_formula_structural   LiVSiCO7
_chemical_formula_sum   'Li2 V2 Si2 C2 O14'
_cell_volume   273.99088569
_cell_formula_units_Z   2
loop_
 _symmetry_equiv_pos_site_id
 _symmetry_equiv_pos_as_xyz
  1  'x, y, z'
loop_
 _atom_site_type_symbol
 _atom_site_label
 _atom_site_symmetry_multiplicity
 _atom_site_fract_x
 _atom_site_fract_y
 _atom_site_fract_z
 _atom_site_occupancy
  Li  Li0  1  0.09733681  0.25000000  0.76212176  1
  Li  Li1  1  0.90266319  0.75000000  0.23787824  1
  V  V2  1  0.32007862  0.75000000  0.79460107  1
  V  V3  1  0.67992138  0.25000000  0.20539893  1
  Si  Si4  1  0.42805810  0.25000000  0.74289373  1
  Si  Si5  1  0.57194190  0.75000000  0.25710627  1
  C  C6  1  0.03439336  0.75000000  0.68625773  1
  C  C7  1  0.96560664  0.25000000  0.31374227  1
  O  O8  1  0.07534909  0.75000000  0.92551891  1
  O  O9  1  0.10776684  0.25000000  0.37658240  1
  O  O10  1  0.16801381  0.75000000  0.52332184  1
  O  O11  1  0.30588378  0.04868169  0.79447841  1
  O  O12  1  0.30588378  0.45131831  0.79447841  1
  O  O13  1  0.41884298  0.75000000  0.08230459  1
  O  O14  1  0.50931350  0.25000000  0.44360060  1
  O  O15  1  0.49068650  0.75000000  0.55639940  1
  O  O16  1  0.58115702  0.25000000  0.91769541  1
  O  O17  1  0.69411622  0.54868169  0.20552159  1
  O  O18  1  0.69411622  0.95131831  0.20552159  1
  O  O19  1  0.83198619  0.25000000  0.47667816  1
  O  O20  1  0.89223316  0.75000000  0.62341760  1
  O  O21  1  0.92465091  0.25000000  0.07448109  1
