# generated using pymatgen
data_Sr7(H6Br)2
_symmetry_space_group_name_H-M   'P 1'
_cell_length_a   10.07846825
_cell_length_b   10.07846825
_cell_length_c   4.02248846
_cell_angle_alpha   90.00000000
_cell_angle_beta   90.00000000
_cell_angle_gamma   120.00000005
_symmetry_Int_Tables_number   1
_chemical_formula_structural   Sr7(H6Br)2
_chemical_formula_sum   'Sr7 H12 Br2'
_cell_volume   353.84617268
_cell_formula_units_Z   1
loop_
 _symmetry_equiv_pos_site_id
 _symmetry_equiv_pos_as_xyz
  1  'x, y, z'
loop_
 _atom_site_type_symbol
 _atom_site_label
 _atom_site_symmetry_multiplicity
 _atom_site_fract_x
 _atom_site_fract_y
 _atom_site_fract_z
 _atom_site_occupancy
  H  H0  1  0.56195723  0.12072747  0.50000000  1
  H  H1  1  0.87927253  0.44122977  0.50000000  1
  H  H2  1  0.55877023  0.43804277  0.50000000  1
  H  H3  1  0.71680614  0.77343539  0.50000000  1
  H  H4  1  0.22656461  0.94337075  0.50000000  1
  H  H5  1  0.05662925  0.28319386  0.50000000  1
  H  H6  1  0.82060297  0.21271058  0.00000000  1
  H  H7  1  0.78728942  0.60789239  0.00000000  1
  H  H8  1  0.39210761  0.17939703  0.00000000  1
  H  H9  1  0.30534615  0.39495873  0.00000000  1
  H  H10  1  0.08961258  0.69465385  0.00000000  1
  H  H11  1  0.60504127  0.91038742  0.00000000  1
  Br  Br12  1  0.00000000  0.00000000  0.00000000  1
  Br  Br13  1  0.33333333  0.66666667  0.50000000  1
  Sr  Sr14  1  0.27498849  0.22409585  0.50000000  1
  Sr  Sr15  1  0.56730934  0.64201913  0.00000000  1
  Sr  Sr16  1  0.35798087  0.92529021  0.00000000  1
  Sr  Sr17  1  0.07470979  0.43269066  0.00000000  1
  Sr  Sr18  1  0.66666667  0.33333333  0.00000000  1
  Sr  Sr19  1  0.94910736  0.72501151  0.50000000  1
  Sr  Sr20  1  0.77590415  0.05089264  0.50000000  1
