# generated using pymatgen
data_K3H(SeO4)2
_symmetry_space_group_name_H-M   'P 1'
_cell_length_a   6.02612674
_cell_length_b   8.25216330
_cell_length_c   10.34552347
_cell_angle_alpha   102.56906565
_cell_angle_beta   90.00000000
_cell_angle_gamma   111.41521778
_symmetry_Int_Tables_number   1
_chemical_formula_structural   K3H(SeO4)2
_chemical_formula_sum   'K6 H2 Se4 O16'
_cell_volume   465.67972337
_cell_formula_units_Z   2
loop_
 _symmetry_equiv_pos_site_id
 _symmetry_equiv_pos_as_xyz
  1  'x, y, z'
loop_
 _atom_site_type_symbol
 _atom_site_label
 _atom_site_symmetry_multiplicity
 _atom_site_fract_x
 _atom_site_fract_y
 _atom_site_fract_z
 _atom_site_occupancy
  H  H0  1  0.00000000  0.00000000  0.00000000  1
  H  H1  1  0.00000000  0.00000000  0.50000000  1
  O  O2  1  0.66557263  0.25436748  0.88139227  1
  O  O3  1  0.41120515  0.74563252  0.61860773  1
  O  O4  1  0.33442737  0.74563252  0.11860773  1
  O  O5  1  0.58879485  0.25436748  0.38139227  1
  O  O6  1  0.90440863  0.30998225  0.12527453  1
  O  O7  1  0.59442638  0.69001775  0.37472547  1
  O  O8  1  0.09559137  0.69001775  0.87472547  1
  O  O9  1  0.40557362  0.30998225  0.62527453  1
  O  O10  1  0.16779250  0.31722786  0.39967255  1
  O  O11  1  0.85056464  0.68277214  0.10032745  1
  O  O12  1  0.83220750  0.68277214  0.60032745  1
  O  O13  1  0.14943536  0.31722786  0.89967255  1
  O  O14  1  0.17510351  0.00548061  0.43847464  1
  O  O15  1  0.16962290  0.99451939  0.06152536  1
  O  O16  1  0.82489649  0.99451939  0.56152536  1
  O  O17  1  0.83037710  0.00548061  0.93847464  1
  K  K18  1  0.75719488  0.00000000  0.25000000  1
  K  K19  1  0.24280512  0.00000000  0.75000000  1
  K  K20  1  0.92830754  0.38934108  0.65203648  1
  K  K21  1  0.53896646  0.61065892  0.84796352  1
  K  K22  1  0.46103354  0.38934108  0.15203648  1
  K  K23  1  0.07169246  0.61065892  0.34796352  1
  Se  Se24  1  0.34491210  0.23254424  0.46133872  1
  Se  Se25  1  0.11236786  0.76745576  0.03866128  1
  Se  Se26  1  0.65508790  0.76745576  0.53866128  1
  Se  Se27  1  0.88763214  0.23254424  0.96133872  1
