# generated using pymatgen
data_Na2ZrF6
_symmetry_space_group_name_H-M   'P 1'
_cell_length_a   5.50083743
_cell_length_b   5.65683133
_cell_length_c   16.36556093
_cell_angle_alpha   95.97057420
_cell_angle_beta   90.00000000
_cell_angle_gamma   90.00000000
_symmetry_Int_Tables_number   1
_chemical_formula_structural   Na2ZrF6
_chemical_formula_sum   'Na8 Zr4 F24'
_cell_volume   506.48975955
_cell_formula_units_Z   4
loop_
 _symmetry_equiv_pos_site_id
 _symmetry_equiv_pos_as_xyz
  1  'x, y, z'
loop_
 _atom_site_type_symbol
 _atom_site_label
 _atom_site_symmetry_multiplicity
 _atom_site_fract_x
 _atom_site_fract_y
 _atom_site_fract_z
 _atom_site_occupancy
  F  F0  1  0.82860325  0.13036694  0.48839082  1
  F  F1  1  0.32860325  0.86963306  0.01160918  1
  F  F2  1  0.17139675  0.86963306  0.51160918  1
  F  F3  1  0.67139675  0.13036694  0.98839082  1
  F  F4  1  0.78167479  0.56975688  0.31693623  1
  F  F5  1  0.28167479  0.43024312  0.18306377  1
  F  F6  1  0.21832521  0.43024312  0.68306377  1
  F  F7  1  0.71832521  0.56975688  0.81693623  1
  F  F8  1  0.72925649  0.39779041  0.13549231  1
  F  F9  1  0.22925649  0.60220959  0.36450769  1
  F  F10  1  0.27074351  0.60220959  0.86450769  1
  F  F11  1  0.77074351  0.39779041  0.63549231  1
  F  F12  1  0.28955293  0.98057560  0.66490711  1
  F  F13  1  0.78955293  0.01942440  0.83509289  1
  F  F14  1  0.71044707  0.01942440  0.33509289  1
  F  F15  1  0.21044707  0.98057560  0.16490711  1
  F  F16  1  0.81926260  0.94199592  0.64992944  1
  F  F17  1  0.31926260  0.05800408  0.85007056  1
  F  F18  1  0.18073740  0.05800408  0.35007056  1
  F  F19  1  0.68073740  0.94199592  0.14992944  1
  F  F20  1  0.77544394  0.65419572  0.97539112  1
  F  F21  1  0.27544394  0.34580428  0.52460888  1
  F  F22  1  0.22455606  0.34580428  0.02460888  1
  F  F23  1  0.72455606  0.65419572  0.47539112  1
  Na  Na24  1  0.50176060  0.67341381  0.59195871  1
  Na  Na25  1  0.00176060  0.32658619  0.90804129  1
  Na  Na26  1  0.49823940  0.32658619  0.40804129  1
  Na  Na27  1  0.99823940  0.67341381  0.09195871  1
  Na  Na28  1  0.46239649  0.75634624  0.25282307  1
  Na  Na29  1  0.96239649  0.24365376  0.24717693  1
  Na  Na30  1  0.53760351  0.24365376  0.74717693  1
  Na  Na31  1  0.03760351  0.75634624  0.75282307  1
  Zr  Zr32  1  0.55173718  0.82402779  0.90109104  1
  Zr  Zr33  1  0.05173718  0.17597221  0.59890896  1
  Zr  Zr34  1  0.44826282  0.17597221  0.09890896  1
  Zr  Zr35  1  0.94826282  0.82402779  0.40109104  1
