# generated using pymatgen
data_Li3Sn(BO3)2
_symmetry_space_group_name_H-M   'P 1'
_cell_length_a   8.84904340
_cell_length_b   6.45529321
_cell_length_c   9.98152080
_cell_angle_alpha   90.00000000
_cell_angle_beta   64.59107011
_cell_angle_gamma   90.00000000
_symmetry_Int_Tables_number   1
_chemical_formula_structural   Li3Sn(BO3)2
_chemical_formula_sum   'Li12 Sn4 B8 O24'
_cell_volume   515.02207696
_cell_formula_units_Z   4
loop_
 _symmetry_equiv_pos_site_id
 _symmetry_equiv_pos_as_xyz
  1  'x, y, z'
loop_
 _atom_site_type_symbol
 _atom_site_label
 _atom_site_symmetry_multiplicity
 _atom_site_fract_x
 _atom_site_fract_y
 _atom_site_fract_z
 _atom_site_occupancy
  Li  Li0  1  0.12651296  0.25590908  0.47928632  1
  Li  Li1  1  0.04027520  0.56220733  0.66881703  1
  Li  Li2  1  0.37348704  0.75590908  0.02071368  1
  Li  Li3  1  0.29664163  0.77835127  0.54407929  1
  Li  Li4  1  0.54027520  0.93779267  0.16881703  1
  Li  Li5  1  0.20335837  0.27835127  0.95592071  1
  Li  Li6  1  0.79664163  0.72164873  0.04407929  1
  Li  Li7  1  0.45972480  0.06220733  0.83118297  1
  Li  Li8  1  0.70335837  0.22164873  0.45592071  1
  Li  Li9  1  0.62651296  0.24409092  0.97928632  1
  Li  Li10  1  0.95972480  0.43779267  0.33118297  1
  Li  Li11  1  0.87348704  0.74409092  0.52071368  1
  Sn  Sn12  1  0.00891746  0.03169933  0.80009567  1
  Sn  Sn13  1  0.50891746  0.46830067  0.30009567  1
  Sn  Sn14  1  0.49108254  0.53169933  0.69990433  1
  Sn  Sn15  1  0.99108254  0.96830067  0.19990433  1
  B  B16  1  0.28278810  0.16350115  0.17755198  1
  B  B17  1  0.21721290  0.66350115  0.32244802  1
  B  B18  1  0.16388501  0.67302114  0.88823092  1
  B  B19  1  0.33611499  0.17302114  0.61176908  1
  B  B20  1  0.66388501  0.82697886  0.38823092  1
  B  B21  1  0.83611499  0.32697886  0.11176908  1
  B  B22  1  0.78278810  0.33649885  0.67755198  1
  B  B23  1  0.71721190  0.83649885  0.82244802  1
  O  O24  1  0.06822337  0.71298071  0.31415078  1
  O  O25  1  0.12428391  0.20566226  0.28867455  1
  O  O26  1  0.28924501  0.05947110  0.05254955  1
  O  O27  1  0.21075499  0.55947110  0.44745045  1
  O  O28  1  0.37571609  0.70566226  0.21132545  1
  O  O29  1  0.02767589  0.79159379  0.98193857  1
  O  O30  1  0.23463042  0.06759099  0.56086194  1
  O  O31  1  0.43177663  0.21298071  0.18584922  1
  O  O32  1  0.20191123  0.66972892  0.73944358  1
  O  O33  1  0.29808877  0.16972892  0.76055642  1
  O  O34  1  0.26536958  0.56759099  0.93913806  1
  O  O35  1  0.47232411  0.29159379  0.51806143  1
  O  O36  1  0.52767589  0.70840621  0.48193857  1
  O  O37  1  0.73463042  0.43240901  0.06086194  1
  O  O38  1  0.70191123  0.83027108  0.23944358  1
  O  O39  1  0.79808877  0.33027108  0.26055642  1
  O  O40  1  0.56822337  0.78701929  0.81415078  1
  O  O41  1  0.76536958  0.93240901  0.43913806  1
  O  O42  1  0.97232411  0.20840621  0.01806143  1
  O  O43  1  0.62428391  0.29433774  0.78867455  1
  O  O44  1  0.78924501  0.44052990  0.55254955  1
  O  O45  1  0.71075499  0.94052890  0.94745045  1
  O  O46  1  0.87571609  0.79433774  0.71132545  1
  O  O47  1  0.93177663  0.28701929  0.68584922  1
