# generated using pymatgen
data_NaCa2Si3HO9
_symmetry_space_group_name_H-M   'P 1'
_cell_length_a   7.11624102
_cell_length_b   7.09031511
_cell_length_c   8.08561806
_cell_angle_alpha   102.41097900
_cell_angle_beta   95.22027166
_cell_angle_gamma   90.44883345
_symmetry_Int_Tables_number   1
_chemical_formula_structural   NaCa2Si3HO9
_chemical_formula_sum   'Na2 Ca4 Si6 H2 O18'
_cell_volume   396.62730931
_cell_formula_units_Z   2
loop_
 _symmetry_equiv_pos_site_id
 _symmetry_equiv_pos_as_xyz
  1  'x, y, z'
loop_
 _atom_site_type_symbol
 _atom_site_label
 _atom_site_symmetry_multiplicity
 _atom_site_fract_x
 _atom_site_fract_y
 _atom_site_fract_z
 _atom_site_occupancy
  H  H0  1  0.46920629  0.36181320  0.83364265  1
  H  H1  1  0.53079371  0.63818680  0.16635735  1
  O  O2  1  0.27208006  0.90925890  0.39456494  1
  O  O3  1  0.72791994  0.09074110  0.60543506  1
  O  O4  1  0.27085888  0.53292664  0.39831187  1
  O  O5  1  0.72914112  0.46707336  0.60168813  1
  O  O6  1  0.38475439  0.18935718  0.26287944  1
  O  O7  1  0.61524561  0.81064282  0.73712056  1
  O  O8  1  0.17700405  0.89500517  0.05894868  1
  O  O9  1  0.82299595  0.10499483  0.94105132  1
  O  O10  1  0.17321226  0.38648577  0.06232946  1
  O  O11  1  0.82678774  0.61351423  0.93767054  1
  O  O12  1  0.54146154  0.84350706  0.18060394  1
  O  O13  1  0.45853846  0.15649294  0.81939606  1
  O  O14  1  0.12841064  0.78668527  0.65204129  1
  O  O15  1  0.87158936  0.21331473  0.34795871  1
  O  O16  1  0.05503831  0.29658691  0.67019570  1
  O  O17  1  0.94496169  0.70341309  0.32980430  1
  O  O18  1  0.46027827  0.50571013  0.81349330  1
  O  O19  1  0.53972173  0.49428987  0.18650670  1
  Na  Na20  1  0.34020811  0.25450511  0.55128958  1
  Na  Na21  1  0.65979189  0.74549489  0.44871042  1
  Si  Si22  1  0.85578777  0.26543624  0.55053384  1
  Si  Si23  1  0.34433274  0.95126908  0.21371712  1
  Si  Si24  1  0.33592794  0.40003496  0.21787986  1
  Si  Si25  1  0.66407206  0.59996504  0.78212014  1
  Si  Si26  1  0.14421223  0.73456376  0.44946616  1
  Si  Si27  1  0.65566726  0.04873092  0.78628288  1
  Ca  Ca28  1  0.85785701  0.40552281  0.14617036  1
  Ca  Ca29  1  0.14214299  0.59447719  0.85382964  1
  Ca  Ca30  1  0.14290247  0.08358342  0.84615615  1
  Ca  Ca31  1  0.85709753  0.91641658  0.15384385  1
