# generated using pymatgen
data_YH12(ClO2)3
_symmetry_space_group_name_H-M   'P 1'
_cell_length_a   6.53958134
_cell_length_b   7.87638272
_cell_length_c   9.64953472
_cell_angle_alpha   93.59569702
_cell_angle_beta   90.00000000
_cell_angle_gamma   90.00000000
_symmetry_Int_Tables_number   1
_chemical_formula_structural   YH12(ClO2)3
_chemical_formula_sum   'Y2 H24 Cl6 O12'
_cell_volume   496.05216923
_cell_formula_units_Z   2
loop_
 _symmetry_equiv_pos_site_id
 _symmetry_equiv_pos_as_xyz
  1  'x, y, z'
loop_
 _atom_site_type_symbol
 _atom_site_label
 _atom_site_symmetry_multiplicity
 _atom_site_fract_x
 _atom_site_fract_y
 _atom_site_fract_z
 _atom_site_occupancy
  H  H0  1  0.09161029  0.60861964  0.36879255  1
  H  H1  1  0.09161029  0.89138036  0.13120745  1
  H  H2  1  0.90838971  0.39138036  0.63120745  1
  H  H3  1  0.90838971  0.10861964  0.86879255  1
  H  H4  1  0.91289795  0.58355184  0.26071827  1
  H  H5  1  0.91289795  0.91644816  0.23928173  1
  H  H6  1  0.08710205  0.41644816  0.73928173  1
  H  H7  1  0.08710205  0.08355184  0.76071827  1
  H  H8  1  0.47200129  0.51861340  0.31737493  1
  H  H9  1  0.47200129  0.98138660  0.18262507  1
  H  H10  1  0.52799871  0.48138660  0.68262507  1
  H  H11  1  0.52799871  0.01861340  0.81737493  1
  H  H12  1  0.55232351  0.35438152  0.38497093  1
  H  H13  1  0.55232351  0.14561848  0.11502907  1
  H  H14  1  0.44767649  0.64561848  0.61502907  1
  H  H15  1  0.44767649  0.85438152  0.88497093  1
  H  H16  1  0.24631484  0.50759940  0.04076522  1
  H  H17  1  0.24631484  0.99240060  0.45923478  1
  H  H18  1  0.75368516  0.49240060  0.95923478  1
  H  H19  1  0.75368516  0.00759940  0.54076522  1
  H  H20  1  0.66828709  0.83835245  0.46905901  1
  H  H21  1  0.66828709  0.66164755  0.03094099  1
  H  H22  1  0.33171291  0.16164755  0.53094099  1
  H  H23  1  0.33171291  0.33835245  0.96905901  1
  O  O24  1  0.04993681  0.54068074  0.28325870  1
  O  O25  1  0.04993681  0.95931926  0.21674130  1
  O  O26  1  0.95006319  0.45931926  0.71674130  1
  O  O27  1  0.95006319  0.04068074  0.78325870  1
  O  O28  1  0.42573686  0.41103033  0.35446678  1
  O  O29  1  0.42573686  0.08896967  0.14553322  1
  O  O30  1  0.57426314  0.58896967  0.64553322  1
  O  O31  1  0.57426314  0.91103033  0.85446678  1
  O  O32  1  0.29574032  0.39302210  0.06079933  1
  O  O33  1  0.29574032  0.10697790  0.43920067  1
  O  O34  1  0.70425968  0.60697790  0.93920067  1
  O  O35  1  0.70425968  0.89302210  0.56079933  1
  Cl  Cl36  1  0.63313375  0.75000000  0.25000000  1
  Cl  Cl37  1  0.36686625  0.25000000  0.75000000  1
  Cl  Cl38  1  0.83386922  0.24231875  0.44301167  1
  Cl  Cl39  1  0.83386922  0.25768125  0.05698833  1
  Cl  Cl40  1  0.16613078  0.75768125  0.55698833  1
  Cl  Cl41  1  0.16613078  0.74231875  0.94301167  1
  Y  Y42  1  0.15514570  0.25000000  0.25000000  1
  Y  Y43  1  0.84485430  0.75000000  0.75000000  1
