# generated using pymatgen
data_CsCuBr3
_symmetry_space_group_name_H-M   'P 1'
_cell_length_a   7.58896499
_cell_length_b   7.58896500
_cell_length_c   13.05974548
_cell_angle_alpha   90.00000000
_cell_angle_beta   90.00000000
_cell_angle_gamma   117.81092302
_symmetry_Int_Tables_number   1
_chemical_formula_structural   CsCuBr3
_chemical_formula_sum   'Cs4 Cu4 Br12'
_cell_volume   665.26357352
_cell_formula_units_Z   4
loop_
 _symmetry_equiv_pos_site_id
 _symmetry_equiv_pos_as_xyz
  1  'x, y, z'
loop_
 _atom_site_type_symbol
 _atom_site_label
 _atom_site_symmetry_multiplicity
 _atom_site_fract_x
 _atom_site_fract_y
 _atom_site_fract_z
 _atom_site_occupancy
  Cu  Cu0  1  0.65636424  0.35467691  0.87173541  1
  Cu  Cu1  1  0.34363576  0.64532309  0.37173541  1
  Cu  Cu2  1  0.35467691  0.65636424  0.62826459  1
  Cu  Cu3  1  0.64532309  0.34363576  0.12826459  1
  Br  Br4  1  0.93555494  0.47295406  0.23193672  1
  Br  Br5  1  0.06444506  0.52704594  0.73193672  1
  Br  Br6  1  0.50037907  0.50037907  0.25000000  1
  Br  Br7  1  0.49962093  0.49962093  0.75000000  1
  Br  Br8  1  0.79746649  0.20253351  0.00000000  1
  Br  Br9  1  0.20253351  0.79746649  0.50000000  1
  Br  Br10  1  0.33345971  0.19154737  0.03781124  1
  Br  Br11  1  0.66654029  0.80845263  0.53781124  1
  Br  Br12  1  0.19154737  0.33345971  0.46218876  1
  Br  Br13  1  0.80845263  0.66654029  0.96218876  1
  Br  Br14  1  0.47295406  0.93555494  0.26806328  1
  Br  Br15  1  0.52704594  0.06444506  0.76806328  1
  Cs  Cs16  1  1.01176109  1.01176109  0.75000000  1
  Cs  Cs17  1  -0.01176109  -0.01176109  0.25000000  1
  Cs  Cs18  1  0.68140593  0.31859407  0.50000000  1
  Cs  Cs19  1  0.31859407  0.68140593  0.00000000  1
