# generated using pymatgen
data_PH3O4
_symmetry_space_group_name_H-M   'P 1'
_cell_length_a   4.82173444
_cell_length_b   5.95778293
_cell_length_c   12.03267321
_cell_angle_alpha   96.44654800
_cell_angle_beta   90.00000000
_cell_angle_gamma   90.00000000
_symmetry_Int_Tables_number   1
_chemical_formula_structural   PH3O4
_chemical_formula_sum   'P4 H12 O16'
_cell_volume   343.47516183
_cell_formula_units_Z   4
loop_
 _symmetry_equiv_pos_site_id
 _symmetry_equiv_pos_as_xyz
  1  'x, y, z'
loop_
 _atom_site_type_symbol
 _atom_site_label
 _atom_site_symmetry_multiplicity
 _atom_site_fract_x
 _atom_site_fract_y
 _atom_site_fract_z
 _atom_site_occupancy
  H  H0  1  0.38304437  0.51233787  0.82012728  1
  H  H1  1  0.88304437  0.48766213  0.67987272  1
  H  H2  1  0.61695563  0.48766213  0.17987272  1
  H  H3  1  0.11695563  0.51233787  0.32012728  1
  H  H4  1  0.51484832  0.12599361  0.82546096  1
  H  H5  1  0.01484832  0.87400639  0.67453904  1
  H  H6  1  0.48515168  0.87400639  0.17453904  1
  H  H7  1  0.98515168  0.12599361  0.32546096  1
  H  H8  1  0.08224901  0.72573062  0.93873368  1
  H  H9  1  0.58224901  0.27426938  0.56126632  1
  H  H10  1  0.91775099  0.27426938  0.06126632  1
  H  H11  1  0.41775099  0.72573062  0.43873368  1
  O  O12  1  0.83139560  0.71945491  0.73990998  1
  O  O13  1  0.33139560  0.28054509  0.76009002  1
  O  O14  1  0.16860440  0.28054509  0.26009002  1
  O  O15  1  0.66860440  0.71945491  0.23990998  1
  O  O16  1  0.41039698  0.66972733  0.86519029  1
  O  O17  1  0.91039698  0.33027267  0.63480971  1
  O  O18  1  0.58960302  0.33027267  0.13480971  1
  O  O19  1  0.08960302  0.66972733  0.36519029  1
  O  O20  1  0.64629638  0.04817552  0.87600859  1
  O  O21  1  0.14629638  0.95182448  0.62399141  1
  O  O22  1  0.35370362  0.95182448  0.12399141  1
  O  O23  1  0.85370362  0.04817552  0.37600859  1
  O  O24  1  0.87961859  0.72777684  0.95343904  1
  O  O25  1  0.37961859  0.27222316  0.54656096  1
  O  O26  1  0.12038141  0.27222316  0.04656096  1
  O  O27  1  0.62038141  0.72777684  0.45343904  1
  P  P28  1  0.69758859  0.78947206  0.85294731  1
  P  P29  1  0.19758859  0.21052794  0.64705269  1
  P  P30  1  0.30241141  0.21052794  0.14705269  1
  P  P31  1  0.80241141  0.78947206  0.35294731  1
