# generated using pymatgen
data_SbClF8
_symmetry_space_group_name_H-M   'P 1'
_cell_length_a   5.43311567
_cell_length_b   5.77771804
_cell_length_c   10.63742087
_cell_angle_alpha   90.02641085
_cell_angle_beta   92.78325311
_cell_angle_gamma   87.03156700
_symmetry_Int_Tables_number   1
_chemical_formula_structural   SbClF8
_chemical_formula_sum   'Sb2 Cl2 F16'
_cell_volume   333.07726451
_cell_formula_units_Z   2
loop_
 _symmetry_equiv_pos_site_id
 _symmetry_equiv_pos_as_xyz
  1  'x, y, z'
loop_
 _atom_site_type_symbol
 _atom_site_label
 _atom_site_symmetry_multiplicity
 _atom_site_fract_x
 _atom_site_fract_y
 _atom_site_fract_z
 _atom_site_occupancy
  F  F0  1  0.27206832  0.05105769  0.89935784  1
  F  F1  1  0.72793168  0.94894231  0.10064216  1
  F  F2  1  0.29997145  0.97136489  0.59996276  1
  F  F3  1  0.70002855  0.02863511  0.40003724  1
  F  F4  1  0.58053690  0.48002294  0.15039705  1
  F  F5  1  0.41946310  0.51997706  0.84960295  1
  F  F6  1  0.56664867  0.53664377  0.37210170  1
  F  F7  1  0.43335133  0.46335623  0.62789830  1
  F  F8  1  0.17668672  0.72197931  0.07470392  1
  F  F9  1  0.82331328  0.27802069  0.92529608  1
  F  F10  1  0.14016330  0.79919489  0.36831882  1
  F  F11  1  0.85983670  0.20080511  0.63168118  1
  F  F12  1  0.13628765  0.18879963  0.12933711  1
  F  F13  1  0.86371235  0.81120037  0.87066289  1
  F  F14  1  0.11134003  0.26680725  0.42009608  1
  F  F15  1  0.88865997  0.73319275  0.57990392  1
  Cl  Cl16  1  0.40531292  0.61688172  0.24690452  1
  Cl  Cl17  1  0.59468708  0.38311828  0.75309548  1
  Sb  Sb18  1  0.00000000  0.00000000  0.00000000  1
  Sb  Sb19  1  0.00000000  0.00000000  0.50000000  1
