# generated using pymatgen
data_Be2BHO4
_symmetry_space_group_name_H-M   'P 1'
_cell_length_a   4.45860101
_cell_length_b   9.89123694
_cell_length_c   12.23226822
_cell_angle_alpha   90.00000000
_cell_angle_beta   90.00000000
_cell_angle_gamma   90.00000000
_symmetry_Int_Tables_number   1
_chemical_formula_structural   Be2BHO4
_chemical_formula_sum   'Be16 B8 H8 O32'
_cell_volume   539.45622725
_cell_formula_units_Z   8
loop_
 _symmetry_equiv_pos_site_id
 _symmetry_equiv_pos_as_xyz
  1  'x, y, z'
loop_
 _atom_site_type_symbol
 _atom_site_label
 _atom_site_symmetry_multiplicity
 _atom_site_fract_x
 _atom_site_fract_y
 _atom_site_fract_z
 _atom_site_occupancy
  H  H0  1  0.96180460  0.31683126  0.27654377  1
  H  H1  1  0.96180460  0.18316874  0.77654377  1
  H  H2  1  0.53819540  0.81683126  0.27654377  1
  H  H3  1  0.03819540  0.68316874  0.72345623  1
  H  H4  1  0.53819540  0.68316874  0.77654377  1
  H  H5  1  0.03819540  0.81683126  0.22345623  1
  H  H6  1  0.46180460  0.18316874  0.72345623  1
  H  H7  1  0.46180460  0.31683126  0.22345623  1
  Be  Be8  1  0.27599732  0.23763491  0.06834835  1
  Be  Be9  1  0.77599732  0.26236509  0.93165165  1
  Be  Be10  1  0.72400268  0.73763491  0.43165165  1
  Be  Be11  1  0.75945308  0.00284099  0.31100293  1
  Be  Be12  1  0.72400268  0.76236509  0.93165165  1
  Be  Be13  1  0.22400268  0.73763491  0.06834835  1
  Be  Be14  1  0.27599732  0.26236509  0.56834835  1
  Be  Be15  1  0.77599732  0.23763491  0.43165165  1
  Be  Be16  1  0.25945308  0.49715901  0.68899707  1
  Be  Be17  1  0.24054692  0.50284099  0.18899707  1
  Be  Be18  1  0.74054692  0.99715901  0.81100293  1
  Be  Be19  1  0.24054692  0.99715901  0.68899707  1
  Be  Be20  1  0.74054692  0.50284099  0.31100293  1
  Be  Be21  1  0.75945308  0.49715901  0.81100293  1
  Be  Be22  1  0.22400268  0.76236509  0.56834835  1
  Be  Be23  1  0.25945308  0.00284099  0.18899707  1
  B  B24  1  0.27221955  0.10733606  0.39258945  1
  B  B25  1  0.77221955  0.10733606  0.10741055  1
  B  B26  1  0.27221955  0.39266394  0.89258945  1
  B  B27  1  0.22778045  0.60733606  0.39258945  1
  B  B28  1  0.72778045  0.89266394  0.60741055  1
  B  B29  1  0.22778045  0.89266394  0.89258945  1
  B  B30  1  0.72778045  0.60733606  0.10741055  1
  B  B31  1  0.77221955  0.39266394  0.60741055  1
  O  O32  1  0.61754024  0.03766104  0.18744681  1
  O  O33  1  0.58138787  0.39786468  0.89624654  1
  O  O34  1  0.91861213  0.60213532  0.39624654  1
  O  O35  1  0.41861213  0.89786468  0.60375346  1
  O  O36  1  0.91861213  0.89786468  0.89624654  1
  O  O37  1  0.41861213  0.60213532  0.10375346  1
  O  O38  1  0.08138787  0.39786468  0.60375346  1
  O  O39  1  0.58138787  0.10213532  0.39624654  1
  O  O40  1  0.61658137  0.18833811  0.03508433  1
  O  O41  1  0.11658137  0.31166189  0.96491567  1
  O  O42  1  0.38341863  0.68833811  0.46491567  1
  O  O43  1  0.88341863  0.81166189  0.53508433  1
  O  O44  1  0.08138787  0.10213532  0.10375346  1
  O  O45  1  0.88341863  0.68833811  0.03508433  1
  O  O46  1  0.61658137  0.31166189  0.53508433  1
  O  O47  1  0.11658137  0.18833811  0.46491567  1
  O  O48  1  0.38341863  0.81166189  0.96491567  1
  O  O49  1  0.79348280  0.15984133  0.82540341  1
  O  O50  1  0.70651720  0.84015867  0.32540341  1
  O  O51  1  0.20651720  0.65984133  0.67459659  1
  O  O52  1  0.70651720  0.65984133  0.82540341  1
  O  O53  1  0.20651720  0.84015867  0.17459659  1
  O  O54  1  0.29348280  0.15984133  0.67459659  1
  O  O55  1  0.79348280  0.34015867  0.32540341  1
  O  O56  1  0.11754024  0.03766104  0.31255319  1
  O  O57  1  0.61754024  0.46233896  0.68744681  1
  O  O58  1  0.88245976  0.53766104  0.18744681  1
  O  O59  1  0.38245976  0.96233896  0.81255319  1
  O  O60  1  0.88245976  0.96233896  0.68744681  1
  O  O61  1  0.38245976  0.53766104  0.31255319  1
  O  O62  1  0.11754024  0.46233896  0.81255319  1
  O  O63  1  0.29348280  0.34015867  0.17459659  1
