# generated using pymatgen
data_NdHSO5
_symmetry_space_group_name_H-M   'P 1'
_cell_length_a   4.51612240
_cell_length_b   6.95735162
_cell_length_c   12.54062341
_cell_angle_alpha   90.00000000
_cell_angle_beta   90.00000000
_cell_angle_gamma   106.34451610
_symmetry_Int_Tables_number   1
_chemical_formula_structural   NdHSO5
_chemical_formula_sum   'Nd4 H4 S4 O20'
_cell_volume   378.10560102
_cell_formula_units_Z   4
loop_
 _symmetry_equiv_pos_site_id
 _symmetry_equiv_pos_as_xyz
  1  'x, y, z'
loop_
 _atom_site_type_symbol
 _atom_site_label
 _atom_site_symmetry_multiplicity
 _atom_site_fract_x
 _atom_site_fract_y
 _atom_site_fract_z
 _atom_site_occupancy
  H  H0  1  0.23854679  0.52169194  0.65378848  1
  H  H1  1  0.26145321  0.97830806  0.15378848  1
  H  H2  1  0.76145321  0.47830806  0.34621152  1
  H  H3  1  0.73854679  0.02169194  0.84621152  1
  O  O4  1  0.19680351  0.45769151  0.58347853  1
  O  O5  1  0.30319649  0.04230849  0.08347853  1
  O  O6  1  0.80319649  0.54230849  0.41652147  1
  O  O7  1  0.69680351  0.95769151  0.91652147  1
  O  O8  1  0.63657231  0.43730116  0.16576705  1
  O  O9  1  0.86342769  0.06269884  0.66576705  1
  O  O10  1  0.36342769  0.56269884  0.83423295  1
  O  O11  1  0.13657231  0.93730116  0.33423295  1
  O  O12  1  0.75616858  0.78053477  0.09762671  1
  O  O13  1  0.74383142  0.71946523  0.59762671  1
  O  O14  1  0.24383142  0.21946523  0.90237329  1
  O  O15  1  0.25616858  0.28053477  0.40237329  1
  O  O16  1  0.24796543  0.55083732  0.06998610  1
  O  O17  1  0.25203457  0.94916268  0.56998610  1
  O  O18  1  0.75203457  0.44916268  0.93001390  1
  O  O19  1  0.74796543  0.05083732  0.43001390  1
  O  O20  1  0.41098054  0.67722941  0.24760758  1
  O  O21  1  0.08901946  0.82277059  0.74760758  1
  O  O22  1  0.58901946  0.32277059  0.75239242  1
  O  O23  1  0.91098054  0.17722941  0.25239242  1
  S  S24  1  0.01881794  0.11084550  0.35321607  1
  S  S25  1  0.48118206  0.38915450  0.85321607  1
  S  S26  1  0.98118206  0.88915450  0.64678393  1
  S  S27  1  0.51881794  0.61084550  0.14678393  1
  Nd  Nd28  1  0.36165824  0.70028179  0.43705565  1
  Nd  Nd29  1  0.13834176  0.79971821  0.93705565  1
  Nd  Nd30  1  0.63834176  0.29971821  0.56294435  1
  Nd  Nd31  1  0.86165824  0.20028179  0.06294435  1
