# generated using pymatgen
data_BaHCl
_symmetry_space_group_name_H-M   'P 1'
_cell_length_a   4.43531995
_cell_length_b   4.43531995
_cell_length_c   7.31473935
_cell_angle_alpha   90.00000000
_cell_angle_beta   90.00000000
_cell_angle_gamma   90.00000000
_symmetry_Int_Tables_number   1
_chemical_formula_structural   BaHCl
_chemical_formula_sum   'Ba2 H2 Cl2'
_cell_volume   143.89601375
_cell_formula_units_Z   2
loop_
 _symmetry_equiv_pos_site_id
 _symmetry_equiv_pos_as_xyz
  1  'x, y, z'
loop_
 _atom_site_type_symbol
 _atom_site_label
 _atom_site_symmetry_multiplicity
 _atom_site_fract_x
 _atom_site_fract_y
 _atom_site_fract_z
 _atom_site_occupancy
  H  H0  1  0.25000000  0.75000000  0.00000000  1
  H  H1  1  0.75000000  0.25000000  0.00000000  1
  Cl  Cl2  1  0.25000000  0.25000000  0.65301566  1
  Cl  Cl3  1  0.75000000  0.75000000  0.34698434  1
  Ba  Ba4  1  0.75000000  0.75000000  0.79214168  1
  Ba  Ba5  1  0.25000000  0.25000000  0.20785832  1
