# generated using pymatgen
data_SbAsF8
_symmetry_space_group_name_H-M   'P 1'
_cell_length_a   5.73666512
_cell_length_b   7.00908663
_cell_length_c   8.35854140
_cell_angle_alpha   90.00000000
_cell_angle_beta   90.00000000
_cell_angle_gamma   95.35804395
_symmetry_Int_Tables_number   1
_chemical_formula_structural   SbAsF8
_chemical_formula_sum   'Sb2 As2 F16'
_cell_volume   334.61828169
_cell_formula_units_Z   2
loop_
 _symmetry_equiv_pos_site_id
 _symmetry_equiv_pos_as_xyz
  1  'x, y, z'
loop_
 _atom_site_type_symbol
 _atom_site_label
 _atom_site_symmetry_multiplicity
 _atom_site_fract_x
 _atom_site_fract_y
 _atom_site_fract_z
 _atom_site_occupancy
  F  F0  1  0.23007842  0.78627410  0.47723716  1
  F  F1  1  0.76992158  0.21372590  0.97723716  1
  F  F2  1  0.76992158  0.21372590  0.52276284  1
  F  F3  1  0.23007842  0.78627410  0.02276284  1
  F  F4  1  0.98223341  0.96551444  0.25000000  1
  F  F5  1  0.01776659  0.03448556  0.75000000  1
  F  F6  1  0.29778533  0.29167298  0.09397281  1
  F  F7  1  0.70221467  0.70832702  0.59397281  1
  F  F8  1  0.70221467  0.70832702  0.90602719  1
  F  F9  1  0.29778533  0.29167298  0.40602719  1
  F  F10  1  0.46360716  -0.00126101  0.25000000  1
  F  F11  1  0.53639284  1.00126101  0.75000000  1
  F  F12  1  0.46373337  0.61635202  0.25000000  1
  F  F13  1  0.53626663  0.38364798  0.75000000  1
  F  F14  1  0.97828457  0.56716734  0.25000000  1
  F  F15  1  0.02171543  0.43283266  0.75000000  1
  As  As16  1  0.50053179  0.29822587  0.25000000  1
  As  As17  1  0.49946821  0.70177413  0.75000000  1
  Sb  Sb18  1  0.20348899  0.78258358  0.25000000  1
  Sb  Sb19  1  0.79651101  0.21741642  0.75000000  1
