# generated using pymatgen
data_AgBH2OF4
_symmetry_space_group_name_H-M   'P 1'
_cell_length_a   7.97964991
_cell_length_b   8.05920846
_cell_length_c   13.47951261
_cell_angle_alpha   90.00000000
_cell_angle_beta   90.00000000
_cell_angle_gamma   90.00000000
_symmetry_Int_Tables_number   1
_chemical_formula_structural   AgBH2OF4
_chemical_formula_sum   'Ag8 B8 H16 O8 F32'
_cell_volume   866.86290072
_cell_formula_units_Z   8
loop_
 _symmetry_equiv_pos_site_id
 _symmetry_equiv_pos_as_xyz
  1  'x, y, z'
loop_
 _atom_site_type_symbol
 _atom_site_label
 _atom_site_symmetry_multiplicity
 _atom_site_fract_x
 _atom_site_fract_y
 _atom_site_fract_z
 _atom_site_occupancy
  H  H0  1  0.65870978  0.39629845  0.96202995  1
  H  H1  1  0.15870978  0.60370155  0.53797005  1
  H  H2  1  0.84129022  0.89629845  0.03797005  1
  H  H3  1  0.34129022  0.10370155  0.46202995  1
  H  H4  1  0.34129022  0.60370155  0.03797005  1
  H  H5  1  0.84129022  0.39629845  0.46202995  1
  H  H6  1  0.15870978  0.10370155  0.96202995  1
  H  H7  1  0.65870978  0.89629845  0.53797005  1
  H  H8  1  0.84097465  0.00510217  0.13516455  1
  H  H9  1  0.34097465  0.99489783  0.36483545  1
  H  H10  1  0.34097465  0.49489783  0.13516455  1
  H  H11  1  0.84097465  0.50510217  0.36483545  1
  H  H12  1  0.15902535  0.99489783  0.86483545  1
  H  H13  1  0.65902535  0.00510217  0.63516455  1
  H  H14  1  0.65902535  0.50510217  0.86483545  1
  H  H15  1  0.15902535  0.49489783  0.63516455  1
  B  B16  1  0.61854846  0.34962875  0.62157294  1
  B  B17  1  0.61854846  0.84962875  0.87842706  1
  B  B18  1  0.11854846  0.15037125  0.62157294  1
  B  B19  1  0.88145154  0.34962875  0.12157294  1
  B  B20  1  0.38145154  0.65037125  0.37842706  1
  B  B21  1  0.38145154  0.15037125  0.12157294  1
  B  B22  1  0.88145154  0.84962875  0.37842706  1
  B  B23  1  0.11854846  0.65037125  0.87842706  1
  O  O24  1  0.65148177  0.38958826  0.88920046  1
  O  O25  1  0.84851823  0.88958826  0.11079954  1
  O  O26  1  0.34851823  0.11041174  0.38920046  1
  O  O27  1  0.34851823  0.61041174  0.11079954  1
  O  O28  1  0.84851823  0.38958826  0.38920046  1
  O  O29  1  0.15148177  0.11041174  0.88920046  1
  O  O30  1  0.65148177  0.88958826  0.61079954  1
  O  O31  1  0.15148177  0.61041174  0.61079954  1
  F  F32  1  0.66835298  0.20988647  0.68120005  1
  F  F33  1  0.16835298  0.29011353  0.68120005  1
  F  F34  1  0.83164702  0.20988647  0.18120005  1
  F  F35  1  0.33164702  0.79011353  0.31879995  1
  F  F36  1  0.53792158  0.79217951  0.96410433  1
  F  F37  1  0.83164702  0.70988647  0.31879995  1
  F  F38  1  0.16835298  0.79011353  0.81879995  1
  F  F39  1  0.66835298  0.70988647  0.81879995  1
  F  F40  1  0.51054233  0.94968968  0.82045854  1
  F  F41  1  0.01054233  0.05031032  0.67954146  1
  F  F42  1  0.98945767  0.44968968  0.17954146  1
  F  F43  1  0.48945767  0.55031032  0.32045854  1
  F  F44  1  0.48945767  0.05031032  0.17954146  1
  F  F45  1  0.98945767  0.94968968  0.32045854  1
  F  F46  1  0.76408693  0.44157865  0.59473638  1
  F  F47  1  0.51054233  0.44968968  0.67954146  1
  F  F48  1  0.26408693  0.55842135  0.90526362  1
  F  F49  1  0.73591307  0.94157865  0.40526362  1
  F  F50  1  0.23591307  0.05842135  0.09473638  1
  F  F51  1  0.23591307  0.55842135  0.40526362  1
  F  F52  1  0.73591307  0.44157865  0.09473638  1
  F  F53  1  0.26408693  0.05842135  0.59473638  1
  F  F54  1  0.76408693  0.94157865  0.90526362  1
  F  F55  1  0.53792158  0.29217951  0.53589567  1
  F  F56  1  0.03792158  0.70782049  0.96410433  1
  F  F57  1  0.96207842  0.79217951  0.46410433  1
  F  F58  1  0.46207842  0.20782049  0.03589567  1
  F  F59  1  0.46207842  0.70782049  0.46410433  1
  F  F60  1  0.96207842  0.29217951  0.03589567  1
  F  F61  1  0.03792158  0.20782049  0.53589567  1
  F  F62  1  0.01054233  0.55031032  0.82045854  1
  F  F63  1  0.33164702  0.29011353  0.18120005  1
  Ag  Ag64  1  0.89317503  0.23549629  0.83842056  1
  Ag  Ag65  1  0.39317503  0.76450371  0.66157944  1
  Ag  Ag66  1  0.60682497  0.73549629  0.16157944  1
  Ag  Ag67  1  0.10682497  0.26450371  0.33842056  1
  Ag  Ag68  1  0.10682497  0.76450371  0.16157944  1
  Ag  Ag69  1  0.60682497  0.23549629  0.33842056  1
  Ag  Ag70  1  0.39317503  0.26450371  0.83842056  1
  Ag  Ag71  1  0.89317503  0.73549629  0.66157944  1
