# generated using pymatgen
data_ZnH2SeO5
_symmetry_space_group_name_H-M   'P 1'
_cell_length_a   5.41962496
_cell_length_b   5.41962496
_cell_length_c   7.75987476
_cell_angle_alpha   106.36164495
_cell_angle_beta   106.36164493
_cell_angle_gamma   98.59556447
_symmetry_Int_Tables_number   1
_chemical_formula_structural   ZnH2SeO5
_chemical_formula_sum   'Zn2 H4 Se2 O10'
_cell_volume   203.25456399
_cell_formula_units_Z   2
loop_
 _symmetry_equiv_pos_site_id
 _symmetry_equiv_pos_as_xyz
  1  'x, y, z'
loop_
 _atom_site_type_symbol
 _atom_site_label
 _atom_site_symmetry_multiplicity
 _atom_site_fract_x
 _atom_site_fract_y
 _atom_site_fract_z
 _atom_site_occupancy
  H  H0  1  0.63534087  0.03210535  0.20409272  1
  H  H1  1  0.46789465  0.86465913  0.29590728  1
  H  H2  1  0.36465913  0.96789465  0.79590728  1
  H  H3  1  0.53210535  0.13534087  0.70409272  1
  O  O4  1  0.81048605  0.71654522  0.57912474  1
  O  O5  1  0.78345478  0.68951395  0.92087526  1
  O  O6  1  0.18951395  0.28345478  0.42087526  1
  O  O7  1  0.21654522  0.31048605  0.07912474  1
  O  O8  1  0.24687886  0.68717994  0.84504107  1
  O  O9  1  0.81282006  0.25312114  0.65495893  1
  O  O10  1  0.75312114  0.31282006  0.15495893  1
  O  O11  1  0.18717994  0.74687886  0.34504107  1
  O  O12  1  0.37672686  0.12327314  0.75000000  1
  O  O13  1  0.62327314  0.87672686  0.25000000  1
  Zn  Zn14  1  0.50000000  0.50000000  0.00000000  1
  Zn  Zn15  1  0.00000000  0.00000000  0.50000000  1
  Se  Se16  1  0.91268121  0.58731879  0.75000000  1
  Se  Se17  1  0.08731879  0.41268121  0.25000000  1
