# generated using pymatgen
data_NaTiF4
_symmetry_space_group_name_H-M   'P 1'
_cell_length_a   5.07485047
_cell_length_b   5.83458824
_cell_length_c   11.17161306
_cell_angle_alpha   90.00000000
_cell_angle_beta   90.00000000
_cell_angle_gamma   90.00000000
_symmetry_Int_Tables_number   1
_chemical_formula_structural   NaTiF4
_chemical_formula_sum   'Na4 Ti4 F16'
_cell_volume   330.78769644
_cell_formula_units_Z   4
loop_
 _symmetry_equiv_pos_site_id
 _symmetry_equiv_pos_as_xyz
  1  'x, y, z'
loop_
 _atom_site_type_symbol
 _atom_site_label
 _atom_site_symmetry_multiplicity
 _atom_site_fract_x
 _atom_site_fract_y
 _atom_site_fract_z
 _atom_site_occupancy
  F  F0  1  0.33117109  0.32018885  0.09739213  1
  F  F1  1  0.83117109  0.17981115  0.90260787  1
  F  F2  1  0.66882891  0.32018885  0.40260787  1
  F  F3  1  0.16882891  0.17981115  0.59739213  1
  F  F4  1  0.66882891  0.67981115  0.90260787  1
  F  F5  1  0.16882891  0.82018885  0.09739213  1
  F  F6  1  0.33117109  0.67981115  0.59739213  1
  F  F7  1  0.83117109  0.82018885  0.40260787  1
  F  F8  1  0.74522252  0.08569612  0.19082305  1
  F  F9  1  0.24522252  0.41430388  0.80917695  1
  F  F10  1  0.25477748  0.08569612  0.30917695  1
  F  F11  1  0.75477748  0.41430388  0.69082305  1
  F  F12  1  0.25477748  0.91430388  0.80917695  1
  F  F13  1  0.75477748  0.58569612  0.19082305  1
  F  F14  1  0.74522252  0.91430388  0.69082305  1
  F  F15  1  0.24522252  0.58569612  0.30917695  1
  Na  Na16  1  0.50000000  0.00000000  0.50000000  1
  Na  Na17  1  0.00000000  0.50000000  0.50000000  1
  Na  Na18  1  0.50000000  0.00000000  0.00000000  1
  Na  Na19  1  0.00000000  0.50000000  0.00000000  1
  Ti  Ti20  1  0.50000000  0.34339171  0.25000000  1
  Ti  Ti21  1  0.00000000  0.15660829  0.75000000  1
  Ti  Ti22  1  0.50000000  0.65660829  0.75000000  1
  Ti  Ti23  1  0.00000000  0.84339171  0.25000000  1
