# generated using pymatgen
data_Li2AlFeO4
_symmetry_space_group_name_H-M   'P 1'
_cell_length_a   10.10768576
_cell_length_b   5.03397826
_cell_length_c   14.28422586
_cell_angle_alpha   90.00000000
_cell_angle_beta   90.00000000
_cell_angle_gamma   90.00000000
_symmetry_Int_Tables_number   1
_chemical_formula_structural   Li2AlFeO4
_chemical_formula_sum   'Li16 Al8 Fe8 O32'
_cell_volume   726.80812861
_cell_formula_units_Z   8
loop_
 _symmetry_equiv_pos_site_id
 _symmetry_equiv_pos_as_xyz
  1  'x, y, z'
loop_
 _atom_site_type_symbol
 _atom_site_label
 _atom_site_symmetry_multiplicity
 _atom_site_fract_x
 _atom_site_fract_y
 _atom_site_fract_z
 _atom_site_occupancy
  Li  Li0  1  0.99032474  0.05758732  0.56294325  1
  Li  Li1  1  0.98856757  0.54481990  0.93822322  1
  Li  Li2  1  0.20808253  0.96591702  0.20524201  1
  Li  Li3  1  0.20632752  0.47423209  0.30880267  1
  Li  Li4  1  0.29191747  0.96591702  0.70524201  1
  Li  Li5  1  0.29367248  0.47423209  0.80880267  1
  Li  Li6  1  0.51143243  0.54481990  0.43822322  1
  Li  Li7  1  0.50967526  0.05758732  0.06294325  1
  Li  Li8  1  0.48856757  0.45518010  0.93822322  1
  Li  Li9  1  0.49032474  0.94241268  0.56294325  1
  Li  Li10  1  0.70632752  0.52576791  0.30880267  1
  Li  Li11  1  0.70808253  0.03408298  0.20524201  1
  Li  Li12  1  0.79367248  0.52576791  0.80880267  1
  Li  Li13  1  0.79191747  0.03408298  0.70524201  1
  Li  Li14  1  0.01143243  0.45518010  0.43822322  1
  Li  Li15  1  0.00967526  0.94241268  0.06294325  1
  Al  Al16  1  0.02099043  0.05493260  0.81193742  1
  Al  Al17  1  0.22558059  0.99067801  0.43084135  1
  Al  Al18  1  0.27441941  0.99067801  0.93084135  1
  Al  Al19  1  0.47900957  0.05493260  0.31193742  1
  Al  Al20  1  0.52099043  0.94506740  0.81193742  1
  Al  Al21  1  0.72558059  0.00932199  0.43084135  1
  Al  Al22  1  0.77441941  0.00932199  0.93084135  1
  Al  Al23  1  0.97900957  0.94506740  0.31193742  1
  Fe  Fe24  1  0.02662851  0.54916094  0.69169331  1
  Fe  Fe25  1  0.22434523  0.49025549  0.06272413  1
  Fe  Fe26  1  0.27565477  0.49025549  0.56272413  1
  Fe  Fe27  1  0.47337149  0.54916094  0.19169331  1
  Fe  Fe28  1  0.52662851  0.45083906  0.69169331  1
  Fe  Fe29  1  0.72434523  0.50974451  0.06272413  1
  Fe  Fe30  1  0.77565477  0.50974451  0.56272413  1
  Fe  Fe31  1  0.97337149  0.45083906  0.19169331  1
  O  O32  1  0.02541496  0.28804700  0.30654050  1
  O  O33  1  0.01672906  0.81848639  0.19791216  1
  O  O34  1  0.09294165  0.79048256  0.38999868  1
  O  O35  1  0.06594978  0.30298171  0.08801158  1
  O  O36  1  0.19049138  0.12986480  0.83177170  1
  O  O37  1  0.21216534  0.61603018  0.68206321  1
  O  O38  1  0.15698815  0.24432060  0.50474468  1
  O  O39  1  0.15980867  0.77537539  0.98814813  1
  O  O40  1  0.34301185  0.24432060  0.00474468  1
  O  O41  1  0.34019133  0.77537539  0.48814813  1
  O  O42  1  0.30950862  0.12986480  0.33177170  1
  O  O43  1  0.28783466  0.61603018  0.18206321  1
  O  O44  1  0.43405022  0.30298171  0.58801258  1
  O  O45  1  0.40705835  0.79048256  0.88999868  1
  O  O46  1  0.47458504  0.28804700  0.80654050  1
  O  O47  1  0.48327094  0.81848639  0.69791216  1
  O  O48  1  0.51672906  0.18151361  0.19791216  1
  O  O49  1  0.52541496  0.71195300  0.30654050  1
  O  O50  1  0.59294165  0.20951744  0.38999868  1
  O  O51  1  0.56594978  0.69701829  0.08801158  1
  O  O52  1  0.71216534  0.38396982  0.68206321  1
  O  O53  1  0.69049138  0.87013520  0.83177170  1
  O  O54  1  0.65980867  0.22462461  0.98814813  1
  O  O55  1  0.65698815  0.75567940  0.50474468  1
  O  O56  1  0.84019133  0.22462461  0.48814813  1
  O  O57  1  0.84301185  0.75567940  0.00474468  1
  O  O58  1  0.78783466  0.38396982  0.18206321  1
  O  O59  1  0.80950862  0.87013520  0.33177170  1
  O  O60  1  0.93405022  0.69701829  0.58801258  1
  O  O61  1  0.90705835  0.20951744  0.88999868  1
  O  O62  1  0.98327094  0.18151361  0.69791216  1
  O  O63  1  0.97458504  0.71195300  0.80654050  1
