# generated using pymatgen
data_Sb2(S2O7)3
_symmetry_space_group_name_H-M   'P 1'
_cell_length_a   6.77956669
_cell_length_b   9.84343622
_cell_length_c   12.95211017
_cell_angle_alpha   87.33654180
_cell_angle_beta   82.60946412
_cell_angle_gamma   81.91152241
_symmetry_Int_Tables_number   1
_chemical_formula_structural   Sb2(S2O7)3
_chemical_formula_sum   'Sb4 S12 O42'
_cell_volume   848.28698159
_cell_formula_units_Z   2
loop_
 _symmetry_equiv_pos_site_id
 _symmetry_equiv_pos_as_xyz
  1  'x, y, z'
loop_
 _atom_site_type_symbol
 _atom_site_label
 _atom_site_symmetry_multiplicity
 _atom_site_fract_x
 _atom_site_fract_y
 _atom_site_fract_z
 _atom_site_occupancy
  O  O0  1  0.05627648  0.58349066  0.25818873  1
  O  O1  1  0.94372352  0.41650934  0.74181127  1
  O  O2  1  0.38797589  0.52516733  0.31122577  1
  O  O3  1  0.61202411  0.47483267  0.68877423  1
  O  O4  1  0.24917678  0.36106396  0.21088531  1
  O  O5  1  0.75082322  0.63893604  0.78911469  1
  O  O6  1  0.12271087  0.40706121  0.39686707  1
  O  O7  1  0.87728913  0.59293879  0.60313293  1
  O  O8  1  0.87471015  0.29432295  0.50900388  1
  O  O9  1  0.12528985  0.70567705  0.49099612  1
  O  O10  1  0.01914510  0.18815471  0.34370639  1
  O  O11  1  0.98085490  0.81184529  0.65629361  1
  O  O12  1  0.78370399  0.39958013  0.34283331  1
  O  O13  1  0.21629601  0.60041987  0.65716669  1
  O  O14  1  0.66782256  0.67388179  0.39149003  1
  O  O15  1  0.33217744  0.32611821  0.60850997  1
  O  O16  1  0.92421416  0.84472275  0.90403206  1
  O  O17  1  0.07578584  0.15527725  0.09596794  1
  O  O18  1  0.19072757  0.64671815  0.88317917  1
  O  O19  1  0.80927243  0.35328185  0.11682083  1
  O  O20  1  0.91585436  0.65003003  0.02852584  1
  O  O21  1  0.08414564  0.34996997  0.97147416  1
  O  O22  1  0.15482694  0.81857371  0.02544457  1
  O  O23  1  0.84517306  0.18142629  0.97455543  1
  O  O24  1  0.50787036  0.80073970  0.93821577  1
  O  O25  1  0.49212964  0.19926030  0.06178423  1
  O  O26  1  0.43543696  0.67770671  0.10496241  1
  O  O27  1  0.56456304  0.32229329  0.89503759  1
  O  O28  1  0.39683253  0.92914293  0.09605848  1
  O  O29  1  0.60316747  0.07085707  0.90394152  1
  O  O30  1  0.94316712  0.05938764  0.75187316  1
  O  O31  1  0.05683288  0.94061236  0.24812684  1
  O  O32  1  0.20021687  0.18794566  0.79571665  1
  O  O33  1  0.79978313  0.81205434  0.20428335  1
  O  O34  1  0.28366948  0.94105226  0.77181553  1
  O  O35  1  0.71633052  0.05894774  0.22818447  1
  O  O36  1  0.21455339  0.09677381  0.61938911  1
  O  O37  1  0.78544661  0.90322619  0.38061089  1
  O  O38  1  0.44418338  0.16439267  0.47095345  1
  O  O39  1  0.55581662  0.83560733  0.52904655  1
  O  O40  1  0.57050079  0.12119749  0.64393468  1
  O  O41  1  0.42949921  0.87880251  0.35606532  1
  S  S42  1  0.21618272  0.46965585  0.28556975  1
  S  S43  1  0.78381728  0.53034415  0.71443025  1
  S  S44  1  0.93397055  0.31228539  0.40051000  1
  S  S45  1  0.06602945  0.68771461  0.59949000  1
  S  S46  1  0.58279449  0.82179439  0.41899504  1
  S  S47  1  0.41720551  0.17820561  0.58100496  1
  S  S48  1  0.83703923  0.93463623  0.25656069  1
  S  S49  1  0.16296077  0.06536377  0.74343931  1
  S  S50  1  0.60390783  0.20027814  0.95884122  1
  S  S51  1  0.39609217  0.79972186  0.04115878  1
  S  S52  1  0.95717041  0.27670802  0.04419836  1
  S  S53  1  0.04282959  0.72329198  0.95580164  1
  Sb  Sb54  1  0.74347391  0.58751822  0.24303546  1
  Sb  Sb55  1  0.25652609  0.41248178  0.75696454  1
  Sb  Sb56  1  0.26719061  0.09223361  0.20508873  1
  Sb  Sb57  1  0.73280939  0.90776639  0.79491127  1
