# generated using pymatgen
data_Rb3H(SeO4)2
_symmetry_space_group_name_H-M   'P 1'
_cell_length_a   6.23515991
_cell_length_b   8.53215411
_cell_length_c   10.68957171
_cell_angle_alpha   102.02885547
_cell_angle_beta   90.00000000
_cell_angle_gamma   111.43170250
_symmetry_Int_Tables_number   1
_chemical_formula_structural   Rb3H(SeO4)2
_chemical_formula_sum   'Rb6 H2 Se4 O16'
_cell_volume   515.91884976
_cell_formula_units_Z   2
loop_
 _symmetry_equiv_pos_site_id
 _symmetry_equiv_pos_as_xyz
  1  'x, y, z'
loop_
 _atom_site_type_symbol
 _atom_site_label
 _atom_site_symmetry_multiplicity
 _atom_site_fract_x
 _atom_site_fract_y
 _atom_site_fract_z
 _atom_site_occupancy
  H  H0  1  0.00000000  0.00000000  0.50000000  1
  H  H1  1  0.00000000  0.00000000  0.00000000  1
  O  O2  1  0.67594759  0.25081327  0.88697188  1
  O  O3  1  0.42513431  0.74918673  0.61302812  1
  O  O4  1  0.32405241  0.74918673  0.11302812  1
  O  O5  1  0.57486569  0.25081327  0.38697188  1
  O  O6  1  0.91409600  0.31002472  0.12123707  1
  O  O7  1  0.60407128  0.68997528  0.37876293  1
  O  O8  1  0.08590400  0.68997528  0.87876293  1
  O  O9  1  0.39592872  0.31002472  0.62123707  1
  O  O10  1  0.16998617  0.31435085  0.40048571  1
  O  O11  1  0.85563531  0.68564915  0.09951429  1
  O  O12  1  0.83001383  0.68564915  0.59951429  1
  O  O13  1  0.14436469  0.31435085  0.90048571  1
  O  O14  1  0.17464275  0.01293365  0.44376260  1
  O  O15  1  0.16170910  0.98706635  0.05623740  1
  O  O16  1  0.82535725  0.98706635  0.55623740  1
  O  O17  1  0.83829090  0.01293365  0.94376260  1
  Se  Se18  1  0.89411770  0.23225435  0.96333602  1
  Se  Se19  1  0.66186335  0.76774565  0.53666398  1
  Se  Se20  1  0.10588230  0.76774565  0.03666398  1
  Se  Se21  1  0.33813665  0.23225435  0.46333602  1
  Rb  Rb22  1  0.46280969  0.38410629  0.15219496  1
  Rb  Rb23  1  0.07870340  0.61589371  0.34780504  1
  Rb  Rb24  1  0.53719031  0.61589371  0.84780504  1
  Rb  Rb25  1  0.92129660  0.38410629  0.65219496  1
  Rb  Rb26  1  0.24663712  0.00000000  0.75000000  1
  Rb  Rb27  1  0.75336288  0.00000000  0.25000000  1
