# generated using pymatgen
data_Sc2Co3Si
_symmetry_space_group_name_H-M   'P 1'
_cell_length_a   5.02642754
_cell_length_b   5.02642722
_cell_length_c   7.48273165
_cell_angle_alpha   90.00000000
_cell_angle_beta   90.00000000
_cell_angle_gamma   120.00000211
_symmetry_Int_Tables_number   1
_chemical_formula_structural   Sc2Co3Si
_chemical_formula_sum   'Sc4 Co6 Si2'
_cell_volume   163.72297133
_cell_formula_units_Z   2
loop_
 _symmetry_equiv_pos_site_id
 _symmetry_equiv_pos_as_xyz
  1  'x, y, z'
loop_
 _atom_site_type_symbol
 _atom_site_label
 _atom_site_symmetry_multiplicity
 _atom_site_fract_x
 _atom_site_fract_y
 _atom_site_fract_z
 _atom_site_occupancy
  Sc  Sc0  1  0.33333300  0.66666700  0.56123523  1
  Sc  Sc1  1  0.66666700  0.33333300  0.43876477  1
  Sc  Sc2  1  0.66666700  0.33333300  0.06123523  1
  Sc  Sc3  1  0.33333300  0.66666700  0.93876477  1
  Co  Co4  1  0.82913093  0.17086907  0.75000000  1
  Co  Co5  1  0.65826187  0.82913093  0.25000000  1
  Co  Co6  1  0.17086907  0.82913093  0.25000000  1
  Co  Co7  1  0.82913093  0.65826187  0.75000000  1
  Co  Co8  1  0.17086907  0.34173813  0.25000000  1
  Co  Co9  1  0.34173813  0.17086907  0.75000000  1
  Si  Si10  1  0.00000000  0.00000000  0.50000000  1
  Si  Si11  1  0.00000000  0.00000000  -0.00000000  1
