# generated using pymatgen
data_SnH8(NCl3)2
_symmetry_space_group_name_H-M   'P 1'
_cell_length_a   7.21111592
_cell_length_b   7.21111592
_cell_length_c   7.21111592
_cell_angle_alpha   59.99999999
_cell_angle_beta   60.00000001
_cell_angle_gamma   59.99999998
_symmetry_Int_Tables_number   1
_chemical_formula_structural   SnH8(NCl3)2
_chemical_formula_sum   'Sn1 H8 N2 Cl6'
_cell_volume   265.15048944
_cell_formula_units_Z   1
loop_
 _symmetry_equiv_pos_site_id
 _symmetry_equiv_pos_as_xyz
  1  'x, y, z'
loop_
 _atom_site_type_symbol
 _atom_site_label
 _atom_site_symmetry_multiplicity
 _atom_site_fract_x
 _atom_site_fract_y
 _atom_site_fract_z
 _atom_site_occupancy
  H  H0  1  0.69156387  0.69156387  0.69156387  1
  H  H1  1  0.30843613  0.30843613  0.07469160  1
  H  H2  1  0.30843613  0.07469160  0.30843613  1
  H  H3  1  0.07469160  0.30843613  0.30843613  1
  H  H4  1  0.69156387  0.92530840  0.69156387  1
  H  H5  1  0.92530840  0.69156387  0.69156387  1
  H  H6  1  0.69156387  0.69156387  0.92530840  1
  H  H7  1  0.30843613  0.30843613  0.30843613  1
  N  N8  1  0.75000000  0.75000000  0.75000000  1
  N  N9  1  0.25000000  0.25000000  0.25000000  1
  Cl  Cl10  1  0.75750003  0.24249997  0.75750003  1
  Cl  Cl11  1  0.24249997  0.75750003  0.75750003  1
  Cl  Cl12  1  0.75750003  0.24249997  0.24249997  1
  Cl  Cl13  1  0.75750003  0.75750003  0.24249997  1
  Cl  Cl14  1  0.24249997  0.24249997  0.75750003  1
  Cl  Cl15  1  0.24249997  0.75750003  0.24249997  1
  Sn  Sn16  1  0.00000000  0.00000000  0.00000000  1
