# generated using pymatgen
data_ReCl4O
_symmetry_space_group_name_H-M   'P 1'
_cell_length_a   6.15272501
_cell_length_b   13.56172610
_cell_length_c   18.34687770
_cell_angle_alpha   105.19971915
_cell_angle_beta   90.00000000
_cell_angle_gamma   90.00000000
_symmetry_Int_Tables_number   1
_chemical_formula_structural   ReCl4O
_chemical_formula_sum   'Re8 Cl32 O8'
_cell_volume   1477.33829239
_cell_formula_units_Z   8
loop_
 _symmetry_equiv_pos_site_id
 _symmetry_equiv_pos_as_xyz
  1  'x, y, z'
loop_
 _atom_site_type_symbol
 _atom_site_label
 _atom_site_symmetry_multiplicity
 _atom_site_fract_x
 _atom_site_fract_y
 _atom_site_fract_z
 _atom_site_occupancy
  O  O0  1  0.84066442  0.96879390  0.14355358  1
  O  O1  1  0.28000853  0.27964537  0.60033572  1
  O  O2  1  0.78000853  0.22035463  0.89966428  1
  O  O3  1  0.71999147  0.72035463  0.39966428  1
  O  O4  1  0.21999147  0.77964537  0.10033572  1
  O  O5  1  0.65933558  0.46879390  0.64355358  1
  O  O6  1  0.15933558  0.03120610  0.85644642  1
  O  O7  1  0.34066442  0.53120610  0.35644642  1
  Cl  Cl8  1  0.63198258  0.67130627  0.77802116  1
  Cl  Cl9  1  0.87262606  0.18867304  0.11181057  1
  Cl  Cl10  1  0.37262606  0.31132696  0.38818943  1
  Cl  Cl11  1  0.12737394  0.81132696  0.88818943  1
  Cl  Cl12  1  0.62737394  0.68867304  0.61181057  1
  Cl  Cl13  1  0.86801742  0.17130627  0.27802116  1
  Cl  Cl14  1  0.36801742  0.32869373  0.22197884  1
  Cl  Cl15  1  0.13198258  0.82869373  0.72197884  1
  Cl  Cl16  1  0.24885887  0.56543578  0.14097960  1
  Cl  Cl17  1  0.74885887  0.93456422  0.35902040  1
  Cl  Cl18  1  0.75114113  0.43456422  0.85902040  1
  Cl  Cl19  1  0.25114113  0.06543578  0.64097960  1
  Cl  Cl20  1  0.65453753  0.71618661  0.00492043  1
  Cl  Cl21  1  0.15453753  0.78381339  0.49507957  1
  Cl  Cl22  1  0.34546247  0.28381339  0.99507957  1
  Cl  Cl23  1  0.84546247  0.21618661  0.50492043  1
  Cl  Cl24  1  0.64581187  0.71316697  0.17383303  1
  Cl  Cl25  1  0.14581187  0.78683303  0.32616697  1
  Cl  Cl26  1  0.35418813  0.28683303  0.82616697  1
  Cl  Cl27  1  0.85418813  0.21316697  0.67383303  1
  Cl  Cl28  1  0.27043975  0.04196342  0.07628205  1
  Cl  Cl29  1  0.77043975  0.45803658  0.42371795  1
  Cl  Cl30  1  0.72956025  0.95803658  0.92371795  1
  Cl  Cl31  1  0.22956025  0.54196342  0.57628205  1
  Cl  Cl32  1  0.27089541  0.02821995  0.24292082  1
  Cl  Cl33  1  0.77089541  0.47178005  0.25707918  1
  Cl  Cl34  1  0.72910459  0.97178005  0.75707918  1
  Cl  Cl35  1  0.22910459  0.52821995  0.74292082  1
  Cl  Cl36  1  0.25328682  0.57075392  0.97205316  1
  Cl  Cl37  1  0.75328682  0.92924608  0.52794684  1
  Cl  Cl38  1  0.74671318  0.42924608  0.02794684  1
  Cl  Cl39  1  0.24671318  0.07075392  0.47205316  1
  Re  Re40  1  0.11034747  0.17822190  0.58035465  1
  Re  Re41  1  0.61034747  0.32177810  0.91964535  1
  Re  Re42  1  0.88965253  0.82177810  0.41964535  1
  Re  Re43  1  0.38965253  0.67822190  0.08035465  1
  Re  Re44  1  0.49100101  0.57033908  0.66814797  1
  Re  Re45  1  0.99100101  0.92966092  0.83185203  1
  Re  Re46  1  0.50899899  0.42966092  0.33185203  1
  Re  Re47  1  0.00899899  0.07033908  0.16814797  1
