# generated using pymatgen
data_RbH3(SeO3)2
_symmetry_space_group_name_H-M   'P 1'
_cell_length_a   6.06172064
_cell_length_b   6.48811369
_cell_length_c   18.27762218
_cell_angle_alpha   90.00000000
_cell_angle_beta   90.00000000
_cell_angle_gamma   90.00000000
_symmetry_Int_Tables_number   1
_chemical_formula_structural   RbH3(SeO3)2
_chemical_formula_sum   'Rb4 H12 Se8 O24'
_cell_volume   718.84302760
_cell_formula_units_Z   4
loop_
 _symmetry_equiv_pos_site_id
 _symmetry_equiv_pos_as_xyz
  1  'x, y, z'
loop_
 _atom_site_type_symbol
 _atom_site_label
 _atom_site_symmetry_multiplicity
 _atom_site_fract_x
 _atom_site_fract_y
 _atom_site_fract_z
 _atom_site_occupancy
  H  H0  1  0.27578595  0.50009768  0.03055703  1
  H  H1  1  0.77578595  0.49990232  0.46944297  1
  H  H2  1  0.22421405  0.00009768  0.96944297  1
  H  H3  1  0.72421405  0.99990232  0.53055703  1
  H  H4  1  0.59910335  0.78218595  0.11547106  1
  H  H5  1  0.09910335  0.21781405  0.38452894  1
  H  H6  1  0.90089665  0.28218595  0.88452894  1
  H  H7  1  0.40089665  0.71781405  0.61547106  1
  H  H8  1  0.97945513  0.95947674  0.26345142  1
  H  H9  1  0.47945513  0.04052326  0.23654858  1
  H  H10  1  0.52054487  0.45947674  0.73654858  1
  H  H11  1  0.02054487  0.54052326  0.76345142  1
  O  O12  1  0.23008062  0.81002572  0.66321945  1
  O  O13  1  0.73008062  0.18997428  0.83678055  1
  O  O14  1  0.26991938  0.31002572  0.33678055  1
  O  O15  1  0.76991938  0.68997428  0.16321945  1
  O  O16  1  0.03959367  0.67898627  0.79101098  1
  O  O17  1  0.53959367  0.32101373  0.70898902  1
  O  O18  1  0.46040633  0.17898627  0.20898902  1
  O  O19  1  0.96040633  0.82101373  0.29101098  1
  O  O20  1  0.49043437  0.67295438  0.77382862  1
  O  O21  1  0.99043437  0.32704562  0.72617138  1
  O  O22  1  0.00956563  0.17295438  0.22617138  1
  O  O23  1  0.50956563  0.82704562  0.27382862  1
  O  O24  1  0.91669416  0.57364363  0.53648098  1
  O  O25  1  0.41669416  0.42635637  0.96351902  1
  O  O26  1  0.58330584  0.07364363  0.46351902  1
  O  O27  1  0.08330584  0.92635637  0.03648098  1
  O  O28  1  0.50831329  0.65888308  0.57496772  1
  O  O29  1  0.00831329  0.34111692  0.92503228  1
  O  O30  1  0.99168671  0.15888308  0.42503228  1
  O  O31  1  0.49168671  0.84111692  0.07496772  1
  O  O32  1  0.80839307  0.96880946  0.57832322  1
  O  O33  1  0.30839307  0.03119054  0.92167678  1
  O  O34  1  0.69160693  0.46880946  0.42167678  1
  O  O35  1  0.19160693  0.53119054  0.07832322  1
  Se  Se36  1  0.21287794  0.79716080  0.10359994  1
  Se  Se37  1  0.71287794  0.20283920  0.39640006  1
  Se  Se38  1  0.28712206  0.29716080  0.89640006  1
  Se  Se39  1  0.78712206  0.70283920  0.60359994  1
  Se  Se40  1  0.73060044  0.67447593  0.25604927  1
  Se  Se41  1  0.23060044  0.32552407  0.24395073  1
  Se  Se42  1  0.76939956  0.17447593  0.74395073  1
  Se  Se43  1  0.26939956  0.82552407  0.75604927  1
  Rb  Rb44  1  0.26776977  0.73259654  0.41313681  1
  Rb  Rb45  1  0.76776977  0.26740346  0.08686319  1
  Rb  Rb46  1  0.23223023  0.23259654  0.58686319  1
  Rb  Rb47  1  0.73223023  0.76740346  0.91313681  1
