# generated using pymatgen
data_BaH4O3
_symmetry_space_group_name_H-M   'P 1'
_cell_length_a   3.93837513
_cell_length_b   6.41867855
_cell_length_c   7.04331791
_cell_angle_alpha   90.00000000
_cell_angle_beta   90.00000000
_cell_angle_gamma   90.00000000
_symmetry_Int_Tables_number   1
_chemical_formula_structural   BaH4O3
_chemical_formula_sum   'Ba2 H8 O6'
_cell_volume   178.04918833
_cell_formula_units_Z   2
loop_
 _symmetry_equiv_pos_site_id
 _symmetry_equiv_pos_as_xyz
  1  'x, y, z'
loop_
 _atom_site_type_symbol
 _atom_site_label
 _atom_site_symmetry_multiplicity
 _atom_site_fract_x
 _atom_site_fract_y
 _atom_site_fract_z
 _atom_site_occupancy
  H  H0  1  0.50000000  0.30517680  0.60198975  1
  H  H1  1  0.50000000  0.69482320  0.10198975  1
  H  H2  1  0.50000000  0.98379959  0.59256207  1
  H  H3  1  0.50000000  0.01620041  0.09256207  1
  H  H4  1  0.20107117  0.12364379  0.81254856  1
  H  H5  1  0.79892883  0.87635621  0.31254856  1
  H  H6  1  0.20107117  0.87635621  0.31254856  1
  H  H7  1  0.79892883  0.12364379  0.81254856  1
  O  O8  1  0.00000000  0.20596996  0.86304128  1
  O  O9  1  0.50000000  0.56387524  0.03131638  1
  O  O10  1  0.50000000  0.96702802  0.73044347  1
  O  O11  1  0.50000000  0.03297198  0.23044347  1
  O  O12  1  0.00000000  0.79403004  0.36304128  1
  O  O13  1  0.50000000  0.43612476  0.53131638  1
  Ba  Ba14  1  0.00000000  0.64274929  0.74744994  1
  Ba  Ba15  1  0.00000000  0.35725071  0.24744994  1
