# generated using pymatgen
data_BaAsHO4
_symmetry_space_group_name_H-M   'P 1'
_cell_length_a   8.71469641
_cell_length_b   10.09586497
_cell_length_c   19.79915807
_cell_angle_alpha   90.00000000
_cell_angle_beta   90.00000000
_cell_angle_gamma   90.00000000
_symmetry_Int_Tables_number   1
_chemical_formula_structural   BaAsHO4
_chemical_formula_sum   'Ba16 As16 H16 O64'
_cell_volume   1741.97740954
_cell_formula_units_Z   16
loop_
 _symmetry_equiv_pos_site_id
 _symmetry_equiv_pos_as_xyz
  1  'x, y, z'
loop_
 _atom_site_type_symbol
 _atom_site_label
 _atom_site_symmetry_multiplicity
 _atom_site_fract_x
 _atom_site_fract_y
 _atom_site_fract_z
 _atom_site_occupancy
  H  H0  1  0.28656576  0.42450003  0.28001919  1
  H  H1  1  0.78656576  0.07549997  0.71998081  1
  H  H2  1  0.71343424  0.92450003  0.21998081  1
  H  H3  1  0.21343424  0.57549997  0.78001919  1
  H  H4  1  0.71343424  0.57549997  0.71998081  1
  H  H5  1  0.21343424  0.92450003  0.28001919  1
  H  H6  1  0.28656576  0.07549997  0.78001919  1
  H  H7  1  0.78656576  0.42450003  0.21998081  1
  H  H8  1  0.58305380  0.88418923  0.49981307  1
  H  H9  1  0.08305380  0.61581077  0.50018693  1
  H  H10  1  0.41694620  0.38418923  0.00018693  1
  H  H11  1  0.91694620  0.11581077  0.99981307  1
  H  H12  1  0.41694620  0.11581077  0.50018693  1
  H  H13  1  0.91694620  0.38418923  0.49981307  1
  H  H14  1  0.58305380  0.61581077  0.99981307  1
  H  H15  1  0.08305380  0.88418923  0.00018693  1
  O  O16  1  0.91809072  0.37877232  0.34549993  1
  O  O17  1  0.41809072  0.12122768  0.65450007  1
  O  O18  1  0.08190928  0.87877232  0.15450007  1
  O  O19  1  0.58190928  0.62122768  0.84549993  1
  O  O20  1  0.08190928  0.62122768  0.65450007  1
  O  O21  1  0.58190928  0.87877232  0.34549993  1
  O  O22  1  0.91809072  0.12122768  0.84549993  1
  O  O23  1  0.41809072  0.37877232  0.15450007  1
  O  O24  1  0.93762344  0.49408537  0.21436277  1
  O  O25  1  0.43762344  0.00591463  0.78563723  1
  O  O26  1  0.06237656  0.99408537  0.28563723  1
  O  O27  1  0.56237656  0.50591463  0.71436277  1
  O  O28  1  0.06237656  0.50591463  0.78563723  1
  O  O29  1  0.56237656  0.99408537  0.21436277  1
  O  O30  1  0.93762344  0.00591463  0.71436277  1
  O  O31  1  0.43762344  0.49408537  0.28563723  1
  O  O32  1  0.18215690  0.37454079  0.27506093  1
  O  O33  1  0.68215690  0.12545921  0.72493907  1
  O  O34  1  0.81784310  0.87454079  0.22493907  1
  O  O35  1  0.31784310  0.62545921  0.77506093  1
  O  O36  1  0.81784310  0.62545921  0.72493907  1
  O  O37  1  0.31784310  0.87454079  0.27506093  1
  O  O38  1  0.18215690  0.12545921  0.77506093  1
  O  O39  1  0.68215690  0.37454079  0.22493907  1
  O  O40  1  0.07595591  0.62640181  0.32624868  1
  O  O41  1  0.57595591  0.87359819  0.67375132  1
  O  O42  1  0.92404409  0.12640181  0.17375132  1
  O  O43  1  0.42404409  0.37359819  0.82624868  1
  O  O44  1  0.92404409  0.37359819  0.67375132  1
  O  O45  1  0.42404409  0.12640181  0.32624868  1
  O  O46  1  0.07595591  0.87359819  0.82624868  1
  O  O47  1  0.57595591  0.62640181  0.17375132  1
  O  O48  1  0.70040093  0.90300592  0.49870971  1
  O  O49  1  0.20040093  0.59699408  0.50129029  1
  O  O50  1  0.29959907  0.40300592  0.00129029  1
  O  O51  1  0.79959907  0.09699408  0.99870971  1
  O  O52  1  0.29959907  0.09699408  0.50129029  1
  O  O53  1  0.79959907  0.40300592  0.49870971  1
  O  O54  1  0.70040093  0.59699408  0.99870971  1
  O  O55  1  0.20040093  0.90300592  0.00129029  1
  O  O56  1  0.84290052  0.10217080  0.56910767  1
  O  O57  1  0.34290052  0.39782920  0.43089233  1
  O  O58  1  0.15709948  0.60217080  0.93089233  1
  O  O59  1  0.65709948  0.89782920  0.06910767  1
  O  O60  1  0.15709948  0.89782920  0.43089233  1
  O  O61  1  0.65709948  0.60217080  0.56910767  1
  O  O62  1  0.84290052  0.39782920  0.06910767  1
  O  O63  1  0.34290052  0.10217080  0.93089233  1
  O  O64  1  0.84378578  0.09526247  0.42180530  1
  O  O65  1  0.34378578  0.40473753  0.57819470  1
  O  O66  1  0.15621422  0.59526247  0.07819470  1
  O  O67  1  0.65621422  0.90473753  0.92180530  1
  O  O68  1  0.15621422  0.90473753  0.57819470  1
  O  O69  1  0.65621422  0.59526247  0.42180530  1
  O  O70  1  0.84378578  0.40473753  0.92180530  1
  O  O71  1  0.34378578  0.09526247  0.07819470  1
  O  O72  1  0.58004194  0.16863753  0.49443820  1
  O  O73  1  0.08004194  0.33136247  0.50556180  1
  O  O74  1  0.41995806  0.66863753  0.00556180  1
  O  O75  1  0.91995806  0.83136247  0.99443820  1
  O  O76  1  0.41995806  0.83136247  0.50556180  1
  O  O77  1  0.91995806  0.66863753  0.49443820  1
  O  O78  1  0.58004194  0.33136247  0.99443820  1
  O  O79  1  0.08004194  0.16863753  0.00556180  1
  As  As80  1  0.02044564  0.47872818  0.29330838  1
  As  As81  1  0.52044564  0.02127182  0.70669162  1
  As  As82  1  0.97955436  0.97872818  0.20669162  1
  As  As83  1  0.47955436  0.52127182  0.79330838  1
  As  As84  1  0.97955436  0.52127182  0.70669162  1
  As  As85  1  0.47955436  0.97872818  0.29330838  1
  As  As86  1  0.02044564  0.02127182  0.79330838  1
  As  As87  1  0.52044564  0.47872818  0.20669162  1
  As  As88  1  0.74510758  0.07605111  0.49561854  1
  As  As89  1  0.24510758  0.42394889  0.50438146  1
  As  As90  1  0.25489242  0.57605111  0.00438146  1
  As  As91  1  0.75489242  0.92394889  0.99561854  1
  As  As92  1  0.25489242  0.92394889  0.50438146  1
  As  As93  1  0.75489242  0.57605111  0.49561854  1
  As  As94  1  0.74510758  0.42394889  0.99561854  1
  As  As95  1  0.24510758  0.07605111  0.00438146  1
  Ba  Ba96  1  0.36715329  0.68264599  0.38185223  1
  Ba  Ba97  1  0.86715329  0.81735401  0.61814777  1
  Ba  Ba98  1  0.63284671  0.18264599  0.11814777  1
  Ba  Ba99  1  0.13284671  0.31735401  0.88185223  1
  Ba  Ba100  1  0.63284671  0.31735401  0.61814777  1
  Ba  Ba101  1  0.13284671  0.18264599  0.38185223  1
  Ba  Ba102  1  0.36715329  0.81735401  0.88185223  1
  Ba  Ba103  1  0.86715329  0.68264599  0.11814777  1
  Ba  Ba104  1  0.62390724  0.32206478  0.37441579  1
  Ba  Ba105  1  0.12390724  0.17793522  0.62558421  1
  Ba  Ba106  1  0.37609276  0.82206478  0.12558421  1
  Ba  Ba107  1  0.87609276  0.67793522  0.87441579  1
  Ba  Ba108  1  0.37609276  0.67793522  0.62558421  1
  Ba  Ba109  1  0.87609276  0.82206478  0.37441579  1
  Ba  Ba110  1  0.62390724  0.17793522  0.87441579  1
  Ba  Ba111  1  0.12390724  0.32206478  0.12558421  1
