# generated using pymatgen
data_K2UBr5
_symmetry_space_group_name_H-M   'P 1'
_cell_length_a   8.59993365
_cell_length_b   9.25527668
_cell_length_c   13.73106415
_cell_angle_alpha   90.00000000
_cell_angle_beta   90.00000000
_cell_angle_gamma   90.00000000
_symmetry_Int_Tables_number   1
_chemical_formula_structural   K2UBr5
_chemical_formula_sum   'K8 U4 Br20'
_cell_volume   1092.92082917
_cell_formula_units_Z   4
loop_
 _symmetry_equiv_pos_site_id
 _symmetry_equiv_pos_as_xyz
  1  'x, y, z'
loop_
 _atom_site_type_symbol
 _atom_site_label
 _atom_site_symmetry_multiplicity
 _atom_site_fract_x
 _atom_site_fract_y
 _atom_site_fract_z
 _atom_site_occupancy
  K  K0  1  0.44712621  0.50487262  0.32720343  1
  K  K1  1  0.94712621  0.49512738  0.17279657  1
  K  K2  1  0.55287379  0.00487262  0.67279657  1
  K  K3  1  0.05287379  0.99512738  0.82720343  1
  K  K4  1  0.55287379  0.49512738  0.67279657  1
  K  K5  1  0.05287379  0.50487262  0.82720343  1
  K  K6  1  0.44712621  0.99512738  0.32720343  1
  K  K7  1  0.94712621  0.00487262  0.17279657  1
  Br  Br8  1  0.57525048  0.75000000  0.49285397  1
  Br  Br9  1  0.33596964  0.95572044  0.07802378  1
  Br  Br10  1  0.83596964  0.04427956  0.42197622  1
  Br  Br11  1  0.66403036  0.45572044  0.92197622  1
  Br  Br12  1  0.07525048  0.25000000  0.00714603  1
  Br  Br13  1  0.66471153  0.75000000  0.20459347  1
  Br  Br14  1  0.92474952  0.75000000  0.99285397  1
  Br  Br15  1  0.42474952  0.25000000  0.50714603  1
  Br  Br16  1  0.12413730  0.75000000  0.31998546  1
  Br  Br17  1  0.16471153  0.25000000  0.29540653  1
  Br  Br18  1  0.33528847  0.25000000  0.79540653  1
  Br  Br19  1  0.83528847  0.75000000  0.70459347  1
  Br  Br20  1  0.66403036  0.04427956  0.92197622  1
  Br  Br21  1  0.62413730  0.25000000  0.18001454  1
  Br  Br22  1  0.87586270  0.25000000  0.68001454  1
  Br  Br23  1  0.37586270  0.75000000  0.81998546  1
  Br  Br24  1  0.83596964  0.45572044  0.42197622  1
  Br  Br25  1  0.33596964  0.54427956  0.07802378  1
  Br  Br26  1  0.16403036  0.95572044  0.57802378  1
  Br  Br27  1  0.16403036  0.54427956  0.57802378  1
  U  U28  1  0.92508652  0.75000000  0.49650134  1
  U  U29  1  0.57491348  0.75000000  0.99650134  1
  U  U30  1  0.07491348  0.25000000  0.50349866  1
  U  U31  1  0.42508652  0.25000000  0.00349866  1
