# generated using pymatgen
data_Mn5Sb3O16
_symmetry_space_group_name_H-M   'P 1'
_cell_length_a   6.12658244
_cell_length_b   6.04854049
_cell_length_c   9.10700568
_cell_angle_alpha   89.99252605
_cell_angle_beta   88.92937111
_cell_angle_gamma   119.57482148
_symmetry_Int_Tables_number   1
_chemical_formula_structural   Mn5Sb3O16
_chemical_formula_sum   'Mn5 Sb3 O16'
_cell_volume   293.43975472
_cell_formula_units_Z   1
loop_
 _symmetry_equiv_pos_site_id
 _symmetry_equiv_pos_as_xyz
  1  'x, y, z'
loop_
 _atom_site_type_symbol
 _atom_site_label
 _atom_site_symmetry_multiplicity
 _atom_site_fract_x
 _atom_site_fract_y
 _atom_site_fract_z
 _atom_site_occupancy
  Mn  Mn0  1  0.34351284  0.67176744  0.49476258  1
  Mn  Mn1  1  0.66040130  0.83022769  0.21191478  1
  Mn  Mn2  1  0.68310123  0.34147049  0.98495162  1
  Mn  Mn3  1  0.83213464  0.66677449  0.70877634  1
  Mn  Mn4  1  0.83211000  0.16536631  0.70878426  1
  Sb  Sb5  1  0.15953102  0.82632383  0.20974670  1
  Sb  Sb6  1  0.15957084  0.33326124  0.20975917  1
  Sb  Sb7  1  0.33651717  0.16824267  0.71054950  1
  O  O8  1  0.17335628  0.83404874  0.60532406  1
  O  O9  1  0.02810577  0.51405364  0.33987556  1
  O  O10  1  0.30937779  0.65471792  0.08663060  1
  O  O11  1  0.01491479  0.00747728  0.32447303  1
  O  O12  1  0.99444954  0.99722087  0.81311164  1
  O  O13  1  0.17337035  0.33936896  0.60535417  1
  O  O14  1  0.46698787  0.94687338  0.33743106  1
  O  O15  1  0.46699883  0.52013668  0.33744191  1
  O  O16  1  0.33727926  0.16865665  0.09834430  1
  O  O17  1  0.67891299  0.83947662  0.60782164  1
  O  O18  1  0.52951992  0.48074144  0.83965301  1
  O  O19  1  0.52948840  0.04866459  0.83957523  1
  O  O20  1  0.67264388  0.33634386  0.59937269  1
  O  O21  1  0.83569781  0.67213299  0.10349000  1
  O  O22  1  0.94630111  0.47314123  0.83511075  1
  O  O23  1  0.83571637  0.16371300  0.10346338  1
