# generated using pymatgen
data_Si(PbSe2)2
_symmetry_space_group_name_H-M   'P 1'
_cell_length_a   7.38648752
_cell_length_b   8.80241749
_cell_length_c   14.03233670
_cell_angle_alpha   108.56479800
_cell_angle_beta   90.00000000
_cell_angle_gamma   90.00000000
_symmetry_Int_Tables_number   1
_chemical_formula_structural   Si(PbSe2)2
_chemical_formula_sum   'Si4 Pb8 Se16'
_cell_volume   864.89196653
_cell_formula_units_Z   4
loop_
 _symmetry_equiv_pos_site_id
 _symmetry_equiv_pos_as_xyz
  1  'x, y, z'
loop_
 _atom_site_type_symbol
 _atom_site_label
 _atom_site_symmetry_multiplicity
 _atom_site_fract_x
 _atom_site_fract_y
 _atom_site_fract_z
 _atom_site_occupancy
  Si  Si0  1  0.25204396  0.44170693  0.64531947  1
  Si  Si1  1  0.75204396  0.05829307  0.85468053  1
  Si  Si2  1  0.74795604  0.55829307  0.35468053  1
  Si  Si3  1  0.24795604  0.94170693  0.14531947  1
  Se  Se4  1  0.23434252  0.61967553  0.55613080  1
  Se  Se5  1  0.73434252  0.88032447  0.94386920  1
  Se  Se6  1  0.76565748  0.38032447  0.44386920  1
  Se  Se7  1  0.26565748  0.11967553  0.05613080  1
  Se  Se8  1  0.47718683  0.99233992  0.26222553  1
  Se  Se9  1  0.97718683  0.50766008  0.23777447  1
  Se  Se10  1  0.52281317  0.00766008  0.73777447  1
  Se  Se11  1  0.02281317  0.49233992  0.76222553  1
  Se  Se12  1  0.48237398  0.51891245  0.26518214  1
  Se  Se13  1  0.98237398  0.98108755  0.23481786  1
  Se  Se14  1  0.51762602  0.48108755  0.73481786  1
  Se  Se15  1  0.01762602  0.01891245  0.76518214  1
  Se  Se16  1  0.27622023  0.67912324  0.04257671  1
  Se  Se17  1  0.77622023  0.82087676  0.45742329  1
  Se  Se18  1  0.72377977  0.32087676  0.95742329  1
  Se  Se19  1  0.22377977  0.17912324  0.54257671  1
  Pb  Pb20  1  0.36284243  0.30625420  0.86228373  1
  Pb  Pb21  1  0.86284243  0.19374580  0.63771627  1
  Pb  Pb22  1  0.63715757  0.69374580  0.13771627  1
  Pb  Pb23  1  0.13715757  0.80625420  0.36228373  1
  Pb  Pb24  1  0.35614593  0.81995602  0.87437609  1
  Pb  Pb25  1  0.85614593  0.68004398  0.62562391  1
  Pb  Pb26  1  0.64385407  0.18004398  0.12562391  1
  Pb  Pb27  1  0.14385407  0.31995602  0.37437609  1
