# generated using pymatgen
data_As(IF2)3
_symmetry_space_group_name_H-M   'P 1'
_cell_length_a   6.07160595
_cell_length_b   8.28710947
_cell_length_c   10.61324481
_cell_angle_alpha   90.43256198
_cell_angle_beta   78.33625576
_cell_angle_gamma   82.20008672
_symmetry_Int_Tables_number   1
_chemical_formula_structural   As(IF2)3
_chemical_formula_sum   'As2 I6 F12'
_cell_volume   517.81412174
_cell_formula_units_Z   2
loop_
 _symmetry_equiv_pos_site_id
 _symmetry_equiv_pos_as_xyz
  1  'x, y, z'
loop_
 _atom_site_type_symbol
 _atom_site_label
 _atom_site_symmetry_multiplicity
 _atom_site_fract_x
 _atom_site_fract_y
 _atom_site_fract_z
 _atom_site_occupancy
  F  F0  1  0.33663115  0.32025809  0.31796163  1
  F  F1  1  0.66336885  0.67974191  0.68203837  1
  F  F2  1  0.52749986  0.03176846  0.26558254  1
  F  F3  1  0.47250014  0.96823154  0.73441746  1
  F  F4  1  0.35644824  0.19175681  0.09872252  1
  F  F5  1  0.64355176  0.80824319  0.90127748  1
  F  F6  1  0.59015337  0.41731652  0.12399381  1
  F  F7  1  0.40984663  0.58268348  0.87600619  1
  F  F8  1  0.23945996  0.74404688  0.71135041  1
  F  F9  1  0.76054004  0.25595312  0.28864959  1
  F  F10  1  0.22027730  0.87059370  0.92806565  1
  F  F11  1  0.77972270  0.12940630  0.07193435  1
  As  As12  1  0.55317563  0.22410431  0.19410078  1
  As  As13  1  0.44682437  0.77589569  0.80589922  1
  I  I14  1  0.77681049  0.23123249  0.53635608  1
  I  I15  1  0.22318951  0.76876751  0.46364392  1
  I  I16  1  0.09913262  0.38099201  0.82706441  1
  I  I17  1  0.90086738  0.61900799  0.17293559  1
  I  I18  1  0.81420453  0.17491290  0.78252641  1
  I  I19  1  0.18579547  0.82508710  0.21747359  1
