# generated using pymatgen
data_Sn3(PO4)2
_symmetry_space_group_name_H-M   'P 1'
_cell_length_a   4.96016796
_cell_length_b   11.45524092
_cell_length_c   16.82636068
_cell_angle_alpha   94.67489395
_cell_angle_beta   90.00000000
_cell_angle_gamma   90.00000000
_symmetry_Int_Tables_number   1
_chemical_formula_structural   Sn3(PO4)2
_chemical_formula_sum   'Sn12 P8 O32'
_cell_volume   952.89178381
_cell_formula_units_Z   4
loop_
 _symmetry_equiv_pos_site_id
 _symmetry_equiv_pos_as_xyz
  1  'x, y, z'
loop_
 _atom_site_type_symbol
 _atom_site_label
 _atom_site_symmetry_multiplicity
 _atom_site_fract_x
 _atom_site_fract_y
 _atom_site_fract_z
 _atom_site_occupancy
  O  O0  1  0.38633289  0.35112669  0.04468773  1
  O  O1  1  0.88633289  0.64887331  0.45531227  1
  O  O2  1  0.61366711  0.64887331  0.95531227  1
  O  O3  1  0.11366711  0.35112669  0.54468773  1
  O  O4  1  0.74808959  0.37413187  0.93868086  1
  O  O5  1  0.24808959  0.62586813  0.56131914  1
  O  O6  1  0.25191041  0.62586813  0.06131914  1
  O  O7  1  0.75191041  0.37413187  0.43868086  1
  O  O8  1  0.82396697  0.44536851  0.08657292  1
  O  O9  1  0.32396697  0.55463149  0.41342708  1
  O  O10  1  0.17603303  0.55463149  0.91342708  1
  O  O11  1  0.67603303  0.44536851  0.58657292  1
  O  O12  1  0.80796369  0.22645720  0.03976092  1
  O  O13  1  0.30796369  0.77354280  0.46023908  1
  O  O14  1  0.19203631  0.77354280  0.96023908  1
  O  O15  1  0.69203631  0.22645720  0.53976092  1
  O  O16  1  0.09440544  0.95907787  0.35261735  1
  O  O17  1  0.59440544  0.04092213  0.14738265  1
  O  O18  1  0.90559456  0.04092213  0.64738265  1
  O  O19  1  0.40559456  0.95907787  0.85261735  1
  O  O20  1  0.84187645  0.87226526  0.80257741  1
  O  O21  1  0.34187645  0.12773474  0.69742259  1
  O  O22  1  0.15812355  0.12773474  0.19742259  1
  O  O23  1  0.65812355  0.87226526  0.30257741  1
  O  O24  1  0.82575913  0.98581548  0.94058724  1
  O  O25  1  0.32575913  0.01418452  0.55941276  1
  O  O26  1  0.17424087  0.01418452  0.05941276  1
  O  O27  1  0.67424087  0.98581548  0.44058724  1
  O  O28  1  0.79157246  0.09832520  0.82328687  1
  O  O29  1  0.29157246  0.90167480  0.67671313  1
  O  O30  1  0.20842754  0.90167480  0.17671313  1
  O  O31  1  0.70842754  0.09832520  0.32328687  1
  P  P32  1  0.69589519  0.35050700  0.02680678  1
  P  P33  1  0.19589519  0.64949300  0.47319322  1
  P  P34  1  0.30410481  0.64949300  0.97319322  1
  P  P35  1  0.80410481  0.35050700  0.52680678  1
  P  P36  1  0.78519870  0.97799863  0.35243609  1
  P  P37  1  0.28519870  0.02200137  0.14756391  1
  P  P38  1  0.21480130  0.02200137  0.64756391  1
  P  P39  1  0.71480130  0.97799863  0.85243609  1
  Sn  Sn40  1  0.87960279  0.85727064  0.03648407  1
  Sn  Sn41  1  0.37960279  0.14272936  0.46351593  1
  Sn  Sn42  1  0.12039721  0.14272936  0.96351593  1
  Sn  Sn43  1  0.62039721  0.85727064  0.53648407  1
  Sn  Sn44  1  0.72223470  0.51918709  0.36769639  1
  Sn  Sn45  1  0.22223470  0.48081291  0.13230361  1
  Sn  Sn46  1  0.27776530  0.48081291  0.63230361  1
  Sn  Sn47  1  0.77776530  0.51918709  0.86769639  1
  Sn  Sn48  1  0.75348301  0.19261195  0.21608349  1
  Sn  Sn49  1  0.25348301  0.80738805  0.28391651  1
  Sn  Sn50  1  0.24651699  0.80738805  0.78391651  1
  Sn  Sn51  1  0.74651699  0.19261195  0.71608349  1
