# generated using pymatgen
data_UTlF5
_symmetry_space_group_name_H-M   'P 1'
_cell_length_a   8.31876004
_cell_length_b   8.42867792
_cell_length_c   13.99732383
_cell_angle_alpha   90.00000000
_cell_angle_beta   90.00000000
_cell_angle_gamma   102.74793424
_symmetry_Int_Tables_number   1
_chemical_formula_structural   UTlF5
_chemical_formula_sum   'U8 Tl8 F40'
_cell_volume   957.24625775
_cell_formula_units_Z   8
loop_
 _symmetry_equiv_pos_site_id
 _symmetry_equiv_pos_as_xyz
  1  'x, y, z'
loop_
 _atom_site_type_symbol
 _atom_site_label
 _atom_site_symmetry_multiplicity
 _atom_site_fract_x
 _atom_site_fract_y
 _atom_site_fract_z
 _atom_site_occupancy
  F  F0  1  0.98278870  0.06611334  0.89899852  1
  F  F1  1  0.01721130  0.43388666  0.39899852  1
  F  F2  1  0.01721130  0.93388666  0.10100148  1
  F  F3  1  0.98278870  0.56611334  0.60100148  1
  F  F4  1  0.52601847  0.42108063  0.89685711  1
  F  F5  1  0.47398153  0.07891937  0.39685711  1
  F  F6  1  0.47398153  0.57891937  0.10314289  1
  F  F7  1  0.52601847  0.92108063  0.60314289  1
  F  F8  1  0.93425916  0.11379654  0.59670889  1
  F  F9  1  0.06574084  0.38620346  0.09670889  1
  F  F10  1  0.06574084  0.88620346  0.40329111  1
  F  F11  1  0.93425916  0.61379654  0.90329111  1
  F  F12  1  0.71547194  0.30872906  0.31179896  1
  F  F13  1  0.28452806  0.19127094  0.81179896  1
  F  F14  1  0.28452806  0.69127094  0.68820104  1
  F  F15  1  0.71547194  0.80872906  0.18820104  1
  F  F16  1  0.53069459  0.73124935  0.80191076  1
  F  F17  1  0.46930541  0.76875065  0.30191076  1
  F  F18  1  0.46930541  0.26875065  0.19808924  1
  F  F19  1  0.53069459  0.23124935  0.69808924  1
  F  F20  1  0.92099588  0.82425614  0.70906580  1
  F  F21  1  0.07900412  0.67574386  0.20906580  1
  F  F22  1  0.07900412  0.17574386  0.29093420  1
  F  F23  1  0.92099588  0.32425614  0.79093420  1
  F  F24  1  0.72990571  0.52956240  0.73873324  1
  F  F25  1  0.27009429  0.97043760  0.23873324  1
  F  F26  1  0.27009429  0.47043760  0.26126676  1
  F  F27  1  0.72990571  0.02956240  0.76126676  1
  F  F28  1  0.77389988  0.98048724  0.34716043  1
  F  F29  1  0.22610012  0.51951276  0.84716043  1
  F  F30  1  0.22610012  0.01951276  0.65283957  1
  F  F31  1  0.77389988  0.48048724  0.15283957  1
  F  F32  1  0.51884943  0.48997892  0.39786422  1
  F  F33  1  0.48115057  0.01002108  0.89786422  1
  F  F34  1  0.48115057  0.51002108  0.60213578  1
  F  F35  1  0.51884943  0.98997892  0.10213578  1
  F  F36  1  0.82370682  0.64496240  0.31727470  1
  F  F37  1  0.17629318  0.85503760  0.81727470  1
  F  F38  1  0.17629318  0.35503760  0.68272530  1
  F  F39  1  0.82370682  0.14496240  0.18272530  1
  Tl  Tl40  1  0.76996170  0.77940913  0.51982758  1
  Tl  Tl41  1  0.23003830  0.72059087  0.01982758  1
  Tl  Tl42  1  0.23003830  0.22059087  0.48017242  1
  Tl  Tl43  1  0.76996170  0.27940913  0.98017242  1
  Tl  Tl44  1  0.72476733  0.80191736  0.98575065  1
  Tl  Tl45  1  0.27523267  0.69808264  0.48575065  1
  Tl  Tl46  1  0.27523267  0.19808264  0.01424935  1
  Tl  Tl47  1  0.72476733  0.30191736  0.51424935  1
  U  U48  1  0.98459985  0.90278908  0.25556886  1
  U  U49  1  0.01540015  0.59721092  0.75556886  1
  U  U50  1  0.01540015  0.09721092  0.74443114  1
  U  U51  1  0.98459985  0.40278908  0.24443114  1
  U  U52  1  0.55321510  0.53907347  0.24646960  1
  U  U53  1  0.44678490  0.96092653  0.74646960  1
  U  U54  1  0.44678490  0.46092653  0.75353040  1
  U  U55  1  0.55321510  0.03907347  0.25353040  1
