# generated using pymatgen
data_Li4CrGa3O8
_symmetry_space_group_name_H-M   'P 1'
_cell_length_a   5.54075369
_cell_length_b   6.48760517
_cell_length_c   5.04457928
_cell_angle_alpha   89.56163102
_cell_angle_beta   89.96295068
_cell_angle_gamma   88.39091676
_symmetry_Int_Tables_number   1
_chemical_formula_structural   Li4CrGa3O8
_chemical_formula_sum   'Li4 Cr1 Ga3 O8'
_cell_volume   181.25674157
_cell_formula_units_Z   1
loop_
 _symmetry_equiv_pos_site_id
 _symmetry_equiv_pos_as_xyz
  1  'x, y, z'
loop_
 _atom_site_type_symbol
 _atom_site_label
 _atom_site_symmetry_multiplicity
 _atom_site_fract_x
 _atom_site_fract_y
 _atom_site_fract_z
 _atom_site_occupancy
  Li  Li0  1  0.08145704  0.62319874  0.99251386  1
  Li  Li1  1  0.41787166  0.12450383  0.49626741  1
  Li  Li2  1  0.58027840  0.87320560  0.99271070  1
  Li  Li3  1  0.91746969  0.37740906  0.49580372  1
  Cr  Cr4  1  0.91501917  0.87846211  0.49359939  1
  Ga  Ga5  1  0.08931520  0.13045312  0.00240293  1
  Ga  Ga6  1  0.41193903  0.62164506  0.49744660  1
  Ga  Ga7  1  0.58235444  0.37168421  -0.00012676  1
  O  O8  1  0.08402897  0.11967690  0.37534595  1
  O  O9  1  0.08761453  0.63287446  0.39060757  1
  O  O10  1  0.41098123  0.14004559  0.89246145  1
  O  O11  1  0.42770189  0.61148831  0.86947734  1
  O  O12  1  0.57125954  0.38364881  0.37103872  1
  O  O13  1  0.58105563  0.85089795  0.39049565  1
  O  O14  1  0.90597690  0.36357116  0.89320852  1
  O  O15  1  0.93567771  0.89723410  0.87314893  1
