# generated using pymatgen
data_NaBiF6
_symmetry_space_group_name_H-M   'P 1'
_cell_length_a   6.10212245
_cell_length_b   6.10212244
_cell_length_c   6.10212244
_cell_angle_alpha   53.63630007
_cell_angle_beta   53.63630009
_cell_angle_gamma   53.63630010
_symmetry_Int_Tables_number   1
_chemical_formula_structural   NaBiF6
_chemical_formula_sum   'Na1 Bi1 F6'
_cell_volume   136.75443129
_cell_formula_units_Z   1
loop_
 _symmetry_equiv_pos_site_id
 _symmetry_equiv_pos_as_xyz
  1  'x, y, z'
loop_
 _atom_site_type_symbol
 _atom_site_label
 _atom_site_symmetry_multiplicity
 _atom_site_fract_x
 _atom_site_fract_y
 _atom_site_fract_z
 _atom_site_occupancy
  F  F0  1  0.23332596  0.90825833  0.62924801  1
  F  F1  1  0.90825833  0.62924801  0.23332596  1
  F  F2  1  0.37075199  0.76667404  0.09174167  1
  F  F3  1  0.09174167  0.37075199  0.76667404  1
  F  F4  1  0.76667404  0.09174167  0.37075199  1
  F  F5  1  0.62924801  0.23332596  0.90825833  1
  Na  Na6  1  0.50000000  0.50000000  0.50000000  1
  Bi  Bi7  1  0.00000000  0.00000000  0.00000000  1
