# generated using pymatgen
data_CsSnI3
_symmetry_space_group_name_H-M   'P 1'
_cell_length_a   4.83229019
_cell_length_b   10.76502638
_cell_length_c   18.14727651
_cell_angle_alpha   90.00000000
_cell_angle_beta   90.00000000
_cell_angle_gamma   90.00000000
_symmetry_Int_Tables_number   1
_chemical_formula_structural   CsSnI3
_chemical_formula_sum   'Cs4 Sn4 I12'
_cell_volume   944.01644917
_cell_formula_units_Z   4
loop_
 _symmetry_equiv_pos_site_id
 _symmetry_equiv_pos_as_xyz
  1  'x, y, z'
loop_
 _atom_site_type_symbol
 _atom_site_label
 _atom_site_symmetry_multiplicity
 _atom_site_fract_x
 _atom_site_fract_y
 _atom_site_fract_z
 _atom_site_occupancy
  Sn  Sn0  1  0.25000000  0.34185995  0.43897765  1
  Sn  Sn1  1  0.75000000  0.65814005  0.56102235  1
  Sn  Sn2  1  0.25000000  0.84185995  0.06102235  1
  Sn  Sn3  1  0.75000000  0.15814005  0.93897765  1
  I  I4  1  0.75000000  0.02610020  0.11190711  1
  I  I5  1  0.25000000  0.97389980  0.88809289  1
  I  I6  1  0.75000000  0.52610020  0.38809289  1
  I  I7  1  0.25000000  0.47389980  0.61190711  1
  I  I8  1  0.75000000  0.29317354  0.79187389  1
  I  I9  1  0.25000000  0.70682646  0.20812611  1
  I  I10  1  0.75000000  0.79317354  0.70812611  1
  I  I11  1  0.25000000  0.20682646  0.29187389  1
  I  I12  1  0.75000000  0.16849630  0.49887401  1
  I  I13  1  0.25000000  0.83150370  0.50112599  1
  I  I14  1  0.75000000  0.66849630  0.00112599  1
  I  I15  1  0.25000000  0.33150370  0.99887401  1
  Cs  Cs16  1  0.25000000  0.08347741  0.67018238  1
  Cs  Cs17  1  0.75000000  0.91652259  0.32981762  1
  Cs  Cs18  1  0.25000000  0.58347741  0.82981762  1
  Cs  Cs19  1  0.75000000  0.41652259  0.17018238  1
