# generated using pymatgen
data_SbCl2F3
_symmetry_space_group_name_H-M   'P 1'
_cell_length_a   10.82246371
_cell_length_b   11.93147981
_cell_length_c   13.77465068
_cell_angle_alpha   93.90247540
_cell_angle_beta   90.00000000
_cell_angle_gamma   90.00000000
_symmetry_Int_Tables_number   1
_chemical_formula_structural   SbCl2F3
_chemical_formula_sum   'Sb12 Cl24 F36'
_cell_volume   1774.56900693
_cell_formula_units_Z   12
loop_
 _symmetry_equiv_pos_site_id
 _symmetry_equiv_pos_as_xyz
  1  'x, y, z'
loop_
 _atom_site_type_symbol
 _atom_site_label
 _atom_site_symmetry_multiplicity
 _atom_site_fract_x
 _atom_site_fract_y
 _atom_site_fract_z
 _atom_site_occupancy
  F  F0  1  0.70085279  0.28087340  0.55429550  1
  F  F1  1  0.20085279  0.21912660  0.94570450  1
  F  F2  1  0.29914721  0.71912660  0.44570450  1
  F  F3  1  0.79914721  0.78087340  0.05429550  1
  F  F4  1  0.66068233  0.12019226  0.40728087  1
  F  F5  1  0.16068233  0.37980774  0.09271913  1
  F  F6  1  0.33931767  0.87980774  0.59271913  1
  F  F7  1  0.83931767  0.62019226  0.90728087  1
  F  F8  1  0.52139126  0.11995147  0.56688378  1
  F  F9  1  0.02139126  0.38004853  0.93311622  1
  F  F10  1  0.47860874  0.88004853  0.43311622  1
  F  F11  1  0.97860874  0.61995147  0.06688378  1
  F  F12  1  0.91498512  0.32663213  0.11211907  1
  F  F13  1  0.41498512  0.17336787  0.38788093  1
  F  F14  1  0.08501488  0.67336787  0.88788093  1
  F  F15  1  0.58501488  0.82663213  0.61211907  1
  F  F16  1  0.60202745  0.33000395  0.37860454  1
  F  F17  1  0.62830181  0.94868524  0.05028758  1
  F  F18  1  0.39797255  0.66999605  0.62139546  1
  F  F19  1  0.89797255  0.83000395  0.87860454  1
  F  F20  1  0.92841974  0.24166555  0.47764615  1
  F  F21  1  0.42841974  0.25833445  0.02235385  1
  F  F22  1  0.07158026  0.75833445  0.52235385  1
  F  F23  1  0.57158026  0.74166555  0.97764615  1
  F  F24  1  0.87273318  0.15463413  0.64435383  1
  F  F25  1  0.37273318  0.34536587  0.85564617  1
  F  F26  1  0.12726682  0.84536587  0.35564617  1
  F  F27  1  0.62726682  0.65463413  0.14435383  1
  F  F28  1  0.55142329  0.17728645  0.85793833  1
  F  F29  1  0.05142329  0.32271355  0.64206167  1
  F  F30  1  0.44857671  0.82271355  0.14206167  1
  F  F31  1  0.94857671  0.67728645  0.35793833  1
  F  F32  1  0.87169819  0.44868524  0.55028758  1
  F  F33  1  0.37169819  0.05131476  0.94971242  1
  F  F34  1  0.12830181  0.55131476  0.44971242  1
  F  F35  1  0.10202745  0.16999605  0.12139546  1
  Cl  Cl36  1  0.93331656  0.13766402  0.94512365  1
  Cl  Cl37  1  0.43331656  0.36233598  0.55487635  1
  Cl  Cl38  1  0.06668344  0.86233598  0.05487635  1
  Cl  Cl39  1  0.56668344  0.63766402  0.44512365  1
  Cl  Cl40  1  0.79962955  0.37652540  0.75051245  1
  Cl  Cl41  1  0.29962955  0.12347460  0.74948755  1
  Cl  Cl42  1  0.20037045  0.62347460  0.24948755  1
  Cl  Cl43  1  0.70037045  0.87652540  0.25051245  1
  Cl  Cl44  1  0.95538536  0.05603733  0.28913105  1
  Cl  Cl45  1  0.45538536  0.44396267  0.21086895  1
  Cl  Cl46  1  0.04461464  0.94396267  0.71086895  1
  Cl  Cl47  1  0.54461464  0.55603733  0.78913105  1
  Cl  Cl48  1  0.66136418  0.19713512  0.16996947  1
  Cl  Cl49  1  0.16136418  0.30286488  0.33003053  1
  Cl  Cl50  1  0.33863582  0.80286488  0.83003053  1
  Cl  Cl51  1  0.83863582  0.69713512  0.66996947  1
  Cl  Cl52  1  0.67976787  0.43021750  0.01199392  1
  Cl  Cl53  1  0.17976787  0.06978250  0.48800608  1
  Cl  Cl54  1  0.71374184  0.98139333  0.76910745  1
  Cl  Cl55  1  0.82023213  0.93021750  0.51199392  1
  Cl  Cl56  1  0.78625816  0.48139333  0.26910745  1
  Cl  Cl57  1  0.28625816  0.01860667  0.23089255  1
  Cl  Cl58  1  0.21374184  0.51860667  0.73089255  1
  Cl  Cl59  1  0.32023213  0.56978250  0.98800608  1
  Sb  Sb60  1  0.54957123  0.22452344  0.47081291  1
  Sb  Sb61  1  0.04957123  0.27547656  0.02918709  1
  Sb  Sb62  1  0.45042877  0.77547656  0.52918709  1
  Sb  Sb63  1  0.95042877  0.72452344  0.97081291  1
  Sb  Sb64  1  0.88296754  0.30537927  0.60356217  1
  Sb  Sb65  1  0.38296754  0.19462073  0.89643783  1
  Sb  Sb66  1  0.11703246  0.69462073  0.39643783  1
  Sb  Sb67  1  0.61703246  0.80537927  0.10356217  1
  Sb  Sb68  1  0.65019491  0.38721391  0.16844235  1
  Sb  Sb69  1  0.15019491  0.11278609  0.33155765  1
  Sb  Sb70  1  0.34980509  0.61278609  0.83155765  1
  Sb  Sb71  1  0.84980509  0.88721391  0.66844235  1
