# generated using pymatgen
data_Ca(IO3)2
_symmetry_space_group_name_H-M   'P 1'
_cell_length_a   7.25692559
_cell_length_b   7.39813520
_cell_length_c   11.46479875
_cell_angle_alpha   90.00000000
_cell_angle_beta   90.00000000
_cell_angle_gamma   105.90930250
_symmetry_Int_Tables_number   1
_chemical_formula_structural   Ca(IO3)2
_chemical_formula_sum   'Ca4 I8 O24'
_cell_volume   591.94253504
_cell_formula_units_Z   4
loop_
 _symmetry_equiv_pos_site_id
 _symmetry_equiv_pos_as_xyz
  1  'x, y, z'
loop_
 _atom_site_type_symbol
 _atom_site_label
 _atom_site_symmetry_multiplicity
 _atom_site_fract_x
 _atom_site_fract_y
 _atom_site_fract_z
 _atom_site_occupancy
  Ca  Ca0  1  0.77735691  0.00306161  0.10028905  1
  Ca  Ca1  1  0.22264309  0.99693839  0.89971095  1
  Ca  Ca2  1  0.27735691  0.50306161  0.39971095  1
  Ca  Ca3  1  0.72264309  0.49693839  0.60028905  1
  I  I4  1  0.26348360  0.94339574  0.21400603  1
  I  I5  1  0.73651640  0.05660426  0.78599397  1
  I  I6  1  0.76348360  0.44339574  0.28599397  1
  I  I7  1  0.23651640  0.55660426  0.71400603  1
  I  I8  1  0.27449142  0.03691692  0.57531478  1
  I  I9  1  0.22550858  0.46308308  0.07531478  1
  I  I10  1  0.72550858  0.96308308  0.42468522  1
  I  I11  1  0.77449142  0.53691692  0.92468522  1
  O  O12  1  0.30144628  0.32671246  0.96090252  1
  O  O13  1  0.31865558  0.37692549  0.20645195  1
  O  O14  1  0.65305905  0.19646806  0.24655836  1
  O  O15  1  0.19855372  0.17328754  0.46090252  1
  O  O16  1  0.96618924  0.34482327  0.09316270  1
  O  O17  1  0.93638517  0.40412985  0.39159155  1
  O  O18  1  0.90448463  0.02605834  0.89847808  1
  O  O19  1  0.84694095  0.30353194  0.74655836  1
  O  O20  1  0.59551537  0.47394166  0.39847808  1
  O  O21  1  0.34694095  0.80353194  0.75344164  1
  O  O22  1  0.46618924  0.84482327  0.40683730  1
  O  O23  1  0.81865558  0.87692549  0.29354805  1
  O  O24  1  0.80144628  0.82671246  0.53909748  1
  O  O25  1  0.43638517  0.90412985  0.10840845  1
  O  O26  1  0.40448463  0.52605834  0.60152192  1
  O  O27  1  0.69855372  0.67328754  0.03909748  1
  O  O28  1  0.15305905  0.69646806  0.25344164  1
  O  O29  1  0.68134442  0.62307451  0.79354805  1
  O  O30  1  0.06361483  0.59587015  0.60840845  1
  O  O31  1  0.03381076  0.65517673  0.90683730  1
  O  O32  1  0.53381076  0.15517673  0.59316270  1
  O  O33  1  0.18134442  0.12307451  0.70645195  1
  O  O34  1  0.56361483  0.09587015  0.89159155  1
  O  O35  1  0.09551537  0.97394166  0.10152192  1
