# generated using pymatgen
data_Sn4P3
_symmetry_space_group_name_H-M   'P 1'
_cell_length_a   12.18490257
_cell_length_b   12.18490257
_cell_length_c   12.18490257
_cell_angle_alpha   18.98199856
_cell_angle_beta   18.98199858
_cell_angle_gamma   18.98199854
_symmetry_Int_Tables_number   1
_chemical_formula_structural   Sn4P3
_chemical_formula_sum   'Sn4 P3'
_cell_volume   167.27885715
_cell_formula_units_Z   1
loop_
 _symmetry_equiv_pos_site_id
 _symmetry_equiv_pos_as_xyz
  1  'x, y, z'
loop_
 _atom_site_type_symbol
 _atom_site_label
 _atom_site_symmetry_multiplicity
 _atom_site_fract_x
 _atom_site_fract_y
 _atom_site_fract_z
 _atom_site_occupancy
  P  P0  1  0.00000000  0.00000000  0.00000000  1
  P  P1  1  0.57097211  0.57097211  0.57097211  1
  P  P2  1  0.42902789  0.42902789  0.42902789  1
  Sn  Sn3  1  0.70990782  0.70990782  0.70990782  1
  Sn  Sn4  1  0.29009218  0.29009218  0.29009218  1
  Sn  Sn5  1  0.86692526  0.86692526  0.86692526  1
  Sn  Sn6  1  0.13307474  0.13307474  0.13307474  1
