# generated using pymatgen
data_Na3BiO4
_symmetry_space_group_name_H-M   'P 1'
_cell_length_a   5.75844445
_cell_length_b   5.95982921
_cell_length_c   6.80317701
_cell_angle_alpha   90.00000000
_cell_angle_beta   90.00000000
_cell_angle_gamma   109.98985578
_symmetry_Int_Tables_number   1
_chemical_formula_structural   Na3BiO4
_chemical_formula_sum   'Na6 Bi2 O8'
_cell_volume   219.41411460
_cell_formula_units_Z   2
loop_
 _symmetry_equiv_pos_site_id
 _symmetry_equiv_pos_as_xyz
  1  'x, y, z'
loop_
 _atom_site_type_symbol
 _atom_site_label
 _atom_site_symmetry_multiplicity
 _atom_site_fract_x
 _atom_site_fract_y
 _atom_site_fract_z
 _atom_site_occupancy
  O  O0  1  0.96768650  0.23687531  0.65432606  1
  O  O1  1  0.53231350  0.76312469  0.65432606  1
  O  O2  1  0.03231350  0.76312469  0.34567394  1
  O  O3  1  0.46768650  0.23687531  0.34567394  1
  O  O4  1  0.50014095  0.20866682  0.89859255  1
  O  O5  1  -0.00014095  0.79133318  0.89859255  1
  O  O6  1  1.00014095  0.20866682  0.10140745  1
  O  O7  1  0.49985905  0.79133318  0.10140745  1
  Na  Na8  1  0.75000000  0.00000000  0.38242716  1
  Na  Na9  1  0.25000000  0.50000000  0.39476654  1
  Na  Na10  1  0.75000000  0.50000000  0.12878247  1
  Na  Na11  1  0.25000000  0.50000000  0.87121753  1
  Na  Na12  1  0.25000000  0.00000000  0.61757284  1
  Na  Na13  1  0.75000000  0.50000000  0.60523346  1
  Bi  Bi14  1  0.75000000  0.00000000  0.86406774  1
  Bi  Bi15  1  0.25000000  0.00000000  0.13593226  1
