# generated using pymatgen
data_Ge5F12
_symmetry_space_group_name_H-M   'P 1'
_cell_length_a   7.83379503
_cell_length_b   8.25002592
_cell_length_c   8.68002904
_cell_angle_alpha   93.05249668
_cell_angle_beta   90.00000000
_cell_angle_gamma   90.00000000
_symmetry_Int_Tables_number   1
_chemical_formula_structural   Ge5F12
_chemical_formula_sum   'Ge10 F24'
_cell_volume   560.18576047
_cell_formula_units_Z   2
loop_
 _symmetry_equiv_pos_site_id
 _symmetry_equiv_pos_as_xyz
  1  'x, y, z'
loop_
 _atom_site_type_symbol
 _atom_site_label
 _atom_site_symmetry_multiplicity
 _atom_site_fract_x
 _atom_site_fract_y
 _atom_site_fract_z
 _atom_site_occupancy
  F  F0  1  0.06166764  0.60849981  0.17495697  1
  F  F1  1  0.56166764  0.89150019  0.82504303  1
  F  F2  1  0.93833236  0.39150019  0.82504303  1
  F  F3  1  0.43833236  0.10849981  0.17495697  1
  F  F4  1  0.84690547  0.84262607  0.45939409  1
  F  F5  1  0.34690547  0.65737393  0.54060591  1
  F  F6  1  0.15309453  0.15737393  0.54060591  1
  F  F7  1  0.65309453  0.34262607  0.45939409  1
  F  F8  1  0.14779316  0.90052543  0.35824695  1
  F  F9  1  0.64779316  0.59947457  0.64175305  1
  F  F10  1  0.80061953  0.33089891  0.12291331  1
  F  F11  1  0.30061953  0.16910109  0.87708669  1
  F  F12  1  0.19938047  0.66910109  0.87708669  1
  F  F13  1  0.69938047  0.83089891  0.12291331  1
  F  F14  1  0.13012634  0.26276418  0.15182487  1
  F  F15  1  0.63012634  0.23723582  0.84817513  1
  F  F16  1  0.86987366  0.73723582  0.84817513  1
  F  F17  1  0.36987366  0.76276418  0.15182487  1
  F  F18  1  0.90388535  0.11748613  0.34199149  1
  F  F19  1  0.40388535  0.38251387  0.65800851  1
  F  F20  1  0.09611465  0.88251387  0.65800851  1
  F  F21  1  0.59611465  0.61748613  0.34199149  1
  F  F22  1  0.35220684  0.40052543  0.35824695  1
  F  F23  1  0.85220684  0.09947457  0.64175305  1
  Ge  Ge24  1  0.55374470  0.86747928  0.29240668  1
  Ge  Ge25  1  0.05374470  0.63252072  0.70759332  1
  Ge  Ge26  1  0.44625530  0.13252072  0.70759332  1
  Ge  Ge27  1  0.94625530  0.36747928  0.29240668  1
  Ge  Ge28  1  0.00000000  0.00000000  0.50000000  1
  Ge  Ge29  1  0.50000000  0.50000000  0.50000000  1
  Ge  Ge30  1  0.12526555  0.80911775  0.11041489  1
  Ge  Ge31  1  0.62526555  0.69088225  0.88958511  1
  Ge  Ge32  1  0.87473445  0.19088225  0.88958511  1
  Ge  Ge33  1  0.37473445  0.30911775  0.11041489  1
