# generated using pymatgen
data_Se2O5
_symmetry_space_group_name_H-M   'P 1'
_cell_length_a   4.85660233
_cell_length_b   7.11005797
_cell_length_c   14.01935114
_cell_angle_alpha   90.00000000
_cell_angle_beta   91.12573061
_cell_angle_gamma   90.00000000
_symmetry_Int_Tables_number   1
_chemical_formula_structural   Se2O5
_chemical_formula_sum   'Se8 O20'
_cell_volume   484.00491054
_cell_formula_units_Z   4
loop_
 _symmetry_equiv_pos_site_id
 _symmetry_equiv_pos_as_xyz
  1  'x, y, z'
loop_
 _atom_site_type_symbol
 _atom_site_label
 _atom_site_symmetry_multiplicity
 _atom_site_fract_x
 _atom_site_fract_y
 _atom_site_fract_z
 _atom_site_occupancy
  O  O0  1  0.70055552  0.25094262  0.63861003  1
  O  O1  1  0.29944448  0.75094262  0.86138997  1
  O  O2  1  0.29944448  0.74905738  0.36138997  1
  O  O3  1  0.70055552  0.24905738  0.13861003  1
  O  O4  1  0.27019790  0.28201366  0.77175966  1
  O  O5  1  0.72980210  0.78201366  0.72824034  1
  O  O6  1  0.72980210  0.71798634  0.22824034  1
  O  O7  1  0.27019790  0.21798634  0.27175966  1
  O  O8  1  0.30106713  0.17043065  0.46148732  1
  O  O9  1  0.69893287  0.67043065  0.03851268  1
  O  O10  1  0.69893287  0.82956935  0.53851268  1
  O  O11  1  0.30106713  0.32956935  0.96148732  1
  O  O12  1  0.69954092  0.39795488  0.37413086  1
  O  O13  1  0.30045908  0.89795488  0.12586914  1
  O  O14  1  0.30045908  0.60204512  0.62586914  1
  O  O15  1  0.69954092  0.10204512  0.87413086  1
  O  O16  1  0.71951343  0.02425267  0.34705207  1
  O  O17  1  0.28048657  0.52425267  0.15294793  1
  O  O18  1  0.28048657  0.97574733  0.65294793  1
  O  O19  1  0.71951343  0.47574733  0.84705207  1
  Se  Se20  1  0.36839213  0.24084852  0.64042020  1
  Se  Se21  1  0.63160787  0.74084852  0.85957980  1
  Se  Se22  1  0.63160787  0.75915148  0.35957980  1
  Se  Se23  1  0.36839213  0.25915148  0.14042020  1
  Se  Se24  1  0.49855435  0.28640709  0.87079640  1
  Se  Se25  1  0.50144565  0.78640709  0.62920360  1
  Se  Se26  1  0.50144565  0.71359291  0.12920360  1
  Se  Se27  1  0.49855435  0.21359291  0.37079640  1
