# generated using pymatgen
data_Li3FeBO5
_symmetry_space_group_name_H-M   'P 1'
_cell_length_a   4.81128084
_cell_length_b   4.78895096
_cell_length_c   16.33509301
_cell_angle_alpha   90.00000000
_cell_angle_beta   90.00000000
_cell_angle_gamma   90.00000000
_symmetry_Int_Tables_number   1
_chemical_formula_structural   Li3FeBO5
_chemical_formula_sum   'Li12 Fe4 B4 O20'
_cell_volume   376.37668198
_cell_formula_units_Z   4
loop_
 _symmetry_equiv_pos_site_id
 _symmetry_equiv_pos_as_xyz
  1  'x, y, z'
loop_
 _atom_site_type_symbol
 _atom_site_label
 _atom_site_symmetry_multiplicity
 _atom_site_fract_x
 _atom_site_fract_y
 _atom_site_fract_z
 _atom_site_occupancy
  Li  Li0  1  0.00807203  0.68622964  0.61155154  1
  Li  Li1  1  0.00807203  0.18622964  0.88844846  1
  Li  Li2  1  0.50335608  0.31627007  0.00790154  1
  Li  Li3  1  0.50335608  0.81627007  0.49209846  1
  Li  Li4  1  0.49523915  0.33010565  0.79312755  1
  Li  Li5  1  0.49523915  0.83010565  0.70687245  1
  Li  Li6  1  0.50807203  0.31377036  0.38844846  1
  Li  Li7  1  0.50807203  0.81377036  0.11155154  1
  Li  Li8  1  0.00335608  0.68372993  0.99209846  1
  Li  Li9  1  0.00335608  0.18372993  0.50790154  1
  Li  Li10  1  0.99523915  0.16989435  0.29312755  1
  Li  Li11  1  0.99523915  0.66989435  0.20687245  1
  Fe  Fe12  1  0.01015664  0.18143263  0.10463694  1
  Fe  Fe13  1  0.01015664  0.68143263  0.39536306  1
  Fe  Fe14  1  0.51015664  0.31856737  0.60463694  1
  Fe  Fe15  1  0.51015664  0.81856737  0.89536306  1
  B  B16  1  0.99600540  0.18038666  0.70738074  1
  B  B17  1  0.99600540  0.68038666  0.79261926  1
  B  B18  1  0.49600540  0.31961334  0.20738074  1
  B  B19  1  0.49600540  0.81961334  0.29261926  1
  O  O20  1  0.08912894  0.38004989  0.77458690  1
  O  O21  1  0.08912894  0.88004989  0.72541310  1
  O  O22  1  0.09443759  0.32484788  0.39774299  1
  O  O23  1  0.09443759  0.82484788  0.10225701  1
  O  O24  1  0.08823939  0.28324843  0.00343887  1
  O  O25  1  0.08823939  0.78324843  0.49656113  1
  O  O26  1  0.18883175  0.31738516  0.19947943  1
  O  O27  1  0.18883175  0.81738516  0.30052057  1
  O  O28  1  0.12153402  0.26243650  0.62745372  1
  O  O29  1  0.12153402  0.76243650  0.87254628  1
  O  O30  1  0.58912894  0.61995011  0.22541310  1
  O  O31  1  0.58912894  0.11995011  0.27458790  1
  O  O32  1  0.59443759  0.17515212  0.89774299  1
  O  O33  1  0.59443759  0.67515212  0.60225701  1
  O  O34  1  0.58823939  0.21675157  0.50343887  1
  O  O35  1  0.58823939  0.71675157  0.99656113  1
  O  O36  1  0.68883175  0.18261484  0.69947943  1
  O  O37  1  0.68883175  0.68261484  0.80052057  1
  O  O38  1  0.62153402  0.23756350  0.12745372  1
  O  O39  1  0.62153402  0.73756350  0.37254628  1
