# generated using pymatgen
data_KSb2F7
_symmetry_space_group_name_H-M   'P 1'
_cell_length_a   7.64477019
_cell_length_b   8.72505737
_cell_length_c   10.99778180
_cell_angle_alpha   101.24195796
_cell_angle_beta   90.00000000
_cell_angle_gamma   90.00000000
_symmetry_Int_Tables_number   1
_chemical_formula_structural   KSb2F7
_chemical_formula_sum   'K4 Sb8 F28'
_cell_volume   719.48854632
_cell_formula_units_Z   4
loop_
 _symmetry_equiv_pos_site_id
 _symmetry_equiv_pos_as_xyz
  1  'x, y, z'
loop_
 _atom_site_type_symbol
 _atom_site_label
 _atom_site_symmetry_multiplicity
 _atom_site_fract_x
 _atom_site_fract_y
 _atom_site_fract_z
 _atom_site_occupancy
  F  F0  1  0.56620009  0.94476701  0.12720690  1
  F  F1  1  0.06620009  0.55523299  0.87279310  1
  F  F2  1  0.43379991  0.05523299  0.87279310  1
  F  F3  1  0.93379991  0.44476701  0.12720690  1
  F  F4  1  0.88873783  0.06908178  0.12643014  1
  F  F5  1  0.38873783  0.43091822  0.87356986  1
  F  F6  1  0.11126217  0.93091822  0.87356986  1
  F  F7  1  0.61126217  0.56908178  0.12643014  1
  F  F8  1  0.79718862  0.86878398  0.28738859  1
  F  F9  1  0.29718862  0.63121602  0.71261141  1
  F  F10  1  0.20281138  0.13121602  0.71261141  1
  F  F11  1  0.70281138  0.36878398  0.28738859  1
  F  F12  1  0.11763530  0.31130380  0.30772424  1
  F  F13  1  0.61763530  0.18869620  0.69227576  1
  F  F14  1  0.88236470  0.68869620  0.69227576  1
  F  F15  1  0.38236470  0.81130380  0.30772424  1
  F  F16  1  0.41294348  0.31735803  0.14944113  1
  F  F17  1  0.91294348  0.18264197  0.85055887  1
  F  F18  1  0.58705652  0.68264197  0.85055887  1
  F  F19  1  0.08705652  0.81735803  0.14944113  1
  F  F20  1  0.34218162  0.53576805  0.40781863  1
  F  F21  1  0.84218162  0.96423195  0.59218137  1
  F  F22  1  0.65781838  0.46423195  0.59218137  1
  F  F23  1  0.15781838  0.03576805  0.40781863  1
  F  F24  1  0.01050596  0.61952552  0.37987248  1
  F  F25  1  0.51050596  0.88047448  0.62012752  1
  F  F26  1  0.98949404  0.38047448  0.62012752  1
  F  F27  1  0.48949404  0.11952552  0.37987248  1
  K  K28  1  0.66410684  0.67313142  0.42934088  1
  K  K29  1  0.16410684  0.82686858  0.57065912  1
  K  K30  1  0.33589316  0.32686858  0.57065912  1
  K  K31  1  0.83589316  0.17313142  0.42934088  1
  Sb  Sb32  1  0.31626042  0.00921702  0.25875638  1
  Sb  Sb33  1  0.81626042  0.49078298  0.74124362  1
  Sb  Sb34  1  0.68373958  0.99078298  0.74124362  1
  Sb  Sb35  1  0.18373958  0.50921702  0.25875638  1
  Sb  Sb36  1  0.67826926  0.34637654  0.10776038  1
  Sb  Sb37  1  0.17826926  0.15362346  0.89223962  1
  Sb  Sb38  1  0.32173074  0.65362346  0.89223962  1
  Sb  Sb39  1  0.82173074  0.84637654  0.10776038  1
