# generated using pymatgen
data_Gd3(MnC3)2
_symmetry_space_group_name_H-M   'P 1'
_cell_length_a   8.08703116
_cell_length_b   8.08703116
_cell_length_c   5.07225973
_cell_angle_alpha   90.00000000
_cell_angle_beta   90.00000000
_cell_angle_gamma   120.00000000
_symmetry_Int_Tables_number   1
_chemical_formula_structural   Gd3(MnC3)2
_chemical_formula_sum   'Gd6 Mn4 C12'
_cell_volume   287.28327862
_cell_formula_units_Z   2
loop_
 _symmetry_equiv_pos_site_id
 _symmetry_equiv_pos_as_xyz
  1  'x, y, z'
loop_
 _atom_site_type_symbol
 _atom_site_label
 _atom_site_symmetry_multiplicity
 _atom_site_fract_x
 _atom_site_fract_y
 _atom_site_fract_z
 _atom_site_occupancy
  C  C0  1  0.95955214  0.77549733  0.75000000  1
  C  C1  1  0.18405482  0.95955214  0.25000000  1
  C  C2  1  0.77549733  0.81594518  0.25000000  1
  C  C3  1  0.22450267  0.18405482  0.75000000  1
  C  C4  1  0.81594518  0.04044786  0.75000000  1
  C  C5  1  0.04044786  0.22450267  0.25000000  1
  C  C6  1  0.86292163  0.57975044  0.75000000  1
  C  C7  1  0.28317120  0.86292163  0.25000000  1
  C  C8  1  0.57975044  0.71682880  0.25000000  1
  C  C9  1  0.42024956  0.28317120  0.75000000  1
  C  C10  1  0.13707837  0.42024956  0.25000000  1
  C  C11  1  0.71682880  0.13707837  0.75000000  1
  Mn  Mn12  1  0.00000000  0.00000000  0.50000000  1
  Mn  Mn13  1  0.00000000  0.00000000  0.00000000  1
  Mn  Mn14  1  0.66666667  0.33333333  0.75000000  1
  Mn  Mn15  1  0.33333333  0.66666667  0.25000000  1
  Gd  Gd16  1  0.62037325  0.68854279  0.75000000  1
  Gd  Gd17  1  0.93183046  0.62037325  0.25000000  1
  Gd  Gd18  1  0.68854279  0.06816954  0.25000000  1
  Gd  Gd19  1  0.31145721  0.93183046  0.75000000  1
  Gd  Gd20  1  0.06816954  0.37962675  0.75000000  1
  Gd  Gd21  1  0.37962675  0.31145721  0.25000000  1
