# generated using pymatgen
data_Tb3(MnC3)2
_symmetry_space_group_name_H-M   'P 1'
_cell_length_a   8.12064196
_cell_length_b   8.12064196
_cell_length_c   4.99825332
_cell_angle_alpha   90.00000000
_cell_angle_beta   90.00000000
_cell_angle_gamma   119.99999998
_symmetry_Int_Tables_number   1
_chemical_formula_structural   Tb3(MnC3)2
_chemical_formula_sum   'Tb6 Mn4 C12'
_cell_volume   285.44971953
_cell_formula_units_Z   2
loop_
 _symmetry_equiv_pos_site_id
 _symmetry_equiv_pos_as_xyz
  1  'x, y, z'
loop_
 _atom_site_type_symbol
 _atom_site_label
 _atom_site_symmetry_multiplicity
 _atom_site_fract_x
 _atom_site_fract_y
 _atom_site_fract_z
 _atom_site_occupancy
  C  C0  1  0.96403716  0.77295660  0.75000000  1
  C  C1  1  0.19108056  0.96403716  0.25000000  1
  C  C2  1  0.77295660  0.80891944  0.25000000  1
  C  C3  1  0.22704340  0.19108056  0.75000000  1
  C  C4  1  0.80891944  0.03596284  0.75000000  1
  C  C5  1  0.03596284  0.22704340  0.25000000  1
  C  C6  1  0.86430018  0.57871522  0.75000000  1
  C  C7  1  0.28558496  0.86430018  0.25000000  1
  C  C8  1  0.57871522  0.71441504  0.25000000  1
  C  C9  1  0.42128478  0.28558496  0.75000000  1
  C  C10  1  0.13569982  0.42128478  0.25000000  1
  C  C11  1  0.71441504  0.13569982  0.75000000  1
  Mn  Mn12  1  0.00000000  0.00000000  0.50000000  1
  Mn  Mn13  1  0.00000000  0.00000000  0.00000000  1
  Mn  Mn14  1  0.66666667  0.33333333  0.75000000  1
  Mn  Mn15  1  0.33333333  0.66666667  0.25000000  1
  Tb  Tb16  1  0.62050576  0.68497868  0.75000000  1
  Tb  Tb17  1  0.93552708  0.62050576  0.25000000  1
  Tb  Tb18  1  0.68497868  0.06447292  0.25000000  1
  Tb  Tb19  1  0.31502132  0.93552708  0.75000000  1
  Tb  Tb20  1  0.06447292  0.37949424  0.75000000  1
  Tb  Tb21  1  0.37949424  0.31502132  0.25000000  1
