# generated using pymatgen
data_VPCl9
_symmetry_space_group_name_H-M   'P 1'
_cell_length_a   6.43891707
_cell_length_b   10.48731548
_cell_length_c   10.48731548
_cell_angle_alpha   107.88867532
_cell_angle_beta   90.00000000
_cell_angle_gamma   90.00000000
_symmetry_Int_Tables_number   1
_chemical_formula_structural   VPCl9
_chemical_formula_sum   'V2 P2 Cl18'
_cell_volume   673.93978149
_cell_formula_units_Z   2
loop_
 _symmetry_equiv_pos_site_id
 _symmetry_equiv_pos_as_xyz
  1  'x, y, z'
loop_
 _atom_site_type_symbol
 _atom_site_label
 _atom_site_symmetry_multiplicity
 _atom_site_fract_x
 _atom_site_fract_y
 _atom_site_fract_z
 _atom_site_occupancy
  P  P0  1  0.00000000  0.03099995  0.96900005  1
  P  P1  1  0.00000000  0.53099995  0.46900005  1
  Cl  Cl2  1  0.17735391  0.37276873  0.44350674  1
  Cl  Cl3  1  0.82264609  0.55649326  0.62723127  1
  Cl  Cl4  1  0.23226353  0.68928068  0.12690524  1
  Cl  Cl5  1  0.76773647  0.87309476  0.31071932  1
  Cl  Cl6  1  0.76773647  0.18928068  0.62690524  1
  Cl  Cl7  1  0.23226353  0.37309476  0.81071932  1
  Cl  Cl8  1  0.73019072  0.53136848  0.96863152  1
  Cl  Cl9  1  0.26980928  0.03136848  0.46863152  1
  Cl  Cl10  1  0.60847899  0.16851072  0.33148928  1
  Cl  Cl11  1  0.39152101  0.66851072  0.83148928  1
  Cl  Cl12  1  0.60782042  0.89397536  0.60602464  1
  Cl  Cl13  1  0.39217958  0.39397536  0.10602464  1
  Cl  Cl14  1  0.17808586  0.68887753  0.49411973  1
  Cl  Cl15  1  0.82191414  0.50588027  0.31112247  1
  Cl  Cl16  1  0.82191414  0.18887753  0.99411973  1
  Cl  Cl17  1  0.17808586  0.00588027  0.81112247  1
  Cl  Cl18  1  0.17735391  0.05649326  0.12723127  1
  Cl  Cl19  1  0.82264609  0.87276873  0.94350674  1
  V  V20  1  0.38664068  0.53125027  0.96874973  1
  V  V21  1  0.61335932  0.03125027  0.46874973  1
