# generated using pymatgen
data_KScF4
_symmetry_space_group_name_H-M   'P 1'
_cell_length_a   4.12117868
_cell_length_b   8.22522791
_cell_length_c   13.51127137
_cell_angle_alpha   107.16700658
_cell_angle_beta   90.00000000
_cell_angle_gamma   104.50832297
_symmetry_Int_Tables_number   1
_chemical_formula_structural   KScF4
_chemical_formula_sum   'K4 Sc4 F16'
_cell_volume   422.28536397
_cell_formula_units_Z   4
loop_
 _symmetry_equiv_pos_site_id
 _symmetry_equiv_pos_as_xyz
  1  'x, y, z'
loop_
 _atom_site_type_symbol
 _atom_site_label
 _atom_site_symmetry_multiplicity
 _atom_site_fract_x
 _atom_site_fract_y
 _atom_site_fract_z
 _atom_site_occupancy
  F  F0  1  0.00000000  0.00000000  0.50000000  1
  F  F1  1  0.00000000  0.00000000  0.00000000  1
  F  F2  1  0.04520343  0.09040686  0.71710649  1
  F  F3  1  0.95479657  0.90959314  0.28289351  1
  F  F4  1  0.52836554  0.05673109  0.85774386  1
  F  F5  1  0.47163446  0.94326891  0.14225614  1
  F  F6  1  0.23077955  0.46155910  0.72992967  1
  F  F7  1  0.76922045  0.53844090  0.27007033  1
  F  F8  1  0.10199842  0.20399685  0.21547918  1
  F  F9  1  0.89800158  0.79600315  0.78452082  1
  F  F10  1  0.38438076  0.76876153  0.38327836  1
  F  F11  1  0.61561924  0.23123847  0.61672164  1
  F  F12  1  0.82355834  0.64711669  0.49627291  1
  F  F13  1  0.17644166  0.35288331  0.50372709  1
  F  F14  1  0.84151435  0.68302870  0.07000645  1
  F  F15  1  0.15848565  0.31697130  0.92999355  1
  K  K16  1  0.75677036  0.51354072  0.86465697  1
  K  K17  1  0.24322964  0.48645928  0.13534303  1
  K  K18  1  0.35973404  0.71946808  0.63598034  1
  K  K19  1  0.64026596  0.28053192  0.36401966  1
  Sc  Sc20  1  0.11897471  0.23794942  0.61367507  1
  Sc  Sc21  1  0.88102529  0.76205058  0.38632493  1
  Sc  Sc22  1  0.02701564  0.05403129  0.86113601  1
  Sc  Sc23  1  0.97298436  0.94596871  0.13886399  1
