# generated using pymatgen
data_Y6RuI10
_symmetry_space_group_name_H-M   'P 1'
_cell_length_a   7.76045851
_cell_length_b   9.73435652
_cell_length_c   9.76451833
_cell_angle_alpha   107.02499758
_cell_angle_beta   96.84976011
_cell_angle_gamma   104.60744624
_symmetry_Int_Tables_number   1
_chemical_formula_structural   Y6RuI10
_chemical_formula_sum   'Y6 Ru1 I10'
_cell_volume   667.48813119
_cell_formula_units_Z   1
loop_
 _symmetry_equiv_pos_site_id
 _symmetry_equiv_pos_as_xyz
  1  'x, y, z'
loop_
 _atom_site_type_symbol
 _atom_site_label
 _atom_site_symmetry_multiplicity
 _atom_site_fract_x
 _atom_site_fract_y
 _atom_site_fract_z
 _atom_site_occupancy
  Y  Y0  1  0.11346761  0.04188179  0.76215925  1
  Y  Y1  1  0.88653239  0.95811821  0.23784075  1
  Y  Y2  1  0.96958977  0.27953929  0.08207658  1
  Y  Y3  1  0.64791389  0.87397928  0.83166233  1
  Y  Y4  1  0.35208611  0.12602072  0.16833767  1
  Y  Y5  1  0.03041023  0.72046071  0.91792342  1
  Ru  Ru6  1  0.00000000  0.00000000  0.00000000  1
  I  I7  1  0.35041442  0.45045624  0.27215617  1
  I  I8  1  0.64958558  0.54954376  0.72784383  1
  I  I9  1  0.74290166  0.91264388  0.53857482  1
  I  I10  1  0.08631437  0.37086561  0.82016724  1
  I  I11  1  0.91368563  0.62913439  0.17983276  1
  I  I12  1  0.45487989  0.81670102  0.09237071  1
  I  I13  1  0.54512011  0.18329898  0.90762929  1
  I  I14  1  0.78314129  0.25780317  0.34562909  1
  I  I15  1  0.21685871  0.74219683  0.65437091  1
  I  I16  1  0.25709834  0.08735612  0.46142518  1
