# generated using pymatgen
data_Na4Ga2S5
_symmetry_space_group_name_H-M   'P 1'
_cell_length_a   6.17845747
_cell_length_b   8.04831287
_cell_length_c   20.11294083
_cell_angle_alpha   91.36882956
_cell_angle_beta   90.00000000
_cell_angle_gamma   90.00000000
_symmetry_Int_Tables_number   1
_chemical_formula_structural   Na4Ga2S5
_chemical_formula_sum   'Na16 Ga8 S20'
_cell_volume   999.85388268
_cell_formula_units_Z   4
loop_
 _symmetry_equiv_pos_site_id
 _symmetry_equiv_pos_as_xyz
  1  'x, y, z'
loop_
 _atom_site_type_symbol
 _atom_site_label
 _atom_site_symmetry_multiplicity
 _atom_site_fract_x
 _atom_site_fract_y
 _atom_site_fract_z
 _atom_site_occupancy
  Na  Na0  1  0.74377514  0.92384428  0.95698459  1
  Na  Na1  1  0.24377514  0.07615572  0.54301541  1
  Na  Na2  1  0.25622486  0.07615572  0.04301541  1
  Na  Na3  1  0.75622486  0.92384428  0.45698459  1
  Na  Na4  1  0.45855567  0.59801243  0.89737137  1
  Na  Na5  1  0.95855567  0.40198757  0.60262863  1
  Na  Na6  1  0.54144433  0.40198757  0.10262863  1
  Na  Na7  1  0.04144433  0.59801243  0.39737137  1
  Na  Na8  1  0.47507415  0.65343526  0.71663494  1
  Na  Na9  1  0.97507415  0.34656474  0.78336506  1
  Na  Na10  1  0.52492585  0.34656474  0.28336506  1
  Na  Na11  1  0.02492585  0.65343526  0.21663494  1
  Na  Na12  1  0.50033732  0.11162601  0.70027337  1
  Na  Na13  1  0.00033732  0.88837399  0.79972663  1
  Na  Na14  1  0.49966268  0.88837399  0.29972663  1
  Na  Na15  1  0.99966268  0.11162601  0.20027337  1
  S  S16  1  0.52372937  0.61115202  0.42614190  1
  S  S17  1  0.97627063  0.61115202  0.92614190  1
  S  S18  1  0.47627063  0.38884798  0.57385810  1
  S  S19  1  0.01566698  0.36805207  0.29268153  1
  S  S20  1  0.51566698  0.63194793  0.20731847  1
  S  S21  1  0.98433302  0.63194793  0.70731847  1
  S  S22  1  0.02372937  0.38884798  0.07385810  1
  S  S23  1  0.48433302  0.36805207  0.79268153  1
  S  S24  1  0.57061095  0.86472229  0.59762225  1
  S  S25  1  0.07061095  0.13527771  0.90237775  1
  S  S26  1  0.42938905  0.13527771  0.40237775  1
  S  S27  1  0.92938905  0.86472229  0.09762225  1
  S  S28  1  0.56368180  0.25801457  0.97009275  1
  S  S29  1  0.06368180  0.74198543  0.52990725  1
  S  S30  1  0.43631820  0.74198543  0.02990725  1
  S  S31  1  0.93631820  0.25801457  0.47009275  1
  S  S32  1  0.52271907  0.90899025  0.82764991  1
  S  S33  1  0.02271907  0.09100975  0.67235009  1
  S  S34  1  0.47728093  0.09100975  0.17235009  1
  S  S35  1  0.97728093  0.90899025  0.32764991  1
  Ga  Ga36  1  0.08659083  0.65395456  0.03655156  1
  Ga  Ga37  1  0.91340917  0.34604544  0.96344844  1
  Ga  Ga38  1  0.41340917  0.65395456  0.53655156  1
  Ga  Ga39  1  0.06737375  0.16655391  0.36572509  1
  Ga  Ga40  1  0.56737375  0.83344609  0.13427491  1
  Ga  Ga41  1  0.93262625  0.83344609  0.63427491  1
  Ga  Ga42  1  0.43262625  0.16655391  0.86572509  1
  Ga  Ga43  1  0.58659083  0.34604544  0.46344844  1
