# generated using pymatgen
data_K2HgS2
_symmetry_space_group_name_H-M   'P 1'
_cell_length_a   7.43125373
_cell_length_b   8.12258220
_cell_length_c   10.83919893
_cell_angle_alpha   90.00000000
_cell_angle_beta   90.00000000
_cell_angle_gamma   90.00000000
_symmetry_Int_Tables_number   1
_chemical_formula_structural   K2HgS2
_chemical_formula_sum   'K8 Hg4 S8'
_cell_volume   654.26455354
_cell_formula_units_Z   4
loop_
 _symmetry_equiv_pos_site_id
 _symmetry_equiv_pos_as_xyz
  1  'x, y, z'
loop_
 _atom_site_type_symbol
 _atom_site_label
 _atom_site_symmetry_multiplicity
 _atom_site_fract_x
 _atom_site_fract_y
 _atom_site_fract_z
 _atom_site_occupancy
  S  S0  1  0.75000000  0.07688486  0.83543236  1
  S  S1  1  0.25000000  0.41466770  0.39279963  1
  S  S2  1  0.75000000  0.58533230  0.60720037  1
  S  S3  1  0.25000000  0.42311514  0.83543236  1
  S  S4  1  0.25000000  0.91466770  0.60720037  1
  S  S5  1  0.75000000  0.57688486  0.16456764  1
  S  S6  1  0.25000000  0.92311514  0.16456764  1
  S  S7  1  0.75000000  0.08533230  0.39279963  1
  K  K8  1  0.75000000  0.95082817  0.11200257  1
  K  K9  1  0.25000000  0.54917183  0.11200257  1
  K  K10  1  0.50000000  0.25000000  0.60375519  1
  K  K11  1  0.00000000  0.25000000  0.60375519  1
  K  K12  1  0.50000000  0.75000000  0.39624481  1
  K  K13  1  0.00000000  0.75000000  0.39624481  1
  K  K14  1  0.25000000  0.04917183  0.88799743  1
  K  K15  1  0.75000000  0.45082817  0.88799743  1
  Hg  Hg16  1  0.75000000  0.83625817  0.71518464  1
  Hg  Hg17  1  0.75000000  0.33625817  0.28481536  1
  Hg  Hg18  1  0.25000000  0.66374183  0.71518464  1
  Hg  Hg19  1  0.25000000  0.16374183  0.28481536  1
