# generated using pymatgen
data_CsC8
_symmetry_space_group_name_H-M   'P 1'
_cell_length_a   4.97653788
_cell_length_b   4.97653788
_cell_length_c   18.38198853
_cell_angle_alpha   90.00000000
_cell_angle_beta   90.00000000
_cell_angle_gamma   119.99999998
_symmetry_Int_Tables_number   1
_chemical_formula_structural   CsC8
_chemical_formula_sum   'Cs3 C24'
_cell_volume   394.25549135
_cell_formula_units_Z   3
loop_
 _symmetry_equiv_pos_site_id
 _symmetry_equiv_pos_as_xyz
  1  'x, y, z'
loop_
 _atom_site_type_symbol
 _atom_site_label
 _atom_site_symmetry_multiplicity
 _atom_site_fract_x
 _atom_site_fract_y
 _atom_site_fract_z
 _atom_site_occupancy
  C  C0  1  0.16653199  0.33311170  0.33333265  1
  C  C1  1  0.83342029  0.16653199  0.66666598  1
  C  C2  1  0.33311170  0.16657971  0.99999931  1
  C  C3  1  0.66688830  0.83342029  0.99999931  1
  C  C4  1  0.16657971  0.83346801  0.66666598  1
  C  C5  1  0.83342029  0.66688830  0.66666735  1
  C  C6  1  0.83346801  0.16657971  0.00000069  1
  C  C7  1  0.83346801  0.66688830  0.33333265  1
  C  C8  1  0.33311170  0.16653199  0.33333402  1
  C  C9  1  0.66688830  0.83346801  0.33333402  1
  C  C10  1  0.16657971  0.33311170  0.66666735  1
  C  C11  1  0.16653199  0.83342029  0.00000069  1
  C  C12  1  0.16652154  0.33304308  0.00000000  1
  C  C13  1  0.83347846  0.16652154  0.33333333  1
  C  C14  1  0.33304308  0.16652154  0.66666667  1
  C  C15  1  0.66695692  0.83347846  0.66666667  1
  C  C16  1  0.16652154  0.83347846  0.33333333  1
  C  C17  1  0.83347846  0.66695692  0.00000000  1
  C  C18  1  0.33336073  0.66672146  0.00000000  1
  C  C19  1  0.66663927  0.33336073  0.33333333  1
  C  C20  1  0.66672146  0.33336073  0.66666667  1
  C  C21  1  0.33327854  0.66663927  0.66666667  1
  C  C22  1  0.33336073  0.66663927  0.33333333  1
  C  C23  1  0.66663927  0.33327854  0.00000000  1
  Cs  Cs24  1  0.00000000  0.00000000  0.50000000  1
  Cs  Cs25  1  0.00000000  0.00000000  0.83333333  1
  Cs  Cs26  1  0.00000000  0.00000000  0.16666667  1
