# generated using pymatgen
data_Pb2OF2
_symmetry_space_group_name_H-M   'P 1'
_cell_length_a   5.82548830
_cell_length_b   8.35383230
_cell_length_c   8.35383230
_cell_angle_alpha   90.00000000
_cell_angle_beta   90.00000000
_cell_angle_gamma   90.00000000
_symmetry_Int_Tables_number   1
_chemical_formula_structural   Pb2OF2
_chemical_formula_sum   'Pb8 O4 F8'
_cell_volume   406.54052137
_cell_formula_units_Z   4
loop_
 _symmetry_equiv_pos_site_id
 _symmetry_equiv_pos_as_xyz
  1  'x, y, z'
loop_
 _atom_site_type_symbol
 _atom_site_label
 _atom_site_symmetry_multiplicity
 _atom_site_fract_x
 _atom_site_fract_y
 _atom_site_fract_z
 _atom_site_occupancy
  O  O0  1  0.16925754  0.75000000  0.75000000  1
  O  O1  1  0.66925754  0.75000000  0.75000000  1
  O  O2  1  0.83074246  0.25000000  0.25000000  1
  O  O3  1  0.33074246  0.25000000  0.25000000  1
  F  F4  1  0.75000000  0.46388217  0.53611783  1
  F  F5  1  0.25000000  0.96388217  0.46388217  1
  F  F6  1  0.25000000  0.53611783  0.03611783  1
  F  F7  1  0.75000000  0.03611783  0.96388217  1
  F  F8  1  0.25000000  0.96388217  0.03611783  1
  F  F9  1  0.75000000  0.46388217  0.96388217  1
  F  F10  1  0.75000000  0.03611783  0.53611783  1
  F  F11  1  0.25000000  0.53611783  0.46388217  1
  Pb  Pb12  1  0.44550431  0.97116765  0.75000000  1
  Pb  Pb13  1  0.44550431  0.52883235  0.75000000  1
  Pb  Pb14  1  0.94550431  0.75000000  0.52883235  1
  Pb  Pb15  1  0.94550431  0.75000000  0.97116765  1
  Pb  Pb16  1  0.05449569  0.25000000  0.47116765  1
  Pb  Pb17  1  0.55449569  0.02883235  0.25000000  1
  Pb  Pb18  1  0.55449569  0.47116765  0.25000000  1
  Pb  Pb19  1  0.05449569  0.25000000  0.02883235  1
