# generated using pymatgen
data_Sr(HO)2
_symmetry_space_group_name_H-M   'P 1'
_cell_length_a   3.95947280
_cell_length_b   6.07935020
_cell_length_c   10.02662462
_cell_angle_alpha   90.00000000
_cell_angle_beta   90.00000000
_cell_angle_gamma   90.00000000
_symmetry_Int_Tables_number   1
_chemical_formula_structural   Sr(HO)2
_chemical_formula_sum   'Sr4 H8 O8'
_cell_volume   241.35109939
_cell_formula_units_Z   4
loop_
 _symmetry_equiv_pos_site_id
 _symmetry_equiv_pos_as_xyz
  1  'x, y, z'
loop_
 _atom_site_type_symbol
 _atom_site_label
 _atom_site_symmetry_multiplicity
 _atom_site_fract_x
 _atom_site_fract_y
 _atom_site_fract_z
 _atom_site_occupancy
  H  H0  1  0.75000000  0.37255433  0.03200779  1
  H  H1  1  0.25000000  0.62744567  0.96799221  1
  H  H2  1  0.25000000  0.87255433  0.46799221  1
  H  H3  1  0.75000000  0.12744567  0.53200779  1
  H  H4  1  0.25000000  0.18667411  0.40717707  1
  H  H5  1  0.75000000  0.81332589  0.59282293  1
  H  H6  1  0.75000000  0.68667411  0.09282293  1
  H  H7  1  0.25000000  0.31332589  0.90717707  1
  O  O8  1  0.75000000  0.12962652  0.62919955  1
  O  O9  1  0.25000000  0.87037348  0.37080045  1
  O  O10  1  0.25000000  0.62962652  0.87080045  1
  O  O11  1  0.75000000  0.37037348  0.12919955  1
  O  O12  1  0.25000000  0.34752781  0.39576382  1
  O  O13  1  0.75000000  0.65247219  0.60423618  1
  O  O14  1  0.75000000  0.84752781  0.10423618  1
  O  O15  1  0.25000000  0.15247219  0.89576382  1
  Sr  Sr16  1  0.75000000  0.59971723  0.34096535  1
  Sr  Sr17  1  0.25000000  0.40028277  0.65903465  1
  Sr  Sr18  1  0.25000000  0.09971723  0.15903465  1
  Sr  Sr19  1  0.75000000  0.90028277  0.84096535  1
