# generated using pymatgen
data_TlP5
_symmetry_space_group_name_H-M   'P 1'
_cell_length_a   6.52119738
_cell_length_b   7.26356480
_cell_length_c   12.39594578
_cell_angle_alpha   90.00000000
_cell_angle_beta   90.00000000
_cell_angle_gamma   90.00000000
_symmetry_Int_Tables_number   1
_chemical_formula_structural   TlP5
_chemical_formula_sum   'Tl4 P20'
_cell_volume   587.16049601
_cell_formula_units_Z   4
loop_
 _symmetry_equiv_pos_site_id
 _symmetry_equiv_pos_as_xyz
  1  'x, y, z'
loop_
 _atom_site_type_symbol
 _atom_site_label
 _atom_site_symmetry_multiplicity
 _atom_site_fract_x
 _atom_site_fract_y
 _atom_site_fract_z
 _atom_site_occupancy
  P  P0  1  0.50000000  0.35741381  0.04194048  1
  P  P1  1  0.50000000  0.64258619  0.54194048  1
  P  P2  1  0.50000000  0.39013826  0.21478813  1
  P  P3  1  0.50000000  0.60986174  0.71478813  1
  P  P4  1  0.24926872  0.22853725  0.61040803  1
  P  P5  1  0.75073128  0.77146275  0.11040803  1
  P  P6  1  0.75073128  0.22853725  0.61040803  1
  P  P7  1  0.24926872  0.77146275  0.11040803  1
  P  P8  1  0.25409186  0.41128294  0.75957087  1
  P  P9  1  0.74590814  0.58871706  0.25957087  1
  P  P10  1  0.74590814  0.41128294  0.75957087  1
  P  P11  1  0.25409186  0.58871706  0.25957087  1
  P  P12  1  0.00000000  0.61268686  0.73039016  1
  P  P13  1  0.00000000  0.38731314  0.23039016  1
  P  P14  1  0.00000000  0.81233639  0.86244565  1
  P  P15  1  0.00000000  0.18766361  0.36244565  1
  P  P16  1  0.00000000  0.64299353  0.00985076  1
  P  P17  1  0.00000000  0.35700647  0.50985076  1
  P  P18  1  0.50000000  0.34764268  0.51133787  1
  P  P19  1  0.50000000  0.65235732  0.01133787  1
  Tl  Tl20  1  0.50000000  0.03143869  0.33985735  1
  Tl  Tl21  1  0.50000000  0.96856131  0.83985735  1
  Tl  Tl22  1  0.00000000  0.77520319  0.50113183  1
  Tl  Tl23  1  0.00000000  0.22479681  1.00113183  1
