# generated using pymatgen
data_Y6OsI10
_symmetry_space_group_name_H-M   'P 1'
_cell_length_a   7.76337507
_cell_length_b   9.74332758
_cell_length_c   9.77881333
_cell_angle_alpha   106.97200608
_cell_angle_beta   96.76147168
_cell_angle_gamma   104.52672375
_symmetry_Int_Tables_number   1
_chemical_formula_structural   Y6OsI10
_chemical_formula_sum   'Y6 Os1 I10'
_cell_volume   670.12439497
_cell_formula_units_Z   1
loop_
 _symmetry_equiv_pos_site_id
 _symmetry_equiv_pos_as_xyz
  1  'x, y, z'
loop_
 _atom_site_type_symbol
 _atom_site_label
 _atom_site_symmetry_multiplicity
 _atom_site_fract_x
 _atom_site_fract_y
 _atom_site_fract_z
 _atom_site_occupancy
  Y  Y0  1  0.11454214  0.04262804  0.76126173  1
  Y  Y1  1  0.88545786  0.95737196  0.23873827  1
  Y  Y2  1  0.96858377  0.28043151  0.08229730  1
  Y  Y3  1  0.03141623  0.71956849  0.91770270  1
  Y  Y4  1  0.35152313  0.12544199  0.16777879  1
  Y  Y5  1  0.64847687  0.87455801  0.83222121  1
  I  I6  1  0.34863976  0.44934403  0.27146229  1
  I  I7  1  0.65136024  0.55065597  0.72853771  1
  I  I8  1  0.25629923  0.08655167  0.46008608  1
  I  I9  1  0.74370077  0.91344833  0.53991392  1
  I  I10  1  0.08633557  0.37075848  0.82012130  1
  I  I11  1  0.91366443  0.62924152  0.17987870  1
  I  I12  1  0.45486864  0.81593930  0.09217827  1
  I  I13  1  0.54513136  0.18406070  0.90782173  1
  I  I14  1  0.78223564  0.25680034  0.34545868  1
  I  I15  1  0.21776436  0.74319966  0.65454132  1
  Os  Os16  1  0.00000000  0.00000000  0.00000000  1
