# generated using pymatgen
data_Tc2O7
_symmetry_space_group_name_H-M   'P 1'
_cell_length_a   5.89136114
_cell_length_b   7.81973337
_cell_length_c   14.26910355
_cell_angle_alpha   90.00000000
_cell_angle_beta   90.00000000
_cell_angle_gamma   90.00000000
_symmetry_Int_Tables_number   1
_chemical_formula_structural   Tc2O7
_chemical_formula_sum   'Tc8 O28'
_cell_volume   657.36152357
_cell_formula_units_Z   4
loop_
 _symmetry_equiv_pos_site_id
 _symmetry_equiv_pos_as_xyz
  1  'x, y, z'
loop_
 _atom_site_type_symbol
 _atom_site_label
 _atom_site_symmetry_multiplicity
 _atom_site_fract_x
 _atom_site_fract_y
 _atom_site_fract_z
 _atom_site_occupancy
  O  O0  1  0.57892413  0.62064944  0.58487563  1
  O  O1  1  0.07892413  0.37935056  0.91512437  1
  O  O2  1  0.92107587  0.12064944  0.41512437  1
  O  O3  1  0.42107587  0.87935056  0.08487563  1
  O  O4  1  0.42107587  0.37935056  0.41512437  1
  O  O5  1  0.92107587  0.62064944  0.08487563  1
  O  O6  1  0.07892413  0.87935056  0.58487563  1
  O  O7  1  0.57892413  0.12064944  0.91512437  1
  O  O8  1  0.00000000  0.00000000  0.00000000  1
  O  O9  1  0.50000000  0.00000000  0.50000000  1
  O  O10  1  0.50000000  0.50000000  0.00000000  1
  O  O11  1  0.00000000  0.50000000  0.50000000  1
  O  O12  1  0.70590507  0.78361340  0.88296134  1
  O  O13  1  0.20590507  0.21638660  0.61703866  1
  O  O14  1  0.79409493  0.28361340  0.11703866  1
  O  O15  1  0.29409493  0.71638660  0.38296134  1
  O  O16  1  0.29409493  0.21638660  0.11703866  1
  O  O17  1  0.79409493  0.78361340  0.38296134  1
  O  O18  1  0.20590507  0.71638660  0.88296134  1
  O  O19  1  0.70590507  0.28361340  0.61703866  1
  O  O20  1  0.93986565  0.04885672  0.79605076  1
  O  O21  1  0.43986565  0.95114328  0.70394924  1
  O  O22  1  0.56013435  0.54885672  0.20394924  1
  O  O23  1  0.06013435  0.45114328  0.29605076  1
  O  O24  1  0.06013435  0.95114328  0.20394924  1
  O  O25  1  0.56013435  0.04885672  0.29605076  1
  O  O26  1  0.43986565  0.45114328  0.79605076  1
  O  O27  1  0.93986565  0.54885672  0.70394924  1
  Tc  Tc28  1  0.80548981  0.48753387  0.60354122  1
  Tc  Tc29  1  0.30548981  0.51246613  0.89645878  1
  Tc  Tc30  1  0.69451019  0.98753387  0.39645878  1
  Tc  Tc31  1  0.19451019  0.01246613  0.10354122  1
  Tc  Tc32  1  0.19451019  0.51246613  0.39645878  1
  Tc  Tc33  1  0.69451019  0.48753387  0.10354122  1
  Tc  Tc34  1  0.30548981  0.01246613  0.60354122  1
  Tc  Tc35  1  0.80548981  0.98753387  0.89645878  1
