# generated using pymatgen
data_Na4Cd3Se5
_symmetry_space_group_name_H-M   'P 1'
_cell_length_a   4.31451776
_cell_length_b   14.29013489
_cell_length_c   20.50362624
_cell_angle_alpha   90.00000000
_cell_angle_beta   90.00000000
_cell_angle_gamma   90.00000000
_symmetry_Int_Tables_number   1
_chemical_formula_structural   Na4Cd3Se5
_chemical_formula_sum   'Na16 Cd12 Se20'
_cell_volume   1264.15191188
_cell_formula_units_Z   4
loop_
 _symmetry_equiv_pos_site_id
 _symmetry_equiv_pos_as_xyz
  1  'x, y, z'
loop_
 _atom_site_type_symbol
 _atom_site_label
 _atom_site_symmetry_multiplicity
 _atom_site_fract_x
 _atom_site_fract_y
 _atom_site_fract_z
 _atom_site_occupancy
  Na  Na0  1  0.25000000  0.77601568  0.33387319  1
  Na  Na1  1  0.75000000  0.22398432  0.66612681  1
  Na  Na2  1  0.25000000  0.27601568  0.16612681  1
  Na  Na3  1  0.75000000  0.72398432  0.83387319  1
  Na  Na4  1  0.25000000  0.61160285  0.44807789  1
  Na  Na5  1  0.75000000  0.38839715  0.55192211  1
  Na  Na6  1  0.25000000  0.11160285  0.05192211  1
  Na  Na7  1  0.75000000  0.88839715  0.94807789  1
  Na  Na8  1  0.25000000  0.50695080  0.91854088  1
  Na  Na9  1  0.75000000  0.49304920  0.08145912  1
  Na  Na10  1  0.25000000  0.00695080  0.58145912  1
  Na  Na11  1  0.75000000  0.99304920  0.41854088  1
  Na  Na12  1  0.25000000  0.00114116  0.23308510  1
  Na  Na13  1  0.75000000  0.99885884  0.76691490  1
  Na  Na14  1  0.25000000  0.50114116  0.26691490  1
  Na  Na15  1  0.75000000  0.49885884  0.73308510  1
  Se  Se16  1  0.25000000  0.61529597  0.15143878  1
  Se  Se17  1  0.75000000  0.86131273  0.25275071  1
  Se  Se18  1  0.75000000  0.36131273  0.24724929  1
  Se  Se19  1  0.25000000  0.63868727  0.75275071  1
  Se  Se20  1  0.75000000  0.64626563  0.96840005  1
  Se  Se21  1  0.25000000  0.35373437  0.03159995  1
  Se  Se22  1  0.75000000  0.14626563  0.53159995  1
  Se  Se23  1  0.25000000  0.85373437  0.46840005  1
  Se  Se24  1  0.75000000  0.61440304  0.34349458  1
  Se  Se25  1  0.25000000  0.38559696  0.65650542  1
  Se  Se26  1  0.75000000  0.11440304  0.15650542  1
  Se  Se27  1  0.25000000  0.88559696  0.84349458  1
  Se  Se28  1  0.75000000  0.60720193  0.55443148  1
  Se  Se29  1  0.25000000  0.39279807  0.44556852  1
  Se  Se30  1  0.75000000  0.10720193  0.94556852  1
  Se  Se31  1  0.25000000  0.89279807  0.05443148  1
  Se  Se32  1  0.25000000  0.11529597  0.34856122  1
  Se  Se33  1  0.75000000  0.88470403  0.65143878  1
  Se  Se34  1  0.25000000  0.13868727  0.74724929  1
  Se  Se35  1  0.75000000  0.38470403  0.84856122  1
  Cd  Cd36  1  0.25000000  0.07573170  0.86997776  1
  Cd  Cd37  1  0.75000000  0.92426830  0.13002224  1
  Cd  Cd38  1  0.25000000  0.57573170  0.63002224  1
  Cd  Cd39  1  0.75000000  0.42426830  0.36997776  1
  Cd  Cd40  1  0.25000000  0.81715793  0.71696172  1
  Cd  Cd41  1  0.75000000  0.18284207  0.28303828  1
  Cd  Cd42  1  0.25000000  0.31715793  0.78303828  1
  Cd  Cd43  1  0.75000000  0.68284207  0.21696172  1
  Cd  Cd44  1  0.25000000  0.70623185  0.03539514  1
  Cd  Cd45  1  0.75000000  0.29376815  0.96460486  1
  Cd  Cd46  1  0.25000000  0.20623185  0.46460486  1
  Cd  Cd47  1  0.75000000  0.79376815  0.53539514  1
