# generated using pymatgen
data_Ga2TeSe2
_symmetry_space_group_name_H-M   'P 1'
_cell_length_a   7.43501545
_cell_length_b   7.43501545
_cell_length_c   7.60693112
_cell_angle_alpha   119.25517628
_cell_angle_beta   119.25517633
_cell_angle_gamma   90.00000003
_symmetry_Int_Tables_number   1
_chemical_formula_structural   Ga2TeSe2
_chemical_formula_sum   'Ga4 Te2 Se4'
_cell_volume   303.91472659
_cell_formula_units_Z   2
loop_
 _symmetry_equiv_pos_site_id
 _symmetry_equiv_pos_as_xyz
  1  'x, y, z'
loop_
 _atom_site_type_symbol
 _atom_site_label
 _atom_site_symmetry_multiplicity
 _atom_site_fract_x
 _atom_site_fract_y
 _atom_site_fract_z
 _atom_site_occupancy
  Ga  Ga0  1  0.42616883  0.65139984  0.85233766  1
  Ga  Ga1  1  0.45093782  0.17616883  0.35233766  1
  Ga  Ga2  1  0.90139984  0.17616883  0.35233766  1
  Ga  Ga3  1  0.42616883  0.20093782  0.85233766  1
  Se  Se4  1  0.64916487  0.90129566  0.29832974  1
  Se  Se5  1  0.64703408  0.39916487  0.79832974  1
  Se  Se6  1  0.15129566  0.39916487  0.79832974  1
  Se  Se7  1  0.64916487  0.39703408  0.29832974  1
  Te  Te8  1  0.03033261  0.03033261  0.06066521  1
  Te  Te9  1  0.28033261  0.78033261  0.56066521  1
