# generated using pymatgen
data_CsSnCl3
_symmetry_space_group_name_H-M   'P 1'
_cell_length_a   5.84800315
_cell_length_b   7.91253333
_cell_length_c   16.35783798
_cell_angle_alpha   90.00000000
_cell_angle_beta   92.76613034
_cell_angle_gamma   90.00000000
_symmetry_Int_Tables_number   1
_chemical_formula_structural   CsSnCl3
_chemical_formula_sum   'Cs4 Sn4 Cl12'
_cell_volume   756.03645082
_cell_formula_units_Z   4
loop_
 _symmetry_equiv_pos_site_id
 _symmetry_equiv_pos_as_xyz
  1  'x, y, z'
loop_
 _atom_site_type_symbol
 _atom_site_label
 _atom_site_symmetry_multiplicity
 _atom_site_fract_x
 _atom_site_fract_y
 _atom_site_fract_z
 _atom_site_occupancy
  Cl  Cl0  1  0.69114875  0.96726857  0.12471059  1
  Cl  Cl1  1  0.80885125  0.46726857  0.37528941  1
  Cl  Cl2  1  0.30885125  0.03273143  0.87528941  1
  Cl  Cl3  1  0.19114875  0.53273143  0.62471059  1
  Cl  Cl4  1  0.23482488  0.66701811  0.04537269  1
  Cl  Cl5  1  0.26517512  0.16701811  0.45462731  1
  Cl  Cl6  1  0.76517512  0.33298189  0.95462731  1
  Cl  Cl7  1  0.73482488  0.83298189  0.54537269  1
  Cl  Cl8  1  0.73234955  0.68885950  0.75313531  1
  Cl  Cl9  1  0.76765045  0.18885950  0.74686469  1
  Cl  Cl10  1  0.26765045  0.31114050  0.24686469  1
  Cl  Cl11  1  0.23234955  0.81114050  0.25313531  1
  Sn  Sn12  1  0.24430567  0.95743159  0.11310761  1
  Sn  Sn13  1  0.25569433  0.45743159  0.38689239  1
  Sn  Sn14  1  0.75569433  0.04256841  0.88689239  1
  Sn  Sn15  1  0.74430567  0.54256841  0.61310761  1
  Cs  Cs16  1  0.74861356  0.00722575  0.34797738  1
  Cs  Cs17  1  0.75138644  0.50722575  0.15202262  1
  Cs  Cs18  1  0.25138644  0.99277425  0.65202262  1
  Cs  Cs19  1  0.24861356  0.49277425  0.84797738  1
