# generated using pymatgen
data_Au2Se4O11
_symmetry_space_group_name_H-M   'P 1'
_cell_length_a   4.30961805
_cell_length_b   10.63831653
_cell_length_c   13.62540373
_cell_angle_alpha   68.34738201
_cell_angle_beta   80.90067497
_cell_angle_gamma   78.31378509
_symmetry_Int_Tables_number   1
_chemical_formula_structural   Au2Se4O11
_chemical_formula_sum   'Au4 Se8 O22'
_cell_volume   566.17843732
_cell_formula_units_Z   2
loop_
 _symmetry_equiv_pos_site_id
 _symmetry_equiv_pos_as_xyz
  1  'x, y, z'
loop_
 _atom_site_type_symbol
 _atom_site_label
 _atom_site_symmetry_multiplicity
 _atom_site_fract_x
 _atom_site_fract_y
 _atom_site_fract_z
 _atom_site_occupancy
  O  O0  1  0.01744104  0.25000000  0.75000000  1
  O  O1  1  0.98255896  0.75000000  0.25000000  1
  O  O2  1  0.81653497  0.50430550  0.74961244  1
  O  O3  1  0.07045291  0.99569450  0.75038756  1
  O  O4  1  0.18346503  0.49569450  0.25038756  1
  O  O5  1  0.92954709  0.00430550  0.24961244  1
  O  O6  1  0.31310042  0.46144401  0.60898346  1
  O  O7  1  0.38352788  0.03855599  0.89101654  1
  O  O8  1  0.68689958  0.53855599  0.39101654  1
  O  O9  1  0.61647212  0.96144401  0.10898346  1
  O  O10  1  0.81395523  0.84397224  0.62003187  1
  O  O11  1  0.27795934  0.65602776  0.87996813  1
  O  O12  1  0.92182457  0.19534095  -0.00351356  1
  O  O13  1  0.11365196  0.30465905  0.50351356  1
  O  O14  1  0.07817543  0.80465905  1.00351356  1
  O  O15  1  0.88634804  0.69534095  0.49648644  1
  O  O16  1  0.24285329  0.37498978  0.97719777  1
  O  O17  1  0.59504085  0.12501022  0.52280223  1
  O  O18  1  0.75714671  0.62501022  0.02280223  1
  O  O19  1  0.40495915  0.87498978  0.47719777  1
  O  O20  1  0.72204066  0.34397224  0.12003187  1
  O  O21  1  0.18604477  0.15602776  0.37996813  1
  Se  Se22  1  0.16518414  0.40626791  0.74460038  1
  Se  Se23  1  0.31605243  0.09373209  0.75539962  1
  Se  Se24  1  0.83481586  0.59373209  0.25539962  1
  Se  Se25  1  0.68394757  0.90626791  0.24460038  1
  Se  Se26  1  0.59564748  0.74800502  0.58447413  1
  Se  Se27  1  0.92812663  0.75199498  0.91552587  1
  Se  Se28  1  0.40435252  0.25199498  0.41552587  1
  Se  Se29  1  0.07187337  0.24800502  0.08447413  1
  Au  Au30  1  0.00000000  0.00000000  0.50000000  1
  Au  Au31  1  0.50000000  0.50000000  0.00000000  1
  Au  Au32  1  0.00000000  0.50000000  0.50000000  1
  Au  Au33  1  0.00000000  0.00000000  0.00000000  1
