# generated using pymatgen
data_ZrCl
_symmetry_space_group_name_H-M   'P 1'
_cell_length_a   3.45152259
_cell_length_b   3.45598045
_cell_length_c   10.05601416
_cell_angle_alpha   99.89333765
_cell_angle_beta   90.00000000
_cell_angle_gamma   119.95733976
_symmetry_Int_Tables_number   1
_chemical_formula_structural   ZrCl
_chemical_formula_sum   'Zr2 Cl2'
_cell_volume   101.86217309
_cell_formula_units_Z   2
loop_
 _symmetry_equiv_pos_site_id
 _symmetry_equiv_pos_as_xyz
  1  'x, y, z'
loop_
 _atom_site_type_symbol
 _atom_site_label
 _atom_site_symmetry_multiplicity
 _atom_site_fract_x
 _atom_site_fract_y
 _atom_site_fract_z
 _atom_site_occupancy
  Cl  Cl0  1  0.90082392  0.80164785  0.70213037  1
  Cl  Cl1  1  0.09917608  0.19835215  0.29786963  1
  Zr  Zr2  1  0.62708436  0.25416871  0.87948213  1
  Zr  Zr3  1  0.37291564  0.74583129  0.12051787  1
