# generated using pymatgen
data_K2Bi8Se13
_symmetry_space_group_name_H-M   'P 1'
_cell_length_a   4.21852782
_cell_length_b   12.38874535
_cell_length_c   14.00912962
_cell_angle_alpha   92.33701900
_cell_angle_beta   98.66070195
_cell_angle_gamma   89.97480248
_symmetry_Int_Tables_number   1
_chemical_formula_structural   K2Bi8Se13
_chemical_formula_sum   'K2 Bi8 Se13'
_cell_volume   723.18641250
_cell_formula_units_Z   1
loop_
 _symmetry_equiv_pos_site_id
 _symmetry_equiv_pos_as_xyz
  1  'x, y, z'
loop_
 _atom_site_type_symbol
 _atom_site_label
 _atom_site_symmetry_multiplicity
 _atom_site_fract_x
 _atom_site_fract_y
 _atom_site_fract_z
 _atom_site_occupancy
  K  K0  1  0.41095780  0.94737642  0.82400049  1
  K  K1  1  0.58904220  0.05262358  0.17599951  1
  Se  Se2  1  0.14017297  0.88224667  0.28105427  1
  Se  Se3  1  0.00000000  0.50000000  0.00000000  1
  Se  Se4  1  0.70989145  0.08937983  0.41930701  1
  Se  Se5  1  0.29010855  0.91062017  0.58069299  1
  Se  Se6  1  0.85982703  0.11775333  0.71894573  1
  Se  Se7  1  0.37049287  0.43068927  0.74155038  1
  Se  Se8  1  0.74489112  0.35820034  0.48869248  1
  Se  Se9  1  0.25510888  0.64179966  0.51130752  1
  Se  Se10  1  0.62950713  0.56931073  0.25844962  1
  Se  Se11  1  0.48151172  0.20219596  0.96171780  1
  Se  Se12  1  0.51848828  0.79780404  0.03828220  1
  Se  Se13  1  0.88985525  0.72422386  0.78038883  1
  Se  Se14  1  0.11014475  0.27577614  0.21961117  1
  Bi  Bi15  1  0.44089871  0.61798489  0.88303352  1
  Bi  Bi16  1  0.71797658  0.87000052  0.43534249  1
  Bi  Bi17  1  0.28202342  0.12999948  0.56465751  1
  Bi  Bi18  1  0.92550031  0.29614320  0.84930343  1
  Bi  Bi19  1  0.07449969  0.70385680  0.15069657  1
  Bi  Bi20  1  0.81116599  0.54561777  0.62256213  1
  Bi  Bi21  1  0.18883401  0.45438223  0.37743787  1
  Bi  Bi22  1  0.55910129  0.38201511  0.11696648  1
