# generated using pymatgen
data_K4Zr5O12
_symmetry_space_group_name_H-M   'P 1'
_cell_length_a   5.90401575
_cell_length_b   5.90401574
_cell_length_c   10.59672981
_cell_angle_alpha   90.00000000
_cell_angle_beta   90.00000000
_cell_angle_gamma   119.99999998
_symmetry_Int_Tables_number   1
_chemical_formula_structural   K4Zr5O12
_chemical_formula_sum   'K4 Zr5 O12'
_cell_volume   319.88767483
_cell_formula_units_Z   1
loop_
 _symmetry_equiv_pos_site_id
 _symmetry_equiv_pos_as_xyz
  1  'x, y, z'
loop_
 _atom_site_type_symbol
 _atom_site_label
 _atom_site_symmetry_multiplicity
 _atom_site_fract_x
 _atom_site_fract_y
 _atom_site_fract_z
 _atom_site_occupancy
  O  O0  1  0.98084746  0.49042373  0.12241516  1
  O  O1  1  0.50957627  0.49042373  0.12241516  1
  O  O2  1  0.50957627  0.01915254  0.12241516  1
  O  O3  1  0.49042373  0.50957627  0.87758484  1
  O  O4  1  0.01915254  0.50957627  0.87758484  1
  O  O5  1  0.49042373  0.98084746  0.87758484  1
  O  O6  1  0.32994686  0.16497343  0.37858981  1
  O  O7  1  0.83502657  0.16497343  0.37858981  1
  O  O8  1  0.83502657  0.67005314  0.37858981  1
  O  O9  1  0.16497343  0.32994686  0.62141019  1
  O  O10  1  0.67005314  0.83502657  0.62141019  1
  O  O11  1  0.16497343  0.83502657  0.62141019  1
  K  K12  1  0.66666667  0.33333333  0.61322584  1
  K  K13  1  0.33333333  0.66666667  0.38677416  1
  K  K14  1  0.00000000  0.00000000  0.82114612  1
  K  K15  1  0.00000000  0.00000000  0.17885388  1
  Zr  Zr16  1  0.66666667  0.33333333  0.28337358  1
  Zr  Zr17  1  0.33333333  0.66666667  0.71662642  1
  Zr  Zr18  1  0.66666667  0.33333333  0.97590505  1
  Zr  Zr19  1  0.33333333  0.66666667  0.02409495  1
  Zr  Zr20  1  0.00000000  0.00000000  0.50000000  1
