# generated using pymatgen
data_BaBiSe3
_symmetry_space_group_name_H-M   'P 1'
_cell_length_a   4.40284557
_cell_length_b   16.60386026
_cell_length_c   17.17848414
_cell_angle_alpha   90.00000000
_cell_angle_beta   90.00000000
_cell_angle_gamma   90.00000000
_symmetry_Int_Tables_number   1
_chemical_formula_structural   BaBiSe3
_chemical_formula_sum   'Ba8 Bi8 Se24'
_cell_volume   1255.81990013
_cell_formula_units_Z   8
loop_
 _symmetry_equiv_pos_site_id
 _symmetry_equiv_pos_as_xyz
  1  'x, y, z'
loop_
 _atom_site_type_symbol
 _atom_site_label
 _atom_site_symmetry_multiplicity
 _atom_site_fract_x
 _atom_site_fract_y
 _atom_site_fract_z
 _atom_site_occupancy
  Se  Se0  1  0.07352060  0.96196356  0.93076548  1
  Se  Se1  1  0.57352060  0.03803644  0.56923452  1
  Se  Se2  1  0.42647940  0.46196356  0.06923452  1
  Se  Se3  1  0.92647940  0.53803644  0.43076548  1
  Se  Se4  1  0.99071255  0.77407916  0.77732816  1
  Se  Se5  1  0.49071255  0.22592084  0.72267184  1
  Se  Se6  1  0.50928745  0.27407916  0.22267184  1
  Se  Se7  1  0.00928745  0.72592084  0.27732816  1
  Se  Se8  1  0.01132490  0.68359575  0.01847654  1
  Se  Se9  1  0.51132490  0.31640425  0.48152346  1
  Se  Se10  1  0.48867510  0.18359575  0.98152346  1
  Se  Se11  1  0.98867510  0.81640425  0.51847654  1
  Se  Se12  1  0.51628730  0.85217883  0.11569411  1
  Se  Se13  1  0.01628730  0.14782117  0.38430589  1
  Se  Se14  1  0.98371270  0.35217883  0.88430589  1
  Se  Se15  1  0.48371270  0.64782117  0.61569411  1
  Se  Se16  1  0.53874440  0.93324665  0.34472406  1
  Se  Se17  1  0.03874440  0.06675335  0.15527594  1
  Se  Se18  1  0.96125560  0.43324665  0.65527594  1
  Se  Se19  1  0.46125560  0.56675335  0.84472406  1
  Se  Se20  1  0.41750263  0.98853302  0.80702431  1
  Se  Se21  1  0.91750263  0.01146698  0.69297569  1
  Se  Se22  1  0.08249737  0.48853302  0.19297569  1
  Se  Se23  1  0.58249737  0.51146698  0.30702431  1
  Ba  Ba24  1  0.47812353  0.85247692  0.65695368  1
  Ba  Ba25  1  0.97812353  0.14752308  0.84304632  1
  Ba  Ba26  1  0.02187647  0.35247692  0.34304632  1
  Ba  Ba27  1  0.52187647  0.64752308  0.15695368  1
  Ba  Ba28  1  0.49552377  0.71012469  0.41771134  1
  Ba  Ba29  1  0.99552377  0.28987531  0.08228866  1
  Ba  Ba30  1  0.00447623  0.21012469  0.58228866  1
  Ba  Ba31  1  0.50447623  0.78987531  0.91771134  1
  Bi  Bi32  1  0.00763917  0.61876055  0.71974056  1
  Bi  Bi33  1  0.50763917  0.38123945  0.78025944  1
  Bi  Bi34  1  0.49236083  0.11876055  0.28025944  1
  Bi  Bi35  1  0.99236083  0.88123945  0.21974056  1
  Bi  Bi36  1  0.98708887  0.96943114  0.45643937  1
  Bi  Bi37  1  0.48708887  0.03056886  0.04356063  1
  Bi  Bi38  1  0.51291113  0.46943114  0.54356063  1
  Bi  Bi39  1  0.01291113  0.53056886  0.95643937  1
