# generated using pymatgen
data_TiMn3O8
_symmetry_space_group_name_H-M   'P 1'
_cell_length_a   5.81364463
_cell_length_b   5.81364463
_cell_length_c   5.88198340
_cell_angle_alpha   60.38360038
_cell_angle_beta   60.38360038
_cell_angle_gamma   60.00000000
_symmetry_Int_Tables_number   1
_chemical_formula_structural   TiMn3O8
_chemical_formula_sum   'Ti1 Mn3 O8'
_cell_volume   141.38380465
_cell_formula_units_Z   1
loop_
 _symmetry_equiv_pos_site_id
 _symmetry_equiv_pos_as_xyz
  1  'x, y, z'
loop_
 _atom_site_type_symbol
 _atom_site_label
 _atom_site_symmetry_multiplicity
 _atom_site_fract_x
 _atom_site_fract_y
 _atom_site_fract_z
 _atom_site_occupancy
  Ti  Ti0  1  0.62500000  0.62500000  0.12500000  1
  Mn  Mn1  1  0.62500000  0.12500000  0.62500000  1
  Mn  Mn2  1  0.12500000  0.62500000  0.62500000  1
  Mn  Mn3  1  0.62500000  0.62500000  0.62500000  1
  O  O4  1  0.83234813  0.38623575  0.39518037  1
  O  O5  1  0.38623575  0.38623575  0.39518037  1
  O  O6  1  0.38623575  0.83234813  0.39518037  1
  O  O7  1  0.39096158  0.39096158  0.82711527  1
  O  O8  1  0.85903842  0.85903842  0.42288473  1
  O  O9  1  0.86376425  0.41765187  0.85481963  1
  O  O10  1  0.41765187  0.86376425  0.85481963  1
  O  O11  1  0.86376425  0.86376425  0.85481963  1
