# generated using pymatgen
data_K3W2Cl9
_symmetry_space_group_name_H-M   'P 1'
_cell_length_a   7.43332761
_cell_length_b   7.43332761
_cell_length_c   16.30520950
_cell_angle_alpha   90.00000000
_cell_angle_beta   90.00000000
_cell_angle_gamma   120.00000000
_symmetry_Int_Tables_number   1
_chemical_formula_structural   K3W2Cl9
_chemical_formula_sum   'K6 W4 Cl18'
_cell_volume   780.23164897
_cell_formula_units_Z   2
loop_
 _symmetry_equiv_pos_site_id
 _symmetry_equiv_pos_as_xyz
  1  'x, y, z'
loop_
 _atom_site_type_symbol
 _atom_site_label
 _atom_site_symmetry_multiplicity
 _atom_site_fract_x
 _atom_site_fract_y
 _atom_site_fract_z
 _atom_site_occupancy
  Cl  Cl0  1  0.12139682  0.35933069  0.09638008  1
  Cl  Cl1  1  0.76206613  0.12139682  0.59638008  1
  Cl  Cl2  1  0.35933069  0.23793387  0.59638008  1
  Cl  Cl3  1  0.64066931  0.76206613  0.09638008  1
  Cl  Cl4  1  0.23793387  0.87860318  0.09638008  1
  Cl  Cl5  1  0.87860318  0.64066931  0.59638008  1
  Cl  Cl6  1  0.87860318  0.64066931  0.90361992  1
  Cl  Cl7  1  0.23793387  0.87860318  0.40361992  1
  Cl  Cl8  1  0.64066931  0.76206613  0.40361992  1
  Cl  Cl9  1  0.35933069  0.23793387  0.90361992  1
  Cl  Cl10  1  0.43906901  0.43183709  0.25000000  1
  Cl  Cl11  1  0.00723192  0.43906901  0.75000000  1
  Cl  Cl12  1  0.43183709  0.99276808  0.75000000  1
  Cl  Cl13  1  0.56816291  0.00723192  0.25000000  1
  Cl  Cl14  1  0.99276808  0.56093099  0.25000000  1
  Cl  Cl15  1  0.56093099  0.56816291  0.75000000  1
  Cl  Cl16  1  0.12139682  0.35933069  0.40361992  1
  Cl  Cl17  1  0.76206613  0.12139682  0.90361992  1
  K  K18  1  0.00000000  0.00000000  0.25000000  1
  K  K19  1  0.00000000  0.00000000  0.75000000  1
  K  K20  1  0.33333333  0.66666667  0.57108976  1
  K  K21  1  0.66666667  0.33333333  0.07108976  1
  K  K22  1  0.33333333  0.66666667  0.92891024  1
  K  K23  1  0.66666667  0.33333333  0.42891024  1
  W  W24  1  0.33333333  0.66666667  0.32289451  1
  W  W25  1  0.66666667  0.33333333  0.82289451  1
  W  W26  1  0.66666667  0.33333333  0.67710549  1
  W  W27  1  0.33333333  0.66666667  0.17710549  1
