# generated using pymatgen
data_Al2Hg3Cl8
_symmetry_space_group_name_H-M   'P 1'
_cell_length_a   7.30031122
_cell_length_b   14.79394174
_cell_length_c   15.91830265
_cell_angle_alpha   90.00000000
_cell_angle_beta   90.00000000
_cell_angle_gamma   98.20762306
_symmetry_Int_Tables_number   1
_chemical_formula_structural   Al2Hg3Cl8
_chemical_formula_sum   'Al8 Hg12 Cl32'
_cell_volume   1701.57355131
_cell_formula_units_Z   4
loop_
 _symmetry_equiv_pos_site_id
 _symmetry_equiv_pos_as_xyz
  1  'x, y, z'
loop_
 _atom_site_type_symbol
 _atom_site_label
 _atom_site_symmetry_multiplicity
 _atom_site_fract_x
 _atom_site_fract_y
 _atom_site_fract_z
 _atom_site_occupancy
  Al  Al0  1  0.60179032  0.09248641  0.68334360  1
  Al  Al1  1  0.80527230  0.27897315  0.39993612  1
  Al  Al2  1  0.19472770  0.22102685  0.89993612  1
  Al  Al3  1  0.19472770  0.72102685  0.60006388  1
  Al  Al4  1  0.80527230  0.77897315  0.10006388  1
  Al  Al5  1  0.60179032  0.59248641  0.81665640  1
  Al  Al6  1  0.39820968  0.90751359  0.31665640  1
  Al  Al7  1  0.39820968  0.40751359  0.18334360  1
  Cl  Cl8  1  0.51912071  0.20723910  0.41594528  1
  Cl  Cl9  1  0.48087929  0.29276090  0.91594528  1
  Cl  Cl10  1  0.48087929  0.79276090  0.58405472  1
  Cl  Cl11  1  0.51912071  0.70723910  0.08405472  1
  Cl  Cl12  1  0.82654789  0.39995294  0.47634885  1
  Cl  Cl13  1  0.99328802  0.68812315  0.06225345  1
  Cl  Cl14  1  0.00671198  0.81187685  0.56225345  1
  Cl  Cl15  1  0.00671198  0.31187685  0.93774655  1
  Cl  Cl16  1  0.67270429  0.23747511  0.67156366  1
  Cl  Cl17  1  0.32729571  0.26252489  0.17156366  1
  Cl  Cl18  1  0.32729571  0.76252489  0.32843634  1
  Cl  Cl19  1  0.67270429  0.73747511  0.82843634  1
  Cl  Cl20  1  0.59494319  0.04450958  0.81132632  1
  Cl  Cl21  1  0.40505681  0.45549042  0.31132632  1
  Cl  Cl22  1  0.40505681  0.95549042  0.18867368  1
  Cl  Cl23  1  0.59494319  0.54450958  0.68867368  1
  Cl  Cl24  1  0.82538886  0.02835899  0.62114045  1
  Cl  Cl25  1  0.17461114  0.47164101  0.12114045  1
  Cl  Cl26  1  0.17461114  0.97164101  0.37885955  1
  Cl  Cl27  1  0.82538886  0.52835899  0.87885955  1
  Cl  Cl28  1  0.35482501  0.04383849  0.61469187  1
  Cl  Cl29  1  0.64517499  0.45616151  0.11469187  1
  Cl  Cl30  1  0.64517499  0.95616151  0.38530813  1
  Cl  Cl31  1  0.35482501  0.54383849  0.88530813  1
  Cl  Cl32  1  0.99328802  0.18812315  0.43774655  1
  Cl  Cl33  1  0.82654789  0.89995294  0.02365115  1
  Cl  Cl34  1  0.17345211  0.60004706  0.52365115  1
  Cl  Cl35  1  0.17345211  0.10004706  0.97634885  1
  Cl  Cl36  1  0.84212196  0.80999334  0.23125417  1
  Cl  Cl37  1  0.15787804  0.69000666  0.73125417  1
  Cl  Cl38  1  0.15787804  0.19000666  0.76874583  1
  Cl  Cl39  1  0.84212196  0.30999334  0.26874583  1
  Hg  Hg40  1  0.36940273  0.30184326  0.52868070  1
  Hg  Hg41  1  0.63059727  0.19815674  0.02868070  1
  Hg  Hg42  1  0.63059727  0.69815674  0.47131930  1
  Hg  Hg43  1  0.36940273  0.80184326  0.97131930  1
  Hg  Hg44  1  0.01641378  0.46963403  0.75945315  1
  Hg  Hg45  1  0.98358622  0.03036597  0.25945315  1
  Hg  Hg46  1  0.98358622  0.53036597  0.24054685  1
  Hg  Hg47  1  0.01641378  0.96963403  0.74054685  1
  Hg  Hg48  1  0.19073463  0.39104146  0.63992429  1
  Hg  Hg49  1  0.80926537  0.10895854  0.13992429  1
  Hg  Hg50  1  0.80926537  0.60895854  0.36007571  1
  Hg  Hg51  1  0.19073463  0.89104146  0.86007571  1
