# generated using pymatgen
data_Sr2YI7
_symmetry_space_group_name_H-M   'P 1'
_cell_length_a   7.80737477
_cell_length_b   17.30452821
_cell_length_c   11.96543308
_cell_angle_alpha   90.00000000
_cell_angle_beta   89.35679335
_cell_angle_gamma   90.00000000
_symmetry_Int_Tables_number   1
_chemical_formula_structural   Sr2YI7
_chemical_formula_sum   'Sr8 Y4 I28'
_cell_volume   1616.46328734
_cell_formula_units_Z   4
loop_
 _symmetry_equiv_pos_site_id
 _symmetry_equiv_pos_as_xyz
  1  'x, y, z'
loop_
 _atom_site_type_symbol
 _atom_site_label
 _atom_site_symmetry_multiplicity
 _atom_site_fract_x
 _atom_site_fract_y
 _atom_site_fract_z
 _atom_site_occupancy
  Sr  Sr0  1  0.27905433  0.55720080  0.67547342  1
  Sr  Sr1  1  0.28578262  0.21895312  0.54890105  1
  Sr  Sr2  1  0.27905433  0.94279920  0.17547342  1
  Sr  Sr3  1  0.28578262  0.28104688  0.04890105  1
  Sr  Sr4  1  0.71421738  0.71895312  0.95109895  1
  Sr  Sr5  1  0.72094567  0.05720080  0.82452658  1
  Sr  Sr6  1  0.71421738  0.78104688  0.45109895  1
  Sr  Sr7  1  0.72094567  0.44279920  0.32452658  1
  Y  Y8  1  0.21699292  0.86847228  0.72244909  1
  Y  Y9  1  0.21699292  0.63152772  0.22244909  1
  Y  Y10  1  0.78300708  0.36847228  0.77755091  1
  Y  Y11  1  0.78300708  0.13152772  0.27755091  1
  I  I12  1  0.99648907  0.21525110  0.78037924  1
  I  I13  1  0.00424605  0.39661873  0.56405228  1
  I  I14  1  0.99648907  0.28474890  0.28037924  1
  I  I15  1  0.00424605  0.10338127  0.06405228  1
  I  I16  1  0.13530521  0.42731317  0.87799398  1
  I  I17  1  0.13530521  0.07268683  0.37799398  1
  I  I18  1  0.30653217  0.64205345  0.97179557  1
  I  I19  1  0.30653217  0.85794655  0.47179557  1
  I  I20  1  0.31649141  0.03939248  0.70976721  1
  I  I21  1  0.31649141  0.46060752  0.20976721  1
  I  I22  1  0.49283750  0.89372310  0.92440570  1
  I  I23  1  0.50267585  0.73842298  0.70014043  1
  I  I24  1  0.49283750  0.60627690  0.42440570  1
  I  I25  1  0.50267585  0.76157702  0.20014043  1
  I  I26  1  0.49732415  0.23842298  0.79985957  1
  I  I27  1  0.50716250  0.39372310  0.57559430  1
  I  I28  1  0.49732415  0.26157702  0.29985957  1
  I  I29  1  0.50716250  0.10627690  0.07559430  1
  I  I30  1  0.68350859  0.53939248  0.79023279  1
  I  I31  1  0.68350859  0.96060752  0.29023279  1
  I  I32  1  0.69346783  0.14205345  0.52820443  1
  I  I33  1  0.69346783  0.35794655  0.02820443  1
  I  I34  1  0.86469479  0.92731317  0.62200602  1
  I  I35  1  0.86469479  0.57268683  0.12200602  1
  I  I36  1  0.99575395  0.89661873  0.93594772  1
  I  I37  1  0.00351093  0.71525110  0.71962076  1
  I  I38  1  0.99575395  0.60338127  0.43594772  1
  I  I39  1  0.00351093  0.78474890  0.21962076  1
