# generated using pymatgen
data_Ta3N5
_symmetry_space_group_name_H-M   'P 1'
_cell_length_a   3.90476732
_cell_length_b   5.52077721
_cell_length_c   10.35710603
_cell_angle_alpha   90.00000000
_cell_angle_beta   90.00000000
_cell_angle_gamma   110.71029372
_symmetry_Int_Tables_number   1
_chemical_formula_structural   Ta3N5
_chemical_formula_sum   'Ta6 N10'
_cell_volume   208.84405692
_cell_formula_units_Z   2
loop_
 _symmetry_equiv_pos_site_id
 _symmetry_equiv_pos_as_xyz
  1  'x, y, z'
loop_
 _atom_site_type_symbol
 _atom_site_label
 _atom_site_symmetry_multiplicity
 _atom_site_fract_x
 _atom_site_fract_y
 _atom_site_fract_z
 _atom_site_occupancy
  Ta  Ta0  1  0.80305046  0.60610091  0.75000000  1
  Ta  Ta1  1  0.13362840  0.26725681  0.94056969  1
  Ta  Ta2  1  0.86637160  0.73274319  0.05943031  1
  Ta  Ta3  1  0.86637160  0.73274319  0.44056969  1
  Ta  Ta4  1  0.19694954  0.39389909  0.25000000  1
  Ta  Ta5  1  0.13362840  0.26725681  0.55943031  1
  N  N6  1  0.95329899  0.90659797  0.88074644  1
  N  N7  1  0.30827380  0.61654760  0.07406945  1
  N  N8  1  0.69172620  0.38345240  0.92593055  1
  N  N9  1  0.30827380  0.61654760  0.42593055  1
  N  N10  1  0.76256354  0.52512708  0.25000000  1
  N  N11  1  0.69172620  0.38345240  0.57406945  1
  N  N12  1  0.95329899  0.90659797  0.61925356  1
  N  N13  1  0.04670101  0.09340203  0.38074644  1
  N  N14  1  0.23743646  0.47487292  0.75000000  1
  N  N15  1  0.04670101  0.09340203  0.11925356  1
