# generated using pymatgen
data_PaBr4
_symmetry_space_group_name_H-M   'P 1'
_cell_length_a   7.52414192
_cell_length_b   7.52414267
_cell_length_c   7.52414277
_cell_angle_alpha   107.25529963
_cell_angle_beta   107.25530126
_cell_angle_gamma   114.00021753
_symmetry_Int_Tables_number   1
_chemical_formula_structural   PaBr4
_chemical_formula_sum   'Pa2 Br8'
_cell_volume   326.35660562
_cell_formula_units_Z   2
loop_
 _symmetry_equiv_pos_site_id
 _symmetry_equiv_pos_as_xyz
  1  'x, y, z'
loop_
 _atom_site_type_symbol
 _atom_site_label
 _atom_site_symmetry_multiplicity
 _atom_site_fract_x
 _atom_site_fract_y
 _atom_site_fract_z
 _atom_site_occupancy
  Pa  Pa0  1  0.12500000  0.87500000  0.25000000  1
  Pa  Pa1  1  0.87500000  0.12500000  0.75000000  1
  Br  Br2  1  0.36465462  0.80342257  0.56123205  1
  Br  Br3  1  0.80342257  0.74219052  0.43876795  1
  Br  Br4  1  0.80342257  0.36465462  0.06123205  1
  Br  Br5  1  0.74219052  0.80342257  0.93876795  1
  Br  Br6  1  0.19657743  0.63534538  0.93876795  1
  Br  Br7  1  0.25780948  0.19657743  0.06123205  1
  Br  Br8  1  0.63534538  0.19657743  0.43876795  1
  Br  Br9  1  0.19657743  0.25780948  0.56123205  1
