# generated using pymatgen
data_Os(SCl6)2
_symmetry_space_group_name_H-M   'P 1'
_cell_length_a   8.44628192
_cell_length_b   8.44628192
_cell_length_c   8.44628192
_cell_angle_alpha   78.64562575
_cell_angle_beta   78.64562573
_cell_angle_gamma   78.64562574
_symmetry_Int_Tables_number   1
_chemical_formula_structural   Os(SCl6)2
_chemical_formula_sum   'Os1 S2 Cl12'
_cell_volume   571.31012735
_cell_formula_units_Z   1
loop_
 _symmetry_equiv_pos_site_id
 _symmetry_equiv_pos_as_xyz
  1  'x, y, z'
loop_
 _atom_site_type_symbol
 _atom_site_label
 _atom_site_symmetry_multiplicity
 _atom_site_fract_x
 _atom_site_fract_y
 _atom_site_fract_z
 _atom_site_occupancy
  S  S0  1  0.20866618  0.20866618  0.20866618  1
  S  S1  1  0.79133382  0.79133382  0.79133382  1
  Cl  Cl2  1  0.83558968  0.83558968  0.54055629  1
  Cl  Cl3  1  0.18191555  0.87427066  0.18191555  1
  Cl  Cl4  1  0.18191555  0.18191555  0.87427066  1
  Cl  Cl5  1  0.87427066  0.18191555  0.18191555  1
  Cl  Cl6  1  0.12572934  0.81808445  0.81808445  1
  Cl  Cl7  1  0.81808445  0.12572934  0.81808445  1
  Cl  Cl8  1  0.81808445  0.81808445  0.12572934  1
  Cl  Cl9  1  0.16441032  0.45944371  0.16441032  1
  Cl  Cl10  1  0.16441032  0.16441032  0.45944371  1
  Cl  Cl11  1  0.45944371  0.16441032  0.16441032  1
  Cl  Cl12  1  0.54055629  0.83558968  0.83558968  1
  Cl  Cl13  1  0.83558968  0.54055629  0.83558968  1
  Os  Os14  1  0.00000000  0.00000000  0.00000000  1
