# generated using pymatgen
data_Pb(IO3)2
_symmetry_space_group_name_H-M   'P 1'
_cell_length_a   5.63974329
_cell_length_b   6.17602248
_cell_length_c   17.05650427
_cell_angle_alpha   90.00000000
_cell_angle_beta   90.00000000
_cell_angle_gamma   90.00000000
_symmetry_Int_Tables_number   1
_chemical_formula_structural   Pb(IO3)2
_chemical_formula_sum   'Pb4 I8 O24'
_cell_volume   594.09819326
_cell_formula_units_Z   4
loop_
 _symmetry_equiv_pos_site_id
 _symmetry_equiv_pos_as_xyz
  1  'x, y, z'
loop_
 _atom_site_type_symbol
 _atom_site_label
 _atom_site_symmetry_multiplicity
 _atom_site_fract_x
 _atom_site_fract_y
 _atom_site_fract_z
 _atom_site_occupancy
  O  O0  1  0.59054781  0.92312694  0.38714684  1
  O  O1  1  0.59054781  0.57687306  0.61285316  1
  O  O2  1  0.90945219  0.42312694  0.11285316  1
  O  O3  1  0.90945219  0.07687306  0.88714684  1
  O  O4  1  0.40945219  0.07687306  0.61285316  1
  O  O5  1  0.40945219  0.42312694  0.38714684  1
  O  O6  1  0.09054781  0.57687306  0.88714684  1
  O  O7  1  0.09054781  0.92312694  0.11285316  1
  O  O8  1  0.00074991  0.84814454  0.29152074  1
  O  O9  1  0.00074991  0.65185546  0.70847926  1
  O  O10  1  0.49925009  0.34814454  0.20847926  1
  O  O11  1  0.49925009  0.15185546  0.79152074  1
  O  O12  1  0.39695040  0.60206723  0.06963785  1
  O  O13  1  0.39695040  0.89793277  0.93036215  1
  O  O14  1  0.10304960  0.10206723  0.43036215  1
  O  O15  1  0.10304960  0.39793277  0.56963785  1
  O  O16  1  0.60304960  0.39793277  0.93036215  1
  O  O17  1  0.60304960  0.10206723  0.06963785  1
  O  O18  1  0.89695040  0.89793277  0.56963785  1
  O  O19  1  0.89695040  0.60206723  0.43036215  1
  O  O20  1  0.50074991  0.84814454  0.20847926  1
  O  O21  1  0.50074991  0.65185546  0.79152074  1
  O  O22  1  0.99925009  0.34814454  0.29152074  1
  O  O23  1  0.99925009  0.15185546  0.70847926  1
  I  I24  1  0.75487660  0.70130926  0.33841596  1
  I  I25  1  0.75487660  0.79869074  0.66158404  1
  I  I26  1  0.74512340  0.20130926  0.16158404  1
  I  I27  1  0.74512340  0.29869074  0.83841596  1
  I  I28  1  0.24512340  0.29869074  0.66158404  1
  I  I29  1  0.24512340  0.20130926  0.33841596  1
  I  I30  1  0.25487660  0.79869074  0.83841596  1
  I  I31  1  0.25487660  0.70130926  0.16158404  1
  Pb  Pb32  1  0.76178816  0.25000000  0.50000000  1
  Pb  Pb33  1  0.73821184  0.75000000  0.00000000  1
  Pb  Pb34  1  0.23821184  0.75000000  0.50000000  1
  Pb  Pb35  1  0.26178816  0.25000000  0.00000000  1
