# generated using pymatgen
data_Sc7Cl10
_symmetry_space_group_name_H-M   'P 1'
_cell_length_a   3.55729810
_cell_length_b   10.05071403
_cell_length_c   12.66433920
_cell_angle_alpha   88.19286027
_cell_angle_beta   90.00000000
_cell_angle_gamma   100.19317086
_symmetry_Int_Tables_number   1
_chemical_formula_structural   Sc7Cl10
_chemical_formula_sum   'Sc7 Cl10'
_cell_volume   445.41762753
_cell_formula_units_Z   1
loop_
 _symmetry_equiv_pos_site_id
 _symmetry_equiv_pos_as_xyz
  1  'x, y, z'
loop_
 _atom_site_type_symbol
 _atom_site_label
 _atom_site_symmetry_multiplicity
 _atom_site_fract_x
 _atom_site_fract_y
 _atom_site_fract_z
 _atom_site_occupancy
  Cl  Cl0  1  0.10813041  0.21626082  0.87613916  1
  Cl  Cl1  1  0.89186959  0.78373918  0.12386084  1
  Cl  Cl2  1  0.77805271  0.55610542  0.84460211  1
  Cl  Cl3  1  0.22194729  0.44389458  0.15539789  1
  Cl  Cl4  1  0.44830001  0.89660002  0.88831285  1
  Cl  Cl5  1  0.55169999  0.10339998  0.11168715  1
  Cl  Cl6  1  0.89069007  0.78138014  0.63581315  1
  Cl  Cl7  1  0.40757146  0.81514292  0.39827765  1
  Cl  Cl8  1  0.59242854  0.18485708  0.60172235  1
  Cl  Cl9  1  0.10930993  0.21861986  0.36418685  1
  Sc  Sc10  1  0.18746990  0.37493981  0.53287195  1
  Sc  Sc11  1  0.81253010  0.62506019  0.46712805  1
  Sc  Sc12  1  0.30354124  0.60708247  0.69494589  1
  Sc  Sc13  1  0.69645876  0.39291753  0.30505411  1
  Sc  Sc14  1  0.66782964  0.33565927  0.75119803  1
  Sc  Sc15  1  0.33217036  0.66434073  0.24880197  1
  Sc  Sc16  1  0.00000000  0.00000000  0.00000000  1
