# generated using pymatgen
data_LiUF5
_symmetry_space_group_name_H-M   'P 1'
_cell_length_a   6.62461140
_cell_length_b   11.09752813
_cell_length_c   11.09752813
_cell_angle_alpha   84.88898593
_cell_angle_beta   72.63412585
_cell_angle_gamma   72.63412582
_symmetry_Int_Tables_number   1
_chemical_formula_structural   LiUF5
_chemical_formula_sum   'Li8 U8 F40'
_cell_volume   743.17382575
_cell_formula_units_Z   8
loop_
 _symmetry_equiv_pos_site_id
 _symmetry_equiv_pos_as_xyz
  1  'x, y, z'
loop_
 _atom_site_type_symbol
 _atom_site_label
 _atom_site_symmetry_multiplicity
 _atom_site_fract_x
 _atom_site_fract_y
 _atom_site_fract_z
 _atom_site_occupancy
  Li  Li0  1  0.30000818  0.59657422  0.26401455  1
  Li  Li1  1  0.56402273  0.23598545  0.59657422  1
  Li  Li2  1  0.39658240  0.26401455  0.90342578  1
  Li  Li3  1  0.16059695  0.90342578  0.23598545  1
  Li  Li4  1  0.69999182  0.40342578  0.73598545  1
  Li  Li5  1  0.43597727  0.76401455  0.40342578  1
  Li  Li6  1  0.60341760  0.73598545  0.09657422  1
  Li  Li7  1  0.83940305  0.09657422  0.76401455  1
  F  F8  1  0.90595108  0.01613836  0.91342361  1
  F  F9  1  0.81937469  0.58657639  0.01613836  1
  F  F10  1  0.42208944  0.91342361  0.48386164  1
  F  F11  1  0.83551304  0.48386164  0.58657639  1
  F  F12  1  0.09404892  0.98386164  0.08657639  1
  F  F13  1  0.18062531  0.41342361  0.98386164  1
  F  F14  1  0.57791056  0.08657639  0.51613836  1
  F  F15  1  0.16448696  0.51613836  0.41342361  1
  F  F16  1  0.95644801  0.96562218  0.61601051  1
  F  F17  1  0.57245852  0.88398949  0.96562218  1
  F  F18  1  0.42207020  0.61601051  0.53437782  1
  F  F19  1  0.53808071  0.53437782  0.88398949  1
  F  F20  1  0.04355199  0.03437782  0.38398949  1
  F  F21  1  0.42754148  0.11601051  0.03437782  1
  F  F22  1  0.57792980  0.38398949  0.46562218  1
  F  F23  1  0.46191929  0.46562218  0.11601051  1
  F  F24  1  0.18158947  0.07370255  0.70906803  1
  F  F25  1  0.89065750  0.79093197  0.07370255  1
  F  F26  1  0.75529202  0.70906803  0.42629745  1
  F  F27  1  0.96436005  0.42629745  0.79093197  1
  F  F28  1  0.81841053  0.92629745  0.29093197  1
  F  F29  1  0.10934250  0.20906803  0.92629745  1
  F  F30  1  0.24470798  0.29093197  0.57370255  1
  F  F31  1  0.03563995  0.57370255  0.20906803  1
  F  F32  1  0.56563968  0.88735286  0.70117027  1
  F  F33  1  0.26680995  0.79882973  0.88735286  1
  F  F34  1  0.95299254  0.70117027  0.61264714  1
  F  F35  1  0.15416281  0.61264714  0.79882973  1
  F  F36  1  0.43436032  0.11264714  0.29882973  1
  F  F37  1  0.73319005  0.20117027  0.11264714  1
  F  F38  1  0.04700746  0.29882973  0.38735286  1
  F  F39  1  0.84583719  0.38735286  0.20117027  1
  F  F40  1  0.52727520  0.11817202  0.78486867  1
  F  F41  1  0.31214387  0.71513133  0.11817202  1
  F  F42  1  0.14544722  0.78486867  0.38182798  1
  F  F43  1  0.43031589  0.38182798  0.71513133  1
  F  F44  1  0.47272480  0.88182798  0.21513133  1
  F  F45  1  0.68785613  0.28486867  0.88182798  1
  F  F46  1  0.85455278  0.21513133  0.61817202  1
  F  F47  1  0.56968411  0.61817202  0.28486867  1
  U  U48  1  0.81651083  0.49355497  0.38166951  1
  U  U49  1  0.19818034  0.11833049  0.49355497  1
  U  U50  1  0.81006580  0.38166951  0.00644503  1
  U  U51  1  0.69173531  0.00644503  0.11833049  1
  U  U52  1  0.18348917  0.50644503  0.61833049  1
  U  U53  1  0.80181966  0.88166951  0.50644503  1
  U  U54  1  0.18993420  0.61833049  0.99355497  1
  U  U55  1  0.30826469  0.99355497  0.88166951  1
