# generated using pymatgen
data_NbSbF10
_symmetry_space_group_name_H-M   'P 1'
_cell_length_a   5.79337689
_cell_length_b   7.55326435
_cell_length_c   9.90290248
_cell_angle_alpha   87.66611142
_cell_angle_beta   73.69891775
_cell_angle_gamma   80.59381502
_symmetry_Int_Tables_number   1
_chemical_formula_structural   NbSbF10
_chemical_formula_sum   'Nb2 Sb2 F20'
_cell_volume   410.32159999
_cell_formula_units_Z   2
loop_
 _symmetry_equiv_pos_site_id
 _symmetry_equiv_pos_as_xyz
  1  'x, y, z'
loop_
 _atom_site_type_symbol
 _atom_site_label
 _atom_site_symmetry_multiplicity
 _atom_site_fract_x
 _atom_site_fract_y
 _atom_site_fract_z
 _atom_site_occupancy
  F  F0  1  0.02649461  0.75131885  0.83208874  1
  F  F1  1  0.97350539  0.24868115  0.16791126  1
  F  F2  1  0.49740289  0.77896553  0.84196412  1
  F  F3  1  0.50259711  0.22103447  0.15803588  1
  F  F4  1  0.11454353  0.77410930  0.11597820  1
  F  F5  1  0.88545647  0.22589070  0.88402180  1
  F  F6  1  0.96047769  0.71081491  0.50866334  1
  F  F7  1  0.03952231  0.28918509  0.49133666  1
  F  F8  1  0.76127063  0.94726281  0.33649534  1
  F  F9  1  0.23872937  0.05273719  0.66350466  1
  F  F10  1  0.25823219  0.91681107  0.32519455  1
  F  F11  1  0.74176781  0.08318893  0.67480545  1
  F  F12  1  0.30650162  0.55446159  0.28825814  1
  F  F13  1  0.69349838  0.44553841  0.71174186  1
  F  F14  1  0.82974597  0.58085510  0.30070044  1
  F  F15  1  0.17025403  0.41914490  0.69929956  1
  F  F16  1  0.69117225  0.54976747  0.07510643  1
  F  F17  1  0.30882775  0.45023253  0.92489357  1
  F  F18  1  0.57133974  0.33507579  0.41438007  1
  F  F19  1  0.42866026  0.66492421  0.58561993  1
  Nb  Nb20  1  0.33785039  0.62063435  0.77925334  1
  Nb  Nb21  1  0.66214961  0.37936565  0.22074666  1
  Sb  Sb22  1  0.96480581  0.23447089  0.68498931  1
  Sb  Sb23  1  0.03519419  0.76552911  0.31501069  1
