# generated using pymatgen
data_KSnF3
_symmetry_space_group_name_H-M   'P 1'
_cell_length_a   8.22964687
_cell_length_b   10.20420187
_cell_length_c   10.50167557
_cell_angle_alpha   79.88334348
_cell_angle_beta   72.31119116
_cell_angle_gamma   74.39245754
_symmetry_Int_Tables_number   1
_chemical_formula_structural   KSnF3
_chemical_formula_sum   'K8 Sn8 F24'
_cell_volume   804.97422267
_cell_formula_units_Z   8
loop_
 _symmetry_equiv_pos_site_id
 _symmetry_equiv_pos_as_xyz
  1  'x, y, z'
loop_
 _atom_site_type_symbol
 _atom_site_label
 _atom_site_symmetry_multiplicity
 _atom_site_fract_x
 _atom_site_fract_y
 _atom_site_fract_z
 _atom_site_occupancy
  F  F0  1  0.38383895  0.69229469  0.32790534  1
  F  F1  1  0.61616105  0.30770531  0.67209466  1
  F  F2  1  0.56674089  0.82442625  0.06974018  1
  F  F3  1  0.43325911  0.17557375  0.93025982  1
  F  F4  1  0.93908773  0.85535154  0.15500655  1
  F  F5  1  0.06091227  0.14464846  0.84499345  1
  F  F6  1  0.05446091  0.59673471  0.32568306  1
  F  F7  1  0.94553909  0.40326529  0.67431694  1
  F  F8  1  0.74435183  0.64380852  0.24669049  1
  F  F9  1  0.25564817  0.35619148  0.75330951  1
  F  F10  1  0.28450699  0.70790922  0.08911350  1
  F  F11  1  0.71549301  0.29209078  0.91088650  1
  F  F12  1  0.21953076  0.05725959  0.25517474  1
  F  F13  1  0.78046924  0.94274041  0.74482526  1
  F  F14  1  0.25654296  0.22313193  0.45577792  1
  F  F15  1  0.74345704  0.77686807  0.54422208  1
  F  F16  1  0.05066653  0.70631806  0.64694563  1
  F  F17  1  0.94933347  0.29368194  0.35305437  1
  F  F18  1  0.45391303  0.87262578  0.76593632  1
  F  F19  1  0.54608697  0.12737422  0.23406368  1
  F  F20  1  0.23379911  0.92338282  0.57178677  1
  F  F21  1  0.76620089  0.07661718  0.42821323  1
  F  F22  1  0.41938033  0.63764970  0.63391581  1
  F  F23  1  0.58061967  0.36235030  0.36608419  1
  K  K24  1  0.54259097  0.87630406  0.36794510  1
  K  K25  1  0.45740903  0.12369594  0.63205490  1
  K  K26  1  0.05024708  0.84942238  0.39430693  1
  K  K27  1  0.94975292  0.15057762  0.60569307  1
  K  K28  1  0.74747135  0.50993631  0.49055982  1
  K  K29  1  0.25252865  0.49006369  0.50944018  1
  K  K30  1  0.73697862  0.02520009  0.99039502  1
  K  K31  1  0.26302138  0.97479991  0.00960498  1
  Sn  Sn32  1  0.54085107  0.62389762  0.14476535  1
  Sn  Sn33  1  0.45914893  0.37610238  0.85523465  1
  Sn  Sn34  1  0.02817349  0.64460528  0.13074529  1
  Sn  Sn35  1  0.97182651  0.35539472  0.86925471  1
  Sn  Sn36  1  0.27431887  0.24663012  0.25170074  1
  Sn  Sn37  1  0.72568113  0.75336988  0.74829926  1
  Sn  Sn38  1  0.78698080  0.22106845  0.26128764  1
  Sn  Sn39  1  0.21301920  0.77893155  0.73871236  1
