# generated using pymatgen
data_Ag5BiO4
_symmetry_space_group_name_H-M   'P 1'
_cell_length_a   6.03921563
_cell_length_b   9.01400124
_cell_length_c   12.74873753
_cell_angle_alpha   90.00000000
_cell_angle_beta   91.10401204
_cell_angle_gamma   90.00000000
_symmetry_Int_Tables_number   1
_chemical_formula_structural   Ag5BiO4
_chemical_formula_sum   'Ag20 Bi4 O16'
_cell_volume   693.88053140
_cell_formula_units_Z   4
loop_
 _symmetry_equiv_pos_site_id
 _symmetry_equiv_pos_as_xyz
  1  'x, y, z'
loop_
 _atom_site_type_symbol
 _atom_site_label
 _atom_site_symmetry_multiplicity
 _atom_site_fract_x
 _atom_site_fract_y
 _atom_site_fract_z
 _atom_site_occupancy
  O  O0  1  0.09739263  0.36232600  0.12838710  1
  O  O1  1  0.40260737  0.86232600  0.37161290  1
  O  O2  1  0.90260737  0.63767400  0.87161290  1
  O  O3  1  0.59739263  0.13767400  0.62838710  1
  O  O4  1  0.99762924  0.90492460  0.69507978  1
  O  O5  1  0.50237076  0.40492460  0.80492022  1
  O  O6  1  0.00890469  0.13572613  0.93980868  1
  O  O7  1  0.49109531  0.63572613  0.56019132  1
  O  O8  1  0.99109531  0.86427387  0.06019132  1
  O  O9  1  0.50890469  0.36427387  0.43980868  1
  O  O10  1  0.66398886  0.13516656  0.12081291  1
  O  O11  1  0.83601114  0.63516656  0.37918709  1
  O  O12  1  0.33601114  0.86483344  0.87918709  1
  O  O13  1  0.16398886  0.36483344  0.62081291  1
  O  O14  1  0.00237076  0.09507540  0.30492022  1
  O  O15  1  0.49762924  0.59507540  0.19507978  1
  Ag  Ag16  1  0.24698724  0.72959816  0.12486111  1
  Ag  Ag17  1  0.74698724  0.77040184  0.62486111  1
  Ag  Ag18  1  0.00000000  0.50000000  0.00000000  1
  Ag  Ag19  1  0.50000000  0.00000000  0.50000000  1
  Ag  Ag20  1  0.02993870  0.13864286  0.64721358  1
  Ag  Ag21  1  0.47006130  0.63864286  0.85278642  1
  Ag  Ag22  1  0.97006130  0.86135714  0.35278642  1
  Ag  Ag23  1  0.52993870  0.36135714  0.14721358  1
  Ag  Ag24  1  0.53152718  0.99234190  0.24607160  1
  Ag  Ag25  1  0.96847282  0.49234190  0.25392840  1
  Ag  Ag26  1  0.46847282  0.00765810  0.75392840  1
  Ag  Ag27  1  0.03152718  0.50765810  0.74607160  1
  Ag  Ag28  1  0.50000000  0.00000000  0.00000000  1
  Ag  Ag29  1  0.00000000  0.50000000  0.50000000  1
  Ag  Ag30  1  0.25942692  0.26801142  0.87429192  1
  Ag  Ag31  1  0.24057308  0.76801142  0.62570808  1
  Ag  Ag32  1  0.74057308  0.73198858  0.12570808  1
  Ag  Ag33  1  0.75942692  0.23198858  0.37429192  1
  Ag  Ag34  1  0.75301276  0.27040184  0.87513889  1
  Ag  Ag35  1  0.25301276  0.22959816  0.37513889  1
  Bi  Bi36  1  0.52775949  0.37928529  0.62228233  1
  Bi  Bi37  1  0.97224051  0.87928529  0.87771767  1
  Bi  Bi38  1  0.47224051  0.62071471  0.37771767  1
  Bi  Bi39  1  0.02775949  0.12071471  0.12228233  1
