# generated using pymatgen
data_Tl2Pt5S6
_symmetry_space_group_name_H-M   'P 1'
_cell_length_a   7.09245766
_cell_length_b   7.04392253
_cell_length_c   11.32950269
_cell_angle_alpha   97.80537219
_cell_angle_beta   90.00000000
_cell_angle_gamma   90.00000000
_symmetry_Int_Tables_number   1
_chemical_formula_structural   Tl2Pt5S6
_chemical_formula_sum   'Tl4 Pt10 S12'
_cell_volume   560.76348217
_cell_formula_units_Z   2
loop_
 _symmetry_equiv_pos_site_id
 _symmetry_equiv_pos_as_xyz
  1  'x, y, z'
loop_
 _atom_site_type_symbol
 _atom_site_label
 _atom_site_symmetry_multiplicity
 _atom_site_fract_x
 _atom_site_fract_y
 _atom_site_fract_z
 _atom_site_occupancy
  S  S0  1  0.84139450  0.26468908  0.11341824  1
  S  S1  1  0.34139450  0.23531092  0.38658176  1
  S  S2  1  0.15860550  0.73531092  0.88658176  1
  S  S3  1  0.65860550  0.76468908  0.61341824  1
  S  S4  1  0.93599877  0.06482971  0.80694942  1
  S  S5  1  0.43599877  0.43517029  0.69305058  1
  S  S6  1  0.05877806  0.59311892  0.33485571  1
  S  S7  1  0.55877806  0.90688108  0.16514429  1
  S  S8  1  0.94122194  0.40688108  0.66514429  1
  S  S9  1  0.44122194  0.09311892  0.83485571  1
  S  S10  1  0.56400123  0.56482971  0.30694942  1
  S  S11  1  0.06400123  0.93517029  0.19305058  1
  Pt  Pt12  1  0.31113998  0.74470641  0.24487865  1
  Pt  Pt13  1  0.81113998  0.75529359  0.25512135  1
  Pt  Pt14  1  0.07198434  0.26755886  0.26713441  1
  Pt  Pt15  1  0.57198434  0.23244114  0.23286559  1
  Pt  Pt16  1  0.92801566  0.73244114  0.73286559  1
  Pt  Pt17  1  0.42801566  0.76755886  0.76713441  1
  Pt  Pt18  1  0.00000000  0.00000000  0.00000000  1
  Pt  Pt19  1  0.50000000  0.50000000  0.50000000  1
  Pt  Pt20  1  0.68886002  0.25529359  0.75512135  1
  Pt  Pt21  1  0.18886002  0.24470641  0.74487865  1
  Tl  Tl22  1  0.78735609  0.11566034  0.45446264  1
  Tl  Tl23  1  0.28735609  0.38433966  0.04553736  1
  Tl  Tl24  1  0.21264391  0.88433966  0.54553736  1
  Tl  Tl25  1  0.71264391  0.61566034  0.95446264  1
