# generated using pymatgen
data_TlReO4
_symmetry_space_group_name_H-M   'P 1'
_cell_length_a   5.83672087
_cell_length_b   13.58042962
_cell_length_c   17.83026604
_cell_angle_alpha   90.00000000
_cell_angle_beta   90.60464442
_cell_angle_gamma   90.00000000
_symmetry_Int_Tables_number   1
_chemical_formula_structural   TlReO4
_chemical_formula_sum   'Tl12 Re12 O48'
_cell_volume   1413.24049681
_cell_formula_units_Z   12
loop_
 _symmetry_equiv_pos_site_id
 _symmetry_equiv_pos_as_xyz
  1  'x, y, z'
loop_
 _atom_site_type_symbol
 _atom_site_label
 _atom_site_symmetry_multiplicity
 _atom_site_fract_x
 _atom_site_fract_y
 _atom_site_fract_z
 _atom_site_occupancy
  O  O0  1  0.44063417  0.80990617  0.50805921  1
  O  O1  1  0.05936583  0.30990617  0.49194079  1
  O  O2  1  0.55936583  0.19009383  0.49194079  1
  O  O3  1  0.94063417  0.69009383  0.50805921  1
  O  O4  1  0.48371993  0.82319819  0.66849011  1
  O  O5  1  0.01628007  0.32319819  0.33150989  1
  O  O6  1  0.51628007  0.17680181  0.33150989  1
  O  O7  1  0.98371993  0.67680181  0.66849011  1
  O  O8  1  0.36804450  0.99348621  0.58176206  1
  O  O9  1  0.13195550  0.49348621  0.41823794  1
  O  O10  1  0.63195550  0.00651379  0.41823794  1
  O  O11  1  0.86804450  0.50651379  0.58176206  1
  O  O12  1  0.82372729  0.91221470  0.57548523  1
  O  O13  1  0.67627271  0.41221470  0.42451477  1
  O  O14  1  0.17627271  0.08778530  0.42451477  1
  O  O15  1  0.32372729  0.58778530  0.57548523  1
  O  O16  1  0.86937360  0.70193555  0.84822564  1
  O  O17  1  0.21788593  0.45054253  0.04535370  1
  O  O18  1  0.63062640  0.20193555  0.15177436  1
  O  O19  1  0.36937360  0.79806445  0.84822564  1
  O  O20  1  0.21281153  0.55539330  0.87671497  1
  O  O21  1  0.28718847  0.05539330  0.12328503  1
  O  O22  1  0.78718847  0.44460670  0.12328503  1
  O  O23  1  0.71281153  0.94460670  0.87671497  1
  O  O24  1  0.37000763  0.20107126  0.68002597  1
  O  O25  1  0.12999237  0.70107126  0.31997403  1
  O  O26  1  0.62999237  0.79892874  0.31997403  1
  O  O27  1  0.87000763  0.29892874  0.68002597  1
  O  O28  1  0.27115372  0.04150402  0.77888856  1
  O  O29  1  0.22884628  0.54150402  0.22111144  1
  O  O30  1  0.72884628  0.95849598  0.22111144  1
  O  O31  1  0.77115372  0.45849598  0.77888856  1
  O  O32  1  0.57951119  0.19319321  0.82696322  1
  O  O33  1  0.92048881  0.69319321  0.17303678  1
  O  O34  1  0.42048881  0.80680679  0.17303678  1
  O  O35  1  0.07951119  0.30680679  0.82696322  1
  O  O36  1  0.71890114  0.05774898  0.71311472  1
  O  O37  1  0.78109886  0.55774898  0.28688528  1
  O  O38  1  0.28109886  0.94225102  0.28688528  1
  O  O39  1  0.21890114  0.44225102  0.71311472  1
  O  O40  1  0.61267800  0.80178974  0.99009345  1
  O  O41  1  0.88732200  0.30178974  0.00990655  1
  O  O42  1  0.38732200  0.19821026  0.00990655  1
  O  O43  1  0.11267800  0.69821026  0.99009345  1
  O  O44  1  0.71788593  0.04945747  0.04535370  1
  O  O45  1  0.78211407  0.54945747  0.95464630  1
  O  O46  1  0.28211407  0.95054253  0.95464630  1
  O  O47  1  0.13062640  0.29806445  0.15177436  1
  Re  Re48  1  0.47004174  0.11517065  0.41679677  1
  Re  Re49  1  0.02995826  0.61517065  0.58320323  1
  Re  Re50  1  0.52995826  0.88482935  0.58320323  1
  Re  Re51  1  0.97004174  0.38482935  0.41679677  1
  Re  Re52  1  0.50513348  0.12637499  0.08264574  1
  Re  Re53  1  0.99486652  0.62637499  0.91735426  1
  Re  Re54  1  0.49486652  0.87362501  0.91735426  1
  Re  Re55  1  0.00513348  0.37362501  0.08264574  1
  Re  Re56  1  0.48573192  0.12338451  0.74944433  1
  Re  Re57  1  0.01426808  0.62338451  0.25055567  1
  Re  Re58  1  0.51426808  0.87661549  0.25055567  1
  Re  Re59  1  0.98573192  0.37661549  0.74944433  1
  Tl  Tl60  1  0.47925054  0.37086759  0.57993962  1
  Tl  Tl61  1  0.02074946  0.87086759  0.42006038  1
  Tl  Tl62  1  0.52074946  0.62913241  0.42006038  1
  Tl  Tl63  1  0.97925054  0.12913241  0.57993962  1
  Tl  Tl64  1  0.50774468  0.37000356  0.25244040  1
  Tl  Tl65  1  0.99225532  0.87000356  0.74755960  1
  Tl  Tl66  1  0.49225532  0.62999644  0.74755960  1
  Tl  Tl67  1  0.00774468  0.12999644  0.25244040  1
  Tl  Tl68  1  0.49231521  0.37587119  0.91469924  1
  Tl  Tl69  1  0.00768479  0.87587119  0.08530076  1
  Tl  Tl70  1  0.50768479  0.62412881  0.08530076  1
  Tl  Tl71  1  0.99231521  0.12412881  0.91469924  1
