# generated using pymatgen
data_SnClF
_symmetry_space_group_name_H-M   'P 1'
_cell_length_a   4.40368141
_cell_length_b   6.33017039
_cell_length_c   10.53781239
_cell_angle_alpha   90.00000000
_cell_angle_beta   90.00000000
_cell_angle_gamma   90.00000000
_symmetry_Int_Tables_number   1
_chemical_formula_structural   SnClF
_chemical_formula_sum   'Sn4 Cl4 F4'
_cell_volume   293.75262373
_cell_formula_units_Z   4
loop_
 _symmetry_equiv_pos_site_id
 _symmetry_equiv_pos_as_xyz
  1  'x, y, z'
loop_
 _atom_site_type_symbol
 _atom_site_label
 _atom_site_symmetry_multiplicity
 _atom_site_fract_x
 _atom_site_fract_y
 _atom_site_fract_z
 _atom_site_occupancy
  F  F0  1  0.25000000  0.89759475  0.97826937  1
  F  F1  1  0.75000000  0.10240525  0.02173063  1
  F  F2  1  0.25000000  0.39759475  0.52173063  1
  F  F3  1  0.75000000  0.60240525  0.47826937  1
  Cl  Cl4  1  0.75000000  0.59782001  0.13626701  1
  Cl  Cl5  1  0.25000000  0.40217999  0.86373299  1
  Cl  Cl6  1  0.75000000  0.09782001  0.36373299  1
  Cl  Cl7  1  0.25000000  0.90217999  0.63626701  1
  Sn  Sn8  1  0.25000000  0.71678111  0.42102302  1
  Sn  Sn9  1  0.75000000  0.28321889  0.57897698  1
  Sn  Sn10  1  0.25000000  0.21678111  0.07897698  1
  Sn  Sn11  1  0.75000000  0.78321889  0.92102302  1
