# generated using pymatgen
data_Ca3Pb3I14
_symmetry_space_group_name_H-M   'P 1'
_cell_length_a   17.06702120
_cell_length_b   4.45540836
_cell_length_c   24.50842119
_cell_angle_alpha   90.00000000
_cell_angle_beta   104.13143325
_cell_angle_gamma   90.00000000
_symmetry_Int_Tables_number   1
_chemical_formula_structural   Ca3Pb3I14
_chemical_formula_sum   'Ca6 Pb6 I28'
_cell_volume   1807.23692261
_cell_formula_units_Z   2
loop_
 _symmetry_equiv_pos_site_id
 _symmetry_equiv_pos_as_xyz
  1  'x, y, z'
loop_
 _atom_site_type_symbol
 _atom_site_label
 _atom_site_symmetry_multiplicity
 _atom_site_fract_x
 _atom_site_fract_y
 _atom_site_fract_z
 _atom_site_occupancy
  Ca  Ca0  1  0.23925206  0.25000000  0.98003285  1
  Ca  Ca1  1  0.12326894  0.75000000  0.36435041  1
  Ca  Ca2  1  0.46384756  0.75000000  0.70966177  1
  Ca  Ca3  1  0.53615244  0.25000000  0.29033823  1
  Ca  Ca4  1  0.87673106  0.25000000  0.63564959  1
  Ca  Ca5  1  0.76074794  0.75000000  0.01996715  1
  Pb  Pb6  1  0.05963410  0.75000000  0.80166120  1
  Pb  Pb7  1  0.30852682  0.25000000  0.53690106  1
  Pb  Pb8  1  0.60103392  0.25000000  0.86635875  1
  Pb  Pb9  1  0.39896608  0.75000000  0.13364125  1
  Pb  Pb10  1  0.69147318  0.75000000  0.46309894  1
  Pb  Pb11  1  0.94036590  0.25000000  0.19833880  1
  I  I12  1  0.10743762  0.75000000  0.97467936  1
  I  I13  1  0.05954332  0.25000000  0.69969692  1
  I  I14  1  0.21027793  0.25000000  0.84939705  1
  I  I15  1  0.08017624  0.25000000  0.44492890  1
  I  I16  1  0.19098310  0.75000000  0.57594950  1
  I  I17  1  0.03976060  0.75000000  0.14436177  1
  I  I18  1  0.15609788  0.25000000  0.28170748  1
  I  I19  1  0.32962016  0.25000000  0.69350704  1
  I  I20  1  0.45701501  0.75000000  0.83829832  1
  I  I21  1  0.30265424  0.75000000  0.43362392  1
  I  I22  1  0.25627200  0.25000000  0.11251733  1
  I  I23  1  0.45582935  0.75000000  0.58165367  1
  I  I24  1  0.62330963  0.25000000  0.00242799  1
  I  I25  1  0.40064511  0.75000000  0.26705011  1
  I  I26  1  0.59935489  0.25000000  0.73294989  1
  I  I27  1  0.37669037  0.75000000  0.99757201  1
  I  I28  1  0.54417065  0.25000000  0.41834633  1
  I  I29  1  0.74372800  0.75000000  0.88748267  1
  I  I30  1  0.69734576  0.25000000  0.56637608  1
  I  I31  1  0.54298499  0.25000000  0.16170168  1
  I  I32  1  0.67037984  0.75000000  0.30649296  1
  I  I33  1  0.84390212  0.75000000  0.71829252  1
  I  I34  1  0.96023940  0.25000000  0.85563823  1
  I  I35  1  0.80901690  0.25000000  0.42405050  1
  I  I36  1  0.91982376  0.75000000  0.55507110  1
  I  I37  1  0.78972207  0.75000000  0.15060295  1
  I  I38  1  0.94045668  0.75000000  0.30030308  1
  I  I39  1  0.89256238  0.25000000  0.02532064  1
