# generated using pymatgen
data_As3(HO2)5
_symmetry_space_group_name_H-M   'P 1'
_cell_length_a   4.79491147
_cell_length_b   5.83536210
_cell_length_c   7.47170611
_cell_angle_alpha   100.63366412
_cell_angle_beta   94.89088214
_cell_angle_gamma   101.09916862
_symmetry_Int_Tables_number   1
_chemical_formula_structural   As3(HO2)5
_chemical_formula_sum   'As3 H5 O10'
_cell_volume   200.03797092
_cell_formula_units_Z   1
loop_
 _symmetry_equiv_pos_site_id
 _symmetry_equiv_pos_as_xyz
  1  'x, y, z'
loop_
 _atom_site_type_symbol
 _atom_site_label
 _atom_site_symmetry_multiplicity
 _atom_site_fract_x
 _atom_site_fract_y
 _atom_site_fract_z
 _atom_site_occupancy
  H  H0  1  0.80034739  0.85166603  0.10657464  1
  H  H1  1  0.19965261  0.14833397  0.89342536  1
  H  H2  1  0.00000000  0.50000000  0.00000000  1
  H  H3  1  0.47212897  0.80366159  0.33924983  1
  H  H4  1  0.52787103  0.19633841  0.66075017  1
  O  O5  1  0.02656532  0.30797626  0.03097924  1
  O  O6  1  0.70341706  0.96174553  0.18967211  1
  O  O7  1  0.29658294  0.03825447  0.81032789  1
  O  O8  1  0.68805648  0.44518530  0.28699930  1
  O  O9  1  0.81130141  0.75769550  0.60570304  1
  O  O10  1  0.18869859  0.24230450  0.39429696  1
  O  O11  1  0.66645647  0.29533491  0.59979939  1
  O  O12  1  0.33354353  0.70466509  0.40020061  1
  O  O13  1  0.31194352  0.55481470  0.71300070  1
  O  O14  1  0.97343468  0.69202374  0.96902076  1
  As  As15  1  0.50000000  0.50000000  0.50000000  1
  As  As16  1  0.91232326  0.25175215  0.23289259  1
  As  As17  1  0.08767674  0.74824785  0.76710741  1
