# generated using pymatgen
data_Ba4P3
_symmetry_space_group_name_H-M   'P 1'
_cell_length_a   11.37622586
_cell_length_b   12.70053805
_cell_length_c   13.49774575
_cell_angle_alpha   90.00000000
_cell_angle_beta   90.00000000
_cell_angle_gamma   90.00000000
_symmetry_Int_Tables_number   1
_chemical_formula_structural   Ba4P3
_chemical_formula_sum   'Ba32 P24'
_cell_volume   1950.21085342
_cell_formula_units_Z   8
loop_
 _symmetry_equiv_pos_site_id
 _symmetry_equiv_pos_as_xyz
  1  'x, y, z'
loop_
 _atom_site_type_symbol
 _atom_site_label
 _atom_site_symmetry_multiplicity
 _atom_site_fract_x
 _atom_site_fract_y
 _atom_site_fract_z
 _atom_site_occupancy
  P  P0  1  0.00000000  0.64001935  0.36467175  1
  P  P1  1  0.00000000  0.35998065  0.63532825  1
  P  P2  1  0.00000000  0.14001935  0.13532825  1
  P  P3  1  0.00000000  0.85998065  0.86467175  1
  P  P4  1  0.50000000  0.03412667  0.42243020  1
  P  P5  1  0.50000000  0.96587333  0.57756980  1
  P  P6  1  0.50000000  0.53412667  0.07756980  1
  P  P7  1  0.50000000  0.46587333  0.92243020  1
  P  P8  1  0.23613771  0.33766853  0.32099380  1
  P  P9  1  0.23613771  0.66233147  0.67900620  1
  P  P10  1  0.76386229  0.83766853  0.17900620  1
  P  P11  1  0.76386229  0.16233147  0.82099380  1
  P  P12  1  0.76386229  0.66233147  0.67900620  1
  P  P13  1  0.76386229  0.33766853  0.32099380  1
  P  P14  1  0.23613771  0.16233147  0.82099380  1
  P  P15  1  0.23613771  0.83766853  0.17900620  1
  P  P16  1  0.50000000  0.63868749  0.38699370  1
  P  P17  1  0.50000000  0.36131251  0.61300630  1
  P  P18  1  0.50000000  0.13868749  0.11300630  1
  P  P19  1  0.50000000  0.86131251  0.88699370  1
  P  P20  1  0.89915858  0.00000000  0.50000000  1
  P  P21  1  0.10084142  0.50000000  0.00000000  1
  P  P22  1  0.10084142  0.00000000  0.50000000  1
  P  P23  1  0.89915858  0.50000000  0.00000000  1
  Ba  Ba24  1  0.50000000  0.12014035  0.87515658  1
  Ba  Ba25  1  0.50000000  0.87985965  0.12484342  1
  Ba  Ba26  1  0.50000000  0.62014035  0.62484342  1
  Ba  Ba27  1  0.50000000  0.37985965  0.37515658  1
  Ba  Ba28  1  0.82002540  0.00000000  0.00000000  1
  Ba  Ba29  1  0.17997460  0.50000000  0.50000000  1
  Ba  Ba30  1  0.17997460  0.00000000  0.00000000  1
  Ba  Ba31  1  0.82002540  0.50000000  0.50000000  1
  Ba  Ba32  1  0.68081356  0.16913071  0.56800568  1
  Ba  Ba33  1  0.68081356  0.83086929  0.43199432  1
  Ba  Ba34  1  0.31918644  0.66913071  0.93199432  1
  Ba  Ba35  1  0.31918644  0.33086929  0.06800568  1
  Ba  Ba36  1  0.31918644  0.83086929  0.43199432  1
  Ba  Ba37  1  0.31918644  0.16913071  0.56800568  1
  Ba  Ba38  1  0.68081356  0.33086929  0.06800568  1
  Ba  Ba39  1  0.68081356  0.66913071  0.93199432  1
  Ba  Ba40  1  0.00000000  0.72541320  0.08017460  1
  Ba  Ba41  1  0.00000000  0.27458680  0.91982540  1
  Ba  Ba42  1  0.00000000  0.22541320  0.41982540  1
  Ba  Ba43  1  0.00000000  0.77458680  0.58017460  1
  Ba  Ba44  1  0.71590649  0.90057014  0.73665967  1
  Ba  Ba45  1  0.71590649  0.09942986  0.26334033  1
  Ba  Ba46  1  0.28409351  0.40057014  0.76334033  1
  Ba  Ba47  1  0.28409351  0.59942986  0.23665967  1
  Ba  Ba48  1  0.28409351  0.09942986  0.26334033  1
  Ba  Ba49  1  0.28409351  0.90057014  0.73665967  1
  Ba  Ba50  1  0.71590649  0.59942986  0.23665967  1
  Ba  Ba51  1  0.71590649  0.40057014  0.76334033  1
  Ba  Ba52  1  0.00000000  0.89254194  0.29479693  1
  Ba  Ba53  1  0.00000000  0.10745806  0.70520307  1
  Ba  Ba54  1  0.00000000  0.39254194  0.20520307  1
  Ba  Ba55  1  0.00000000  0.60745806  0.79479693  1
