# generated using pymatgen
data_Y6IrI10
_symmetry_space_group_name_H-M   'P 1'
_cell_length_a   7.75711388
_cell_length_b   9.71145592
_cell_length_c   9.81724805
_cell_angle_alpha   107.27482895
_cell_angle_beta   96.92377660
_cell_angle_gamma   104.53352071
_symmetry_Int_Tables_number   1
_chemical_formula_structural   Y6IrI10
_chemical_formula_sum   'Y6 Ir1 I10'
_cell_volume   668.20711829
_cell_formula_units_Z   1
loop_
 _symmetry_equiv_pos_site_id
 _symmetry_equiv_pos_as_xyz
  1  'x, y, z'
loop_
 _atom_site_type_symbol
 _atom_site_label
 _atom_site_symmetry_multiplicity
 _atom_site_fract_x
 _atom_site_fract_y
 _atom_site_fract_z
 _atom_site_occupancy
  Y  Y0  1  0.11511111  0.04241737  0.75762094  1
  Y  Y1  1  0.88488889  0.95758263  0.24237906  1
  Y  Y2  1  0.96962527  0.27937191  0.08251253  1
  Y  Y3  1  0.03037473  0.72062809  0.91748747  1
  Y  Y4  1  0.35096826  0.12583555  0.16729045  1
  Y  Y5  1  0.64903174  0.87416445  0.83270955  1
  I  I6  1  0.35065291  0.45158735  0.27243280  1
  I  I7  1  0.64934709  0.54841265  0.72756720  1
  I  I8  1  0.25886576  0.08808342  0.46275154  1
  I  I9  1  0.74113424  0.91191658  0.53724846  1
  I  I10  1  0.08562029  0.37222340  0.82144274  1
  I  I11  1  0.91437971  0.62777660  0.17855726  1
  I  I12  1  0.45305013  0.81548413  0.09080331  1
  I  I13  1  0.54694987  0.18451587  0.90919669  1
  I  I14  1  0.78111198  0.25818421  0.34535377  1
  I  I15  1  0.21888802  0.74181579  0.65464623  1
  Ir  Ir16  1  0.00000000  0.00000000  0.00000000  1
