# generated using pymatgen
data_TcO2F3
_symmetry_space_group_name_H-M   'P 1'
_cell_length_a   8.11233247
_cell_length_b   8.07179281
_cell_length_c   11.96838530
_cell_angle_alpha   89.72795501
_cell_angle_beta   88.69128975
_cell_angle_gamma   85.09835112
_symmetry_Int_Tables_number   1
_chemical_formula_structural   TcO2F3
_chemical_formula_sum   'Tc8 O16 F24'
_cell_volume   780.62975239
_cell_formula_units_Z   8
loop_
 _symmetry_equiv_pos_site_id
 _symmetry_equiv_pos_as_xyz
  1  'x, y, z'
loop_
 _atom_site_type_symbol
 _atom_site_label
 _atom_site_symmetry_multiplicity
 _atom_site_fract_x
 _atom_site_fract_y
 _atom_site_fract_z
 _atom_site_occupancy
  O  O0  1  0.21633490  0.59433550  0.02193165  1
  O  O1  1  0.77995898  0.98020895  0.49733963  1
  O  O2  1  0.66475365  0.42399388  0.30453026  1
  O  O3  1  0.22004102  0.01979105  0.50266037  1
  O  O4  1  0.73883630  0.09150615  0.70442929  1
  O  O5  1  0.26116370  0.90849385  0.29557071  1
  O  O6  1  0.08421089  0.41787599  0.62716019  1
  O  O7  1  0.21351411  0.86676045  0.83862000  1
  O  O8  1  0.78648589  0.13323955  0.16138000  1
  O  O9  1  0.38082326  0.13321958  0.84723409  1
  O  O10  1  0.61917674  0.86678042  0.15276591  1
  O  O11  1  0.68475749  0.44726981  0.77046235  1
  O  O12  1  0.31524251  0.55273019  0.22953765  1
  O  O13  1  0.33524635  0.57600612  0.69546974  1
  O  O14  1  0.91578911  0.58212401  0.37283981  1
  O  O15  1  0.78366510  0.40566450  0.97806835  1
  F  F16  1  0.97183650  0.56307059  0.83171592  1
  F  F17  1  0.45370212  0.35241045  0.06878643  1
  F  F18  1  0.54629788  0.64758955  0.93121357  1
  F  F19  1  0.00000000  0.00000000  0.00000000  1
  F  F20  1  0.02816350  0.43692941  0.16828408  1
  F  F21  1  0.82947614  0.73368875  0.99171095  1
  F  F22  1  0.17052386  0.26631125  0.00828905  1
  F  F23  1  0.27487829  0.22498022  0.22151044  1
  F  F24  1  0.72512171  0.77501978  0.77848956  1
  F  F25  1  0.68559665  0.03108830  0.96372082  1
  F  F26  1  0.60891633  0.73458720  0.38057363  1
  F  F27  1  0.02693681  0.15628603  0.34422792  1
  F  F28  1  0.97306319  0.84371397  0.65577208  1
  F  F29  1  0.47530922  0.11130228  0.37451808  1
  F  F30  1  0.52469078  0.88869772  0.62548192  1
  F  F31  1  0.31440335  0.96891170  0.03627918  1
  F  F32  1  0.94737048  0.82927224  0.17750324  1
  F  F33  1  0.05262952  0.17072776  0.82249676  1
  F  F34  1  0.50000000  0.50000000  0.50000000  1
  F  F35  1  0.24283506  0.33616670  0.43307733  1
  F  F36  1  0.75716494  0.66383330  0.56692267  1
  F  F37  1  0.39108367  0.26541280  0.61942637  1
  F  F38  1  0.79191099  0.35336622  0.50766609  1
  F  F39  1  0.20808901  0.64663378  0.49233391  1
  Tc  Tc40  1  0.72640872  0.53140539  0.41466710  1
  Tc  Tc41  1  0.27359128  0.46859461  0.58533290  1
  Tc  Tc42  1  0.75127212  0.91372353  0.62991472  1
  Tc  Tc43  1  0.24872788  0.08627647  0.37008528  1
  Tc  Tc44  1  0.75254078  0.55370718  0.87888886  1
  Tc  Tc45  1  0.24745922  0.44629282  0.12111114  1
  Tc  Tc46  1  0.78484505  0.95005033  0.09436129  1
  Tc  Tc47  1  0.21515495  0.04994967  0.90563871  1
