# generated using pymatgen
data_Li3SiBiBO7
_symmetry_space_group_name_H-M   'P 1'
_cell_length_a   8.86158410
_cell_length_b   6.88374069
_cell_length_c   5.13550848
_cell_angle_alpha   90.00000000
_cell_angle_beta   85.77097994
_cell_angle_gamma   90.00000000
_symmetry_Int_Tables_number   1
_chemical_formula_structural   Li3SiBiBO7
_chemical_formula_sum   'Li6 Si2 Bi2 B2 O14'
_cell_volume   312.41741214
_cell_formula_units_Z   2
loop_
 _symmetry_equiv_pos_site_id
 _symmetry_equiv_pos_as_xyz
  1  'x, y, z'
loop_
 _atom_site_type_symbol
 _atom_site_label
 _atom_site_symmetry_multiplicity
 _atom_site_fract_x
 _atom_site_fract_y
 _atom_site_fract_z
 _atom_site_occupancy
  Li  Li0  1  0.05974663  0.25000000  0.74429107  1
  Li  Li1  1  0.24795400  0.04775929  0.24795680  1
  Li  Li2  1  0.24795400  0.45224071  0.24795680  1
  Li  Li3  1  0.75204600  0.54775929  0.75204320  1
  Li  Li4  1  0.75204600  0.95224071  0.75204320  1
  Li  Li5  1  0.94025337  0.75000000  0.25570893  1
  Si  Si6  1  0.40591734  0.25000000  0.73223670  1
  Si  Si7  1  0.59408266  0.75000000  0.26776330  1
  Bi  Bi8  1  0.33473711  0.75000000  0.78474521  1
  Bi  Bi9  1  0.66526289  0.25000000  0.21525479  1
  B  B10  1  0.03768208  0.75000000  0.70516551  1
  B  B11  1  0.96231792  0.25000000  0.29483449  1
  O  O12  1  0.10833680  0.25000000  0.36209161  1
  O  O13  1  0.08516298  0.75000000  0.95637741  1
  O  O14  1  0.15265436  0.75000000  0.49874356  1
  O  O15  1  0.30158953  0.06863285  0.85539925  1
  O  O16  1  0.30158953  0.43136715  0.85539925  1
  O  O17  1  0.41605693  0.25000000  0.40873557  1
  O  O18  1  0.41788807  0.75000000  0.18785227  1
  O  O19  1  0.58211193  0.25000000  0.81214773  1
  O  O20  1  0.58394307  0.75000000  0.59126443  1
  O  O21  1  0.69841047  0.56863285  0.14460075  1
  O  O22  1  0.69841047  0.93136715  0.14460075  1
  O  O23  1  0.84734564  0.25000000  0.50125644  1
  O  O24  1  0.91483702  0.25000000  0.04362259  1
  O  O25  1  0.89166320  0.75000000  0.63790839  1
