# generated using pymatgen
data_KNiCl3
_symmetry_space_group_name_H-M   'P 1'
_cell_length_a   11.89981539
_cell_length_b   11.89981539
_cell_length_c   5.97640729
_cell_angle_alpha   90.00000000
_cell_angle_beta   90.00000000
_cell_angle_gamma   119.99999997
_symmetry_Int_Tables_number   1
_chemical_formula_structural   KNiCl3
_chemical_formula_sum   'K6 Ni6 Cl18'
_cell_volume   732.91104483
_cell_formula_units_Z   6
loop_
 _symmetry_equiv_pos_site_id
 _symmetry_equiv_pos_as_xyz
  1  'x, y, z'
loop_
 _atom_site_type_symbol
 _atom_site_label
 _atom_site_symmetry_multiplicity
 _atom_site_fract_x
 _atom_site_fract_y
 _atom_site_fract_z
 _atom_site_occupancy
  Cl  Cl0  1  0.49216339  0.66751704  0.38299239  1
  Cl  Cl1  1  0.33248296  0.82464635  0.38299239  1
  Cl  Cl2  1  0.17535365  0.50783661  0.38299239  1
  Cl  Cl3  1  0.82464635  0.49216339  0.88299239  1
  Cl  Cl4  1  0.50783661  0.33248296  0.88299239  1
  Cl  Cl5  1  0.66751704  0.17535365  0.88299239  1
  Cl  Cl6  1  0.49216339  0.82464635  0.88299239  1
  Cl  Cl7  1  0.66751704  0.49216339  0.38299239  1
  Cl  Cl8  1  0.82464635  0.33248296  0.38299239  1
  Cl  Cl9  1  0.17535365  0.66751704  0.88299239  1
  Cl  Cl10  1  0.33248296  0.50783661  0.88299239  1
  Cl  Cl11  1  0.50783661  0.17535365  0.38299239  1
  Cl  Cl12  1  0.15846547  0.00000000  0.25589040  1
  Cl  Cl13  1  0.15846547  0.15846547  0.75589040  1
  Cl  Cl14  1  0.00000000  0.84153453  0.75589040  1
  Cl  Cl15  1  0.00000000  0.15846547  0.25589040  1
  Cl  Cl16  1  0.84153453  0.84153453  0.25589040  1
  Cl  Cl17  1  0.84153453  0.00000000  0.75589040  1
  K  K18  1  0.33470307  0.33470307  0.33002283  1
  K  K19  1  0.00000000  0.33470307  0.83002283  1
  K  K20  1  0.33470307  0.00000000  0.83002283  1
  K  K21  1  0.66529693  0.00000000  0.33002283  1
  K  K22  1  0.00000000  0.66529693  0.33002283  1
  K  K23  1  0.66529693  0.66529693  0.83002283  1
  Ni  Ni24  1  0.00000000  0.00000000  0.00922107  1
  Ni  Ni25  1  0.00000000  0.00000000  0.50922107  1
  Ni  Ni26  1  0.33333333  0.66666667  0.13084243  1
  Ni  Ni27  1  0.66666667  0.33333333  0.63084243  1
  Ni  Ni28  1  0.33333333  0.66666667  0.63084243  1
  Ni  Ni29  1  0.66666667  0.33333333  0.13084243  1
