# generated using pymatgen
data_Cd4OF6
_symmetry_space_group_name_H-M   'P 1'
_cell_length_a   5.52306885
_cell_length_b   7.64547882
_cell_length_c   7.64547882
_cell_angle_alpha   90.00000000
_cell_angle_beta   90.00000000
_cell_angle_gamma   90.00000000
_symmetry_Int_Tables_number   1
_chemical_formula_structural   Cd4OF6
_chemical_formula_sum   'Cd8 O2 F12'
_cell_volume   322.84185661
_cell_formula_units_Z   2
loop_
 _symmetry_equiv_pos_site_id
 _symmetry_equiv_pos_as_xyz
  1  'x, y, z'
loop_
 _atom_site_type_symbol
 _atom_site_label
 _atom_site_symmetry_multiplicity
 _atom_site_fract_x
 _atom_site_fract_y
 _atom_site_fract_z
 _atom_site_occupancy
  O  O0  1  0.25000000  0.25000000  0.75000000  1
  O  O1  1  0.75000000  0.75000000  0.25000000  1
  F  F2  1  0.17154341  0.75000000  0.75000000  1
  F  F3  1  0.67154341  0.75000000  0.75000000  1
  F  F4  1  0.82845659  0.25000000  0.25000000  1
  F  F5  1  0.32845659  0.25000000  0.25000000  1
  F  F6  1  0.25000000  0.53694925  0.03694925  1
  F  F7  1  0.75000000  0.46305075  0.53694925  1
  F  F8  1  0.75000000  0.03694925  0.53694925  1
  F  F9  1  0.25000000  0.96305075  0.03694925  1
  F  F10  1  0.25000000  0.53694925  0.46305075  1
  F  F11  1  0.75000000  0.46305075  0.96305075  1
  F  F12  1  0.25000000  0.96305075  0.46305075  1
  F  F13  1  0.75000000  0.03694925  0.96305075  1
  Cd  Cd14  1  0.44715654  0.99891014  0.75000000  1
  Cd  Cd15  1  0.44715654  0.50108986  0.75000000  1
  Cd  Cd16  1  0.94715654  0.75000000  0.50108986  1
  Cd  Cd17  1  0.94715654  0.75000000  0.99891014  1
  Cd  Cd18  1  0.05284346  0.25000000  0.49891014  1
  Cd  Cd19  1  0.55284346  0.00108986  0.25000000  1
  Cd  Cd20  1  0.55284346  0.49891014  0.25000000  1
  Cd  Cd21  1  0.05284346  0.25000000  0.00108986  1
