# generated using pymatgen
data_U3(SiC)2
_symmetry_space_group_name_H-M   'P 1'
_cell_length_a   3.61077723
_cell_length_b   3.61077723
_cell_length_c   8.93921692
_cell_angle_alpha   101.65175739
_cell_angle_beta   101.65175743
_cell_angle_gamma   90.00000003
_symmetry_Int_Tables_number   1
_chemical_formula_structural   U3(SiC)2
_chemical_formula_sum   'U3 Si2 C2'
_cell_volume   111.69199102
_cell_formula_units_Z   1
loop_
 _symmetry_equiv_pos_site_id
 _symmetry_equiv_pos_as_xyz
  1  'x, y, z'
loop_
 _atom_site_type_symbol
 _atom_site_label
 _atom_site_symmetry_multiplicity
 _atom_site_fract_x
 _atom_site_fract_y
 _atom_site_fract_z
 _atom_site_occupancy
  C  C0  1  0.69535620  0.69535620  0.39071241  1
  C  C1  1  0.30464380  0.30464380  0.60928759  1
  Si  Si2  1  0.58450395  0.58450395  0.16900789  1
  Si  Si3  1  0.41549605  0.41549605  0.83099211  1
  U  U4  1  0.82601113  0.82601113  0.65202227  1
  U  U5  1  0.17398887  0.17398887  0.34797773  1
  U  U6  1  0.00000000  0.00000000  0.00000000  1
