# generated using pymatgen
data_KCuCl3
_symmetry_space_group_name_H-M   'P 1'
_cell_length_a   4.27680597
_cell_length_b   8.96519415
_cell_length_c   13.88051056
_cell_angle_alpha   90.00000000
_cell_angle_beta   90.00000000
_cell_angle_gamma   100.14528772
_symmetry_Int_Tables_number   1
_chemical_formula_structural   KCuCl3
_chemical_formula_sum   'K4 Cu4 Cl12'
_cell_volume   523.89050203
_cell_formula_units_Z   4
loop_
 _symmetry_equiv_pos_site_id
 _symmetry_equiv_pos_as_xyz
  1  'x, y, z'
loop_
 _atom_site_type_symbol
 _atom_site_label
 _atom_site_symmetry_multiplicity
 _atom_site_fract_x
 _atom_site_fract_y
 _atom_site_fract_z
 _atom_site_occupancy
  Cl  Cl0  1  0.66235364  0.32181092  0.99102009  1
  Cl  Cl1  1  0.83250306  0.96465533  0.09824452  1
  Cl  Cl2  1  0.83250306  0.46465533  0.40175548  1
  Cl  Cl3  1  0.16749694  0.03534467  0.90175548  1
  Cl  Cl4  1  0.72230682  0.73985030  0.80152811  1
  Cl  Cl5  1  0.27769318  0.76014970  0.30152811  1
  Cl  Cl6  1  0.27769318  0.26014970  0.19847189  1
  Cl  Cl7  1  0.33764636  0.17818908  0.49102009  1
  Cl  Cl8  1  0.33764636  0.67818908  0.00897991  1
  Cl  Cl9  1  0.66235364  0.82181092  0.50897991  1
  Cl  Cl10  1  0.72230682  0.23985030  0.69847189  1
  Cl  Cl11  1  0.16749694  0.53534467  0.59824452  1
  K  K12  1  0.22068768  0.44128481  0.83247979  1
  K  K13  1  0.77931232  0.05871519  0.33247979  1
  K  K14  1  0.77931232  0.55871519  0.16752021  1
  K  K15  1  0.22068768  0.94128481  0.66752021  1
  Cu  Cu16  1  0.75763611  0.34509633  0.54976681  1
  Cu  Cu17  1  0.24236389  0.15490367  0.04976681  1
  Cu  Cu18  1  0.24236389  0.65490367  0.45023319  1
  Cu  Cu19  1  0.75763611  0.84509633  0.95023319  1
