# generated using pymatgen
data_RbCr5Se8
_symmetry_space_group_name_H-M   'P 1'
_cell_length_a   3.70307847
_cell_length_b   9.15595861
_cell_length_c   9.70429827
_cell_angle_alpha   104.72406647
_cell_angle_beta   100.99922904
_cell_angle_gamma   90.00000002
_symmetry_Int_Tables_number   1
_chemical_formula_structural   RbCr5Se8
_chemical_formula_sum   'Rb1 Cr5 Se8'
_cell_volume   311.96805034
_cell_formula_units_Z   1
loop_
 _symmetry_equiv_pos_site_id
 _symmetry_equiv_pos_as_xyz
  1  'x, y, z'
loop_
 _atom_site_type_symbol
 _atom_site_label
 _atom_site_symmetry_multiplicity
 _atom_site_fract_x
 _atom_site_fract_y
 _atom_site_fract_z
 _atom_site_occupancy
  Cr  Cr0  1  0.00000000  0.00000000  0.00000000  1
  Cr  Cr1  1  0.29569367  0.66631964  0.59138734  1
  Cr  Cr2  1  0.65887484  0.97917150  0.31774967  1
  Cr  Cr3  1  0.34112516  0.02082850  0.68225033  1
  Cr  Cr4  1  0.70430633  0.33368036  0.40861266  1
  Se  Se5  1  0.23873318  0.15690954  0.47746636  1
  Se  Se6  1  0.42463577  0.84733026  0.84927153  1
  Se  Se7  1  0.57536423  0.15266974  0.15072847  1
  Se  Se8  1  0.91345980  0.16986927  0.82691961  1
  Se  Se9  1  0.08654020  0.83013073  0.17308039  1
  Se  Se10  1  0.82836577  0.51154402  0.65673154  1
  Se  Se11  1  0.17163423  0.48845598  0.34326846  1
  Se  Se12  1  0.76126682  0.84309046  0.52253364  1
  Rb  Rb13  1  0.50000000  0.50000000  0.00000000  1
