# generated using pymatgen
data_RbCdBr3
_symmetry_space_group_name_H-M   'P 1'
_cell_length_a   4.31338887
_cell_length_b   9.73771484
_cell_length_c   16.07411408
_cell_angle_alpha   90.00000000
_cell_angle_beta   90.00000000
_cell_angle_gamma   90.00000000
_symmetry_Int_Tables_number   1
_chemical_formula_structural   RbCdBr3
_chemical_formula_sum   'Rb4 Cd4 Br12'
_cell_volume   675.15379337
_cell_formula_units_Z   4
loop_
 _symmetry_equiv_pos_site_id
 _symmetry_equiv_pos_as_xyz
  1  'x, y, z'
loop_
 _atom_site_type_symbol
 _atom_site_label
 _atom_site_symmetry_multiplicity
 _atom_site_fract_x
 _atom_site_fract_y
 _atom_site_fract_z
 _atom_site_occupancy
  Br  Br0  1  0.25000000  0.52467405  0.59920581  1
  Br  Br1  1  0.75000000  0.47532595  0.40079419  1
  Br  Br2  1  0.25000000  0.02467405  0.90079419  1
  Br  Br3  1  0.75000000  0.97532595  0.09920581  1
  Br  Br4  1  0.25000000  0.67116474  0.00437636  1
  Br  Br5  1  0.75000000  0.32883526  0.99562364  1
  Br  Br6  1  0.25000000  0.17116474  0.49562364  1
  Br  Br7  1  0.75000000  0.82883526  0.50437636  1
  Br  Br8  1  0.75000000  0.71975379  0.79265991  1
  Br  Br9  1  0.25000000  0.28024621  0.20734009  1
  Br  Br10  1  0.75000000  0.21975379  0.70734009  1
  Br  Br11  1  0.25000000  0.78024621  0.29265991  1
  Rb  Rb12  1  0.75000000  0.56737199  0.17407176  1
  Rb  Rb13  1  0.25000000  0.43262801  0.82592824  1
  Rb  Rb14  1  0.75000000  0.06737199  0.32592824  1
  Rb  Rb15  1  0.25000000  0.93262801  0.67407176  1
  Cd  Cd16  1  0.75000000  0.83586205  0.94484483  1
  Cd  Cd17  1  0.25000000  0.16413795  0.05515517  1
  Cd  Cd18  1  0.75000000  0.33586205  0.55515517  1
  Cd  Cd19  1  0.25000000  0.66413795  0.44484483  1
