# generated using pymatgen
data_Be(BH4)2
_symmetry_space_group_name_H-M   'P 1'
_cell_length_a   9.10307262
_cell_length_b   10.69802586
_cell_length_c   10.69802587
_cell_angle_alpha   79.57125524
_cell_angle_beta   64.82048752
_cell_angle_gamma   64.82048749
_symmetry_Int_Tables_number   1
_chemical_formula_structural   Be(BH4)2
_chemical_formula_sum   'Be8 B16 H64'
_cell_volume   853.24259995
_cell_formula_units_Z   8
loop_
 _symmetry_equiv_pos_site_id
 _symmetry_equiv_pos_as_xyz
  1  'x, y, z'
loop_
 _atom_site_type_symbol
 _atom_site_label
 _atom_site_symmetry_multiplicity
 _atom_site_fract_x
 _atom_site_fract_y
 _atom_site_fract_z
 _atom_site_occupancy
  H  H0  1  0.64102679  0.26662945  0.91247082  1
  H  H1  1  0.82012706  0.73337055  0.08752918  1
  H  H2  1  0.80349761  0.58752918  0.76662945  1
  H  H3  1  0.15765624  0.41247082  0.23337055  1
  H  H4  1  0.14102679  0.91247082  0.26662945  1
  H  H5  1  0.65765624  0.23337055  0.41247082  1
  H  H6  1  0.30349761  0.76662945  0.58752918  1
  H  H7  1  0.32012706  0.08752918  0.73337055  1
  H  H8  1  0.44141671  0.43117413  0.87023981  1
  H  H9  1  0.74283064  0.56882587  0.12976019  1
  H  H10  1  0.56165651  0.62976019  0.93117413  1
  H  H11  1  0.12259084  0.37023981  0.06882587  1
  H  H12  1  0.94141671  0.87023981  0.43117413  1
  H  H13  1  0.62259084  0.06882587  0.37023981  1
  H  H14  1  0.06165651  0.93117413  0.62976019  1
  H  H15  1  0.24283064  0.12976019  0.56882587  1
  H  H16  1  0.42605880  0.38222279  0.06079988  1
  H  H17  1  0.86908148  0.61777721  0.93920012  1
  H  H18  1  0.73685868  0.43920012  0.88222279  1
  H  H19  1  0.05828159  0.56079988  0.11777721  1
  H  H20  1  0.92605880  0.06079988  0.38222279  1
  H  H21  1  0.42061995  0.25332507  0.94102879  1
  H  H22  1  0.55828159  0.11777721  0.56079988  1
  H  H23  1  0.36908148  0.93920012  0.61777721  1
  H  H24  1  0.15439479  0.83559782  0.98378855  1
  H  H25  1  0.38818334  0.51621145  0.33559782  1
  H  H26  1  0.23999261  0.48378855  0.66440218  1
  H  H27  1  0.97378116  0.16440218  0.01621145  1
  H  H28  1  0.73999261  0.66440218  0.48378855  1
  H  H29  1  0.88818334  0.33559782  0.51621145  1
  H  H30  1  0.65439479  0.98378855  0.83559782  1
  H  H31  1  0.47378116  0.01621145  0.16440218  1
  H  H32  1  0.17586198  0.67606562  0.88428741  1
  H  H33  1  0.31014939  0.61571259  0.17606562  1
  H  H34  1  0.10192760  0.38428741  0.82393438  1
  H  H35  1  0.73621500  0.32393438  0.11571259  1
  H  H36  1  0.60192760  0.82393438  0.38428741  1
  H  H37  1  0.81014939  0.17606562  0.61571259  1
  H  H38  1  0.67586198  0.88428741  0.67606562  1
  H  H39  1  0.23621500  0.11571259  0.32393438  1
  H  H40  1  0.31689574  0.79021508  0.78778934  1
  H  H41  1  0.35468507  0.71221066  0.29021508  1
  H  H42  1  0.35711082  0.28778934  0.70978492  1
  H  H43  1  0.89490015  0.20978492  0.21221066  1
  H  H44  1  0.85711082  0.70978492  0.28778934  1
  H  H45  1  0.85468507  0.29021508  0.71221066  1
  H  H46  1  0.81689574  0.78778934  0.79021508  1
  H  H47  1  0.39490015  0.21221066  0.20978492  1
  H  H48  1  0.05065303  0.87311715  0.84400048  1
  H  H49  1  0.14465351  0.65599952  0.37311715  1
  H  H50  1  0.17377019  0.34400048  0.62688285  1
  H  H51  1  0.76777067  0.12688285  0.15599952  1
  H  H52  1  0.67377019  0.62688285  0.34400048  1
  H  H53  1  0.64465351  0.37311715  0.65599952  1
  H  H54  1  0.55065303  0.84400048  0.87311715  1
  H  H55  1  0.26777067  0.15599952  0.12688285  1
  H  H56  1  0.11497381  0.05897121  0.74667493  1
  H  H57  1  0.11164873  0.75332507  0.55897121  1
  H  H58  1  0.42394502  0.24667493  0.44102879  1
  H  H59  1  0.92061995  0.94102879  0.25332507  1
  H  H60  1  0.92394502  0.44102879  0.24667493  1
  H  H61  1  0.61164873  0.55897121  0.75332507  1
  H  H62  1  0.61497381  0.74667493  0.05897121  1
  H  H63  1  0.23685868  0.88222279  0.43920012  1
  Be  Be64  1  0.30001602  0.29040799  0.11117147  1
  Be  Be65  1  0.70159548  0.70959201  0.88882853  1
  Be  Be66  1  0.66118749  0.38882853  0.79040799  1
  Be  Be67  1  0.84042401  0.61117147  0.20959201  1
  Be  Be68  1  0.80001602  0.11117147  0.29040799  1
  Be  Be69  1  0.34042401  0.20959201  0.61117147  1
  Be  Be70  1  0.16118749  0.79040799  0.38882853  1
  Be  Be71  1  0.20159548  0.88882853  0.70959201  1
  B  B72  1  0.48195840  0.33370347  0.94625725  1
  B  B73  1  0.76191912  0.66629653  0.05374275  1
  B  B74  1  0.67821564  0.55374275  0.83370347  1
  B  B75  1  0.06566187  0.44625725  0.16629653  1
  B  B76  1  0.98195840  0.94625725  0.33370347  1
  B  B77  1  0.56566187  0.16629653  0.44625725  1
  B  B78  1  0.17821564  0.83370347  0.55374275  1
  B  B79  1  0.26191912  0.05374275  0.66629653  1
  B  B80  1  0.34394745  0.11954520  0.20986312  1
  B  B81  1  0.67335577  0.88045480  0.79013688  1
  B  B82  1  0.80381057  0.29013688  0.61954520  1
  B  B83  1  0.71349265  0.70986312  0.38045480  1
  B  B84  1  0.84394745  0.20986312  0.11954520  1
  B  B85  1  0.21349265  0.38045480  0.70986312  1
  B  B86  1  0.30381057  0.61954520  0.29013688  1
  B  B87  1  0.17335577  0.79013688  0.88045480  1
