# generated using pymatgen
data_Sb2(SO4)3
_symmetry_space_group_name_H-M   'P 1'
_cell_length_a   4.89842004
_cell_length_b   13.36409288
_cell_length_c   14.71138847
_cell_angle_alpha   100.60360203
_cell_angle_beta   90.00000000
_cell_angle_gamma   90.00000000
_symmetry_Int_Tables_number   1
_chemical_formula_structural   Sb2(SO4)3
_chemical_formula_sum   'Sb8 S12 O48'
_cell_volume   946.60548237
_cell_formula_units_Z   4
loop_
 _symmetry_equiv_pos_site_id
 _symmetry_equiv_pos_as_xyz
  1  'x, y, z'
loop_
 _atom_site_type_symbol
 _atom_site_label
 _atom_site_symmetry_multiplicity
 _atom_site_fract_x
 _atom_site_fract_y
 _atom_site_fract_z
 _atom_site_occupancy
  O  O0  1  0.85403368  0.93775750  0.20778843  1
  O  O1  1  0.35403368  0.56224250  0.29221157  1
  O  O2  1  0.14596632  0.06224250  0.79221157  1
  O  O3  1  0.64596632  0.43775750  0.70778843  1
  O  O4  1  0.04375732  0.86060392  0.06168731  1
  O  O5  1  0.54375732  0.63939608  0.43831269  1
  O  O6  1  0.95624268  0.13939608  0.93831269  1
  O  O7  1  0.45624268  0.36060392  0.56168731  1
  O  O8  1  0.57760709  0.93294453  0.06943989  1
  O  O9  1  0.07760709  0.56705547  0.43056011  1
  O  O10  1  0.42239291  0.06705547  0.93056011  1
  O  O11  1  0.92239291  0.43294453  0.56943989  1
  O  O12  1  0.97310423  0.04517727  0.09612349  1
  O  O13  1  0.47310423  0.45482273  0.40387651  1
  O  O14  1  0.02689577  0.95482273  0.90387651  1
  O  O15  1  0.52689577  0.54517727  0.59612349  1
  O  O16  1  0.93700215  0.74742950  0.88869117  1
  O  O17  1  0.53510176  0.65771203  0.82867978  1
  O  O18  1  0.46489824  0.34228797  0.17132022  1
  O  O19  1  0.96489824  0.15771203  0.32867978  1
  O  O20  1  0.03816783  0.75525520  0.31259956  1
  O  O21  1  0.53816783  0.74474480  0.18740044  1
  O  O22  1  0.96183217  0.24474480  0.68740044  1
  O  O23  1  0.46183217  0.25525520  0.81259956  1
  O  O24  1  0.64139572  0.85936341  0.37541681  1
  O  O25  1  0.14139572  0.64063659  0.12458319  1
  O  O26  1  0.35860428  0.14063659  0.62458319  1
  O  O27  1  0.85860428  0.35936341  0.87541681  1
  O  O28  1  0.94268700  0.79980722  0.48015317  1
  O  O29  1  0.44268700  0.70019278  0.01984683  1
  O  O30  1  0.05731300  0.20019278  0.51984683  1
  O  O31  1  0.55731300  0.29980722  0.98015317  1
  O  O32  1  0.11087126  0.92688092  0.39507069  1
  O  O33  1  0.61087126  0.57311908  0.10492931  1
  O  O34  1  0.88912874  0.07311908  0.60492931  1
  O  O35  1  0.38912874  0.42688092  0.89507069  1
  O  O36  1  0.55331026  0.14391172  0.23058436  1
  O  O37  1  0.05331026  0.35608828  0.26941564  1
  O  O38  1  0.44668974  0.85608828  0.76941564  1
  O  O39  1  0.94668974  0.64391172  0.73058436  1
  O  O40  1  0.56034953  0.06331076  0.36604598  1
  O  O41  1  0.06034953  0.43668924  0.13395402  1
  O  O42  1  0.43965047  0.93668924  0.63395402  1
  O  O43  1  0.93965047  0.56331076  0.86604598  1
  O  O44  1  0.56299785  0.24742950  0.38869117  1
  O  O45  1  0.06299785  0.25257050  0.11130883  1
  O  O46  1  0.43700215  0.75257050  0.61130883  1
  O  O47  1  0.03510176  0.84228797  0.67132022  1
  S  S48  1  0.85499804  0.94446628  0.10720644  1
  S  S49  1  0.35499804  0.55553372  0.39279356  1
  S  S50  1  0.14500196  0.05553372  0.89279356  1
  S  S51  1  0.64500196  0.44446628  0.60720644  1
  S  S52  1  0.83086286  0.65241512  0.82336512  1
  S  S53  1  0.33086286  0.84758488  0.67663488  1
  S  S54  1  0.16913714  0.34758488  0.17663488  1
  S  S55  1  0.66913714  0.15241512  0.32336512  1
  S  S56  1  0.55885218  0.33213036  0.88990366  1
  S  S57  1  0.05885218  0.16786964  0.61009634  1
  S  S58  1  0.44114782  0.66786964  0.11009634  1
  S  S59  1  0.94114782  0.83213036  0.38990366  1
  Sb  Sb60  1  0.29150664  0.82545303  0.93728990  1
  Sb  Sb61  1  0.79150664  0.67454697  0.56271010  1
  Sb  Sb62  1  0.70849336  0.17454697  0.06271010  1
  Sb  Sb63  1  0.20849336  0.32545303  0.43728990  1
  Sb  Sb64  1  0.07415103  0.42665451  0.78361109  1
  Sb  Sb65  1  0.57415103  0.07334549  0.71638891  1
  Sb  Sb66  1  0.92584897  0.57334549  0.21638891  1
  Sb  Sb67  1  0.42584897  0.92665451  0.28361109  1
