# generated using pymatgen
data_La2Ni12P5
_symmetry_space_group_name_H-M   'P 1'
_cell_length_a   3.68750281
_cell_length_b   10.92631496
_cell_length_c   13.15220278
_cell_angle_alpha   107.84056278
_cell_angle_beta   90.00000000
_cell_angle_gamma   90.00000000
_symmetry_Int_Tables_number   1
_chemical_formula_structural   La2Ni12P5
_chemical_formula_sum   'La4 Ni24 P10'
_cell_volume   504.43093097
_cell_formula_units_Z   2
loop_
 _symmetry_equiv_pos_site_id
 _symmetry_equiv_pos_as_xyz
  1  'x, y, z'
loop_
 _atom_site_type_symbol
 _atom_site_label
 _atom_site_symmetry_multiplicity
 _atom_site_fract_x
 _atom_site_fract_y
 _atom_site_fract_z
 _atom_site_occupancy
  P  P0  1  0.25000000  0.99260948  0.87138005  1
  P  P1  1  0.75000000  0.00739052  0.12861995  1
  P  P2  1  0.25000000  0.69993948  0.98386905  1
  P  P3  1  0.75000000  0.30006052  0.01613095  1
  P  P4  1  0.25000000  0.54832463  0.25940576  1
  P  P5  1  0.75000000  0.45167537  0.74059424  1
  P  P6  1  0.25000000  0.00810922  0.37876980  1
  P  P7  1  0.75000000  0.99189078  0.62123020  1
  P  P8  1  0.25000000  0.68867344  0.61195389  1
  P  P9  1  0.75000000  0.31132656  0.38804611  1
  Ni  Ni10  1  0.25000000  0.42794064  0.01446098  1
  Ni  Ni11  1  0.25000000  0.43428195  0.44832540  1
  Ni  Ni12  1  0.75000000  0.49368425  0.34101367  1
  Ni  Ni13  1  0.25000000  0.50631575  0.65898633  1
  Ni  Ni14  1  0.75000000  0.48920480  0.15084936  1
  Ni  Ni15  1  0.25000000  0.51079520  0.84915064  1
  Ni  Ni16  1  0.75000000  0.56571805  0.55167460  1
  Ni  Ni17  1  0.25000000  0.65590213  0.13519620  1
  Ni  Ni18  1  0.75000000  0.34333981  0.56153985  1
  Ni  Ni19  1  0.25000000  0.65666019  0.43846015  1
  Ni  Ni20  1  0.75000000  0.09453489  0.30496401  1
  Ni  Ni21  1  0.25000000  0.90546511  0.69503599  1
  Ni  Ni22  1  0.75000000  0.08093651  0.99031142  1
  Ni  Ni23  1  0.25000000  0.91906349  0.00968858  1
  Ni  Ni24  1  0.75000000  0.07839520  0.49030389  1
  Ni  Ni25  1  0.25000000  0.92160480  0.50969611  1
  Ni  Ni26  1  0.75000000  0.06056147  0.79638588  1
  Ni  Ni27  1  0.25000000  0.93943853  0.20361412  1
  Ni  Ni28  1  0.25000000  0.21326782  0.43805260  1
  Ni  Ni29  1  0.75000000  0.78673218  0.56194740  1
  Ni  Ni30  1  0.25000000  0.20138657  0.91847068  1
  Ni  Ni31  1  0.75000000  0.79861343  0.08152932  1
  Ni  Ni32  1  0.75000000  0.34409787  0.86480380  1
  Ni  Ni33  1  0.75000000  0.57205936  0.98553902  1
  La  La34  1  0.25000000  0.25261419  0.18795050  1
  La  La35  1  0.75000000  0.74738581  0.81204950  1
  La  La36  1  0.25000000  0.22105860  0.68325324  1
  La  La37  1  0.75000000  0.77894140  0.31674676  1
