# generated using pymatgen
data_TlBr2
_symmetry_space_group_name_H-M   'P 1'
_cell_length_a   8.15679674
_cell_length_b   10.79106457
_cell_length_c   10.90624042
_cell_angle_alpha   90.00000000
_cell_angle_beta   90.00000000
_cell_angle_gamma   90.00000000
_symmetry_Int_Tables_number   1
_chemical_formula_structural   TlBr2
_chemical_formula_sum   'Tl8 Br16'
_cell_volume   959.97295635
_cell_formula_units_Z   8
loop_
 _symmetry_equiv_pos_site_id
 _symmetry_equiv_pos_as_xyz
  1  'x, y, z'
loop_
 _atom_site_type_symbol
 _atom_site_label
 _atom_site_symmetry_multiplicity
 _atom_site_fract_x
 _atom_site_fract_y
 _atom_site_fract_z
 _atom_site_occupancy
  Br  Br0  1  0.49411922  0.04354380  0.68184515  1
  Br  Br1  1  0.49411922  0.45645620  0.81815485  1
  Br  Br2  1  1.00588078  0.54354380  0.81815485  1
  Br  Br3  1  1.00588078  0.95645620  0.68184515  1
  Br  Br4  1  0.50588078  0.95645620  0.31815485  1
  Br  Br5  1  0.50588078  0.54354380  0.18184515  1
  Br  Br6  1  -0.00588078  0.45645620  0.18184515  1
  Br  Br7  1  -0.00588078  0.04354380  0.31815485  1
  Br  Br8  1  0.35595404  0.18845875  0.04580561  1
  Br  Br9  1  0.35595404  0.31154125  0.45419439  1
  Br  Br10  1  0.14404596  0.68845875  0.45419439  1
  Br  Br11  1  0.14404596  0.81154125  0.04580561  1
  Br  Br12  1  0.64404596  0.81154125  0.95419439  1
  Br  Br13  1  0.64404596  0.68845875  0.54580561  1
  Br  Br14  1  0.85595404  0.31154125  0.54580561  1
  Br  Br15  1  0.85595404  0.18845875  0.95419439  1
  Tl  Tl16  1  0.75000000  0.50000000  0.67642052  1
  Tl  Tl17  1  0.75000000  0.00000000  0.82357948  1
  Tl  Tl18  1  0.25000000  0.50000000  0.32357948  1
  Tl  Tl19  1  0.25000000  0.00000000  0.17642052  1
  Tl  Tl20  1  0.17854239  0.25000000  0.75000000  1
  Tl  Tl21  1  0.32145761  0.75000000  0.75000000  1
  Tl  Tl22  1  0.82145761  0.75000000  0.25000000  1
  Tl  Tl23  1  0.67854239  0.25000000  0.25000000  1
