# generated using pymatgen
data_Sn3BF9
_symmetry_space_group_name_H-M   'P 1'
_cell_length_a   7.79006502
_cell_length_b   10.95898932
_cell_length_c   10.54952852
_cell_angle_alpha   97.23356674
_cell_angle_beta   90.00000000
_cell_angle_gamma   90.00000000
_symmetry_Int_Tables_number   1
_chemical_formula_structural   Sn3BF9
_chemical_formula_sum   'Sn12 B4 F36'
_cell_volume   893.45833363
_cell_formula_units_Z   4
loop_
 _symmetry_equiv_pos_site_id
 _symmetry_equiv_pos_as_xyz
  1  'x, y, z'
loop_
 _atom_site_type_symbol
 _atom_site_label
 _atom_site_symmetry_multiplicity
 _atom_site_fract_x
 _atom_site_fract_y
 _atom_site_fract_z
 _atom_site_occupancy
  B  B0  1  0.92491406  0.80343518  0.40786991  1
  B  B1  1  0.42491406  0.69656482  0.59213009  1
  B  B2  1  0.07508594  0.19656482  0.59213009  1
  B  B3  1  0.57508594  0.30343518  0.40786991  1
  F  F4  1  0.45256825  0.67482374  0.46047816  1
  F  F5  1  0.95256825  0.82517626  0.53952184  1
  F  F6  1  0.54743175  0.32517626  0.53952184  1
  F  F7  1  0.04743175  0.17482374  0.46047816  1
  F  F8  1  0.77504658  0.86552323  0.37327821  1
  F  F9  1  0.27504658  0.63447677  0.62672179  1
  F  F10  1  0.22495342  0.13447677  0.62672179  1
  F  F11  1  0.72495342  0.36552323  0.37327821  1
  F  F12  1  0.61361789  0.40662119  0.04097176  1
  F  F13  1  0.11361789  0.09337881  0.95902824  1
  F  F14  1  0.38638211  0.59337881  0.95902824  1
  F  F15  1  0.88638211  0.90662119  0.04097176  1
  F  F16  1  0.76051515  0.17273670  0.07095486  1
  F  F17  1  0.26051515  0.32726330  0.92904514  1
  F  F18  1  0.23948485  0.82726330  0.92904514  1
  F  F19  1  0.73948485  0.67273670  0.07095486  1
  F  F20  1  0.12666899  0.27826289  0.17657935  1
  F  F21  1  0.62666899  0.22173711  0.82342065  1
  F  F22  1  0.87333101  0.72173711  0.82342065  1
  F  F23  1  0.37333101  0.77826289  0.17657935  1
  F  F24  1  0.90057384  0.47333712  0.17608614  1
  F  F25  1  0.40057384  0.02666288  0.82391386  1
  F  F26  1  0.09942616  0.52666288  0.82391386  1
  F  F27  1  0.59942616  0.97333712  0.17608614  1
  F  F28  1  0.24654351  0.03367181  0.19508037  1
  F  F29  1  0.74654351  0.46632819  0.80491963  1
  F  F30  1  0.75345649  0.96632819  0.80491963  1
  F  F31  1  0.25345649  0.53367181  0.19508037  1
  F  F32  1  0.43271682  0.34567452  0.33919724  1
  F  F33  1  0.93271682  0.15432548  0.66080276  1
  F  F34  1  0.56728318  0.65432548  0.66080276  1
  F  F35  1  0.06728318  0.84567452  0.33919724  1
  F  F36  1  0.59541972  0.17419313  0.36880044  1
  F  F37  1  0.09541972  0.32580687  0.63119956  1
  F  F38  1  0.40458028  0.82580687  0.63119956  1
  F  F39  1  0.90458028  0.67419313  0.36880044  1
  Sn  Sn40  1  0.39948612  0.94014002  0.31586665  1
  Sn  Sn41  1  0.89948612  0.55985998  0.68413335  1
  Sn  Sn42  1  0.60051388  0.05985998  0.68413335  1
  Sn  Sn43  1  0.10051388  0.44014002  0.31586665  1
  Sn  Sn44  1  0.63760109  0.55572976  0.20184422  1
  Sn  Sn45  1  0.13760109  0.94427024  0.79815578  1
  Sn  Sn46  1  0.36239891  0.44427024  0.79815578  1
  Sn  Sn47  1  0.86239891  0.05572976  0.20184422  1
  Sn  Sn48  1  0.16508442  0.68521874  0.05808689  1
  Sn  Sn49  1  0.66508442  0.81478126  0.94191311  1
  Sn  Sn50  1  0.83491558  0.31478126  0.94191311  1
  Sn  Sn51  1  0.33491558  0.18521874  0.05808689  1
