# generated using pymatgen
data_Zn2BIr2
_symmetry_space_group_name_H-M   'P 1'
_cell_length_a   2.83830482
_cell_length_b   10.29398254
_cell_length_c   13.46773018
_cell_angle_alpha   90.00000000
_cell_angle_beta   96.04873097
_cell_angle_gamma   90.00000000
_symmetry_Int_Tables_number   1
_chemical_formula_structural   Zn2BIr2
_chemical_formula_sum   'Zn12 B6 Ir12'
_cell_volume   391.30215246
_cell_formula_units_Z   6
loop_
 _symmetry_equiv_pos_site_id
 _symmetry_equiv_pos_as_xyz
  1  'x, y, z'
loop_
 _atom_site_type_symbol
 _atom_site_label
 _atom_site_symmetry_multiplicity
 _atom_site_fract_x
 _atom_site_fract_y
 _atom_site_fract_z
 _atom_site_occupancy
  B  B0  1  0.86148692  0.39367469  0.72297385  1
  B  B1  1  0.13851308  0.60632531  0.27702615  1
  B  B2  1  0.13851308  0.89367469  0.27702615  1
  B  B3  1  0.86148692  0.10632531  0.72297385  1
  B  B4  1  0.04108758  0.75000000  0.08217516  1
  B  B5  1  0.95891242  0.25000000  0.91782484  1
  Zn  Zn6  1  0.91135747  0.88019542  0.82271493  1
  Zn  Zn7  1  0.08864253  0.11980458  0.17728507  1
  Zn  Zn8  1  0.08864253  0.38019542  0.17728507  1
  Zn  Zn9  1  0.91135747  0.61980458  0.82271493  1
  Zn  Zn10  1  0.76082780  0.38907310  0.52165561  1
  Zn  Zn11  1  0.23917220  0.61092690  0.47834439  1
  Zn  Zn12  1  0.00000000  0.00000000  0.00000000  1
  Zn  Zn13  1  0.00000000  0.50000000  0.00000000  1
  Zn  Zn14  1  0.18029481  0.25000000  0.36058961  1
  Zn  Zn15  1  0.81970519  0.75000000  0.63941039  1
  Zn  Zn16  1  0.76082780  0.11092690  0.52165561  1
  Zn  Zn17  1  0.23917220  0.88907310  0.47834439  1
  Ir  Ir18  1  0.66855917  0.46940673  0.33711834  1
  Ir  Ir19  1  0.33144083  0.53059327  0.66288166  1
  Ir  Ir20  1  0.33144083  0.96940673  0.66288166  1
  Ir  Ir21  1  0.66855917  0.03059327  0.33711834  1
  Ir  Ir22  1  0.48086084  0.75000000  0.96172168  1
  Ir  Ir23  1  0.51913916  0.25000000  0.03827832  1
  Ir  Ir24  1  0.67129883  0.75000000  0.34259766  1
  Ir  Ir25  1  0.32870117  0.25000000  0.65740234  1
  Ir  Ir26  1  0.42530819  0.39085515  0.85061639  1
  Ir  Ir27  1  0.57469181  0.60914485  0.14938361  1
  Ir  Ir28  1  0.57469181  0.89085515  0.14938361  1
  Ir  Ir29  1  0.42530819  0.10914485  0.85061639  1
