# generated using pymatgen
data_Sb2TeF14
_symmetry_space_group_name_H-M   'P 1'
_cell_length_a   7.61106428
_cell_length_b   10.00291689
_cell_length_c   14.56543109
_cell_angle_alpha   90.00000000
_cell_angle_beta   90.00000000
_cell_angle_gamma   91.50525938
_symmetry_Int_Tables_number   1
_chemical_formula_structural   Sb2TeF14
_chemical_formula_sum   'Sb8 Te4 F56'
_cell_volume   1108.52502097
_cell_formula_units_Z   4
loop_
 _symmetry_equiv_pos_site_id
 _symmetry_equiv_pos_as_xyz
  1  'x, y, z'
loop_
 _atom_site_type_symbol
 _atom_site_label
 _atom_site_symmetry_multiplicity
 _atom_site_fract_x
 _atom_site_fract_y
 _atom_site_fract_z
 _atom_site_occupancy
  F  F0  1  0.47067471  0.17586384  0.02293788  1
  F  F1  1  0.52932529  0.32413616  0.52293788  1
  F  F2  1  0.52932529  0.82413616  0.97706212  1
  F  F3  1  0.47067471  0.67586384  0.47706212  1
  F  F4  1  0.16847805  0.35775052  0.18387108  1
  F  F5  1  0.83152195  0.14224948  0.68387108  1
  F  F6  1  0.83152195  0.64224948  0.81612892  1
  F  F7  1  0.16847805  0.85775052  0.31612892  1
  F  F8  1  0.35663546  0.42807277  0.03861981  1
  F  F9  1  0.64336454  0.07192723  0.53861981  1
  F  F10  1  0.64336454  0.57192723  0.96138019  1
  F  F11  1  0.35663546  0.92807277  0.46138019  1
  F  F12  1  0.36755346  0.40873856  0.82817566  1
  F  F13  1  0.63244654  0.09126144  0.32817566  1
  F  F14  1  0.63244654  0.59126144  0.17182434  1
  F  F15  1  0.36755346  0.90873856  0.67182434  1
  F  F16  1  0.10077280  0.37926713  0.71377014  1
  F  F17  1  0.89922720  0.12073287  0.21377014  1
  F  F18  1  0.89922720  0.62073287  0.28622986  1
  F  F19  1  0.10077280  0.87926713  0.78622986  1
  F  F20  1  0.36490827  0.54016344  0.66809572  1
  F  F21  1  0.63509173  0.95983656  0.16809572  1
  F  F22  1  0.63509173  0.45983656  0.33190428  1
  F  F23  1  0.36490827  0.04016344  0.83190428  1
  F  F24  1  0.03504526  0.64882619  0.64917812  1
  F  F25  1  0.96495474  0.85117381  0.14917812  1
  F  F26  1  0.96495474  0.35117381  0.35082188  1
  F  F27  1  0.03504526  0.14882619  0.85082188  1
  F  F28  1  0.01934089  0.90332639  0.59824574  1
  F  F29  1  0.98065911  0.59667361  0.09824574  1
  F  F30  1  0.98065911  0.09667361  0.40175426  1
  F  F31  1  0.01934089  0.40332639  0.90175426  1
  F  F32  1  0.53820189  0.81695955  0.31611358  1
  F  F33  1  0.46179811  0.68304045  0.81611358  1
  F  F34  1  0.46179811  0.18304045  0.68388642  1
  F  F35  1  0.53820189  0.31695955  0.18388642  1
  F  F36  1  0.82711555  0.57609687  0.50599657  1
  F  F37  1  0.17288445  0.92390313  0.00599657  1
  F  F38  1  0.17288445  0.42390313  0.49400343  1
  F  F39  1  0.82711555  0.07609687  0.99400343  1
  F  F40  1  0.81741761  0.83763889  0.45262881  1
  F  F41  1  0.18258239  0.66236111  0.95262881  1
  F  F42  1  0.18258239  0.16236111  0.54737119  1
  F  F43  1  0.81741761  0.33763889  0.04737119  1
  F  F44  1  0.70732468  0.76560326  0.63206363  1
  F  F45  1  0.29267532  0.73439674  0.13206363  1
  F  F46  1  0.29267532  0.23439674  0.36793637  1
  F  F47  1  0.70732468  0.26560326  0.86793637  1
  F  F48  1  0.12288068  0.71670228  0.47683446  1
  F  F49  1  0.87711932  0.78329772  0.97683446  1
  F  F50  1  0.87711932  0.28329772  0.52316554  1
  F  F51  1  0.12288068  0.21670228  0.02316554  1
  F  F52  1  0.28674037  0.61015965  0.32561821  1
  F  F53  1  0.71325963  0.88984035  0.82561821  1
  F  F54  1  0.71325963  0.38984035  0.67438179  1
  F  F55  1  0.28674037  0.11015965  0.17438179  1
  Sb  Sb56  1  0.33378251  0.26944119  0.10826338  1
  Sb  Sb57  1  0.66621749  0.23055881  0.60826338  1
  Sb  Sb58  1  0.66621749  0.73055881  0.89173662  1
  Sb  Sb59  1  0.33378251  0.76944119  0.39173662  1
  Sb  Sb60  1  0.90267547  0.24141314  0.94428925  1
  Sb  Sb61  1  0.09732453  0.25858686  0.44428925  1
  Sb  Sb62  1  0.09732453  0.75858686  0.05571075  1
  Sb  Sb63  1  0.90267547  0.74141314  0.55571075  1
  Te  Te64  1  0.21694207  0.02616109  0.73033255  1
  Te  Te65  1  0.78305793  0.47383891  0.23033255  1
  Te  Te66  1  0.78305793  0.97383891  0.26966745  1
  Te  Te67  1  0.21694207  0.52616109  0.76966745  1
