# generated using pymatgen
data_Na2HgS2
_symmetry_space_group_name_H-M   'P 1'
_cell_length_a   7.48683164
_cell_length_b   7.54336658
_cell_length_c   18.35275904
_cell_angle_alpha   90.00000000
_cell_angle_beta   90.00000000
_cell_angle_gamma   90.00000000
_symmetry_Int_Tables_number   1
_chemical_formula_structural   Na2HgS2
_chemical_formula_sum   'Na16 Hg8 S16'
_cell_volume   1036.48887026
_cell_formula_units_Z   8
loop_
 _symmetry_equiv_pos_site_id
 _symmetry_equiv_pos_as_xyz
  1  'x, y, z'
loop_
 _atom_site_type_symbol
 _atom_site_label
 _atom_site_symmetry_multiplicity
 _atom_site_fract_x
 _atom_site_fract_y
 _atom_site_fract_z
 _atom_site_occupancy
  Na  Na0  1  0.50332320  0.72876797  0.44534783  1
  Na  Na1  1  0.00332320  0.27123203  0.05465217  1
  Na  Na2  1  0.99667680  0.22876797  0.55465217  1
  Na  Na3  1  0.49667680  0.77123203  0.94534783  1
  Na  Na4  1  0.49667680  0.27123203  0.55465217  1
  Na  Na5  1  0.99667680  0.72876797  0.94534783  1
  Na  Na6  1  0.00332320  0.77123203  0.44534783  1
  Na  Na7  1  0.50332320  0.22876797  0.05465217  1
  Na  Na8  1  0.83190734  0.54552595  0.30376748  1
  Na  Na9  1  0.33190734  0.45447405  0.19623252  1
  Na  Na10  1  0.66809266  0.04552595  0.69623252  1
  Na  Na11  1  0.16809266  0.95447405  0.80376748  1
  Na  Na12  1  0.16809266  0.45447405  0.69623252  1
  Na  Na13  1  0.66809266  0.54552595  0.80376748  1
  Na  Na14  1  0.33190734  0.95447405  0.30376748  1
  Na  Na15  1  0.83190734  0.04552595  0.19623252  1
  S  S16  1  0.69741769  0.88804466  0.32122485  1
  S  S17  1  0.30258231  0.61195534  0.82122485  1
  S  S18  1  0.80258231  0.38804466  0.67877515  1
  S  S19  1  0.80258231  0.88804466  0.82122485  1
  S  S20  1  0.19741769  0.11195534  0.17877515  1
  S  S21  1  0.30258231  0.11195534  0.67877515  1
  S  S22  1  0.69741769  0.38804466  0.17877515  1
  S  S23  1  0.19741769  0.61195534  0.32122485  1
  S  S24  1  0.25559557  0.07683032  0.45090660  1
  S  S25  1  0.75559557  0.92316968  0.04909340  1
  S  S26  1  0.24440443  0.57683032  0.54909340  1
  S  S27  1  0.74440443  0.42316968  0.95090660  1
  S  S28  1  0.74440443  0.92316968  0.54909340  1
  S  S29  1  0.24440443  0.07683032  0.95090660  1
  S  S30  1  0.75559557  0.42316968  0.45090660  1
  S  S31  1  0.25559557  0.57683032  0.04909340  1
  Hg  Hg32  1  0.27296864  0.34902826  0.88913696  1
  Hg  Hg33  1  0.77296864  0.65097174  0.61086304  1
  Hg  Hg34  1  0.22703136  0.84902826  0.11086304  1
  Hg  Hg35  1  0.72703136  0.65097174  0.11086304  1
  Hg  Hg36  1  0.22703136  0.34902826  0.38913696  1
  Hg  Hg37  1  0.77296864  0.15097174  0.88913696  1
  Hg  Hg38  1  0.27296864  0.84902826  0.61086304  1
  Hg  Hg39  1  0.72703136  0.15097174  0.38913696  1
