# generated using pymatgen
data_K3RhCl6
_symmetry_space_group_name_H-M   'P 1'
_cell_length_a   7.56815207
_cell_length_b   12.14162194
_cell_length_c   12.73532404
_cell_angle_alpha   108.31894183
_cell_angle_beta   90.00000000
_cell_angle_gamma   90.00000000
_symmetry_Int_Tables_number   1
_chemical_formula_structural   K3RhCl6
_chemical_formula_sum   'K12 Rh4 Cl24'
_cell_volume   1110.93826984
_cell_formula_units_Z   4
loop_
 _symmetry_equiv_pos_site_id
 _symmetry_equiv_pos_as_xyz
  1  'x, y, z'
loop_
 _atom_site_type_symbol
 _atom_site_label
 _atom_site_symmetry_multiplicity
 _atom_site_fract_x
 _atom_site_fract_y
 _atom_site_fract_z
 _atom_site_occupancy
  Cl  Cl0  1  0.25564886  0.59949261  0.59373921  1
  Cl  Cl1  1  0.68792365  0.13761781  0.62303014  1
  Cl  Cl2  1  0.18792365  0.36238219  0.37696986  1
  Cl  Cl3  1  0.31207635  0.86238219  0.37696986  1
  Cl  Cl4  1  0.12897348  0.17836083  0.99953851  1
  Cl  Cl5  1  0.62897348  0.32163917  0.00046149  1
  Cl  Cl6  1  0.87102652  0.82163917  0.00046149  1
  Cl  Cl7  1  0.37102652  0.67836083  0.99953851  1
  Cl  Cl8  1  0.19161189  0.99526536  0.14680688  1
  Cl  Cl9  1  0.69161189  0.50473464  0.85319312  1
  Cl  Cl10  1  0.80838811  0.00473464  0.85319312  1
  Cl  Cl11  1  0.30838811  0.49526536  0.14680688  1
  Cl  Cl12  1  0.79512809  0.10170858  0.13894988  1
  Cl  Cl13  1  0.29512809  0.39829142  0.86105012  1
  Cl  Cl14  1  0.20487191  0.89829142  0.86105012  1
  Cl  Cl15  1  0.70487191  0.60170858  0.13894988  1
  Cl  Cl16  1  -0.00122359  0.62016165  0.38454865  1
  Cl  Cl17  1  0.24435114  0.09949261  0.59373921  1
  Cl  Cl18  1  1.00122359  0.37983835  0.61545135  1
  Cl  Cl19  1  0.50122359  0.12016165  0.38454865  1
  Cl  Cl20  1  0.49877641  0.87983835  0.61545135  1
  Cl  Cl21  1  0.75564886  0.90050739  0.40626079  1
  Cl  Cl22  1  0.74435114  0.40050739  0.40626079  1
  Cl  Cl23  1  0.81207635  0.63761781  0.62303014  1
  K  K24  1  0.53251255  0.64054642  0.40113685  1
  K  K25  1  0.43004699  0.23411375  0.18224881  1
  K  K26  1  0.93004699  0.26588625  0.81775119  1
  K  K27  1  0.56995301  0.76588625  0.81775119  1
  K  K28  1  0.93537521  0.38728592  0.18092868  1
  K  K29  1  0.43537521  0.11271408  0.81907132  1
  K  K30  1  0.06462479  0.61271408  0.81907132  1
  K  K31  1  0.56462479  0.88728592  0.18092868  1
  K  K32  1  0.06995301  0.73411375  0.18224881  1
  K  K33  1  0.46748745  0.35945358  0.59886315  1
  K  K34  1  0.03251255  0.85945358  0.59886315  1
  K  K35  1  0.96748745  0.14054642  0.40113685  1
  Rh  Rh36  1  0.50000000  0.00000000  0.50000000  1
  Rh  Rh37  1  0.00000000  0.50000000  0.50000000  1
  Rh  Rh38  1  0.50000000  0.50000000  0.00000000  1
  Rh  Rh39  1  0.00000000  0.00000000  0.00000000  1
