# generated using pymatgen
data_Cs2ThCl6
_symmetry_space_group_name_H-M   'P 1'
_cell_length_a   7.79165853
_cell_length_b   7.79165854
_cell_length_c   6.23791131
_cell_angle_alpha   90.00000000
_cell_angle_beta   90.00000000
_cell_angle_gamma   120.00000001
_symmetry_Int_Tables_number   1
_chemical_formula_structural   Cs2ThCl6
_chemical_formula_sum   'Cs2 Th1 Cl6'
_cell_volume   327.96662476
_cell_formula_units_Z   1
loop_
 _symmetry_equiv_pos_site_id
 _symmetry_equiv_pos_as_xyz
  1  'x, y, z'
loop_
 _atom_site_type_symbol
 _atom_site_label
 _atom_site_symmetry_multiplicity
 _atom_site_fract_x
 _atom_site_fract_y
 _atom_site_fract_z
 _atom_site_occupancy
  Cl  Cl0  1  0.83305152  0.16694848  0.76322590  1
  Cl  Cl1  1  0.83305152  0.66610305  0.76322590  1
  Cl  Cl2  1  0.33389695  0.16694848  0.76322590  1
  Cl  Cl3  1  0.16694848  0.83305152  0.23677410  1
  Cl  Cl4  1  0.16694848  0.33389695  0.23677410  1
  Cl  Cl5  1  0.66610305  0.83305152  0.23677410  1
  Cs  Cs6  1  0.66666667  0.33333333  0.26050818  1
  Cs  Cs7  1  0.33333333  0.66666667  0.73949182  1
  Th  Th8  1  0.00000000  0.00000000  0.00000000  1
