# generated using pymatgen
data_LaSi2Ru
_symmetry_space_group_name_H-M   'P 1'
_cell_length_a   4.11912962
_cell_length_b   4.55899145
_cell_length_c   8.40889380
_cell_angle_alpha   102.45825699
_cell_angle_beta   90.00000000
_cell_angle_gamma   90.00000000
_symmetry_Int_Tables_number   1
_chemical_formula_structural   LaSi2Ru
_chemical_formula_sum   'La2 Si4 Ru2'
_cell_volume   154.19299405
_cell_formula_units_Z   2
loop_
 _symmetry_equiv_pos_site_id
 _symmetry_equiv_pos_as_xyz
  1  'x, y, z'
loop_
 _atom_site_type_symbol
 _atom_site_label
 _atom_site_symmetry_multiplicity
 _atom_site_fract_x
 _atom_site_fract_y
 _atom_site_fract_z
 _atom_site_occupancy
  Si  Si0  1  0.25000000  0.83054780  0.50790987  1
  Si  Si1  1  0.75000000  0.16945220  0.49209013  1
  Si  Si2  1  0.75000000  0.53754977  0.09091659  1
  Si  Si3  1  0.25000000  0.46245023  0.90908341  1
  Ru  Ru4  1  0.75000000  0.62097713  0.38879644  1
  Ru  Ru5  1  0.25000000  0.37902287  0.61120356  1
  La  La6  1  0.25000000  0.08894054  0.20061815  1
  La  La7  1  0.75000000  0.91105946  0.79938185  1
