# generated using pymatgen
data_Li5TlO4
_symmetry_space_group_name_H-M   'P 1'
_cell_length_a   4.79053768
_cell_length_b   13.42135656
_cell_length_c   13.42135656
_cell_angle_alpha   90.00000000
_cell_angle_beta   90.00000000
_cell_angle_gamma   90.00000000
_symmetry_Int_Tables_number   1
_chemical_formula_structural   Li5TlO4
_chemical_formula_sum   'Li40 Tl8 O32'
_cell_volume   862.93302286
_cell_formula_units_Z   8
loop_
 _symmetry_equiv_pos_site_id
 _symmetry_equiv_pos_as_xyz
  1  'x, y, z'
loop_
 _atom_site_type_symbol
 _atom_site_label
 _atom_site_symmetry_multiplicity
 _atom_site_fract_x
 _atom_site_fract_y
 _atom_site_fract_z
 _atom_site_occupancy
  Li  Li0  1  0.75000000  0.87945479  0.12054521  1
  Li  Li1  1  0.25000000  0.37945479  0.87945479  1
  Li  Li2  1  0.25000000  0.12054521  0.62054521  1
  Li  Li3  1  0.75000000  0.62054521  0.37945479  1
  Li  Li4  1  0.25000000  0.12054521  0.87945479  1
  Li  Li5  1  0.75000000  0.62054521  0.12054521  1
  Li  Li6  1  0.75000000  0.87945479  0.37945479  1
  Li  Li7  1  0.25000000  0.37945479  0.62054521  1
  Li  Li8  1  0.81345612  0.11004712  0.14146456  1
  Li  Li9  1  0.81345612  0.38995288  0.35853544  1
  Li  Li10  1  0.31345612  0.14146456  0.38995288  1
  Li  Li11  1  0.31345612  0.35853544  0.11004712  1
  Li  Li12  1  0.68654388  0.64146456  0.61004712  1
  Li  Li13  1  0.18654388  0.88995288  0.64146456  1
  Li  Li14  1  0.18654388  0.61004712  0.85853544  1
  Li  Li15  1  0.68654388  0.85853544  0.88995288  1
  Li  Li16  1  0.18654388  0.88995288  0.85853544  1
  Li  Li17  1  0.18654388  0.61004712  0.64146456  1
  Li  Li18  1  0.68654388  0.85853544  0.61004712  1
  Li  Li19  1  0.25000000  0.98846352  0.01153648  1
  Li  Li20  1  0.31345612  0.35853544  0.38995288  1
  Li  Li21  1  0.81345612  0.11004712  0.35853544  1
  Li  Li22  1  0.81345612  0.38995288  0.14146456  1
  Li  Li23  1  0.31345612  0.14146456  0.11004712  1
  Li  Li24  1  0.75000000  0.25000000  0.75000000  1
  Li  Li25  1  0.25000000  0.75000000  0.25000000  1
  Li  Li26  1  0.25000000  0.25000000  0.75000000  1
  Li  Li27  1  0.75000000  0.75000000  0.25000000  1
  Li  Li28  1  0.15596976  0.75000000  0.75000000  1
  Li  Li29  1  0.65596976  0.75000000  0.75000000  1
  Li  Li30  1  0.84403024  0.25000000  0.25000000  1
  Li  Li31  1  0.34403024  0.25000000  0.25000000  1
  Li  Li32  1  0.75000000  0.48846352  0.51153648  1
  Li  Li33  1  0.25000000  0.98846352  0.48846352  1
  Li  Li34  1  0.25000000  0.51153648  0.01153648  1
  Li  Li35  1  0.75000000  0.01153648  0.98846352  1
  Li  Li36  1  0.25000000  0.51153648  0.48846352  1
  Li  Li37  1  0.75000000  0.01153648  0.51153648  1
  Li  Li38  1  0.75000000  0.48846352  0.98846352  1
  Li  Li39  1  0.68654388  0.64146456  0.88995288  1
  O  O40  1  0.97188889  0.61459046  0.51004559  1
  O  O41  1  0.97188889  0.88540954  0.98995441  1
  O  O42  1  0.47188889  0.51004559  0.88540954  1
  O  O43  1  0.47188889  0.98995441  0.61459046  1
  O  O44  1  0.52811111  0.01004559  0.11459046  1
  O  O45  1  0.02811111  0.38540954  0.01004559  1
  O  O46  1  0.02811111  0.11459046  0.48995441  1
  O  O47  1  0.52811111  0.48995441  0.38540954  1
  O  O48  1  0.02811111  0.38540954  0.48995441  1
  O  O49  1  0.02811111  0.11459046  0.01004559  1
  O  O50  1  0.52811111  0.48995441  0.11459046  1
  O  O51  1  0.52811111  0.01004559  0.38540954  1
  O  O52  1  0.47188889  0.98995441  0.88540954  1
  O  O53  1  0.97188889  0.61459046  0.98995441  1
  O  O54  1  0.97188889  0.88540954  0.51004559  1
  O  O55  1  0.47188889  0.51004559  0.61459046  1
  O  O56  1  0.52295272  0.75000000  0.36452814  1
  O  O57  1  0.52295272  0.75000000  0.13547186  1
  O  O58  1  0.02295272  0.36452814  0.75000000  1
  O  O59  1  0.02295272  0.13547186  0.75000000  1
  O  O60  1  0.08721809  0.13393785  0.25000000  1
  O  O61  1  0.47704728  0.25000000  0.86452814  1
  O  O62  1  0.47704728  0.25000000  0.63547186  1
  O  O63  1  0.97704728  0.63547186  0.25000000  1
  O  O64  1  0.41278191  0.75000000  0.86606215  1
  O  O65  1  0.41278191  0.75000000  0.63393785  1
  O  O66  1  0.91278191  0.86606215  0.75000000  1
  O  O67  1  0.91278191  0.63393785  0.75000000  1
  O  O68  1  0.08721809  0.36606215  0.25000000  1
  O  O69  1  0.58721809  0.25000000  0.36606215  1
  O  O70  1  0.58721809  0.25000000  0.13393785  1
  O  O71  1  0.97704728  0.86452814  0.25000000  1
  Tl  Tl72  1  0.21314846  0.75000000  0.47753696  1
  Tl  Tl73  1  0.21314846  0.75000000  0.02246304  1
  Tl  Tl74  1  0.71314846  0.47753696  0.75000000  1
  Tl  Tl75  1  0.71314846  0.02246304  0.75000000  1
  Tl  Tl76  1  0.28685154  0.97753696  0.25000000  1
  Tl  Tl77  1  0.78685154  0.25000000  0.97753696  1
  Tl  Tl78  1  0.78685154  0.25000000  0.52246304  1
  Tl  Tl79  1  0.28685154  0.52246304  0.25000000  1
