# generated using pymatgen
data_Na4CO4
_symmetry_space_group_name_H-M   'P 1'
_cell_length_a   4.82295898
_cell_length_b   5.80736223
_cell_length_c   5.80738362
_cell_angle_alpha   80.07847830
_cell_angle_beta   65.45989245
_cell_angle_gamma   65.46002671
_symmetry_Int_Tables_number   1
_chemical_formula_structural   Na4CO4
_chemical_formula_sum   'Na4 C1 O4'
_cell_volume   134.59902692
_cell_formula_units_Z   1
loop_
 _symmetry_equiv_pos_site_id
 _symmetry_equiv_pos_as_xyz
  1  'x, y, z'
loop_
 _atom_site_type_symbol
 _atom_site_label
 _atom_site_symmetry_multiplicity
 _atom_site_fract_x
 _atom_site_fract_y
 _atom_site_fract_z
 _atom_site_occupancy
  Na  Na0  1  0.32590984  0.65184395  0.99994194  1
  Na  Na1  1  0.67408586  0.00006300  0.34815791  1
  O  O2  1  0.21877384  0.00001998  0.22310513  1
  Na  Na3  1  0.97767805  0.34815123  0.00006698  1
  Na  Na4  1  0.02231632  0.99992931  0.65184802  1
  O  O5  1  0.78122425  0.77689411  0.99998095  1
  C  C6  1  0.50001035  1.00005256  -0.00005203  1
  O  O7  1  0.44190140  0.99997136  0.77692534  1
  O  O8  1  0.55810008  0.22307449  0.00002574  1
