# generated using pymatgen
data_Mn5Cr3O16
_symmetry_space_group_name_H-M   'P 1'
_cell_length_a   5.83421933
_cell_length_b   5.84465849
_cell_length_c   19.35827500
_cell_angle_alpha   98.67147574
_cell_angle_beta   89.92466438
_cell_angle_gamma   119.98734046
_symmetry_Int_Tables_number   1
_chemical_formula_structural   Mn5Cr3O16
_chemical_formula_sum   'Mn10 Cr6 O32'
_cell_volume   563.08216534
_cell_formula_units_Z   2
loop_
 _symmetry_equiv_pos_site_id
 _symmetry_equiv_pos_as_xyz
  1  'x, y, z'
loop_
 _atom_site_type_symbol
 _atom_site_label
 _atom_site_symmetry_multiplicity
 _atom_site_fract_x
 _atom_site_fract_y
 _atom_site_fract_z
 _atom_site_occupancy
  Mn  Mn0  1  0.12496686  0.74994763  0.37501088  1
  Mn  Mn1  1  0.37490682  0.24990727  0.12495153  1
  Mn  Mn2  1  0.50008530  0.00019256  0.00001328  1
  Mn  Mn3  1  0.24993420  0.50017364  0.24974767  1
  Mn  Mn4  1  0.87506486  0.25002679  0.12497322  1
  Mn  Mn5  1  -0.00005718  0.99959591  0.50025590  1
  Mn  Mn6  1  0.37420597  0.24895295  0.62491800  1
  Mn  Mn7  1  0.12580259  0.75113071  0.87508060  1
  Mn  Mn8  1  0.87481683  0.24904534  0.62494251  1
  Mn  Mn9  1  0.62525431  0.75111370  0.87508080  1
  Cr  Cr10  1  0.37492718  0.75017693  0.12493129  1
  Cr  Cr11  1  0.62500311  0.74989848  0.37501332  1
  Cr  Cr12  1  0.12501273  0.25001970  0.37505365  1
  Cr  Cr13  1  0.87495968  0.74960299  0.62481839  1
  Cr  Cr14  1  0.74994690  0.49992513  0.75000670  1
  Cr  Cr15  1  0.62520211  0.25029277  0.87524344  1
  O  O16  1  0.22950702  0.89912275  0.06618618  1
  O  O17  1  0.66950325  0.89927972  0.06608022  1
  O  O18  1  0.19113872  0.38180498  0.07390892  1
  O  O19  1  0.08006909  0.60068372  0.18366906  1
  O  O20  1  0.52038636  0.60091496  0.18367241  1
  O  O21  1  0.08085268  0.16255811  0.18362050  1
  O  O22  1  0.66867905  0.33700281  0.06620250  1
  O  O23  1  0.41627059  0.83547999  0.31570737  1
  O  O24  1  0.16921837  0.89846956  0.56629842  1
  O  O25  1  0.41716769  0.39809148  0.31585568  1
  O  O26  1  0.55889395  0.11823084  0.17604084  1
  O  O27  1  0.30847756  0.61843673  0.42583599  1
  O  O28  1  0.94150059  0.88155778  0.32423238  1
  O  O29  1  0.83366412  0.66431176  0.43428361  1
  O  O30  1  0.01945133  0.59921978  0.68343889  1
  O  O31  1  0.27034299  0.10037576  0.43379217  1
  O  O32  1  0.97964363  0.39946128  0.31627513  1
  O  O33  1  0.72949108  0.89834717  0.56628266  1
  O  O34  1  0.16895845  0.33705232  0.56616576  1
  O  O35  1  0.05900272  0.11853214  0.67620205  1
  O  O36  1  0.57994410  0.59920601  0.68352664  1
  O  O37  1  0.69098614  0.38148409  0.57406708  1
  O  O38  1  0.44116106  0.88183713  0.82383338  1
  O  O39  1  0.83271338  0.10173807  0.43420865  1
  O  O40  1  0.33143021  0.66338277  0.93394874  1
  O  O41  1  0.58027124  0.16094338  0.68283223  1
  O  O42  1  0.48054560  0.40079805  0.81654939  1
  O  O43  1  0.91983560  0.83923113  0.81721039  1
  O  O44  1  0.80887005  0.61821697  0.92586822  1
  O  O45  1  0.92030843  0.40098408  0.81645627  1
  O  O46  1  0.33120532  0.10152007  0.93390021  1
  O  O47  1  0.77047536  0.10172011  0.93380387  1
