# generated using pymatgen
data_Al2PdCl8
_symmetry_space_group_name_H-M   'P 1'
_cell_length_a   6.90793527
_cell_length_b   7.64163794
_cell_length_c   14.04285005
_cell_angle_alpha   90.00000000
_cell_angle_beta   99.17471638
_cell_angle_gamma   90.00000000
_symmetry_Int_Tables_number   1
_chemical_formula_structural   Al2PdCl8
_chemical_formula_sum   'Al4 Pd2 Cl16'
_cell_volume   731.80956040
_cell_formula_units_Z   2
loop_
 _symmetry_equiv_pos_site_id
 _symmetry_equiv_pos_as_xyz
  1  'x, y, z'
loop_
 _atom_site_type_symbol
 _atom_site_label
 _atom_site_symmetry_multiplicity
 _atom_site_fract_x
 _atom_site_fract_y
 _atom_site_fract_z
 _atom_site_occupancy
  Al  Al0  1  0.33259757  0.72406742  0.10053296  1
  Al  Al1  1  0.33259757  0.77593258  0.60053296  1
  Al  Al2  1  0.66740243  0.27593258  0.89946704  1
  Al  Al3  1  0.66740243  0.22406742  0.39946704  1
  Cl  Cl4  1  0.62719108  0.78008272  0.57836013  1
  Cl  Cl5  1  0.37280892  0.28008272  0.92163987  1
  Cl  Cl6  1  0.13118369  0.73362499  0.95850296  1
  Cl  Cl7  1  0.86881631  0.23362499  0.54149704  1
  Cl  Cl8  1  0.86881631  0.26637501  0.04149704  1
  Cl  Cl9  1  0.13118369  0.76637501  0.45850296  1
  Cl  Cl10  1  0.23223952  0.98964485  0.14092808  1
  Cl  Cl11  1  0.76776048  0.48964485  0.35907192  1
  Cl  Cl12  1  0.76776048  0.01035515  0.85907192  1
  Cl  Cl13  1  0.23223952  0.51035515  0.64092808  1
  Cl  Cl14  1  0.25211766  0.53334940  0.19477115  1
  Cl  Cl15  1  0.74788234  0.03334940  0.30522885  1
  Cl  Cl16  1  0.74788234  0.46665060  0.80522885  1
  Cl  Cl17  1  0.25211766  0.96665060  0.69477115  1
  Cl  Cl18  1  0.62719108  0.71991728  0.07836013  1
  Cl  Cl19  1  0.37280892  0.21991728  0.42163987  1
  Pd  Pd20  1  0.00000000  0.50000000  0.50000000  1
  Pd  Pd21  1  0.00000000  0.00000000  0.00000000  1
