# generated using pymatgen
data_BaLi2Si
_symmetry_space_group_name_H-M   'P 1'
_cell_length_a   4.66525114
_cell_length_b   6.37399978
_cell_length_c   6.69409652
_cell_angle_alpha   90.00000000
_cell_angle_beta   90.00000000
_cell_angle_gamma   90.00000000
_symmetry_Int_Tables_number   1
_chemical_formula_structural   BaLi2Si
_chemical_formula_sum   'Ba2 Li4 Si2'
_cell_volume   199.05772755
_cell_formula_units_Z   2
loop_
 _symmetry_equiv_pos_site_id
 _symmetry_equiv_pos_as_xyz
  1  'x, y, z'
loop_
 _atom_site_type_symbol
 _atom_site_label
 _atom_site_symmetry_multiplicity
 _atom_site_fract_x
 _atom_site_fract_y
 _atom_site_fract_z
 _atom_site_occupancy
  Li  Li0  1  0.25000000  0.58843739  0.04866202  1
  Li  Li1  1  0.75000000  0.41156261  0.95133798  1
  Li  Li2  1  0.75000000  0.41156261  0.54866202  1
  Li  Li3  1  0.25000000  0.58843739  0.45133798  1
  Si  Si4  1  0.75000000  0.69344844  0.25000000  1
  Si  Si5  1  0.25000000  0.30655156  0.75000000  1
  Ba  Ba6  1  0.25000000  0.09366752  0.25000000  1
  Ba  Ba7  1  0.75000000  0.90633248  0.75000000  1
