# generated using pymatgen
data_NaLuCl4
_symmetry_space_group_name_H-M   'P 1'
_cell_length_a   6.34478481
_cell_length_b   6.62131813
_cell_length_c   16.06739070
_cell_angle_alpha   90.00000000
_cell_angle_beta   90.00000000
_cell_angle_gamma   90.00000000
_symmetry_Int_Tables_number   1
_chemical_formula_structural   NaLuCl4
_chemical_formula_sum   'Na4 Lu4 Cl16'
_cell_volume   675.00455892
_cell_formula_units_Z   4
loop_
 _symmetry_equiv_pos_site_id
 _symmetry_equiv_pos_as_xyz
  1  'x, y, z'
loop_
 _atom_site_type_symbol
 _atom_site_label
 _atom_site_symmetry_multiplicity
 _atom_site_fract_x
 _atom_site_fract_y
 _atom_site_fract_z
 _atom_site_occupancy
  Na  Na0  1  0.00000000  0.25000000  0.68123442  1
  Na  Na1  1  0.50000000  0.75000000  0.81876558  1
  Na  Na2  1  0.00000000  0.75000000  0.31876558  1
  Na  Na3  1  0.50000000  0.25000000  0.18123442  1
  Cl  Cl4  1  0.26470541  0.59957128  0.68088078  1
  Cl  Cl5  1  0.77141251  0.42674868  0.04900973  1
  Cl  Cl6  1  0.27141251  0.57325132  0.45099027  1
  Cl  Cl7  1  0.72858749  0.92674868  0.45099027  1
  Cl  Cl8  1  0.76470541  0.40042872  0.81911922  1
  Cl  Cl9  1  0.23529459  0.59957128  0.18088078  1
  Cl  Cl10  1  0.73529459  0.90042872  0.68088078  1
  Cl  Cl11  1  0.23529459  0.09957128  0.81911922  1
  Cl  Cl12  1  0.26470541  0.09957128  0.31911922  1
  Cl  Cl13  1  0.73529459  0.40042872  0.31911922  1
  Cl  Cl14  1  0.22858749  0.57325132  0.95099027  1
  Cl  Cl15  1  0.76470541  0.90042872  0.18088078  1
  Cl  Cl16  1  0.77141251  0.92674868  0.95099027  1
  Cl  Cl17  1  0.27141251  0.07325132  0.54900973  1
  Cl  Cl18  1  0.72858749  0.42674868  0.54900973  1
  Cl  Cl19  1  0.22858749  0.07325132  0.04900973  1
  Lu  Lu20  1  0.00000000  0.25000000  0.92813160  1
  Lu  Lu21  1  0.50000000  0.25000000  0.42813160  1
  Lu  Lu22  1  0.00000000  0.75000000  0.07186840  1
  Lu  Lu23  1  0.50000000  0.75000000  0.57186840  1
