# generated using pymatgen
data_U(IO4)2
_symmetry_space_group_name_H-M   'P 1'
_cell_length_a   4.26592759
_cell_length_b   5.51315120
_cell_length_c   16.63134292
_cell_angle_alpha   90.00000000
_cell_angle_beta   90.00000000
_cell_angle_gamma   108.55293053
_symmetry_Int_Tables_number   1
_chemical_formula_structural   U(IO4)2
_chemical_formula_sum   'U2 I4 O16'
_cell_volume   370.81973377
_cell_formula_units_Z   2
loop_
 _symmetry_equiv_pos_site_id
 _symmetry_equiv_pos_as_xyz
  1  'x, y, z'
loop_
 _atom_site_type_symbol
 _atom_site_label
 _atom_site_symmetry_multiplicity
 _atom_site_fract_x
 _atom_site_fract_y
 _atom_site_fract_z
 _atom_site_occupancy
  O  O0  1  0.37431247  0.70457642  0.55786469  1
  O  O1  1  0.12568753  0.79542358  0.05786469  1
  O  O2  1  0.62568753  0.29542358  0.44213531  1
  O  O3  1  0.87431247  0.20457642  0.94213531  1
  O  O4  1  0.40942267  0.75085750  0.37091599  1
  O  O5  1  0.09057733  0.74914250  0.87091599  1
  O  O6  1  0.46418314  0.38883507  0.06338064  1
  O  O7  1  0.03581686  0.11116493  0.56338064  1
  O  O8  1  0.53581686  0.61116493  0.93661936  1
  O  O9  1  0.96418314  0.88883507  0.43661936  1
  O  O10  1  0.44418819  0.48783585  0.22817898  1
  O  O11  1  0.05581181  1.01216415  0.72817898  1
  O  O12  1  0.55581181  0.51216415  0.77182102  1
  O  O13  1  0.94418819  -0.01216415  0.27182102  1
  O  O14  1  0.90942267  0.25085750  0.12908401  1
  O  O15  1  0.59057733  0.24914250  0.62908401  1
  I  I16  1  0.81141265  0.71506237  0.33894906  1
  I  I17  1  0.68858735  0.78493763  0.83894906  1
  I  I18  1  0.18858735  0.28493763  0.66105094  1
  I  I19  1  0.31141265  0.21506237  0.16105094  1
  U  U20  1  0.50000000  0.00000000  0.50000000  1
  U  U21  1  0.00000000  0.50000000  0.00000000  1
