# generated using pymatgen
data_Sn4B3Ir7
_symmetry_space_group_name_H-M   'P 1'
_cell_length_a   9.38437876
_cell_length_b   9.38437876
_cell_length_c   5.69291211
_cell_angle_alpha   90.00000000
_cell_angle_beta   90.00000000
_cell_angle_gamma   120.00000003
_symmetry_Int_Tables_number   1
_chemical_formula_structural   Sn4B3Ir7
_chemical_formula_sum   'Sn8 B6 Ir14'
_cell_volume   434.18635028
_cell_formula_units_Z   2
loop_
 _symmetry_equiv_pos_site_id
 _symmetry_equiv_pos_as_xyz
  1  'x, y, z'
loop_
 _atom_site_type_symbol
 _atom_site_label
 _atom_site_symmetry_multiplicity
 _atom_site_fract_x
 _atom_site_fract_y
 _atom_site_fract_z
 _atom_site_occupancy
  B  B0  1  0.82774720  0.79054245  0.25000000  1
  B  B1  1  0.96279525  0.17225280  0.25000000  1
  B  B2  1  0.20945755  0.03720475  0.25000000  1
  B  B3  1  0.79054245  0.96279525  0.75000000  1
  B  B4  1  0.03720475  0.82774720  0.75000000  1
  B  B5  1  0.17225280  0.20945755  0.75000000  1
  Sn  Sn6  1  0.50222301  0.09173112  0.75000000  1
  Sn  Sn7  1  0.09173112  0.58950811  0.25000000  1
  Sn  Sn8  1  0.90826888  0.41049189  0.75000000  1
  Sn  Sn9  1  0.58950811  0.49777699  0.75000000  1
  Sn  Sn10  1  0.49777699  0.90826888  0.25000000  1
  Sn  Sn11  1  0.33333333  0.66666667  0.75000000  1
  Sn  Sn12  1  0.41049189  0.50222301  0.25000000  1
  Sn  Sn13  1  0.66666667  0.33333333  0.25000000  1
  Ir  Ir14  1  0.12361536  0.35412968  0.99900941  1
  Ir  Ir15  1  0.76948567  0.12361536  0.49900941  1
  Ir  Ir16  1  0.76948567  0.12361536  0.00099059  1
  Ir  Ir17  1  0.64587032  0.76948567  0.50099059  1
  Ir  Ir18  1  0.12361536  0.35412968  0.50099059  1
  Ir  Ir19  1  0.87638464  0.64587032  0.00099059  1
  Ir  Ir20  1  0.35412968  0.23051433  0.00099059  1
  Ir  Ir21  1  0.23051433  0.87638464  0.50099059  1
  Ir  Ir22  1  0.87638464  0.64587032  0.49900941  1
  Ir  Ir23  1  0.35412968  0.23051433  0.49900941  1
  Ir  Ir24  1  0.23051433  0.87638464  0.99900941  1
  Ir  Ir25  1  0.00000000  0.00000000  0.50000000  1
  Ir  Ir26  1  0.00000000  0.00000000  0.00000000  1
  Ir  Ir27  1  0.64587032  0.76948567  0.99900941  1
