# generated using pymatgen
data_Nd2NCl3
_symmetry_space_group_name_H-M   'P 1'
_cell_length_a   6.29308475
_cell_length_b   6.91205574
_cell_length_c   13.55417966
_cell_angle_alpha   90.00000000
_cell_angle_beta   90.00000000
_cell_angle_gamma   90.00000000
_symmetry_Int_Tables_number   1
_chemical_formula_structural   Nd2NCl3
_chemical_formula_sum   'Nd8 N4 Cl12'
_cell_volume   589.58177479
_cell_formula_units_Z   4
loop_
 _symmetry_equiv_pos_site_id
 _symmetry_equiv_pos_as_xyz
  1  'x, y, z'
loop_
 _atom_site_type_symbol
 _atom_site_label
 _atom_site_symmetry_multiplicity
 _atom_site_fract_x
 _atom_site_fract_y
 _atom_site_fract_z
 _atom_site_occupancy
  N  N0  1  0.75000000  0.49244310  0.50000000  1
  N  N1  1  0.25000000  0.00755690  0.00000000  1
  N  N2  1  0.25000000  0.50755690  0.50000000  1
  N  N3  1  0.75000000  0.99244310  0.00000000  1
  Cl  Cl4  1  0.10365279  0.36160536  0.28212022  1
  Cl  Cl5  1  0.60365279  0.13839464  0.21787978  1
  Cl  Cl6  1  0.39634721  0.36160536  0.71787978  1
  Cl  Cl7  1  0.89634721  0.13839464  0.78212022  1
  Cl  Cl8  1  0.75000000  0.50150283  0.00000000  1
  Cl  Cl9  1  0.25000000  0.99849717  0.50000000  1
  Cl  Cl10  1  0.25000000  0.49849717  0.00000000  1
  Cl  Cl11  1  0.75000000  0.00150283  0.50000000  1
  Cl  Cl12  1  0.10365279  0.86160536  0.21787978  1
  Cl  Cl13  1  0.60365279  0.63839464  0.28212022  1
  Cl  Cl14  1  0.39634721  0.86160536  0.78212022  1
  Cl  Cl15  1  0.89634721  0.63839464  0.71787978  1
  Nd  Nd16  1  0.00646109  0.32516128  0.59211202  1
  Nd  Nd17  1  0.50646109  0.17483872  0.90788798  1
  Nd  Nd18  1  0.49353891  0.32516128  0.40788798  1
  Nd  Nd19  1  0.99353891  0.17483872  0.09211202  1
  Nd  Nd20  1  0.99353891  0.67483872  0.40788798  1
  Nd  Nd21  1  0.49353891  0.82516128  0.09211202  1
  Nd  Nd22  1  0.50646109  0.67483872  0.59211202  1
  Nd  Nd23  1  0.00646109  0.82516128  0.90788798  1
