# generated using pymatgen
data_SbSeCl9
_symmetry_space_group_name_H-M   'P 1'
_cell_length_a   9.73496594
_cell_length_b   11.65873402
_cell_length_c   13.54720972
_cell_angle_alpha   90.00000000
_cell_angle_beta   103.54660787
_cell_angle_gamma   90.00000000
_symmetry_Int_Tables_number   1
_chemical_formula_structural   SbSeCl9
_chemical_formula_sum   'Sb4 Se4 Cl36'
_cell_volume   1494.79705395
_cell_formula_units_Z   4
loop_
 _symmetry_equiv_pos_site_id
 _symmetry_equiv_pos_as_xyz
  1  'x, y, z'
loop_
 _atom_site_type_symbol
 _atom_site_label
 _atom_site_symmetry_multiplicity
 _atom_site_fract_x
 _atom_site_fract_y
 _atom_site_fract_z
 _atom_site_occupancy
  Cl  Cl0  1  0.47551939  0.39267421  0.62509149  1
  Cl  Cl1  1  0.52448061  0.89267421  0.37490851  1
  Cl  Cl2  1  0.16098753  0.25000000  1.00527504  1
  Cl  Cl3  1  0.83901247  0.75000000  -0.00527504  1
  Cl  Cl4  1  0.18001302  0.10599981  0.22393944  1
  Cl  Cl5  1  0.81998698  0.60599981  0.77606056  1
  Cl  Cl6  1  0.81998698  0.89400019  0.77606056  1
  Cl  Cl7  1  0.18001302  0.39400019  0.22393944  1
  Cl  Cl8  1  0.48537164  0.25000000  0.33600909  1
  Cl  Cl9  1  0.51462836  0.75000000  0.66399091  1
  Cl  Cl10  1  0.46136115  0.10154211  0.11190594  1
  Cl  Cl11  1  0.53863885  0.60154211  0.88809406  1
  Cl  Cl12  1  0.53863885  0.89845789  0.88809406  1
  Cl  Cl13  1  0.46136115  0.39845789  0.11190594  1
  Cl  Cl14  1  0.52448061  0.60732579  0.37490851  1
  Cl  Cl15  1  0.47551939  0.10732579  0.62509149  1
  Cl  Cl16  1  0.13544615  0.25000000  0.50180704  1
  Cl  Cl17  1  0.86455385  0.75000000  0.49819296  1
  Cl  Cl18  1  0.14514289  0.39442243  0.71757394  1
  Cl  Cl19  1  0.85485711  0.89442243  0.28242606  1
  Cl  Cl20  1  0.85485711  0.60557757  0.28242606  1
  Cl  Cl21  1  0.14514289  0.10557757  0.71757394  1
  Cl  Cl22  1  0.85449786  0.25000000  0.75264770  1
  Cl  Cl23  1  0.14550214  0.75000000  0.24735230  1
  Cl  Cl24  1  0.84072248  0.39781142  0.52863244  1
  Cl  Cl25  1  0.15927752  0.89781142  0.47136756  1
  Cl  Cl26  1  0.15927752  0.60218858  0.47136756  1
  Cl  Cl27  1  0.84072248  0.10218858  0.52863244  1
  Cl  Cl28  1  0.51888532  0.75000000  0.16148821  1
  Cl  Cl29  1  0.48111468  0.25000000  0.83851179  1
  Cl  Cl30  1  0.83987123  0.25000000  0.24433952  1
  Cl  Cl31  1  0.16012877  0.75000000  0.75566048  1
  Cl  Cl32  1  0.83294848  0.10729780  0.03093162  1
  Cl  Cl33  1  0.16705152  0.60729780  0.96906838  1
  Cl  Cl34  1  0.16705152  0.89270220  0.96906838  1
  Cl  Cl35  1  0.83294848  0.39270220  0.03093162  1
  Se  Se36  1  0.36471684  0.25000000  0.67838087  1
  Se  Se37  1  0.63528316  0.75000000  0.32161913  1
  Se  Se38  1  0.05276110  0.75000000  0.88062121  1
  Se  Se39  1  0.94723890  0.25000000  0.11937879  1
  Sb  Sb40  1  0.02124983  0.75000000  0.37815277  1
  Sb  Sb41  1  0.97875017  0.25000000  0.62184723  1
  Sb  Sb42  1  0.66554093  0.75000000  0.82874589  1
  Sb  Sb43  1  0.33445907  0.25000000  0.17125411  1
