# generated using pymatgen
data_ZrAl5Ni2
_symmetry_space_group_name_H-M   'P 1'
_cell_length_a   4.02103181
_cell_length_b   4.02103180
_cell_length_c   7.82588873
_cell_angle_alpha   104.88653993
_cell_angle_beta   104.88653991
_cell_angle_gamma   89.99999991
_symmetry_Int_Tables_number   1
_chemical_formula_structural   ZrAl5Ni2
_chemical_formula_sum   'Zr1 Al5 Ni2'
_cell_volume   117.88763694
_cell_formula_units_Z   1
loop_
 _symmetry_equiv_pos_site_id
 _symmetry_equiv_pos_as_xyz
  1  'x, y, z'
loop_
 _atom_site_type_symbol
 _atom_site_label
 _atom_site_symmetry_multiplicity
 _atom_site_fract_x
 _atom_site_fract_y
 _atom_site_fract_z
 _atom_site_occupancy
  Al  Al0  1  0.50000000  0.50000000  0.00000000  1
  Al  Al1  1  0.64757628  0.14757628  0.29515255  1
  Al  Al2  1  0.14757628  0.64757628  0.29515255  1
  Al  Al3  1  0.35242372  0.85242372  0.70484745  1
  Al  Al4  1  0.85242372  0.35242372  0.70484745  1
  Ni  Ni5  1  0.23959678  0.23959678  0.47919356  1
  Ni  Ni6  1  0.76040322  0.76040322  0.52080644  1
  Zr  Zr7  1  0.00000000  0.00000000  0.00000000  1
