# generated using pymatgen
data_Ba(NiP2)2
_symmetry_space_group_name_H-M   'P 1'
_cell_length_a   5.47599117
_cell_length_b   5.47599117
_cell_length_c   5.47599117
_cell_angle_alpha   106.17625847
_cell_angle_beta   106.17625846
_cell_angle_gamma   116.28354224
_symmetry_Int_Tables_number   1
_chemical_formula_structural   Ba(NiP2)2
_chemical_formula_sum   'Ba1 Ni2 P4'
_cell_volume   125.05000008
_cell_formula_units_Z   1
loop_
 _symmetry_equiv_pos_site_id
 _symmetry_equiv_pos_as_xyz
  1  'x, y, z'
loop_
 _atom_site_type_symbol
 _atom_site_label
 _atom_site_symmetry_multiplicity
 _atom_site_fract_x
 _atom_site_fract_y
 _atom_site_fract_z
 _atom_site_occupancy
  P  P0  1  0.50000000  0.74194196  0.24194196  1
  P  P1  1  0.74194196  0.50000000  0.24194196  1
  P  P2  1  0.25805804  0.50000000  0.75805804  1
  P  P3  1  0.50000000  0.25805804  0.75805804  1
  Ni  Ni4  1  0.25000000  0.75000000  0.50000000  1
  Ni  Ni5  1  0.75000000  0.25000000  0.50000000  1
  Ba  Ba6  1  0.00000000  0.00000000  0.00000000  1
