# generated using pymatgen
data_Li6Te2O9
_symmetry_space_group_name_H-M   'P 1'
_cell_length_a   16.25152945
_cell_length_b   8.73946917
_cell_length_c   6.02968069
_cell_angle_alpha   109.66729241
_cell_angle_beta   100.39918714
_cell_angle_gamma   85.56676075
_symmetry_Int_Tables_number   1
_chemical_formula_structural   Li6Te2O9
_chemical_formula_sum   'Li24 Te8 O36'
_cell_volume   793.06131866
_cell_formula_units_Z   4
loop_
 _symmetry_equiv_pos_site_id
 _symmetry_equiv_pos_as_xyz
  1  'x, y, z'
loop_
 _atom_site_type_symbol
 _atom_site_label
 _atom_site_symmetry_multiplicity
 _atom_site_fract_x
 _atom_site_fract_y
 _atom_site_fract_z
 _atom_site_occupancy
  Li  Li0  1  0.01212954  0.14520916  0.96466143  1
  Li  Li1  1  0.03002265  0.13188759  0.45461920  1
  Li  Li2  1  0.08518198  0.47564485  0.39803064  1
  Li  Li3  1  0.14792892  0.83920788  0.13971438  1
  Li  Li4  1  0.23132998  0.62900935  0.82021895  1
  Li  Li5  1  0.26826592  0.11892956  0.58840357  1
  Li  Li6  1  0.23009463  0.62506317  0.29461211  1
  Li  Li7  1  0.26945899  0.11436383  0.05045770  1
  Li  Li8  1  0.36315757  0.31872533  0.46621150  1
  Li  Li9  1  0.42075607  0.96898156  0.82783161  1
  Li  Li10  1  0.47093031  0.63596230  0.92846131  1
  Li  Li11  1  0.48400008  0.63177343  0.43544059  1
  Li  Li12  1  0.51599992  0.36822657  0.56455941  1
  Li  Li13  1  0.52906969  0.36403770  0.07153869  1
  Li  Li14  1  0.57924393  0.03101844  0.17216839  1
  Li  Li15  1  0.63684243  0.68127467  0.53378850  1
  Li  Li16  1  0.73054101  0.88563617  0.94954230  1
  Li  Li17  1  0.76990537  0.37493683  0.70538789  1
  Li  Li18  1  0.73173408  0.88107044  0.41159643  1
  Li  Li19  1  0.76867002  0.37099065  0.17978105  1
  Li  Li20  1  0.85207108  0.16079212  0.86028562  1
  Li  Li21  1  0.91481802  0.52435515  0.60196936  1
  Li  Li22  1  0.96997735  0.86811241  0.54538080  1
  Li  Li23  1  0.98787046  0.85479084  0.03533857  1
  Te  Te24  1  0.14710470  0.36984231  0.88287769  1
  Te  Te25  1  0.14660154  0.88715358  0.66751062  1
  Te  Te26  1  0.35216485  0.38549859  0.99640171  1
  Te  Te27  1  0.35182455  0.86748718  0.26471249  1
  Te  Te28  1  0.64817545  0.13251282  0.73528751  1
  Te  Te29  1  0.64783515  0.61450141  0.00359829  1
  Te  Te30  1  0.85339846  0.11284642  0.33248938  1
  Te  Te31  1  0.85289530  0.63015769  0.11712231  1
  O  O32  1  0.07358061  0.34342704  0.59435933  1
  O  O33  1  0.05717275  0.91441717  0.84239330  1
  O  O34  1  0.07420598  0.91019787  0.39074114  1
  O  O35  1  0.08124465  0.32782509  0.07839233  1
  O  O36  1  0.17861487  0.12026736  0.76314207  1
  O  O37  1  0.16048174  0.66001824  0.53738877  1
  O  O38  1  0.14726900  0.59645933  0.00042242  1
  O  O39  1  0.22862531  0.88496062  0.94055730  1
  O  O40  1  0.25301972  0.37586414  0.72727663  1
  O  O41  1  0.24955584  0.86691495  0.39756137  1
  O  O42  1  0.25583046  0.37432903  0.15925391  1
  O  O43  1  0.35629416  0.15780016  0.88431273  1
  O  O44  1  0.33561810  0.09477745  0.34368073  1
  O  O45  1  0.32347502  0.62672550  0.10002439  1
  O  O46  1  0.42826510  0.41389625  0.80479852  1
  O  O47  1  0.42877082  0.83452133  0.51207752  1
  O  O48  1  0.43360876  0.41214185  0.28275861  1
  O  O49  1  0.41854956  0.84341975  0.03122965  1
  O  O50  1  0.58145044  0.15658025  0.96877035  1
  O  O51  1  0.56639124  0.58785815  0.71724139  1
  O  O52  1  0.57122918  0.16547867  0.48792248  1
  O  O53  1  0.57173490  0.58610375  0.19520148  1
  O  O54  1  0.67652498  0.37327450  0.89997561  1
  O  O55  1  0.66438190  0.90522255  0.65631927  1
  O  O56  1  0.64370584  0.84219984  0.11568727  1
  O  O57  1  0.74416954  0.62567097  0.84074609  1
  O  O58  1  0.75044416  0.13308505  0.60243863  1
  O  O59  1  0.74698028  0.62413586  0.27272337  1
  O  O60  1  0.77137469  0.11503938  0.05944270  1
  O  O61  1  0.83951826  0.33998176  0.46261123  1
  O  O62  1  0.82138513  0.87973264  0.23685793  1
  O  O63  1  0.85273100  0.40354067  0.99957758  1
  O  O64  1  0.91875535  0.67217491  0.92160767  1
  O  O65  1  0.92579402  0.08980213  0.60925886  1
  O  O66  1  0.94282725  0.08558283  0.15760670  1
  O  O67  1  0.92641939  0.65657296  0.40564067  1
