# generated using pymatgen
data_Bi2Te4O11
_symmetry_space_group_name_H-M   'P 1'
_cell_length_a   7.07771115
_cell_length_b   8.12577593
_cell_length_c   19.21747623
_cell_angle_alpha   90.00000000
_cell_angle_beta   93.73185426
_cell_angle_gamma   90.00000000
_symmetry_Int_Tables_number   1
_chemical_formula_structural   Bi2Te4O11
_chemical_formula_sum   'Bi8 Te16 O44'
_cell_volume   1102.88992094
_cell_formula_units_Z   4
loop_
 _symmetry_equiv_pos_site_id
 _symmetry_equiv_pos_as_xyz
  1  'x, y, z'
loop_
 _atom_site_type_symbol
 _atom_site_label
 _atom_site_symmetry_multiplicity
 _atom_site_fract_x
 _atom_site_fract_y
 _atom_site_fract_z
 _atom_site_occupancy
  O  O0  1  0.80535399  0.27419215  0.33844770  1
  O  O1  1  0.69464601  0.77419215  0.16155230  1
  O  O2  1  0.19464601  0.72580785  0.66155230  1
  O  O3  1  0.30535399  0.22580785  0.83844770  1
  O  O4  1  0.31317386  0.39833862  0.68804892  1
  O  O5  1  0.18682614  0.89833862  0.81195108  1
  O  O6  1  0.68682614  0.60166138  0.31195108  1
  O  O7  1  0.81317386  0.10166138  0.18804892  1
  O  O8  1  0.16580694  0.47624593  0.53601771  1
  O  O9  1  0.33419306  0.97624593  0.96398229  1
  O  O10  1  0.83419306  0.52375407  0.46398229  1
  O  O11  1  0.66580694  0.02375407  0.03601771  1
  O  O12  1  0.84014439  0.33420289  0.60779646  1
  O  O13  1  0.65985561  0.83420289  0.89220354  1
  O  O14  1  0.15985561  0.66579711  0.39220354  1
  O  O15  1  0.34014439  0.16579711  0.10779646  1
  O  O16  1  0.05884457  0.47313037  0.26703677  1
  O  O17  1  0.13503082  0.42171277  0.04191362  1
  O  O18  1  0.86496918  0.57828723  0.95808638  1
  O  O19  1  0.63503082  0.07828723  0.54191362  1
  O  O20  1  0.45788710  0.34373818  0.24777049  1
  O  O21  1  0.04211290  0.84373818  0.25222951  1
  O  O22  1  0.54211290  0.65626182  0.75222951  1
  O  O23  1  0.95788710  0.15626182  0.74777049  1
  O  O24  1  0.93786632  0.17225026  0.47696075  1
  O  O25  1  0.56213368  0.67225026  0.02303925  1
  O  O26  1  0.06213368  0.82774974  0.52303925  1
  O  O27  1  0.43786632  0.32774974  0.97696075  1
  O  O28  1  0.90931132  0.17609788  0.96777246  1
  O  O29  1  0.59068868  0.67609788  0.53222754  1
  O  O30  1  0.09068868  0.82390212  0.03222754  1
  O  O31  1  0.40931132  0.32390212  0.46777246  1
  O  O32  1  0.25520198  0.15210996  0.58462499  1
  O  O33  1  0.24479802  0.65210996  0.91537501  1
  O  O34  1  0.74479802  0.84789004  0.41537501  1
  O  O35  1  0.75520198  0.34789004  0.08462499  1
  O  O36  1  0.28525911  0.14522788  0.34602664  1
  O  O37  1  0.21474089  0.64522788  0.15397336  1
  O  O38  1  0.71474089  0.85477212  0.65397336  1
  O  O39  1  0.78525911  0.35477212  0.84602664  1
  O  O40  1  0.55884457  0.02686963  0.76703677  1
  O  O41  1  0.94115543  0.52686963  0.73296323  1
  O  O42  1  0.44115543  0.97313037  0.23296323  1
  O  O43  1  0.36496918  0.92171277  0.45808638  1
  Te  Te44  1  0.38568505  0.35317308  0.57074474  1
  Te  Te45  1  0.11431495  0.85317308  0.92925526  1
  Te  Te46  1  0.61431495  0.64682692  0.42925526  1
  Te  Te47  1  0.88568505  0.14682692  0.07074474  1
  Te  Te48  1  0.74569933  0.41185864  0.26039578  1
  Te  Te49  1  0.75430067  0.91185864  0.23960422  1
  Te  Te50  1  0.25430067  0.58814136  0.73960422  1
  Te  Te51  1  0.24569933  0.08814136  0.76039578  1
  Te  Te52  1  0.40654600  0.37635855  0.07342644  1
  Te  Te53  1  0.09345400  0.87635855  0.42657356  1
  Te  Te54  1  0.59345400  0.62364145  0.92657356  1
  Te  Te55  1  0.90654600  0.12364145  0.57342644  1
  Te  Te56  1  0.78267925  0.33931737  0.74713511  1
  Te  Te57  1  0.71732075  0.83931737  0.75286489  1
  Te  Te58  1  0.21732075  0.66068263  0.25286489  1
  Te  Te59  1  0.28267925  0.16068263  0.24713511  1
  Bi  Bi60  1  0.07583369  0.38832599  0.41657278  1
  Bi  Bi61  1  0.42416631  0.88832599  0.08342722  1
  Bi  Bi62  1  0.92416631  0.61167401  0.58342722  1
  Bi  Bi63  1  0.57583369  0.11167401  0.91657278  1
  Bi  Bi64  1  0.07169375  0.38244396  0.92185485  1
  Bi  Bi65  1  0.42830625  0.88244396  0.57814515  1
  Bi  Bi66  1  0.92830625  0.61755604  0.07814515  1
  Bi  Bi67  1  0.57169375  0.11755604  0.42185485  1
