# generated using pymatgen
data_Ga3Bi5Cl12
_symmetry_space_group_name_H-M   'P 1'
_cell_length_a   12.44358768
_cell_length_b   12.44358768
_cell_length_c   12.44358768
_cell_angle_alpha   58.12840510
_cell_angle_beta   58.12840510
_cell_angle_gamma   58.12840509
_symmetry_Int_Tables_number   1
_chemical_formula_structural   Ga3Bi5Cl12
_chemical_formula_sum   'Ga6 Bi10 Cl24'
_cell_volume   1304.00143401
_cell_formula_units_Z   2
loop_
 _symmetry_equiv_pos_site_id
 _symmetry_equiv_pos_as_xyz
  1  'x, y, z'
loop_
 _atom_site_type_symbol
 _atom_site_label
 _atom_site_symmetry_multiplicity
 _atom_site_fract_x
 _atom_site_fract_y
 _atom_site_fract_z
 _atom_site_occupancy
  Cl  Cl0  1  0.45525158  0.57366803  0.19263482  1
  Cl  Cl1  1  0.57366803  0.19263482  0.45525158  1
  Cl  Cl2  1  0.19263482  0.45525158  0.57366803  1
  Cl  Cl3  1  0.30736518  0.92633197  0.04474842  1
  Cl  Cl4  1  0.92633197  0.04474842  0.30736518  1
  Cl  Cl5  1  0.04474842  0.30736518  0.92633197  1
  Cl  Cl6  1  0.54474842  0.42633197  0.80736518  1
  Cl  Cl7  1  0.42633197  0.80736518  0.54474842  1
  Cl  Cl8  1  0.80736518  0.54474842  0.42633197  1
  Cl  Cl9  1  0.69263482  0.07366803  0.95525158  1
  Cl  Cl10  1  0.07366803  0.95525158  0.69263482  1
  Cl  Cl11  1  0.95525158  0.69263482  0.07366803  1
  Cl  Cl12  1  0.22533958  0.80190352  0.39581422  1
  Cl  Cl13  1  0.80190352  0.39581422  0.22533958  1
  Cl  Cl14  1  0.39581422  0.22533958  0.80190352  1
  Cl  Cl15  1  0.10418578  0.69809648  0.27466042  1
  Cl  Cl16  1  0.72533958  0.89581422  0.30190352  1
  Cl  Cl17  1  0.30190352  0.72533958  0.89581422  1
  Cl  Cl18  1  0.89581422  0.30190352  0.72533958  1
  Cl  Cl19  1  0.60418578  0.77466042  0.19809648  1
  Cl  Cl20  1  0.19809648  0.60418578  0.77466042  1
  Cl  Cl21  1  0.77466042  0.19809648  0.60418578  1
  Cl  Cl22  1  0.27466042  0.10418578  0.69809648  1
  Cl  Cl23  1  0.69809648  0.27466042  0.10418578  1
  Ga  Ga24  1  0.27098786  0.75000000  0.22901214  1
  Ga  Ga25  1  0.75000000  0.22901214  0.27098786  1
  Ga  Ga26  1  0.22901214  0.27098786  0.75000000  1
  Ga  Ga27  1  0.72901214  0.25000000  0.77098786  1
  Ga  Ga28  1  0.25000000  0.77098786  0.72901214  1
  Ga  Ga29  1  0.77098786  0.72901214  0.25000000  1
  Bi  Bi30  1  0.82792102  0.82792102  0.82792102  1
  Bi  Bi31  1  0.67207898  0.67207898  0.67207898  1
  Bi  Bi32  1  0.17207898  0.17207898  0.17207898  1
  Bi  Bi33  1  0.32792102  0.32792102  0.32792102  1
  Bi  Bi34  1  0.90693163  0.75000000  0.59306837  1
  Bi  Bi35  1  0.75000000  0.59306837  0.90693163  1
  Bi  Bi36  1  0.59306837  0.90693163  0.75000000  1
  Bi  Bi37  1  0.09306837  0.25000000  0.40693163  1
  Bi  Bi38  1  0.25000000  0.40693163  0.09306837  1
  Bi  Bi39  1  0.40693163  0.09306837  0.25000000  1
