# generated using pymatgen
data_P4N6O
_symmetry_space_group_name_H-M   'P 1'
_cell_length_a   6.16266458
_cell_length_b   6.87797281
_cell_length_c   6.90740449
_cell_angle_alpha   90.00000000
_cell_angle_beta   90.00000000
_cell_angle_gamma   90.00000000
_symmetry_Int_Tables_number   1
_chemical_formula_structural   P4N6O
_chemical_formula_sum   'P8 N12 O2'
_cell_volume   292.78166343
_cell_formula_units_Z   2
loop_
 _symmetry_equiv_pos_site_id
 _symmetry_equiv_pos_as_xyz
  1  'x, y, z'
loop_
 _atom_site_type_symbol
 _atom_site_label
 _atom_site_symmetry_multiplicity
 _atom_site_fract_x
 _atom_site_fract_y
 _atom_site_fract_z
 _atom_site_occupancy
  N  N0  1  0.17581581  0.70132774  0.38017039  1
  N  N1  1  0.67581581  0.79867226  0.11982961  1
  N  N2  1  0.82418419  0.70132774  0.61982961  1
  N  N3  1  0.32418419  0.79867226  0.88017039  1
  N  N4  1  0.82418419  0.29867226  0.61982961  1
  N  N5  1  0.32418419  0.20132774  0.88017039  1
  N  N6  1  0.17581581  0.29867226  0.38017039  1
  N  N7  1  0.67581581  0.20132774  0.11982961  1
  N  N8  1  0.39821853  0.50000000  0.13722348  1
  N  N9  1  0.89821853  0.00000000  0.36277652  1
  N  N10  1  0.10178147  0.00000000  0.63722348  1
  N  N11  1  0.60178147  0.50000000  0.86277652  1
  O  O12  1  0.50000000  0.50000000  0.50000000  1
  O  O13  1  0.00000000  0.00000000  0.00000000  1
  P  P14  1  0.00000000  0.81382193  0.50000000  1
  P  P15  1  0.50000000  0.68617807  0.00000000  1
  P  P16  1  0.00000000  0.18617807  0.50000000  1
  P  P17  1  0.50000000  0.31382193  0.00000000  1
  P  P18  1  0.29417085  0.50000000  0.36027352  1
  P  P19  1  0.79417085  0.00000000  0.13972648  1
  P  P20  1  0.70582915  0.50000000  0.63972648  1
  P  P21  1  0.20582915  0.00000000  0.86027352  1
