# generated using pymatgen
data_Ca4Al51Cr7
_symmetry_space_group_name_H-M   'P 1'
_cell_length_a   10.22451227
_cell_length_b   10.22451245
_cell_length_c   11.47739874
_cell_angle_alpha   90.00000000
_cell_angle_beta   90.00000000
_cell_angle_gamma   119.99999946
_symmetry_Int_Tables_number   1
_chemical_formula_structural   Ca4Al51Cr7
_chemical_formula_sum   'Ca4 Al51 Cr7'
_cell_volume   1039.10470768
_cell_formula_units_Z   1
loop_
 _symmetry_equiv_pos_site_id
 _symmetry_equiv_pos_as_xyz
  1  'x, y, z'
loop_
 _atom_site_type_symbol
 _atom_site_label
 _atom_site_symmetry_multiplicity
 _atom_site_fract_x
 _atom_site_fract_y
 _atom_site_fract_z
 _atom_site_occupancy
  Ca  Ca0  1  0.00000000  0.00000000  0.85532165  1
  Ca  Ca1  1  0.00000000  0.00000000  0.17400810  1
  Ca  Ca2  1  0.33333300  0.66666700  0.68573809  1
  Ca  Ca3  1  0.33333300  0.66666700  0.36643465  1
  Al  Al4  1  0.24454133  0.75545867  0.92302427  1
  Al  Al5  1  0.24454133  0.48908367  0.92302427  1
  Al  Al6  1  0.51091633  0.75545867  0.92302427  1
  Al  Al7  1  0.75777548  0.24222452  0.44140617  1
  Al  Al8  1  0.75777548  0.51555196  0.44140617  1
  Al  Al9  1  0.48444804  0.24222452  0.44140617  1
  Al  Al10  1  0.51231490  0.48768510  0.31429966  1
  Al  Al11  1  0.51231490  0.02462880  0.31429966  1
  Al  Al12  1  0.97537120  0.48768510  0.31429966  1
  Al  Al13  1  0.90929606  0.09070394  0.41425521  1
  Al  Al14  1  0.90929606  0.81859311  0.41425521  1
  Al  Al15  1  0.18140689  0.09070394  0.41425521  1
  Al  Al16  1  0.75846411  0.24153589  0.87529190  1
  Al  Al17  1  0.75846411  0.51692723  0.87529190  1
  Al  Al18  1  0.48307277  0.24153589  0.87529190  1
  Al  Al19  1  0.82115798  0.17884202  0.22625616  1
  Al  Al20  1  0.82115798  0.64231696  0.22625616  1
  Al  Al21  1  0.35768304  0.17884202  0.22625616  1
  Al  Al22  1  0.42410225  0.57589775  0.12694045  1
  Al  Al23  1  0.42410225  0.84820350  0.12694045  1
  Al  Al24  1  0.15179650  0.57589775  0.12694045  1
  Al  Al25  1  0.08887546  0.91112454  0.61860865  1
  Al  Al26  1  0.08887546  0.17775091  0.61860865  1
  Al  Al27  1  0.82224909  0.91112454  0.61860865  1
  Al  Al28  1  0.16662241  0.83337759  0.27022591  1
  Al  Al29  1  0.16662241  0.33324583  0.27022591  1
  Al  Al30  1  0.66675417  0.83337759  0.27022591  1
  Al  Al31  1  0.57568631  0.42431369  0.09889342  1
  Al  Al32  1  0.57568631  0.15137261  0.09889342  1
  Al  Al33  1  0.84862739  0.42431369  0.09889342  1
  Al  Al34  1  0.57527484  0.42472516  0.66356268  1
  Al  Al35  1  0.57527484  0.15055068  0.66356268  1
  Al  Al36  1  0.84944932  0.42472516  0.66356268  1
  Al  Al37  1  0.30851704  0.33526057  0.76950024  1
  Al  Al38  1  0.66473943  0.97325647  0.76950024  1
  Al  Al39  1  0.02674353  0.69148296  0.76950024  1
  Al  Al40  1  0.02674353  0.33526057  0.76950024  1
  Al  Al41  1  0.30851704  0.97325647  0.76950024  1
  Al  Al42  1  0.66473943  0.69148296  0.76950024  1
  Al  Al43  1  0.99669942  0.73112729  0.02447994  1
  Al  Al44  1  0.26887271  0.26557213  0.02447994  1
  Al  Al45  1  0.73442787  0.00330058  0.02447994  1
  Al  Al46  1  0.73442787  0.73112729  0.02447994  1
  Al  Al47  1  0.99669942  0.26557213  0.02447994  1
  Al  Al48  1  0.26887271  0.00330058  0.02447994  1
  Al  Al49  1  0.59907433  0.66373449  0.51577319  1
  Al  Al50  1  0.33626551  0.93533983  0.51577319  1
  Al  Al51  1  0.06466017  0.40092567  0.51577319  1
  Al  Al52  1  0.06466017  0.66373449  0.51577319  1
  Al  Al53  1  0.59907433  0.93533983  0.51577319  1
  Al  Al54  1  0.33626551  0.40092567  0.51577319  1
  Cr  Cr55  1  0.66666700  0.33333300  0.27046208  1
  Cr  Cr56  1  0.83567688  0.16432312  0.61380982  1
  Cr  Cr57  1  0.83567688  0.67135375  0.61380982  1
  Cr  Cr58  1  0.32864625  0.16432312  0.61380982  1
  Cr  Cr59  1  0.49745964  0.50254036  0.92703175  1
  Cr  Cr60  1  0.49745964  0.99491928  0.92703175  1
  Cr  Cr61  1  0.00508072  0.50254036  0.92703175  1
