# generated using pymatgen
data_Cu2W2O7
_symmetry_space_group_name_H-M   'P 1'
_cell_length_a   6.29419740
_cell_length_b   6.89682429
_cell_length_c   7.15349682
_cell_angle_alpha   76.99238590
_cell_angle_beta   89.44532324
_cell_angle_gamma   101.44017523
_symmetry_Int_Tables_number   1
_chemical_formula_structural   Cu2W2O7
_chemical_formula_sum   'Cu4 W4 O14'
_cell_volume   296.07342134
_cell_formula_units_Z   2
loop_
 _symmetry_equiv_pos_site_id
 _symmetry_equiv_pos_as_xyz
  1  'x, y, z'
loop_
 _atom_site_type_symbol
 _atom_site_label
 _atom_site_symmetry_multiplicity
 _atom_site_fract_x
 _atom_site_fract_y
 _atom_site_fract_z
 _atom_site_occupancy
  Cu  Cu0  1  0.28324225  0.75257524  0.71074316  1
  Cu  Cu1  1  0.29387346  0.27916706  0.07876795  1
  Cu  Cu2  1  0.70612654  0.72083294  0.92123205  1
  Cu  Cu3  1  0.71675775  0.24742476  0.28925684  1
  W  W4  1  0.27664198  0.72303899  0.20966257  1
  W  W5  1  0.27854404  0.29478482  0.56115863  1
  W  W6  1  0.72145596  0.70521518  0.43884137  1
  W  W7  1  0.72335802  0.27696101  0.79033743  1
  O  O8  1  0.01257100  0.32650205  0.66410844  1
  O  O9  1  0.20056223  0.70405711  0.97150832  1
  O  O10  1  0.33356817  0.99186432  0.18958495  1
  O  O11  1  0.22769591  0.38882702  0.29475176  1
  O  O12  1  0.22891600  0.02986545  0.58155529  1
  O  O13  1  0.38976023  0.64553204  0.50354085  1
  O  O14  1  0.40922454  0.29768100  0.81780720  1
  O  O15  1  0.59077546  0.70231900  0.18219280  1
  O  O16  1  0.61023977  0.35446796  0.49645915  1
  O  O17  1  0.77108400  0.97013455  0.41844471  1
  O  O18  1  0.77230409  0.61117298  0.70524824  1
  O  O19  1  0.66643183  0.00813568  0.81041505  1
  O  O20  1  0.79943777  0.29594289  0.02849168  1
  O  O21  1  0.98742900  0.67349795  0.33589156  1
