# generated using pymatgen
data_KC8
_symmetry_space_group_name_H-M   'P 1'
_cell_length_a   4.98163656
_cell_length_b   4.98163682
_cell_length_c   11.00482640
_cell_angle_alpha   96.47616201
_cell_angle_beta   96.47617545
_cell_angle_gamma   120.07277499
_symmetry_Int_Tables_number   1
_chemical_formula_structural   KC8
_chemical_formula_sum   'K2 C16'
_cell_volume   230.23558360
_cell_formula_units_Z   2
loop_
 _symmetry_equiv_pos_site_id
 _symmetry_equiv_pos_as_xyz
  1  'x, y, z'
loop_
 _atom_site_type_symbol
 _atom_site_label
 _atom_site_symmetry_multiplicity
 _atom_site_fract_x
 _atom_site_fract_y
 _atom_site_fract_z
 _atom_site_occupancy
  K  K0  1  0.87500041  0.12500034  0.25000000  1
  K  K1  1  0.12499959  0.87499966  0.75000000  1
  C  C2  1  0.08383649  0.16646840  0.00010065  1
  C  C3  1  0.16636246  0.58373200  0.49989406  1
  C  C4  1  0.83353173  0.91616360  0.49989941  1
  C  C5  1  0.41626793  0.83363743  0.00010598  1
  C  C6  1  0.91616351  0.83353160  0.99989935  1
  C  C7  1  0.83363754  0.41626800  0.50010594  1
  C  C8  1  0.16646827  0.08383640  0.50010059  1
  C  C9  1  0.58373207  0.16636257  0.99989402  1
  C  C10  1  0.58276522  0.66536337  0.99825963  1
  C  C11  1  0.66706507  0.08446910  0.50174433  1
  C  C12  1  0.33463662  0.41723475  0.50174040  1
  C  C13  1  0.91553091  0.33293498  0.99825566  1
  C  C14  1  0.41723478  0.33463663  0.00174037  1
  C  C15  1  0.33293493  0.91553090  0.49825567  1
  C  C16  1  0.66536338  0.58276525  0.49825960  1
  C  C17  1  0.08446909  0.66706502  0.00174434  1
