# generated using pymatgen
data_Li3Zr4F19
_symmetry_space_group_name_H-M   'P 1'
_cell_length_a   5.53204454
_cell_length_b   11.02619067
_cell_length_c   12.96371974
_cell_angle_alpha   107.75879029
_cell_angle_beta   92.36135441
_cell_angle_gamma   103.11908339
_symmetry_Int_Tables_number   1
_chemical_formula_structural   Li3Zr4F19
_chemical_formula_sum   'Li6 Zr8 F38'
_cell_volume   728.20070754
_cell_formula_units_Z   2
loop_
 _symmetry_equiv_pos_site_id
 _symmetry_equiv_pos_as_xyz
  1  'x, y, z'
loop_
 _atom_site_type_symbol
 _atom_site_label
 _atom_site_symmetry_multiplicity
 _atom_site_fract_x
 _atom_site_fract_y
 _atom_site_fract_z
 _atom_site_occupancy
  Li  Li0  1  0.71657205  0.73970514  0.48835368  1
  Li  Li1  1  0.40956816  0.51007388  0.20746410  1
  Li  Li2  1  0.59043184  0.48992612  0.79253590  1
  Li  Li3  1  0.47495826  0.16410753  0.05884740  1
  Li  Li4  1  0.52504174  0.83589247  0.94115260  1
  Li  Li5  1  0.28342795  0.26029486  0.51164632  1
  F  F6  1  0.83000546  0.24696360  0.78645414  1
  F  F7  1  0.16999454  0.75303640  0.21354586  1
  F  F8  1  0.63794763  0.45104563  0.28774142  1
  F  F9  1  0.33482247  0.40838802  0.86825031  1
  F  F10  1  0.66517753  0.59161198  0.13174969  1
  F  F11  1  0.29916067  0.32284637  0.06297603  1
  F  F12  1  0.70083933  0.67715363  0.93702397  1
  F  F13  1  0.36205237  0.54895437  0.71225858  1
  F  F14  1  0.37385403  0.07029457  0.49485885  1
  F  F15  1  0.62614597  0.92970543  0.50514115  1
  F  F16  1  0.50740497  0.27550776  0.65304185  1
  F  F17  1  0.49259503  0.72449224  0.34695815  1
  F  F18  1  0.87146305  0.57083671  0.48682291  1
  F  F19  1  0.12853695  0.42916329  0.51317709  1
  F  F20  1  0.66027239  0.00175637  0.07356986  1
  F  F21  1  0.33972761  0.99824363  0.92643014  1
  F  F22  1  0.96540271  0.78251268  0.64426565  1
  F  F23  1  0.03459729  0.21748732  0.35573435  1
  F  F24  1  0.24389648  0.74643931  0.99781481  1
  F  F25  1  0.75610352  0.25356069  0.00218519  1
  F  F26  1  0.14846405  0.45873407  0.29652107  1
  F  F27  1  0.85153595  0.54126593  0.70347893  1
  F  F28  1  0.87339484  0.48035719  0.91727435  1
  F  F29  1  0.12660516  0.51964281  0.08272565  1
  F  F30  1  0.41464696  0.69868968  0.56034302  1
  F  F31  1  0.58535304  0.30131032  0.43965698  1
  F  F32  1  0.61209406  0.98109722  0.29655188  1
  F  F33  1  0.38790594  0.01890278  0.70344812  1
  F  F34  1  0.73425180  0.21639624  0.21845484  1
  F  F35  1  0.26574820  0.78360376  0.78154516  1
  F  F36  1  0.11897994  0.98721868  0.31045913  1
  F  F37  1  0.88102006  0.01278132  0.68954087  1
  F  F38  1  0.20064544  0.11117224  0.14418749  1
  F  F39  1  0.79935456  0.88882776  0.85581251  1
  F  F40  1  0.95513498  0.19052352  0.56244780  1
  F  F41  1  0.04486502  0.80947648  0.43755220  1
  F  F42  1  0.12406535  0.14837510  0.87485416  1
  F  F43  1  0.87593465  0.85162490  0.12514584  1
  Zr  Zr44  1  0.86267048  0.38324350  0.36630302  1
  Zr  Zr45  1  0.13732952  0.61675650  0.63369698  1
  Zr  Zr46  1  0.89953467  0.05193606  0.20890518  1
  Zr  Zr47  1  0.10046533  0.94806394  0.79109482  1
  Zr  Zr48  1  0.93803956  0.66186384  0.05305690  1
  Zr  Zr49  1  0.06196044  0.33813616  0.94694310  1
  Zr  Zr50  1  0.66549043  0.12293359  0.63072425  1
  Zr  Zr51  1  0.33450957  0.87706641  0.36927575  1
