# generated using pymatgen
data_Mn3NbO8
_symmetry_space_group_name_H-M   'P 1'
_cell_length_a   5.91756329
_cell_length_b   5.91711213
_cell_length_c   9.32599832
_cell_angle_alpha   89.70207620
_cell_angle_beta   90.14895505
_cell_angle_gamma   119.99746809
_symmetry_Int_Tables_number   1
_chemical_formula_structural   Mn3NbO8
_chemical_formula_sum   'Mn6 Nb2 O16'
_cell_volume   282.80291651
_cell_formula_units_Z   2
loop_
 _symmetry_equiv_pos_site_id
 _symmetry_equiv_pos_as_xyz
  1  'x, y, z'
loop_
 _atom_site_type_symbol
 _atom_site_label
 _atom_site_symmetry_multiplicity
 _atom_site_fract_x
 _atom_site_fract_y
 _atom_site_fract_z
 _atom_site_occupancy
  Mn  Mn0  1  0.16733936  0.83120828  0.21423900  1
  Mn  Mn1  1  0.16745169  0.33444189  0.21338653  1
  Mn  Mn2  1  0.66401238  0.83130369  0.21400254  1
  Mn  Mn3  1  0.33598762  0.16729131  0.71400254  1
  Mn  Mn4  1  0.83266064  0.66386892  0.71423900  1
  Mn  Mn5  1  0.83254831  0.16699120  0.71338653  1
  Nb  Nb6  1  0.33349240  0.66664137  0.49783812  1
  Nb  Nb7  1  0.66650760  0.33314897  0.99783812  1
  O  O8  1  0.16681927  0.83252793  0.59694486  1
  O  O9  1  0.04111053  0.52415275  0.33590335  1
  O  O10  1  0.33320012  0.66664296  0.11275551  1
  O  O11  1  0.99987461  0.99951836  0.30906015  1
  O  O12  1  0.00012539  0.99964375  0.80906015  1
  O  O13  1  0.16932000  0.33578505  0.59629088  1
  O  O14  1  0.47819730  0.95895392  0.33512698  1
  O  O15  1  0.48149207  0.52281042  0.33599754  1
  O  O16  1  0.33513928  0.16483688  0.09631353  1
  O  O17  1  0.66486072  0.82969760  0.59631353  1
  O  O18  1  0.52180270  0.48075662  0.83512698  1
  O  O19  1  0.51850793  0.04131935  0.83599754  1
  O  O20  1  0.66679988  0.33344284  0.61275551  1
  O  O21  1  0.83318073  0.66570766  0.09694486  1
  O  O22  1  0.95888947  0.48304221  0.83590335  1
  O  O23  1  0.83068100  0.16646605  0.09629088  1
