# generated using pymatgen
data_AgBi2F12
_symmetry_space_group_name_H-M   'P 1'
_cell_length_a   5.41645532
_cell_length_b   5.74875264
_cell_length_c   9.22547871
_cell_angle_alpha   76.00243868
_cell_angle_beta   88.64846092
_cell_angle_gamma   64.75530252
_symmetry_Int_Tables_number   1
_chemical_formula_structural   AgBi2F12
_chemical_formula_sum   'Ag1 Bi2 F12'
_cell_volume   251.07300063
_cell_formula_units_Z   1
loop_
 _symmetry_equiv_pos_site_id
 _symmetry_equiv_pos_as_xyz
  1  'x, y, z'
loop_
 _atom_site_type_symbol
 _atom_site_label
 _atom_site_symmetry_multiplicity
 _atom_site_fract_x
 _atom_site_fract_y
 _atom_site_fract_z
 _atom_site_occupancy
  F  F0  1  0.23133328  0.75922825  0.62741895  1
  F  F1  1  0.76866672  0.24077175  0.37258105  1
  F  F2  1  0.68051900  0.75237556  0.77752974  1
  F  F3  1  0.68311658  0.76308528  0.12366065  1
  F  F4  1  0.31688342  0.23691472  0.87633935  1
  F  F5  1  0.13568308  0.78681804  0.29164623  1
  F  F6  1  0.86431692  0.21318196  0.70835377  1
  F  F7  1  0.68579450  0.76698379  0.43337401  1
  F  F8  1  0.31420550  0.23301621  0.56662599  1
  F  F9  1  0.79919748  0.25051124  0.04783366  1
  F  F10  1  0.20080252  0.74948876  0.95216634  1
  F  F11  1  0.31948100  0.24762444  0.22247026  1
  Ag  Ag12  1  0.50000000  0.50000000  0.50000000  1
  Bi  Bi13  1  0.72496606  0.01753082  0.22710372  1
  Bi  Bi14  1  0.27503394  0.98246918  0.77289628  1
