# generated using pymatgen
data_DySBr
_symmetry_space_group_name_H-M   'P 1'
_cell_length_a   4.07858796
_cell_length_b   5.36274102
_cell_length_c   9.11252033
_cell_angle_alpha   90.00000000
_cell_angle_beta   90.00000000
_cell_angle_gamma   90.00000000
_symmetry_Int_Tables_number   1
_chemical_formula_structural   DySBr
_chemical_formula_sum   'Dy2 S2 Br2'
_cell_volume   199.31278951
_cell_formula_units_Z   2
loop_
 _symmetry_equiv_pos_site_id
 _symmetry_equiv_pos_as_xyz
  1  'x, y, z'
loop_
 _atom_site_type_symbol
 _atom_site_label
 _atom_site_symmetry_multiplicity
 _atom_site_fract_x
 _atom_site_fract_y
 _atom_site_fract_z
 _atom_site_occupancy
  S  S0  1  0.75000000  0.25000000  0.92590696  1
  S  S1  1  0.25000000  0.75000000  0.07409304  1
  Br  Br2  1  0.25000000  0.75000000  0.65669029  1
  Br  Br3  1  0.75000000  0.25000000  0.34330971  1
  Dy  Dy4  1  0.25000000  0.25000000  0.12753627  1
  Dy  Dy5  1  0.75000000  0.75000000  0.87246373  1
