# generated using pymatgen
data_Be4N6O19
_symmetry_space_group_name_H-M   'P 1'
_cell_length_a   13.99016592
_cell_length_b   13.99016592
_cell_length_c   6.73346065
_cell_angle_alpha   90.00000000
_cell_angle_beta   90.00000000
_cell_angle_gamma   120.00000001
_symmetry_Int_Tables_number   1
_chemical_formula_structural   Be4N6O19
_chemical_formula_sum   'Be12 N18 O57'
_cell_volume   1141.33908131
_cell_formula_units_Z   3
loop_
 _symmetry_equiv_pos_site_id
 _symmetry_equiv_pos_as_xyz
  1  'x, y, z'
loop_
 _atom_site_type_symbol
 _atom_site_label
 _atom_site_symmetry_multiplicity
 _atom_site_fract_x
 _atom_site_fract_y
 _atom_site_fract_z
 _atom_site_occupancy
  Be  Be0  1  0.66666667  0.33333333  0.01075313  1
  Be  Be1  1  0.76217507  0.30773161  0.32987551  1
  Be  Be2  1  0.69226839  0.45444346  0.32987551  1
  Be  Be3  1  0.54555654  0.23782493  0.32987551  1
  Be  Be4  1  0.33333333  0.66666667  0.18452809  1
  Be  Be5  1  0.38050903  0.58758735  0.50419327  1
  Be  Be6  1  0.41241265  0.79292168  0.50419327  1
  Be  Be7  1  0.20707832  0.61949097  0.50419327  1
  Be  Be8  1  0.00000000  0.00000000  0.84716078  1
  Be  Be9  1  0.12102912  0.09656982  0.52802924  1
  Be  Be10  1  0.90343018  0.02445930  0.52802924  1
  Be  Be11  1  0.97554070  0.87897088  0.52802924  1
  N  N12  1  0.69693395  0.52992878  0.97667746  1
  N  N13  1  0.47007122  0.16700517  0.97667746  1
  N  N14  1  0.83299483  0.30306605  0.97667746  1
  N  N15  1  0.62340289  0.12941465  0.51980233  1
  N  N16  1  0.87058535  0.49398823  0.51980233  1
  N  N17  1  0.50601177  0.37659711  0.51980233  1
  N  N18  1  0.42300890  0.54568204  0.15173956  1
  N  N19  1  0.45431796  0.87732686  0.15173956  1
  N  N20  1  0.12267314  0.57699110  0.15173956  1
  N  N21  1  0.54739302  0.74714255  0.68687502  1
  N  N22  1  0.25285745  0.80025047  0.68687502  1
  N  N23  1  0.19974953  0.45260698  0.68687502  1
  N  N24  1  0.19426808  0.17010074  0.88131599  1
  N  N25  1  0.82989926  0.02416734  0.88131599  1
  N  N26  1  0.97583266  0.80573192  0.88131599  1
  N  N27  1  0.04092459  0.20633478  0.34559195  1
  N  N28  1  0.79366522  0.83458981  0.34559195  1
  N  N29  1  0.16541019  0.95907541  0.34559195  1
  O  O30  1  0.66666667  0.33333333  0.25290649  1
  O  O31  1  0.33333333  0.66666667  0.42617238  1
  O  O32  1  0.00000000  0.00000000  0.60392391  1
  O  O33  1  0.64390596  0.42771095  0.91404227  1
  O  O34  1  0.57228905  0.21619501  0.91404227  1
  O  O35  1  0.78380499  0.35609404  0.91404227  1
  O  O36  1  0.74013422  0.54839324  0.15331913  1
  O  O37  1  0.45160676  0.19174097  0.15331913  1
  O  O38  1  0.80825903  0.25986578  0.15331913  1
  O  O39  1  0.70547903  0.60413706  0.87305205  1
  O  O40  1  0.39586294  0.10134196  0.87305205  1
  O  O41  1  0.89865804  0.29452097  0.87305205  1
  O  O42  1  0.54424902  0.12722336  0.41491383  1
  O  O43  1  0.87277664  0.41702566  0.41491383  1
  O  O44  1  0.58297434  0.45575098  0.41491383  1
  O  O45  1  0.72124521  0.21657647  0.50895241  1
  O  O46  1  0.78342353  0.50466873  0.50895241  1
  O  O47  1  0.49533127  0.27875479  0.50895241  1
  O  O48  1  0.60690916  0.05274157  0.62497892  1
  O  O49  1  0.94725843  0.55416760  0.62497892  1
  O  O50  1  0.44583240  0.39309084  0.62497892  1
  O  O51  1  0.41998096  0.63245363  0.08820887  1
  O  O52  1  0.36754637  0.78752733  0.08820887  1
  O  O53  1  0.21247267  0.58001904  0.08820887  1
  O  O54  1  0.49305493  0.87443553  0.32573673  1
  O  O55  1  0.12556447  0.61861940  0.32573673  1
  O  O56  1  0.38138060  0.50694507  0.32573673  1
  O  O57  1  0.46260950  0.50293302  0.05092081  1
  O  O58  1  0.49706698  0.95967648  0.05092081  1
  O  O59  1  0.04032352  0.53739050  0.05092081  1
  O  O60  1  0.50865369  0.65730831  0.58252896  1
  O  O61  1  0.34269169  0.85134538  0.58252896  1
  O  O62  1  0.14865462  0.49134631  0.58252896  1
  O  O63  1  0.49393419  0.80117220  0.68614019  1
  O  O64  1  0.19882780  0.69276199  0.68614019  1
  O  O65  1  0.30723801  0.50606581  0.68614019  1
  O  O66  1  0.63107265  0.77989207  0.78307312  1
  O  O67  1  0.22010793  0.85118058  0.78307312  1
  O  O68  1  0.14881942  0.36892735  0.78307312  1
  O  O69  1  0.09177632  0.11859939  0.94338462  1
  O  O70  1  0.88140061  0.97317693  0.94338462  1
  O  O71  1  0.02682307  0.90822368  0.94338462  1
  O  O72  1  0.21412910  0.14499543  0.70617076  1
  O  O73  1  0.85500457  0.06913368  0.70617076  1
  O  O74  1  0.93086632  0.78587090  0.70617076  1
  O  O75  1  0.26715820  0.23779570  0.98450142  1
  O  O76  1  0.76220430  0.02936251  0.98450142  1
  O  O77  1  0.97063749  0.73284180  0.98450142  1
  O  O78  1  0.12151844  0.20680565  0.44273450  1
  O  O79  1  0.79319435  0.91471279  0.44273450  1
  O  O80  1  0.08528721  0.87848156  0.44273450  1
  O  O81  1  0.94406346  0.11787652  0.35172887  1
  O  O82  1  0.88212348  0.82618694  0.35172887  1
  O  O83  1  0.17381306  0.05593654  0.35172887  1
  O  O84  1  0.05601717  0.28634176  0.25153060  1
  O  O85  1  0.71365824  0.76967542  0.25153060  1
  O  O86  1  0.23032458  0.94398283  0.25153060  1
