# generated using pymatgen
data_SrMgSi2
_symmetry_space_group_name_H-M   'P 1'
_cell_length_a   4.43817126
_cell_length_b   11.44959980
_cell_length_c   14.41327771
_cell_angle_alpha   90.00000000
_cell_angle_beta   90.00000000
_cell_angle_gamma   90.00000000
_symmetry_Int_Tables_number   1
_chemical_formula_structural   SrMgSi2
_chemical_formula_sum   'Sr8 Mg8 Si16'
_cell_volume   732.41481132
_cell_formula_units_Z   8
loop_
 _symmetry_equiv_pos_site_id
 _symmetry_equiv_pos_as_xyz
  1  'x, y, z'
loop_
 _atom_site_type_symbol
 _atom_site_label
 _atom_site_symmetry_multiplicity
 _atom_site_fract_x
 _atom_site_fract_y
 _atom_site_fract_z
 _atom_site_occupancy
  Mg  Mg0  1  0.25000000  0.44203594  0.43992099  1
  Mg  Mg1  1  0.75000000  0.55796406  0.56007901  1
  Mg  Mg2  1  0.75000000  0.94203594  0.06007901  1
  Mg  Mg3  1  0.25000000  0.05796406  0.93992099  1
  Mg  Mg4  1  0.25000000  0.67996204  0.69010281  1
  Mg  Mg5  1  0.75000000  0.32003796  0.30989719  1
  Mg  Mg6  1  0.75000000  0.17996204  0.80989719  1
  Mg  Mg7  1  0.25000000  0.82003796  0.19010281  1
  Si  Si8  1  0.75000000  0.95221705  0.86773306  1
  Si  Si9  1  0.25000000  0.45221705  0.63226694  1
  Si  Si10  1  0.75000000  0.54778295  0.36773306  1
  Si  Si11  1  0.25000000  0.02790037  0.46677040  1
  Si  Si12  1  0.25000000  0.04778295  0.13226694  1
  Si  Si13  1  0.25000000  0.27419098  0.72290854  1
  Si  Si14  1  0.75000000  0.72580902  0.27709146  1
  Si  Si15  1  0.75000000  0.77419098  0.77709146  1
  Si  Si16  1  0.25000000  0.21168049  0.39332580  1
  Si  Si17  1  0.75000000  0.97209963  0.53322960  1
  Si  Si18  1  0.75000000  0.52790037  0.03322960  1
  Si  Si19  1  0.25000000  0.47209963  0.96677040  1
  Si  Si20  1  0.25000000  0.28831951  0.89332580  1
  Si  Si21  1  0.75000000  0.78831951  0.60667420  1
  Si  Si22  1  0.75000000  0.71168049  0.10667420  1
  Si  Si23  1  0.25000000  0.22580902  0.22290854  1
  Sr  Sr24  1  0.25000000  0.52326429  0.19613931  1
  Sr  Sr25  1  0.25000000  0.74103352  0.93844250  1
  Sr  Sr26  1  0.75000000  0.25896648  0.06155750  1
  Sr  Sr27  1  0.75000000  0.24103352  0.56155750  1
  Sr  Sr28  1  0.25000000  0.75896648  0.43844250  1
  Sr  Sr29  1  0.25000000  0.97673571  0.69613931  1
  Sr  Sr30  1  0.75000000  0.02326429  0.30386069  1
  Sr  Sr31  1  0.75000000  0.47673571  0.80386069  1
