# generated using pymatgen
data_Ca4(PPd)5
_symmetry_space_group_name_H-M   'P 1'
_cell_length_a   4.13506570
_cell_length_b   8.26349477
_cell_length_c   15.73042299
_cell_angle_alpha   90.00000000
_cell_angle_beta   97.55254066
_cell_angle_gamma   90.00000000
_symmetry_Int_Tables_number   1
_chemical_formula_structural   Ca4(PPd)5
_chemical_formula_sum   'Ca8 P10 Pd10'
_cell_volume   532.84699505
_cell_formula_units_Z   2
loop_
 _symmetry_equiv_pos_site_id
 _symmetry_equiv_pos_as_xyz
  1  'x, y, z'
loop_
 _atom_site_type_symbol
 _atom_site_label
 _atom_site_symmetry_multiplicity
 _atom_site_fract_x
 _atom_site_fract_y
 _atom_site_fract_z
 _atom_site_occupancy
  P  P0  1  0.27085411  0.75000000  0.54170823  1
  P  P1  1  0.04445355  0.75000000  0.08890709  1
  P  P2  1  0.04554789  0.25000000  0.09109579  1
  P  P3  1  0.95554645  0.25000000  0.91109291  1
  P  P4  1  0.95445211  0.75000000  0.90890421  1
  P  P5  1  0.65774642  0.25000000  0.31549284  1
  P  P6  1  0.34225358  0.75000000  0.68450716  1
  P  P7  1  0.34279259  0.25000000  0.68558519  1
  P  P8  1  0.72914589  0.25000000  0.45829177  1
  P  P9  1  0.65720741  0.75000000  0.31441481  1
  Ca  Ca10  1  0.80605110  0.49470288  0.61210219  1
  Ca  Ca11  1  0.19394890  0.50529712  0.38789781  1
  Ca  Ca12  1  0.19394890  0.99470288  0.38789781  1
  Ca  Ca13  1  0.80605110  0.00529712  0.61210219  1
  Ca  Ca14  1  0.57961585  0.99864082  0.15923170  1
  Ca  Ca15  1  0.42038415  0.49864082  0.84076830  1
  Ca  Ca16  1  0.42038415  0.00135918  0.84076830  1
  Ca  Ca17  1  0.57961585  0.50135918  0.15923170  1
  Pd  Pd18  1  0.73438040  0.75000000  0.46876081  1
  Pd  Pd19  1  0.26561960  0.25000000  0.53123919  1
  Pd  Pd20  1  0.00000000  0.50000000  0.00000000  1
  Pd  Pd21  1  0.87881661  0.75000000  0.75763321  1
  Pd  Pd22  1  0.12118339  0.25000000  0.24236679  1
  Pd  Pd23  1  0.11959298  0.75000000  0.23918595  1
  Pd  Pd24  1  0.88040702  0.25000000  0.76081405  1
  Pd  Pd25  1  0.49986875  0.75000000  0.99973749  1
  Pd  Pd26  1  0.50013125  0.25000000  0.00026251  1
  Pd  Pd27  1  0.00000000  0.00000000  0.00000000  1
