# generated using pymatgen
data_Ti6CCl14
_symmetry_space_group_name_H-M   'P 1'
_cell_length_a   9.35832873
_cell_length_b   9.35832872
_cell_length_c   11.14377894
_cell_angle_alpha   90.00000000
_cell_angle_beta   90.00000000
_cell_angle_gamma   92.89042695
_symmetry_Int_Tables_number   1
_chemical_formula_structural   Ti6CCl14
_chemical_formula_sum   'Ti12 C2 Cl28'
_cell_volume   974.71178782
_cell_formula_units_Z   2
loop_
 _symmetry_equiv_pos_site_id
 _symmetry_equiv_pos_as_xyz
  1  'x, y, z'
loop_
 _atom_site_type_symbol
 _atom_site_label
 _atom_site_symmetry_multiplicity
 _atom_site_fract_x
 _atom_site_fract_y
 _atom_site_fract_z
 _atom_site_occupancy
  C  C0  1  0.50000000  0.50000000  0.00000000  1
  C  C1  1  0.00000000  0.00000000  0.50000000  1
  Cl  Cl2  1  0.11117249  0.61117249  0.25000000  1
  Cl  Cl3  1  0.38882751  0.88882751  0.75000000  1
  Cl  Cl4  1  0.88882751  0.38882751  0.75000000  1
  Cl  Cl5  1  0.61117249  0.11117249  0.25000000  1
  Cl  Cl6  1  0.15208848  0.39604708  0.01202540  1
  Cl  Cl7  1  0.34791152  0.10395292  0.51202540  1
  Cl  Cl8  1  0.89604708  0.65208848  0.48797460  1
  Cl  Cl9  1  0.60395292  0.84791152  0.98797460  1
  Cl  Cl10  1  0.84791152  0.60395292  0.98797460  1
  Cl  Cl11  1  0.65208848  0.89604708  0.48797460  1
  Cl  Cl12  1  0.25252689  0.74747311  0.00000000  1
  Cl  Cl13  1  0.24747311  0.75252689  0.50000000  1
  Cl  Cl14  1  0.74747311  0.25252689  0.00000000  1
  Cl  Cl15  1  0.75252689  0.24747311  0.50000000  1
  Cl  Cl16  1  0.14200990  0.14200990  0.75848232  1
  Cl  Cl17  1  0.35799010  0.35799010  0.25848232  1
  Cl  Cl18  1  0.64200990  0.64200990  0.74151768  1
  Cl  Cl19  1  0.85799010  0.85799010  0.24151768  1
  Cl  Cl20  1  0.20935180  0.96739878  0.25867390  1
  Cl  Cl21  1  0.29064820  0.53260122  0.75867390  1
  Cl  Cl22  1  0.46739878  0.70935180  0.24132610  1
  Cl  Cl23  1  0.03260122  0.79064820  0.74132610  1
  Cl  Cl24  1  0.79064820  0.03260122  0.74132610  1
  Cl  Cl25  1  0.70935180  0.46739878  0.24132610  1
  Cl  Cl26  1  0.53260122  0.29064820  0.75867390  1
  Cl  Cl27  1  0.96739878  0.20935180  0.25867390  1
  Cl  Cl28  1  0.39604708  0.15208848  0.01202540  1
  Cl  Cl29  1  0.10395292  0.34791152  0.51202540  1
  Ti  Ti30  1  0.63476766  0.63476766  0.09773611  1
  Ti  Ti31  1  0.86523234  0.86523234  0.59773611  1
  Ti  Ti32  1  0.13476766  0.13476766  0.40226389  1
  Ti  Ti33  1  0.36523234  0.36523234  0.90226389  1
  Ti  Ti34  1  0.67576062  0.44922445  0.88395880  1
  Ti  Ti35  1  0.82423938  0.05077555  0.38395880  1
  Ti  Ti36  1  0.94922445  0.17576062  0.61604120  1
  Ti  Ti37  1  0.55077555  0.32423938  0.11604120  1
  Ti  Ti38  1  0.32423938  0.55077555  0.11604120  1
  Ti  Ti39  1  0.17576062  0.94922445  0.61604120  1
  Ti  Ti40  1  0.05077555  0.82423938  0.38395880  1
  Ti  Ti41  1  0.44922445  0.67576062  0.88395880  1
