# generated using pymatgen
data_Cs2SnTe4
_symmetry_space_group_name_H-M   'P 1'
_cell_length_a   7.80984487
_cell_length_b   12.13165061
_cell_length_c   12.92001251
_cell_angle_alpha   90.00000000
_cell_angle_beta   90.00000000
_cell_angle_gamma   90.00000000
_symmetry_Int_Tables_number   1
_chemical_formula_structural   Cs2SnTe4
_chemical_formula_sum   'Cs8 Sn4 Te16'
_cell_volume   1224.12350119
_cell_formula_units_Z   4
loop_
 _symmetry_equiv_pos_site_id
 _symmetry_equiv_pos_as_xyz
  1  'x, y, z'
loop_
 _atom_site_type_symbol
 _atom_site_label
 _atom_site_symmetry_multiplicity
 _atom_site_fract_x
 _atom_site_fract_y
 _atom_site_fract_z
 _atom_site_occupancy
  Sn  Sn0  1  0.49770459  0.25000000  0.93443116  1
  Sn  Sn1  1  0.50229541  0.75000000  0.06556884  1
  Sn  Sn2  1  0.00229541  0.25000000  0.43443116  1
  Sn  Sn3  1  0.99770459  0.75000000  0.56556884  1
  Te  Te4  1  0.15906700  0.75000000  0.12475727  1
  Te  Te5  1  0.65906700  0.25000000  0.37524273  1
  Te  Te6  1  0.84093300  0.25000000  0.87524273  1
  Te  Te7  1  0.34093300  0.75000000  0.62475727  1
  Te  Te8  1  0.74810652  0.75000000  0.72459273  1
  Te  Te9  1  0.75189348  0.75000000  0.22459273  1
  Te  Te10  1  0.24810652  0.25000000  0.77540727  1
  Te  Te11  1  0.25189348  0.25000000  0.27540727  1
  Te  Te12  1  0.90876357  0.57066034  0.42974352  1
  Te  Te13  1  0.40876357  0.42933966  0.07025648  1
  Te  Te14  1  0.09123643  0.07066034  0.57025648  1
  Te  Te15  1  0.59123643  0.92933966  0.92974352  1
  Te  Te16  1  0.09123643  0.42933966  0.57025648  1
  Te  Te17  1  0.59123643  0.57066034  0.92974352  1
  Te  Te18  1  0.90876357  0.92933966  0.42974352  1
  Te  Te19  1  0.40876357  0.07066034  0.07025648  1
  Cs  Cs20  1  0.89491531  0.05526663  0.14632210  1
  Cs  Cs21  1  0.39491531  0.94473337  0.35367790  1
  Cs  Cs22  1  0.10508469  0.55526663  0.85367790  1
  Cs  Cs23  1  0.60508469  0.44473337  0.64632210  1
  Cs  Cs24  1  0.10508469  0.94473337  0.85367790  1
  Cs  Cs25  1  0.60508469  0.05526663  0.64632210  1
  Cs  Cs26  1  0.89491531  0.44473337  0.14632210  1
  Cs  Cs27  1  0.39491531  0.55526663  0.35367790  1
