# generated using pymatgen
data_Ba2Ti13O22
_symmetry_space_group_name_H-M   'P 1'
_cell_length_a   7.72741184
_cell_length_b   7.72741184
_cell_length_c   14.22865245
_cell_angle_alpha   90.00000000
_cell_angle_beta   90.00000000
_cell_angle_gamma   98.57878467
_symmetry_Int_Tables_number   1
_chemical_formula_structural   Ba2Ti13O22
_chemical_formula_sum   'Ba4 Ti26 O44'
_cell_volume   840.12803780
_cell_formula_units_Z   2
loop_
 _symmetry_equiv_pos_site_id
 _symmetry_equiv_pos_as_xyz
  1  'x, y, z'
loop_
 _atom_site_type_symbol
 _atom_site_label
 _atom_site_symmetry_multiplicity
 _atom_site_fract_x
 _atom_site_fract_y
 _atom_site_fract_z
 _atom_site_occupancy
  O  O0  1  0.21318020  0.97155573  0.42005869  1
  O  O1  1  0.28681980  0.52844427  0.92005869  1
  O  O2  1  0.47155573  0.71318020  0.07994131  1
  O  O3  1  0.02844427  0.78681980  0.57994131  1
  O  O4  1  0.78681980  0.02844427  0.57994131  1
  O  O5  1  0.71318020  0.47155573  0.07994131  1
  O  O6  1  0.52844427  0.28681980  0.92005869  1
  O  O7  1  0.97155573  0.21318020  0.42005869  1
  O  O8  1  0.38217202  0.12520356  0.25234212  1
  O  O9  1  0.11782798  0.37479644  0.75234212  1
  O  O10  1  0.62520356  0.88217202  0.24765788  1
  O  O11  1  0.87479644  0.61782798  0.74765788  1
  O  O12  1  0.61782798  0.87479644  0.74765788  1
  O  O13  1  0.88217202  0.62520356  0.24765788  1
  O  O14  1  0.37479644  0.11782798  0.75234212  1
  O  O15  1  0.12520356  0.38217202  0.25234212  1
  O  O16  1  0.65774958  0.65774958  0.59422947  1
  O  O17  1  0.84225042  0.84225042  0.09422947  1
  O  O18  1  0.15774958  0.15774958  0.90577053  1
  O  O19  1  0.34225042  0.34225042  0.40577053  1
  O  O20  1  0.21268482  0.96439568  0.08001262  1
  O  O21  1  0.28731518  0.53560432  0.58001262  1
  O  O22  1  0.46439568  0.71268482  0.41998738  1
  O  O23  1  0.03560432  0.78731518  0.91998738  1
  O  O24  1  0.78731518  0.03560432  0.91998738  1
  O  O25  1  0.71268482  0.46439568  0.41998738  1
  O  O26  1  0.53560432  0.28731518  0.58001262  1
  O  O27  1  0.96439568  0.21268482  0.08001262  1
  O  O28  1  0.27072905  0.77072905  0.25000000  1
  O  O29  1  0.22927095  0.72927095  0.75000000  1
  O  O30  1  0.09851927  0.59831790  0.41017467  1
  O  O31  1  0.40148073  0.90168210  0.91017467  1
  O  O32  1  0.09831790  0.59851927  0.08982533  1
  O  O33  1  0.40168210  0.90148073  0.58982533  1
  O  O34  1  0.90148073  0.40168210  0.58982533  1
  O  O35  1  0.59851927  0.09831790  0.08982533  1
  O  O36  1  0.90168210  0.40148073  0.91017467  1
  O  O37  1  0.59831790  0.09851927  0.41017467  1
  O  O38  1  0.00433227  0.00433227  0.25172172  1
  O  O39  1  0.49566773  0.49566773  0.75172172  1
  O  O40  1  0.50433227  0.50433227  0.24827828  1
  O  O41  1  0.99566773  0.99566773  0.74827828  1
  O  O42  1  0.77072905  0.27072905  0.25000000  1
  O  O43  1  0.72927095  0.22927095  0.75000000  1
  Ti  Ti44  1  0.55757453  0.29833923  0.32594167  1
  Ti  Ti45  1  0.94242547  0.20166077  0.82594167  1
  Ti  Ti46  1  0.79833923  0.05757453  0.17405833  1
  Ti  Ti47  1  0.70166077  0.44242547  0.67405833  1
  Ti  Ti48  1  0.44242547  0.70166077  0.67405833  1
  Ti  Ti49  1  0.05757453  0.79833923  0.17405833  1
  Ti  Ti50  1  0.20166077  0.94242547  0.82594167  1
  Ti  Ti51  1  0.29833923  0.55757453  0.32594167  1
  Ti  Ti52  1  0.24397420  0.75602580  0.50000000  1
  Ti  Ti53  1  0.25602580  0.74397420  0.00000000  1
  Ti  Ti54  1  0.75602580  0.24397420  0.50000000  1
  Ti  Ti55  1  0.74397420  0.25602580  0.00000000  1
  Ti  Ti56  1  0.42627649  0.92172356  0.15318156  1
  Ti  Ti57  1  0.07372351  0.57827644  0.65318156  1
  Ti  Ti58  1  0.42172356  0.92627649  0.34681844  1
  Ti  Ti59  1  0.07827644  0.57372351  0.84681844  1
  Ti  Ti60  1  0.57372351  0.07827644  0.84681844  1
  Ti  Ti61  1  0.92627649  0.42172356  0.34681844  1
  Ti  Ti62  1  0.57827644  0.07372351  0.65318156  1
  Ti  Ti63  1  0.92172356  0.42627649  0.15318156  1
  Ti  Ti64  1  0.50000000  0.50000000  0.50000000  1
  Ti  Ti65  1  0.00000000  0.00000000  0.00000000  1
  Ti  Ti66  1  0.83275636  0.83275636  0.66657656  1
  Ti  Ti67  1  0.66724364  0.66724364  0.16657656  1
  Ti  Ti68  1  0.33275636  0.33275636  0.83342344  1
  Ti  Ti69  1  0.16724364  0.16724364  0.33342344  1
  Ba  Ba70  1  0.66668683  0.66668683  0.91225363  1
  Ba  Ba71  1  0.83331317  0.83331317  0.41225363  1
  Ba  Ba72  1  0.16668683  0.16668683  0.58774637  1
  Ba  Ba73  1  0.33331317  0.33331317  0.08774637  1
