# generated using pymatgen
data_Tl5Se2Cl
_symmetry_space_group_name_H-M   'P 1'
_cell_length_a   8.77104412
_cell_length_b   8.77104412
_cell_length_c   13.33014315
_cell_angle_alpha   90.00000000
_cell_angle_beta   90.00000000
_cell_angle_gamma   90.00000000
_symmetry_Int_Tables_number   1
_chemical_formula_structural   Tl5Se2Cl
_chemical_formula_sum   'Tl20 Se8 Cl4'
_cell_volume   1025.50410805
_cell_formula_units_Z   4
loop_
 _symmetry_equiv_pos_site_id
 _symmetry_equiv_pos_as_xyz
  1  'x, y, z'
loop_
 _atom_site_type_symbol
 _atom_site_label
 _atom_site_symmetry_multiplicity
 _atom_site_fract_x
 _atom_site_fract_y
 _atom_site_fract_z
 _atom_site_occupancy
  Cl  Cl0  1  0.25000000  0.25000000  0.54222484  1
  Cl  Cl1  1  0.75000000  0.75000000  0.95777516  1
  Cl  Cl2  1  0.75000000  0.75000000  0.45777516  1
  Cl  Cl3  1  0.25000000  0.25000000  0.04222484  1
  Se  Se4  1  0.41067853  0.58932147  0.25000000  1
  Se  Se5  1  0.91067853  0.41067853  0.25000000  1
  Se  Se6  1  0.58932147  0.08932147  0.25000000  1
  Se  Se7  1  0.08932147  0.91067853  0.25000000  1
  Se  Se8  1  0.91067853  0.08932147  0.75000000  1
  Se  Se9  1  0.41067853  0.91067853  0.75000000  1
  Se  Se10  1  0.08932147  0.58932147  0.75000000  1
  Se  Se11  1  0.58932147  0.41067853  0.75000000  1
  Tl  Tl12  1  0.12312097  0.91562030  0.60717533  1
  Tl  Tl13  1  0.58437970  0.12312097  0.60717533  1
  Tl  Tl14  1  0.91562030  0.37687903  0.60717533  1
  Tl  Tl15  1  0.62312097  0.08437970  0.89282467  1
  Tl  Tl16  1  0.87687903  0.41562030  0.89282467  1
  Tl  Tl17  1  0.37687903  0.58437970  0.60717533  1
  Tl  Tl18  1  0.41562030  0.62312097  0.89282467  1
  Tl  Tl19  1  0.08437970  0.87687903  0.89282467  1
  Tl  Tl20  1  0.91562030  0.12312097  0.10717533  1
  Tl  Tl21  1  0.58437970  0.37687903  0.10717533  1
  Tl  Tl22  1  0.62312097  0.41562030  0.39282467  1
  Tl  Tl23  1  0.12312097  0.58437970  0.10717533  1
  Tl  Tl24  1  0.37687903  0.91562030  0.10717533  1
  Tl  Tl25  1  0.08437970  0.62312097  0.39282467  1
  Tl  Tl26  1  0.41562030  0.87687903  0.39282467  1
  Tl  Tl27  1  0.87687903  0.08437970  0.39282467  1
  Tl  Tl28  1  0.25000000  0.25000000  0.79210233  1
  Tl  Tl29  1  0.75000000  0.75000000  0.70789767  1
  Tl  Tl30  1  0.75000000  0.75000000  0.20789767  1
  Tl  Tl31  1  0.25000000  0.25000000  0.29210233  1
