# generated using pymatgen
data_Er2Bi2O7
_symmetry_space_group_name_H-M   'P 1'
_cell_length_a   7.33915621
_cell_length_b   7.32007941
_cell_length_c   13.11885119
_cell_angle_alpha   90.00703798
_cell_angle_beta   89.99323619
_cell_angle_gamma   90.05985643
_symmetry_Int_Tables_number   1
_chemical_formula_structural   Er2Bi2O7
_chemical_formula_sum   'Er8 Bi8 O28'
_cell_volume   704.78635404
_cell_formula_units_Z   4
loop_
 _symmetry_equiv_pos_site_id
 _symmetry_equiv_pos_as_xyz
  1  'x, y, z'
loop_
 _atom_site_type_symbol
 _atom_site_label
 _atom_site_symmetry_multiplicity
 _atom_site_fract_x
 _atom_site_fract_y
 _atom_site_fract_z
 _atom_site_occupancy
  Er  Er0  1  0.15075255  0.62013270  0.64036099  1
  Er  Er1  1  0.11994046  0.34912840  0.38971265  1
  Er  Er2  1  0.37714348  0.85055302  0.85969852  1
  Er  Er3  1  0.35144155  0.12332124  0.60881634  1
  Er  Er4  1  0.64843209  0.87667804  0.10892027  1
  Er  Er5  1  0.62286117  0.14966676  0.35974989  1
  Er  Er6  1  0.88002243  0.65062731  0.88971917  1
  Er  Er7  1  0.84917202  0.37981522  0.14046878  1
  Bi  Bi8  1  0.12312503  0.88063335  0.09754901  1
  Bi  Bi9  1  0.12463461  0.88020102  0.40871746  1
  Bi  Bi10  1  0.37912083  0.37830146  0.84519408  1
  Bi  Bi11  1  0.37868957  0.37617785  0.15663372  1
  Bi  Bi12  1  0.62139364  0.62363778  0.65661932  1
  Bi  Bi13  1  0.62049572  0.62196197  0.34527316  1
  Bi  Bi14  1  0.87524643  0.11961279  0.90876198  1
  Bi  Bi15  1  0.87674113  0.11902218  0.59768095  1
  O  O16  1  0.07497796  0.90513708  0.91355975  1
  O  O17  1  0.09197275  0.31977596  0.57367520  1
  O  O18  1  0.10844252  0.91571604  0.57930080  1
  O  O19  1  0.16834687  0.61317421  0.46684685  1
  O  O20  1  0.18108336  0.59229669  0.82450367  1
  O  O21  1  0.11005219  0.32774651  0.21808363  1
  O  O22  1  0.17886181  0.81491904  0.25782126  1
  O  O23  1  0.31920871  0.32060520  0.00208671  1
  O  O24  1  0.39091337  0.82384311  0.02915532  1
  O  O25  1  0.31840026  0.08894421  0.42416831  1
  O  O26  1  0.32723945  0.11072779  0.77973219  1
  O  O27  1  0.40138352  0.42284540  0.66627079  1
  O  O28  1  0.41162280  0.81883078  0.67555896  1
  O  O29  1  0.41791863  0.39624990  0.33210507  1
  O  O30  1  0.58197129  0.60329360  0.83224766  1
  O  O31  1  0.58880118  0.18118596  0.17539269  1
  O  O32  1  0.59855502  0.57731273  0.16614353  1
  O  O33  1  0.67301899  0.88954281  0.27970540  1
  O  O34  1  0.68152113  0.91089992  0.92416222  1
  O  O35  1  0.60898957  0.17667509  0.52929697  1
  O  O36  1  0.68113625  0.67959577  0.50233601  1
  O  O37  1  0.82116398  0.18549045  0.75807724  1
  O  O38  1  0.88970440  0.67217676  0.71803849  1
  O  O39  1  0.81877194  0.40805649  0.32447571  1
  O  O40  1  0.83233016  0.38656283  0.96688556  1
  O  O41  1  0.89180669  0.08402494  0.07928606  1
  O  O42  1  0.90787593  0.68010536  0.07344198  1
  O  O43  1  0.92489651  0.09497525  0.41376465  1
