# generated using pymatgen
data_U(Cr3P2)2
_symmetry_space_group_name_H-M   'P 1'
_cell_length_a   7.03065724
_cell_length_b   7.03065724
_cell_length_c   3.33195783
_cell_angle_alpha   90.00000000
_cell_angle_beta   90.00000000
_cell_angle_gamma   120.00000002
_symmetry_Int_Tables_number   1
_chemical_formula_structural   U(Cr3P2)2
_chemical_formula_sum   'U1 Cr6 P4'
_cell_volume   142.63364438
_cell_formula_units_Z   1
loop_
 _symmetry_equiv_pos_site_id
 _symmetry_equiv_pos_as_xyz
  1  'x, y, z'
loop_
 _atom_site_type_symbol
 _atom_site_label
 _atom_site_symmetry_multiplicity
 _atom_site_fract_x
 _atom_site_fract_y
 _atom_site_fract_z
 _atom_site_occupancy
  P  P0  1  0.66666667  0.33333333  0.00000000  1
  P  P1  1  0.18790434  0.81209566  0.50000000  1
  P  P2  1  0.18790434  0.37580868  0.50000000  1
  P  P3  1  0.62419132  0.81209566  0.50000000  1
  Cr  Cr4  1  0.80002021  0.60004042  0.50000000  1
  Cr  Cr5  1  0.07381842  0.53690921  0.00000000  1
  Cr  Cr6  1  0.46309079  0.92618158  0.00000000  1
  Cr  Cr7  1  0.80002021  0.19997979  0.50000000  1
  Cr  Cr8  1  0.46309079  0.53690921  0.00000000  1
  Cr  Cr9  1  0.39995958  0.19997979  0.50000000  1
  U  U10  1  0.00000000  0.00000000  0.00000000  1
