# generated using pymatgen
data_NaSn2Cl5
_symmetry_space_group_name_H-M   'P 1'
_cell_length_a   8.63993222
_cell_length_b   8.82967446
_cell_length_c   12.17429480
_cell_angle_alpha   90.00000000
_cell_angle_beta   90.00000000
_cell_angle_gamma   90.00000000
_symmetry_Int_Tables_number   1
_chemical_formula_structural   NaSn2Cl5
_chemical_formula_sum   'Na4 Sn8 Cl20'
_cell_volume   928.75003121
_cell_formula_units_Z   4
loop_
 _symmetry_equiv_pos_site_id
 _symmetry_equiv_pos_as_xyz
  1  'x, y, z'
loop_
 _atom_site_type_symbol
 _atom_site_label
 _atom_site_symmetry_multiplicity
 _atom_site_fract_x
 _atom_site_fract_y
 _atom_site_fract_z
 _atom_site_occupancy
  Na  Na0  1  0.00000000  0.74847735  0.50000000  1
  Na  Na1  1  0.50000000  0.75152265  0.00000000  1
  Na  Na2  1  0.00000000  0.25152265  0.50000000  1
  Na  Na3  1  0.50000000  0.24847735  0.00000000  1
  Cl  Cl4  1  0.16119559  0.50000000  0.60344271  1
  Cl  Cl5  1  0.50000000  0.29747021  0.50000000  1
  Cl  Cl6  1  0.00000000  0.20252979  0.00000000  1
  Cl  Cl7  1  0.50000000  0.70252979  0.50000000  1
  Cl  Cl8  1  0.00000000  0.79747021  0.00000000  1
  Cl  Cl9  1  0.83880441  0.50000000  0.39655729  1
  Cl  Cl10  1  0.33880441  0.00000000  0.10344271  1
  Cl  Cl11  1  0.16512035  0.27946458  0.29315640  1
  Cl  Cl12  1  0.83487965  0.72053542  0.70684360  1
  Cl  Cl13  1  0.33487965  0.77946458  0.79315640  1
  Cl  Cl14  1  0.16512035  0.72053542  0.29315640  1
  Cl  Cl15  1  0.66512035  0.77946458  0.20684360  1
  Cl  Cl16  1  0.83487965  0.27946458  0.70684360  1
  Cl  Cl17  1  0.66512035  0.22053542  0.20684360  1
  Cl  Cl18  1  0.68515537  0.50000000  0.93367026  1
  Cl  Cl19  1  0.33487965  0.22053542  0.79315640  1
  Cl  Cl20  1  0.81484463  0.00000000  0.43367026  1
  Cl  Cl21  1  0.31484463  0.50000000  0.06632974  1
  Cl  Cl22  1  0.18515537  0.00000000  0.56632974  1
  Cl  Cl23  1  0.66119559  0.00000000  0.89655729  1
  Sn  Sn24  1  0.94552584  0.00000000  0.83334504  1
  Sn  Sn25  1  0.05386506  0.50000000  0.17334566  1
  Sn  Sn26  1  0.55386506  0.00000000  0.32665434  1
  Sn  Sn27  1  0.94613494  0.50000000  0.82665434  1
  Sn  Sn28  1  0.44613494  0.00000000  0.67334566  1
  Sn  Sn29  1  0.55447416  0.50000000  0.33334504  1
  Sn  Sn30  1  0.05447416  0.00000000  0.16665496  1
  Sn  Sn31  1  0.44552584  0.50000000  0.66665496  1
