# generated using pymatgen
data_Ta2Te5Pd3
_symmetry_space_group_name_H-M   'P 1'
_cell_length_a   3.74368250
_cell_length_b   15.13721186
_cell_length_c   18.84224196
_cell_angle_alpha   90.00000000
_cell_angle_beta   90.00000000
_cell_angle_gamma   90.00000000
_symmetry_Int_Tables_number   1
_chemical_formula_structural   Ta2Te5Pd3
_chemical_formula_sum   'Ta8 Te20 Pd12'
_cell_volume   1067.76941066
_cell_formula_units_Z   4
loop_
 _symmetry_equiv_pos_site_id
 _symmetry_equiv_pos_as_xyz
  1  'x, y, z'
loop_
 _atom_site_type_symbol
 _atom_site_label
 _atom_site_symmetry_multiplicity
 _atom_site_fract_x
 _atom_site_fract_y
 _atom_site_fract_z
 _atom_site_occupancy
  Pd  Pd0  1  0.25000000  0.81609543  0.31024309  1
  Pd  Pd1  1  0.25000000  0.80525710  0.77319799  1
  Pd  Pd2  1  0.75000000  0.19474290  0.22680201  1
  Pd  Pd3  1  0.25000000  0.30525710  0.72680201  1
  Pd  Pd4  1  0.75000000  0.69474290  0.27319799  1
  Pd  Pd5  1  0.75000000  0.18390457  0.68975691  1
  Pd  Pd6  1  0.25000000  0.31609543  0.18975691  1
  Pd  Pd7  1  0.75000000  0.68390457  0.81024309  1
  Pd  Pd8  1  0.25000000  0.77032416  0.54149656  1
  Pd  Pd9  1  0.75000000  0.22967584  0.45850344  1
  Pd  Pd10  1  0.25000000  0.27032416  0.95850344  1
  Pd  Pd11  1  0.75000000  0.72967584  0.04149656  1
  Te  Te12  1  0.25000000  0.61492106  0.71871179  1
  Te  Te13  1  0.75000000  0.38507894  0.28128821  1
  Te  Te14  1  0.25000000  0.11492106  0.78128821  1
  Te  Te15  1  0.75000000  0.87785112  0.86220659  1
  Te  Te16  1  0.75000000  0.88507894  0.21871179  1
  Te  Te17  1  0.25000000  0.62214888  0.36220659  1
  Te  Te18  1  0.75000000  0.37785112  0.63779341  1
  Te  Te19  1  0.25000000  0.12214888  0.13779341  1
  Te  Te20  1  0.25000000  0.88628368  0.64696318  1
  Te  Te21  1  0.75000000  0.11371632  0.35303682  1
  Te  Te22  1  0.25000000  0.38628368  0.85303682  1
  Te  Te23  1  0.75000000  0.61371632  0.14696318  1
  Te  Te24  1  0.75000000  0.64445516  0.54031366  1
  Te  Te25  1  0.25000000  0.35554484  0.45968634  1
  Te  Te26  1  0.75000000  0.14445516  0.95968634  1
  Te  Te27  1  0.25000000  0.85554484  0.04031366  1
  Te  Te28  1  0.25000000  0.89111084  0.43907684  1
  Te  Te29  1  0.75000000  0.10888916  0.56092316  1
  Te  Te30  1  0.25000000  0.39111084  0.06092316  1
  Te  Te31  1  0.75000000  0.60888916  0.93907684  1
  Ta  Ta32  1  0.25000000  0.74936451  0.91578840  1
  Ta  Ta33  1  0.75000000  0.25063549  0.08421160  1
  Ta  Ta34  1  0.25000000  0.24936451  0.58421160  1
  Ta  Ta35  1  0.75000000  0.75063549  0.41578840  1
  Ta  Ta36  1  0.25000000  0.75509863  0.16759684  1
  Ta  Ta37  1  0.75000000  0.24490137  0.83240316  1
  Ta  Ta38  1  0.25000000  0.25509863  0.33240316  1
  Ta  Ta39  1  0.75000000  0.74490137  0.66759684  1
