# generated using pymatgen
data_Ga2TeO6
_symmetry_space_group_name_H-M   'P 1'
_cell_length_a   4.62573517
_cell_length_b   4.62573517
_cell_length_c   9.10721251
_cell_angle_alpha   90.00000000
_cell_angle_beta   90.00000000
_cell_angle_gamma   90.00000000
_symmetry_Int_Tables_number   1
_chemical_formula_structural   Ga2TeO6
_chemical_formula_sum   'Ga4 Te2 O12'
_cell_volume   194.87090450
_cell_formula_units_Z   2
loop_
 _symmetry_equiv_pos_site_id
 _symmetry_equiv_pos_as_xyz
  1  'x, y, z'
loop_
 _atom_site_type_symbol
 _atom_site_label
 _atom_site_symmetry_multiplicity
 _atom_site_fract_x
 _atom_site_fract_y
 _atom_site_fract_z
 _atom_site_occupancy
  O  O0  1  0.80745449  0.80745449  0.83651601  1
  O  O1  1  0.19254551  0.19254551  0.83651601  1
  O  O2  1  0.80745449  0.80745449  0.16348399  1
  O  O3  1  0.30745449  0.69254551  0.33651601  1
  O  O4  1  0.69254551  0.30745449  0.33651601  1
  O  O5  1  0.69254551  0.30745449  0.66348399  1
  O  O6  1  0.30145542  0.69854458  0.00000000  1
  O  O7  1  0.80145542  0.80145542  0.50000000  1
  O  O8  1  0.19854458  0.19854458  0.50000000  1
  O  O9  1  0.69854458  0.30145542  0.00000000  1
  O  O10  1  0.19254551  0.19254551  0.16348399  1
  O  O11  1  0.30745449  0.69254551  0.66348399  1
  Ga  Ga12  1  0.00000000  0.00000000  0.33480284  1
  Ga  Ga13  1  0.50000000  0.50000000  0.83480284  1
  Ga  Ga14  1  0.50000000  0.50000000  0.16519716  1
  Ga  Ga15  1  0.00000000  0.00000000  0.66519716  1
  Te  Te16  1  0.50000000  0.50000000  0.50000000  1
  Te  Te17  1  0.00000000  0.00000000  0.00000000  1
