# generated using pymatgen
data_CsSn2Cl5
_symmetry_space_group_name_H-M   'P 1'
_cell_length_a   8.23771108
_cell_length_b   8.23586642
_cell_length_c   9.70197138
_cell_angle_alpha   115.16425057
_cell_angle_beta   115.12142397
_cell_angle_gamma   89.99999997
_symmetry_Int_Tables_number   1
_chemical_formula_structural   CsSn2Cl5
_chemical_formula_sum   'Cs2 Sn4 Cl10'
_cell_volume   526.15375184
_cell_formula_units_Z   2
loop_
 _symmetry_equiv_pos_site_id
 _symmetry_equiv_pos_as_xyz
  1  'x, y, z'
loop_
 _atom_site_type_symbol
 _atom_site_label
 _atom_site_symmetry_multiplicity
 _atom_site_fract_x
 _atom_site_fract_y
 _atom_site_fract_z
 _atom_site_occupancy
  Cl  Cl0  1  0.95696139  0.45702742  0.24343861  1
  Cl  Cl1  1  0.71351666  0.21346555  0.75652911  1
  Cl  Cl2  1  0.04303861  0.54297258  0.75656139  1
  Cl  Cl3  1  0.21352278  0.04297258  0.75656139  1
  Cl  Cl4  1  0.54301244  0.71346555  0.75652911  1
  Cl  Cl5  1  0.78647722  0.95702742  0.24343861  1
  Cl  Cl6  1  0.50000000  0.50000000  0.00000000  1
  Cl  Cl7  1  0.00000000  0.00000000  0.00000000  1
  Cl  Cl8  1  0.28648334  0.78653445  0.24347089  1
  Cl  Cl9  1  0.45698756  0.28653445  0.24347089  1
  Sn  Sn10  1  0.68172364  0.18173587  -0.00017694  1
  Sn  Sn11  1  0.81809941  0.68173587  -0.00017694  1
  Sn  Sn12  1  0.18190059  0.31826413  1.00017694  1
  Sn  Sn13  1  0.31827636  0.81826413  1.00017694  1
  Cs  Cs14  1  0.24996443  0.25000000  0.50000000  1
  Cs  Cs15  1  0.75003557  0.75000000  0.50000000  1
