# generated using pymatgen
data_PH4N3
_symmetry_space_group_name_H-M   'P 1'
_cell_length_a   6.17200450
_cell_length_b   10.83542154
_cell_length_c   13.81452825
_cell_angle_alpha   97.44998576
_cell_angle_beta   90.00000000
_cell_angle_gamma   90.00000000
_symmetry_Int_Tables_number   1
_chemical_formula_structural   PH4N3
_chemical_formula_sum   'P12 H48 N36'
_cell_volume   916.06525667
_cell_formula_units_Z   12
loop_
 _symmetry_equiv_pos_site_id
 _symmetry_equiv_pos_as_xyz
  1  'x, y, z'
loop_
 _atom_site_type_symbol
 _atom_site_label
 _atom_site_symmetry_multiplicity
 _atom_site_fract_x
 _atom_site_fract_y
 _atom_site_fract_z
 _atom_site_occupancy
  H  H0  1  0.56650395  0.44844401  0.15722155  1
  H  H1  1  0.06650395  0.55155599  0.34277845  1
  H  H2  1  0.43349605  0.55155599  0.84277845  1
  H  H3  1  0.93349605  0.44844401  0.65722155  1
  H  H4  1  0.56800589  0.55776754  0.95017952  1
  H  H5  1  0.06800589  0.44223246  0.54982048  1
  H  H6  1  0.43199411  0.44223246  0.04982048  1
  H  H7  1  0.93199411  0.55776754  0.45017952  1
  H  H8  1  0.53595619  0.37417186  0.44614578  1
  H  H9  1  0.03595619  0.62582814  0.05385422  1
  H  H10  1  0.46404381  0.62582814  0.55385422  1
  H  H11  1  0.96404381  0.37417186  0.94614578  1
  H  H12  1  0.52675075  0.53747877  0.64467495  1
  H  H13  1  0.02675075  0.46252123  0.85532505  1
  H  H14  1  0.47324925  0.46252123  0.35532505  1
  H  H15  1  0.97324925  0.53747877  0.14467495  1
  H  H16  1  0.57406705  0.13148259  0.11717194  1
  H  H17  1  0.07406705  0.86851741  0.38282806  1
  H  H18  1  0.42593295  0.86851741  0.88282806  1
  H  H19  1  0.92593295  0.13148259  0.61717194  1
  H  H20  1  0.63982909  0.23374610  0.03588173  1
  H  H21  1  0.13982909  0.76625390  0.46411827  1
  H  H22  1  0.36017091  0.76625390  0.96411827  1
  H  H23  1  0.80443227  0.66996485  0.89382433  1
  H  H24  1  0.67812132  0.95954295  0.65412881  1
  H  H25  1  0.17812132  0.04045705  0.84587119  1
  H  H26  1  0.32187868  0.04045705  0.34587119  1
  H  H27  1  0.82187868  0.95954295  0.15412881  1
  H  H28  1  0.64366188  0.80311428  0.63966240  1
  H  H29  1  0.14366188  0.19688572  0.86033760  1
  H  H30  1  0.35633812  0.19688572  0.36033760  1
  H  H31  1  0.85633812  0.80311428  0.13966240  1
  H  H32  1  0.66351890  0.04391571  0.95222021  1
  H  H33  1  0.16351890  0.95608429  0.54777979  1
  H  H34  1  0.33648110  0.95608429  0.04777979  1
  H  H35  1  0.83648110  0.04391571  0.45222021  1
  H  H36  1  0.76146967  0.99723948  0.84002256  1
  H  H37  1  0.26146967  0.00276052  0.65997744  1
  H  H38  1  0.23853033  0.00276052  0.15997744  1
  H  H39  1  0.73853033  0.99723948  0.34002256  1
  H  H40  1  0.62526582  0.79830485  0.47188132  1
  H  H41  1  0.12526582  0.20169515  0.02811868  1
  H  H42  1  0.37473418  0.20169515  0.52811868  1
  H  H43  1  0.87473418  0.79830485  0.97188132  1
  H  H44  1  0.69556773  0.66996485  0.39382433  1
  H  H45  1  0.19556773  0.33003515  0.10617567  1
  H  H46  1  0.30443227  0.33003515  0.60617567  1
  H  H47  1  0.86017091  0.23374610  0.53588173  1
  N  N48  1  0.65689399  0.37320061  0.72385231  1
  N  N49  1  0.15689399  0.62679939  0.77614769  1
  N  N50  1  0.34310601  0.62679939  0.27614769  1
  N  N51  1  0.84310601  0.37320061  0.22385231  1
  N  N52  1  0.55996788  0.28354302  0.89609422  1
  N  N53  1  0.05996788  0.71645698  0.60390578  1
  N  N54  1  0.44003212  0.71645698  0.10390578  1
  N  N55  1  0.94003212  0.28354302  0.39609422  1
  N  N56  1  0.54097925  0.12897419  0.72239635  1
  N  N57  1  0.04097925  0.87102581  0.77760365  1
  N  N58  1  0.45902075  0.87102581  0.27760365  1
  N  N59  1  0.95902075  0.12897419  0.22239635  1
  N  N60  1  0.57540271  0.53065848  0.87658174  1
  N  N61  1  0.07540271  0.46934152  0.62341826  1
  N  N62  1  0.42459729  0.46934152  0.12341826  1
  N  N63  1  0.92459729  0.53065848  0.37658174  1
  N  N64  1  0.56487805  0.39141115  0.37605279  1
  N  N65  1  0.06487805  0.60858885  0.12394721  1
  N  N66  1  0.43512195  0.60858885  0.62394721  1
  N  N67  1  0.93512195  0.39141115  0.87605279  1
  N  N68  1  0.69353908  0.18094513  0.08766374  1
  N  N69  1  0.19353908  0.81905487  0.41233626  1
  N  N70  1  0.30646092  0.81905487  0.91233626  1
  N  N71  1  0.80646092  0.18094513  0.58766374  1
  N  N72  1  0.92932414  0.72601515  0.92273080  1
  N  N73  1  0.24389377  0.12531640  0.87339238  1
  N  N74  1  0.25610623  0.12531640  0.37339238  1
  N  N75  1  0.75610623  0.87468360  0.12660762  1
  N  N76  1  0.62638587  0.02808645  0.87921593  1
  N  N77  1  0.12638587  0.97191355  0.62078407  1
  N  N78  1  0.37361413  0.97191355  0.12078407  1
  N  N79  1  0.87361413  0.02808645  0.37921593  1
  N  N80  1  0.57067586  0.72601515  0.42273080  1
  N  N81  1  0.07067586  0.27398485  0.07726920  1
  N  N82  1  0.42932414  0.27398485  0.57726920  1
  N  N83  1  0.74389377  0.87468360  0.62660762  1
  P  P84  1  0.49881307  0.14840368  0.83891959  1
  P  P85  1  0.99881307  0.85159632  0.66108041  1
  P  P86  1  0.50118693  0.85159632  0.16108041  1
  P  P87  1  0.00118693  0.14840368  0.33891959  1
  P  P88  1  0.67623716  0.38829542  0.84097009  1
  P  P89  1  0.17623716  0.61170458  0.65902991  1
  P  P90  1  0.32376284  0.61170458  0.15902991  1
  P  P91  1  0.82376284  0.38829542  0.34097009  1
  P  P92  1  0.60806339  0.23968588  0.65986966  1
  P  P93  1  0.10806339  0.76031412  0.84013034  1
  P  P94  1  0.39193661  0.76031412  0.34013034  1
  P  P95  1  0.89193661  0.23968588  0.15986966  1
