# generated using pymatgen
data_Li4CO4
_symmetry_space_group_name_H-M   'P 1'
_cell_length_a   4.38163090
_cell_length_b   5.07306875
_cell_length_c   5.07717962
_cell_angle_alpha   76.67593300
_cell_angle_beta   64.43780530
_cell_angle_gamma   64.41603622
_symmetry_Int_Tables_number   1
_chemical_formula_structural   Li4CO4
_chemical_formula_sum   'Li4 C1 O4'
_cell_volume   91.69310280
_cell_formula_units_Z   1
loop_
 _symmetry_equiv_pos_site_id
 _symmetry_equiv_pos_as_xyz
  1  'x, y, z'
loop_
 _atom_site_type_symbol
 _atom_site_label
 _atom_site_symmetry_multiplicity
 _atom_site_fract_x
 _atom_site_fract_y
 _atom_site_fract_z
 _atom_site_occupancy
  Li  Li0  1  0.47784196  0.15588782  0.53257672  1
  O  O1  1  0.26798921  0.50043568  0.25039740  1
  Li  Li2  1  0.16632270  0.84408596  0.46744229  1
  O  O3  1  0.64257806  0.75031346  0.48689391  1
  C  C4  1  0.95252642  0.49997855  0.49997722  1
  O  O5  1  0.01878766  0.49959744  0.74961403  1
  Li  Li6  1  0.40523024  0.51235793  0.84027967  1
  Li  Li7  1  0.75784160  0.48770348  0.15972845  1
  O  O8  1  0.87988215  0.24963968  0.51309030  1
