# generated using pymatgen
data_Tl2PdSe2
_symmetry_space_group_name_H-M   'P 1'
_cell_length_a   3.74679118
_cell_length_b   6.21106359
_cell_length_c   11.59350610
_cell_angle_alpha   90.00000000
_cell_angle_beta   90.00000000
_cell_angle_gamma   90.00000000
_symmetry_Int_Tables_number   1
_chemical_formula_structural   Tl2PdSe2
_chemical_formula_sum   'Tl4 Pd2 Se4'
_cell_volume   269.79895285
_cell_formula_units_Z   2
loop_
 _symmetry_equiv_pos_site_id
 _symmetry_equiv_pos_as_xyz
  1  'x, y, z'
loop_
 _atom_site_type_symbol
 _atom_site_label
 _atom_site_symmetry_multiplicity
 _atom_site_fract_x
 _atom_site_fract_y
 _atom_site_fract_z
 _atom_site_occupancy
  Se  Se0  1  0.50000000  0.67577293  0.38951595  1
  Se  Se1  1  0.50000000  0.32422707  0.61048405  1
  Se  Se2  1  0.50000000  0.17577293  0.11048405  1
  Se  Se3  1  0.50000000  0.82422707  0.88951595  1
  Pd  Pd4  1  0.00000000  0.00000000  0.00000000  1
  Pd  Pd5  1  0.00000000  0.50000000  0.50000000  1
  Tl  Tl6  1  0.00000000  0.61052392  0.15320814  1
  Tl  Tl7  1  0.00000000  0.38947608  0.84679186  1
  Tl  Tl8  1  0.00000000  0.11052392  0.34679186  1
  Tl  Tl9  1  0.00000000  0.88947608  0.65320814  1
