# generated using pymatgen
data_Rb3IO
_symmetry_space_group_name_H-M   'P 1'
_cell_length_a   8.04969218
_cell_length_b   8.04969218
_cell_length_c   20.01291711
_cell_angle_alpha   90.00000000
_cell_angle_beta   90.00000000
_cell_angle_gamma   120.00000000
_symmetry_Int_Tables_number   1
_chemical_formula_structural   Rb3IO
_chemical_formula_sum   'Rb18 I6 O6'
_cell_volume   1123.05124806
_cell_formula_units_Z   6
loop_
 _symmetry_equiv_pos_site_id
 _symmetry_equiv_pos_as_xyz
  1  'x, y, z'
loop_
 _atom_site_type_symbol
 _atom_site_label
 _atom_site_symmetry_multiplicity
 _atom_site_fract_x
 _atom_site_fract_y
 _atom_site_fract_z
 _atom_site_occupancy
  O  O0  1  0.33333333  0.66666667  0.65878619  1
  O  O1  1  0.66666667  0.33333333  0.15878619  1
  O  O2  1  0.66666667  0.33333333  0.34121381  1
  O  O3  1  0.33333333  0.66666667  0.84121381  1
  O  O4  1  0.00000000  0.00000000  0.50000000  1
  O  O5  1  0.00000000  0.00000000  0.00000000  1
  Rb  Rb6  1  0.33190729  0.16595364  0.41870127  1
  Rb  Rb7  1  0.33190729  0.16595364  0.08129873  1
  Rb  Rb8  1  0.83404636  0.66809271  0.08129873  1
  Rb  Rb9  1  0.16595364  0.33190729  0.58129873  1
  Rb  Rb10  1  0.66809271  0.83404636  0.58129873  1
  Rb  Rb11  1  0.16595364  0.83404636  0.91870127  1
  Rb  Rb12  1  0.83404636  0.66809271  0.41870127  1
  Rb  Rb13  1  0.83404636  0.16595364  0.08129873  1
  Rb  Rb14  1  0.83404636  0.16595364  0.41870127  1
  Rb  Rb15  1  0.47962879  0.52037121  0.75000000  1
  Rb  Rb16  1  0.66809271  0.83404636  0.91870127  1
  Rb  Rb17  1  0.16595364  0.33190729  0.91870127  1
  Rb  Rb18  1  0.52037121  0.47962879  0.25000000  1
  Rb  Rb19  1  0.95925758  0.47962879  0.25000000  1
  Rb  Rb20  1  0.52037121  0.04074242  0.25000000  1
  Rb  Rb21  1  0.47962879  0.95925758  0.75000000  1
  Rb  Rb22  1  0.04074242  0.52037121  0.75000000  1
  Rb  Rb23  1  0.16595364  0.83404636  0.58129873  1
  I  I24  1  0.33333333  0.66666667  0.41076092  1
  I  I25  1  0.66666667  0.33333333  0.91076092  1
  I  I26  1  0.66666667  0.33333333  0.58923908  1
  I  I27  1  0.33333333  0.66666667  0.08923908  1
  I  I28  1  0.00000000  0.00000000  0.75000000  1
  I  I29  1  0.00000000  0.00000000  0.25000000  1
