# generated using pymatgen
data_U4Te3O4
_symmetry_space_group_name_H-M   'P 1'
_cell_length_a   3.96428347
_cell_length_b   3.96428347
_cell_length_c   14.28369516
_cell_angle_alpha   97.97665082
_cell_angle_beta   97.97665081
_cell_angle_gamma   89.99999996
_symmetry_Int_Tables_number   1
_chemical_formula_structural   U4Te3O4
_chemical_formula_sum   'U4 Te3 O4'
_cell_volume   220.11085769
_cell_formula_units_Z   1
loop_
 _symmetry_equiv_pos_site_id
 _symmetry_equiv_pos_as_xyz
  1  'x, y, z'
loop_
 _atom_site_type_symbol
 _atom_site_label
 _atom_site_symmetry_multiplicity
 _atom_site_fract_x
 _atom_site_fract_y
 _atom_site_fract_z
 _atom_site_occupancy
  O  O0  1  0.89196177  0.39196177  0.78392354  1
  O  O1  1  0.39196177  0.89196177  0.78392354  1
  O  O2  1  0.10803823  0.60803823  0.21607646  1
  O  O3  1  0.60803823  0.10803823  0.21607646  1
  Te  Te4  1  0.00000000  0.00000000  0.00000000  1
  Te  Te5  1  0.28939157  0.28939157  0.57878313  1
  Te  Te6  1  0.71060843  0.71060843  0.42121687  1
  U  U7  1  0.56822902  0.56822902  0.13645804  1
  U  U8  1  0.43177098  0.43177098  0.86354196  1
  U  U9  1  0.84385861  0.84385861  0.68771722  1
  U  U10  1  0.15614139  0.15614139  0.31228278  1
