# generated using pymatgen
data_Sr5La2Cl16
_symmetry_space_group_name_H-M   'P 1'
_cell_length_a   9.04014798
_cell_length_b   9.04014798
_cell_length_c   19.16307987
_cell_angle_alpha   90.00000000
_cell_angle_beta   90.00000000
_cell_angle_gamma   67.83804393
_symmetry_Int_Tables_number   1
_chemical_formula_structural   Sr5La2Cl16
_chemical_formula_sum   'Sr10 La4 Cl32'
_cell_volume   1450.38815508
_cell_formula_units_Z   2
loop_
 _symmetry_equiv_pos_site_id
 _symmetry_equiv_pos_as_xyz
  1  'x, y, z'
loop_
 _atom_site_type_symbol
 _atom_site_label
 _atom_site_symmetry_multiplicity
 _atom_site_fract_x
 _atom_site_fract_y
 _atom_site_fract_z
 _atom_site_occupancy
  Sr  Sr0  1  0.25000000  0.75000000  0.38334326  1
  Sr  Sr1  1  0.25000000  0.75000000  0.88334326  1
  Sr  Sr2  1  0.25000000  0.25000000  0.47899835  1
  Sr  Sr3  1  0.25000000  0.25000000  0.02100165  1
  Sr  Sr4  1  0.75000000  0.75000000  0.52100165  1
  Sr  Sr5  1  0.25000000  0.25000000  0.75000000  1
  Sr  Sr6  1  0.75000000  0.75000000  0.97899835  1
  Sr  Sr7  1  0.75000000  0.75000000  0.25000000  1
  Sr  Sr8  1  0.75000000  0.25000000  0.11665674  1
  Sr  Sr9  1  0.75000000  0.25000000  0.61665674  1
  La  La10  1  0.25000000  0.75000000  0.13250114  1
  La  La11  1  0.25000000  0.75000000  0.63250114  1
  La  La12  1  0.75000000  0.25000000  0.36749886  1
  La  La13  1  0.75000000  0.25000000  0.86749886  1
  Cl  Cl14  1  0.05018284  0.78157185  0.02102247  1
  Cl  Cl15  1  0.21842815  0.94981716  0.52102247  1
  Cl  Cl16  1  0.27771325  0.92408294  0.74555514  1
  Cl  Cl17  1  0.07591706  0.72228675  0.24555514  1
  Cl  Cl18  1  0.02928878  0.36072284  0.59685164  1
  Cl  Cl19  1  0.13927716  0.47071122  0.90314836  1
  Cl  Cl20  1  0.52928878  0.86072284  0.40314836  1
  Cl  Cl21  1  0.63927716  0.97071122  0.09685164  1
  Cl  Cl22  1  0.42408294  0.77771325  0.24555514  1
  Cl  Cl23  1  0.22228675  0.57591706  0.74555514  1
  Cl  Cl24  1  0.44981716  0.71842815  0.02102247  1
  Cl  Cl25  1  0.28157185  0.55018284  0.52102247  1
  Cl  Cl26  1  0.08712142  0.11793695  0.36450899  1
  Cl  Cl27  1  0.38206305  0.41287858  0.13549101  1
  Cl  Cl28  1  0.58712142  0.61793695  0.63549101  1
  Cl  Cl29  1  0.88206305  0.91287858  0.86450899  1
  Cl  Cl30  1  0.11793695  0.08712142  0.13549101  1
  Cl  Cl31  1  0.41287858  0.38206305  0.36450899  1
  Cl  Cl32  1  0.91287858  0.88206305  0.63549101  1
  Cl  Cl33  1  0.61793695  0.58712142  0.86450899  1
  Cl  Cl34  1  0.71842815  0.44981716  0.47897753  1
  Cl  Cl35  1  0.55018284  0.28157185  0.97897753  1
  Cl  Cl36  1  0.57591706  0.22228675  0.75444486  1
  Cl  Cl37  1  0.77771325  0.42408294  0.25444486  1
  Cl  Cl38  1  0.86072284  0.52928878  0.09685164  1
  Cl  Cl39  1  0.36072284  0.02928878  0.90314836  1
  Cl  Cl40  1  0.97071122  0.63927716  0.40314836  1
  Cl  Cl41  1  0.47071122  0.13927716  0.59685164  1
  Cl  Cl42  1  0.92408294  0.27771325  0.75444486  1
  Cl  Cl43  1  0.72228675  0.07591706  0.25444486  1
  Cl  Cl44  1  0.78157185  0.05018284  0.47897753  1
  Cl  Cl45  1  0.94981716  0.21842815  0.97897753  1
