# generated using pymatgen
data_Rb3Os2Br9
_symmetry_space_group_name_H-M   'P 1'
_cell_length_a   7.64117384
_cell_length_b   7.64117384
_cell_length_c   18.54922404
_cell_angle_alpha   90.00000000
_cell_angle_beta   90.00000000
_cell_angle_gamma   120.00000000
_symmetry_Int_Tables_number   1
_chemical_formula_structural   Rb3Os2Br9
_chemical_formula_sum   'Rb6 Os4 Br18'
_cell_volume   937.94319916
_cell_formula_units_Z   2
loop_
 _symmetry_equiv_pos_site_id
 _symmetry_equiv_pos_as_xyz
  1  'x, y, z'
loop_
 _atom_site_type_symbol
 _atom_site_label
 _atom_site_symmetry_multiplicity
 _atom_site_fract_x
 _atom_site_fract_y
 _atom_site_fract_z
 _atom_site_occupancy
  Br  Br0  1  0.49574547  0.99149095  0.25000000  1
  Br  Br1  1  0.50425453  0.49574547  0.75000000  1
  Br  Br2  1  0.99149095  0.49574547  0.75000000  1
  Br  Br3  1  0.00850905  0.50425453  0.25000000  1
  Br  Br4  1  0.49574547  0.50425453  0.25000000  1
  Br  Br5  1  0.50425453  0.00850905  0.75000000  1
  Br  Br6  1  0.82137625  0.17862375  0.90319600  1
  Br  Br7  1  0.82137625  0.64275250  0.90319600  1
  Br  Br8  1  0.35724750  0.17862375  0.90319600  1
  Br  Br9  1  0.64275250  0.82137625  0.40319600  1
  Br  Br10  1  0.82137625  0.64275250  0.59680400  1
  Br  Br11  1  0.17862375  0.82137625  0.09680400  1
  Br  Br12  1  0.64275250  0.82137625  0.09680400  1
  Br  Br13  1  0.35724750  0.17862375  0.59680400  1
  Br  Br14  1  0.82137625  0.17862375  0.59680400  1
  Br  Br15  1  0.17862375  0.35724750  0.40319600  1
  Br  Br16  1  0.17862375  0.82137625  0.40319600  1
  Br  Br17  1  0.17862375  0.35724750  0.09680400  1
  Rb  Rb18  1  0.33333333  0.66666667  0.56328001  1
  Rb  Rb19  1  0.66666667  0.33333333  0.06328001  1
  Rb  Rb20  1  0.66666667  0.33333333  0.43671999  1
  Rb  Rb21  1  0.33333333  0.66666667  0.93671999  1
  Rb  Rb22  1  0.00000000  0.00000000  0.25000000  1
  Rb  Rb23  1  0.00000000  0.00000000  0.75000000  1
  Os  Os24  1  0.66666667  0.33333333  0.82352701  1
  Os  Os25  1  0.33333333  0.66666667  0.32352701  1
  Os  Os26  1  0.33333333  0.66666667  0.17647299  1
  Os  Os27  1  0.66666667  0.33333333  0.67647299  1
