# generated using pymatgen
data_Li2Cr4O13
_symmetry_space_group_name_H-M   'P 1'
_cell_length_a   8.24122267
_cell_length_b   12.12599673
_cell_length_c   7.82226268
_cell_angle_alpha   94.33950843
_cell_angle_beta   94.02250081
_cell_angle_gamma   109.21063132
_symmetry_Int_Tables_number   1
_chemical_formula_structural   Li2Cr4O13
_chemical_formula_sum   'Li6 Cr12 O39'
_cell_volume   732.29806183
_cell_formula_units_Z   3
loop_
 _symmetry_equiv_pos_site_id
 _symmetry_equiv_pos_as_xyz
  1  'x, y, z'
loop_
 _atom_site_type_symbol
 _atom_site_label
 _atom_site_symmetry_multiplicity
 _atom_site_fract_x
 _atom_site_fract_y
 _atom_site_fract_z
 _atom_site_occupancy
  Li  Li0  1  0.01137837  0.63702334  0.89032765  1
  Li  Li1  1  0.03139195  0.37924833  0.69481887  1
  Li  Li2  1  0.47790233  0.98052016  0.71216483  1
  Li  Li3  1  0.52209767  0.01947984  0.28783517  1
  Li  Li4  1  0.96860805  0.62075167  0.30518113  1
  Li  Li5  1  0.98862163  0.36297666  0.10967235  1
  Cr  Cr6  1  0.14867919  0.95617352  0.97446425  1
  Cr  Cr7  1  0.14303548  0.95654819  0.37116667  1
  Cr  Cr8  1  0.31967099  0.64909763  0.61720279  1
  Cr  Cr9  1  0.33062304  0.63739336  0.22232769  1
  Cr  Cr10  1  0.32815157  0.35325606  0.41924804  1
  Cr  Cr11  1  0.34784952  0.37275171  0.03189855  1
  Cr  Cr12  1  0.65215048  0.62724829  0.96810145  1
  Cr  Cr13  1  0.67184843  0.64674394  0.58075196  1
  Cr  Cr14  1  0.66937696  0.36260664  0.77767231  1
  Cr  Cr15  1  0.68032901  0.35090237  0.38279721  1
  Cr  Cr16  1  0.85696452  0.04345181  0.62883333  1
  Cr  Cr17  1  0.85132081  0.04382648  0.02553575  1
  O  O18  1  0.99941390  0.99070478  0.14793727  1
  O  O19  1  0.08008373  0.81483232  0.93683990  1
  O  O20  1  0.06320606  0.81589969  0.35112262  1
  O  O21  1  0.15420833  0.59190900  0.72519803  1
  O  O22  1  0.27606130  0.98630025  0.18919213  1
  O  O23  1  0.19404200  0.61940010  0.40464128  1
  O  O24  1  0.15253411  0.59979975  0.09052469  1
  O  O25  1  0.19306868  0.38250861  0.89951374  1
  O  O26  1  0.38216381  0.78999454  0.65469763  1
  O  O27  1  0.00000000  0.00000000  0.50000000  1
  O  O28  1  0.22091939  0.40570062  0.55048074  1
  O  O29  1  0.42265651  0.77481882  0.22441870  1
  O  O30  1  0.23445890  0.39684959  0.22213185  1
  O  O31  1  0.24319699  0.21382787  0.39672554  1
  O  O32  1  0.48262936  0.60628602  0.73326261  1
  O  O33  1  0.46865573  0.61457408  0.44155294  1
  O  O34  1  0.68383472  0.00536771  0.49346330  1
  O  O35  1  0.45994266  0.57300263  0.09172918  1
  O  O36  1  0.32559765  0.23707461  0.02163385  1
  O  O37  1  0.68062195  0.99290856  0.12509022  1
  O  O38  1  0.31937805  0.00709144  0.87490978  1
  O  O39  1  0.67440235  0.76292539  0.97836615  1
  O  O40  1  0.54005734  0.42699737  0.90827082  1
  O  O41  1  0.31616528  0.99463129  0.50653670  1
  O  O42  1  0.53134427  0.38542592  0.55844706  1
  O  O43  1  0.51737064  0.39371398  0.26673739  1
  O  O44  1  0.75680301  0.78617213  0.60327446  1
  O  O45  1  0.76554110  0.60315041  0.77786815  1
  O  O46  1  0.57734349  0.22518118  0.77558130  1
  O  O47  1  0.77908061  0.59429938  0.44951926  1
  O  O48  1  0.61783619  0.21000546  0.34530237  1
  O  O49  1  0.80693132  0.61749139  0.10048626  1
  O  O50  1  0.84746589  0.40020025  0.90947531  1
  O  O51  1  0.80595800  0.38059990  0.59535872  1
  O  O52  1  0.72393870  0.01369975  0.81080787  1
  O  O53  1  0.84579167  0.40809100  0.27480197  1
  O  O54  1  0.93679394  0.18410031  0.64887738  1
  O  O55  1  0.91991627  0.18516768  0.06316010  1
  O  O56  1  0.00058610  0.00929522  0.85206273  1
