# generated using pymatgen
data_Ta4FeTe4
_symmetry_space_group_name_H-M   'P 1'
_cell_length_a   4.86032252
_cell_length_b   10.94930776
_cell_length_c   19.26369710
_cell_angle_alpha   90.00000000
_cell_angle_beta   90.00000000
_cell_angle_gamma   90.00000000
_symmetry_Int_Tables_number   1
_chemical_formula_structural   Ta4FeTe4
_chemical_formula_sum   'Ta16 Fe4 Te16'
_cell_volume   1025.15938723
_cell_formula_units_Z   4
loop_
 _symmetry_equiv_pos_site_id
 _symmetry_equiv_pos_as_xyz
  1  'x, y, z'
loop_
 _atom_site_type_symbol
 _atom_site_label
 _atom_site_symmetry_multiplicity
 _atom_site_fract_x
 _atom_site_fract_y
 _atom_site_fract_z
 _atom_site_occupancy
  Fe  Fe0  1  0.24996628  0.50000000  0.50000000  1
  Fe  Fe1  1  0.75003372  0.00000000  0.00000000  1
  Fe  Fe2  1  0.75003372  0.50000000  0.50000000  1
  Fe  Fe3  1  0.24996628  0.00000000  0.00000000  1
  Te  Te4  1  0.00000000  0.66572885  0.68327446  1
  Te  Te5  1  0.00000000  0.33427115  0.31672554  1
  Te  Te6  1  0.00000000  0.16572885  0.81672554  1
  Te  Te7  1  0.00000000  0.83427115  0.18327446  1
  Te  Te8  1  0.50000000  0.38921836  0.69636381  1
  Te  Te9  1  0.50000000  0.61078164  0.30363619  1
  Te  Te10  1  0.50000000  0.88921836  0.80363619  1
  Te  Te11  1  0.50000000  0.11078164  0.19636381  1
  Te  Te12  1  0.50000000  0.15379169  0.43679613  1
  Te  Te13  1  0.50000000  0.84620831  0.56320387  1
  Te  Te14  1  0.50000000  0.65379169  0.06320387  1
  Te  Te15  1  0.50000000  0.34620831  0.93679613  1
  Te  Te16  1  0.00000000  0.32359288  0.09454026  1
  Te  Te17  1  0.00000000  0.67640712  0.90545974  1
  Te  Te18  1  0.00000000  0.82359288  0.40545974  1
  Te  Te19  1  0.00000000  0.17640712  0.59454026  1
  Ta  Ta20  1  0.50000000  0.59583538  0.60566016  1
  Ta  Ta21  1  0.50000000  0.40416462  0.39433984  1
  Ta  Ta22  1  0.50000000  0.09583538  0.89433984  1
  Ta  Ta23  1  0.50000000  0.90416462  0.10566016  1
  Ta  Ta24  1  0.00000000  0.29992409  0.46370315  1
  Ta  Ta25  1  0.00000000  0.70007591  0.53629685  1
  Ta  Ta26  1  0.00000000  0.79992409  0.03629685  1
  Ta  Ta27  1  0.00000000  0.20007591  0.96370315  1
  Ta  Ta28  1  0.50000000  0.31314020  0.55451795  1
  Ta  Ta29  1  0.50000000  0.68685980  0.44548205  1
  Ta  Ta30  1  0.50000000  0.81314020  0.94548205  1
  Ta  Ta31  1  0.50000000  0.18685980  0.05451795  1
  Ta  Ta32  1  0.00000000  0.43580439  0.61317598  1
  Ta  Ta33  1  0.00000000  0.56419561  0.38682402  1
  Ta  Ta34  1  0.00000000  0.93580439  0.88682402  1
  Ta  Ta35  1  0.00000000  0.06419561  0.11317598  1
