# generated using pymatgen
data_LiMnVO4
_symmetry_space_group_name_H-M   'P 1'
_cell_length_a   5.89128580
_cell_length_b   5.98220937
_cell_length_c   5.98220971
_cell_angle_alpha   59.42672594
_cell_angle_beta   60.50151973
_cell_angle_gamma   60.50151789
_symmetry_Int_Tables_number   1
_chemical_formula_structural   LiMnVO4
_chemical_formula_sum   'Li2 Mn2 V2 O8'
_cell_volume   149.52871660
_cell_formula_units_Z   2
loop_
 _symmetry_equiv_pos_site_id
 _symmetry_equiv_pos_as_xyz
  1  'x, y, z'
loop_
 _atom_site_type_symbol
 _atom_site_label
 _atom_site_symmetry_multiplicity
 _atom_site_fract_x
 _atom_site_fract_y
 _atom_site_fract_z
 _atom_site_occupancy
  Li  Li0  1  0.12056431  0.12943569  0.12943569  1
  Li  Li1  1  0.87943569  0.87056431  0.87056431  1
  Mn  Mn2  1  0.00000000  0.50000000  0.50000000  1
  Mn  Mn3  1  0.50000000  0.50000000  0.50000000  1
  V  V4  1  0.50000000  0.00000000  0.50000000  1
  V  V5  1  0.50000000  0.50000000  0.00000000  1
  O  O6  1  0.25286354  0.26978289  0.26978289  1
  O  O7  1  0.25815920  0.27059335  0.71308725  1
  O  O8  1  0.25815920  0.71308725  0.27059335  1
  O  O9  1  0.70757068  0.26978289  0.26978289  1
  O  O10  1  0.29242932  0.73021711  0.73021711  1
  O  O11  1  0.74184080  0.72940665  0.28691275  1
  O  O12  1  0.74184080  0.28691275  0.72940665  1
  O  O13  1  0.74713646  0.73021711  0.73021711  1
