# generated using pymatgen
data_GeP2O7
_symmetry_space_group_name_H-M   'P 1'
_cell_length_a   4.72744257
_cell_length_b   6.81507082
_cell_length_c   7.88031324
_cell_angle_alpha   91.59908140
_cell_angle_beta   92.84719863
_cell_angle_gamma   105.30202846
_symmetry_Int_Tables_number   1
_chemical_formula_structural   GeP2O7
_chemical_formula_sum   'Ge2 P4 O14'
_cell_volume   244.36195689
_cell_formula_units_Z   2
loop_
 _symmetry_equiv_pos_site_id
 _symmetry_equiv_pos_as_xyz
  1  'x, y, z'
loop_
 _atom_site_type_symbol
 _atom_site_label
 _atom_site_symmetry_multiplicity
 _atom_site_fract_x
 _atom_site_fract_y
 _atom_site_fract_z
 _atom_site_occupancy
  O  O0  1  0.20747425  0.93318829  0.19175221  1
  O  O1  1  0.79252575  0.06681171  0.80824779  1
  O  O2  1  0.15333734  0.29495634  0.43779236  1
  O  O3  1  0.84666266  0.70504366  0.56220764  1
  O  O4  1  0.69561498  0.03341541  0.36180061  1
  O  O5  1  0.30438502  0.96658459  0.63819939  1
  O  O6  1  0.30048139  0.59573285  0.67504159  1
  O  O7  1  0.69951861  0.40426715  0.32495841  1
  O  O8  1  0.61285797  0.32795298  0.65957542  1
  O  O9  1  0.38714203  0.67204702  0.34042458  1
  O  O10  1  0.04116083  0.76525551  0.87660082  1
  O  O11  1  0.95883917  0.23474449  0.12339918  1
  O  O12  1  0.35078578  0.16827060  0.91952205  1
  O  O13  1  0.64921422  0.83172940  0.08047795  1
  P  P14  1  0.88816114  0.25422215  0.31028745  1
  P  P15  1  0.11183886  0.74577785  0.68971255  1
  P  P16  1  0.48083689  0.86084156  0.23642235  1
  P  P17  1  0.51916311  0.13915844  0.76357765  1
  Ge  Ge18  1  0.50000000  0.50000000  0.50000000  1
  Ge  Ge19  1  0.00000000  0.00000000  0.00000000  1
