# generated using pymatgen
data_TaI2O
_symmetry_space_group_name_H-M   'P 1'
_cell_length_a   3.90328146
_cell_length_b   7.53353929
_cell_length_c   8.58397820
_cell_angle_alpha   104.28278436
_cell_angle_beta   103.14160748
_cell_angle_gamma   90.00000005
_symmetry_Int_Tables_number   1
_chemical_formula_structural   TaI2O
_chemical_formula_sum   'Ta2 I4 O2'
_cell_volume   237.78685793
_cell_formula_units_Z   2
loop_
 _symmetry_equiv_pos_site_id
 _symmetry_equiv_pos_as_xyz
  1  'x, y, z'
loop_
 _atom_site_type_symbol
 _atom_site_label
 _atom_site_symmetry_multiplicity
 _atom_site_fract_x
 _atom_site_fract_y
 _atom_site_fract_z
 _atom_site_occupancy
  O  O0  1  0.50005501  0.28699541  1.00011001  1
  O  O1  1  0.49994499  0.71300459  -0.00011001  1
  I  I2  1  0.88341749  0.93461349  0.76683498  1
  I  I3  1  0.11658251  0.06538651  0.23316502  1
  I  I4  1  0.85671691  0.41916741  0.71343381  1
  I  I5  1  0.14328309  0.58083259  0.28656619  1
  Ta  Ta6  1  0.00008151  0.29360564  0.00016302  1
  Ta  Ta7  1  0.99991849  0.70639436  0.99983698  1
