# generated using pymatgen
data_Br2O3
_symmetry_space_group_name_H-M   'P 1'
_cell_length_a   8.24236403
_cell_length_b   9.43030232
_cell_length_c   12.00089982
_cell_angle_alpha   109.15028844
_cell_angle_beta   90.00000000
_cell_angle_gamma   90.00000000
_symmetry_Int_Tables_number   1
_chemical_formula_structural   Br2O3
_chemical_formula_sum   'Br16 O24'
_cell_volume   881.18554445
_cell_formula_units_Z   8
loop_
 _symmetry_equiv_pos_site_id
 _symmetry_equiv_pos_as_xyz
  1  'x, y, z'
loop_
 _atom_site_type_symbol
 _atom_site_label
 _atom_site_symmetry_multiplicity
 _atom_site_fract_x
 _atom_site_fract_y
 _atom_site_fract_z
 _atom_site_occupancy
  O  O0  1  0.09528729  0.57001213  0.89857931  1
  O  O1  1  0.59528729  0.92998787  0.10142069  1
  O  O2  1  0.90471271  0.42998787  0.10142069  1
  O  O3  1  0.40471271  0.07001213  0.89857931  1
  O  O4  1  0.22981696  0.68491461  0.74215853  1
  O  O5  1  0.72981696  0.81508539  0.25784147  1
  O  O6  1  0.77018304  0.31508539  0.25784147  1
  O  O7  1  0.27018304  0.18491461  0.74215853  1
  O  O8  1  0.42637693  0.51513162  0.84456262  1
  O  O9  1  0.92637693  0.98486838  0.15543738  1
  O  O10  1  0.57362307  0.48486838  0.15543738  1
  O  O11  1  0.07362307  0.01513162  0.84456262  1
  O  O12  1  0.16269127  0.87419025  0.54159789  1
  O  O13  1  0.66269127  0.62580975  0.45840211  1
  O  O14  1  0.83730873  0.12580975  0.45840211  1
  O  O15  1  0.33730873  0.37419025  0.54159789  1
  O  O16  1  0.16884292  0.20700812  0.33720004  1
  O  O17  1  0.66884292  0.29299188  0.66279996  1
  O  O18  1  0.83115708  0.79299188  0.66279996  1
  O  O19  1  0.33115708  0.70700812  0.33720004  1
  O  O20  1  0.45442969  0.10836102  0.41183586  1
  O  O21  1  0.95442969  0.39163898  0.58816414  1
  O  O22  1  0.54557031  0.89163898  0.58816414  1
  O  O23  1  0.04557031  0.60836102  0.41183586  1
  Br  Br24  1  0.50330278  0.69237782  0.95150236  1
  Br  Br25  1  0.00330278  0.80762218  0.04849764  1
  Br  Br26  1  0.49669722  0.30762218  0.04849764  1
  Br  Br27  1  0.99669722  0.19237782  0.95150236  1
  Br  Br28  1  0.21400246  0.53367930  0.78050701  1
  Br  Br29  1  0.71400246  0.96632070  0.21949299  1
  Br  Br30  1  0.78599754  0.46632070  0.21949299  1
  Br  Br31  1  0.28599754  0.03367930  0.78050701  1
  Br  Br32  1  0.19677871  0.73987100  0.21894233  1
  Br  Br33  1  0.69677871  0.76012900  0.78105767  1
  Br  Br34  1  0.80322129  0.26012900  0.78105767  1
  Br  Br35  1  0.30322129  0.23987100  0.21894233  1
  Br  Br36  1  0.21297479  0.69796081  0.46961692  1
  Br  Br37  1  0.71297479  0.80203919  0.53038308  1
  Br  Br38  1  0.78702521  0.30203919  0.53038308  1
  Br  Br39  1  0.28702521  0.19796081  0.46961692  1
