# generated using pymatgen
data_NaPt2Se3
_symmetry_space_group_name_H-M   'P 1'
_cell_length_a   7.52501326
_cell_length_b   7.52501326
_cell_length_c   11.64048301
_cell_angle_alpha   90.00000000
_cell_angle_beta   90.00000000
_cell_angle_gamma   119.99999999
_symmetry_Int_Tables_number   1
_chemical_formula_structural   NaPt2Se3
_chemical_formula_sum   'Na4 Pt8 Se12'
_cell_volume   570.84233284
_cell_formula_units_Z   4
loop_
 _symmetry_equiv_pos_site_id
 _symmetry_equiv_pos_as_xyz
  1  'x, y, z'
loop_
 _atom_site_type_symbol
 _atom_site_label
 _atom_site_symmetry_multiplicity
 _atom_site_fract_x
 _atom_site_fract_y
 _atom_site_fract_z
 _atom_site_occupancy
  Na  Na0  1  0.33333333  0.66666667  0.31375551  1
  Na  Na1  1  0.66666667  0.33333333  0.81375551  1
  Na  Na2  1  0.00000000  0.00000000  0.69090109  1
  Na  Na3  1  0.00000000  0.00000000  0.19090109  1
  Se  Se4  1  0.49839447  0.50160553  0.60995024  1
  Se  Se5  1  0.99678894  0.49839447  0.10995024  1
  Se  Se6  1  0.50160553  0.00321106  0.10995024  1
  Se  Se7  1  0.49839447  0.99678894  0.60995024  1
  Se  Se8  1  0.15981026  0.84018974  0.89763339  1
  Se  Se9  1  0.31962051  0.15981026  0.39763339  1
  Se  Se10  1  0.84018974  0.68037949  0.39763339  1
  Se  Se11  1  0.15981026  0.31962051  0.89763339  1
  Se  Se12  1  0.68037949  0.84018974  0.89763339  1
  Se  Se13  1  0.84018974  0.15981026  0.39763339  1
  Se  Se14  1  0.50160553  0.49839447  0.10995024  1
  Se  Se15  1  0.00321106  0.50160553  0.60995024  1
  Pt  Pt16  1  0.83387174  0.16612826  0.00640978  1
  Pt  Pt17  1  0.66774349  0.83387174  0.50640978  1
  Pt  Pt18  1  0.16612826  0.33225651  0.50640978  1
  Pt  Pt19  1  0.83387174  0.66774349  0.00640978  1
  Pt  Pt20  1  0.33225651  0.16612826  0.00640978  1
  Pt  Pt21  1  0.16612826  0.83387174  0.50640978  1
  Pt  Pt22  1  0.66666667  0.33333333  0.49916315  1
  Pt  Pt23  1  0.33333333  0.66666667  0.99916315  1
