# generated using pymatgen
data_Ba4Ga2O7
_symmetry_space_group_name_H-M   'P 1'
_cell_length_a   7.45037718
_cell_length_b   10.83479403
_cell_length_c   18.01900360
_cell_angle_alpha   90.00000000
_cell_angle_beta   98.17524563
_cell_angle_gamma   90.00000000
_symmetry_Int_Tables_number   1
_chemical_formula_structural   Ba4Ga2O7
_chemical_formula_sum   'Ba24 Ga12 O42'
_cell_volume   1439.77195261
_cell_formula_units_Z   6
loop_
 _symmetry_equiv_pos_site_id
 _symmetry_equiv_pos_as_xyz
  1  'x, y, z'
loop_
 _atom_site_type_symbol
 _atom_site_label
 _atom_site_symmetry_multiplicity
 _atom_site_fract_x
 _atom_site_fract_y
 _atom_site_fract_z
 _atom_site_occupancy
  O  O0  1  0.50000000  0.50000000  0.50000000  1
  O  O1  1  0.00000000  0.00000000  0.50000000  1
  O  O2  1  0.84297910  0.43818265  0.92644679  1
  O  O3  1  0.65702090  0.93818265  0.07355321  1
  O  O4  1  0.15702090  0.56181735  0.07355321  1
  O  O5  1  0.34297910  0.06181735  0.92644679  1
  O  O6  1  0.67394183  0.14173472  0.50846575  1
  O  O7  1  0.82605817  0.64173472  0.49153425  1
  O  O8  1  0.32605817  0.85826528  0.49153425  1
  O  O9  1  0.17394183  0.35826528  0.50846575  1
  O  O10  1  0.62005563  0.93997935  0.75376043  1
  O  O11  1  0.87994437  0.43997935  0.24623957  1
  O  O12  1  0.37994437  0.06002065  0.24623957  1
  O  O13  1  0.12005563  0.56002065  0.75376043  1
  O  O14  1  0.83003736  0.42655901  0.60354149  1
  O  O15  1  0.66996264  0.92655901  0.39645851  1
  O  O16  1  0.16996264  0.57344099  0.39645851  1
  O  O17  1  0.33003736  0.07344099  0.60354149  1
  O  O18  1  0.73818384  0.21642906  0.79286600  1
  O  O19  1  0.76181616  0.71642906  0.20713400  1
  O  O20  1  0.26181616  0.78357094  0.20713400  1
  O  O21  1  0.23818384  0.28357094  0.79286600  1
  O  O22  1  0.68612600  0.68623966  0.63870122  1
  O  O23  1  0.81387400  0.18623966  0.36129878  1
  O  O24  1  0.31387400  0.31376034  0.36129878  1
  O  O25  1  0.18612600  0.81376034  0.63870122  1
  O  O26  1  0.95896724  0.99236774  0.85710888  1
  O  O27  1  0.54103276  0.49236774  0.14289112  1
  O  O28  1  0.04103276  0.00763226  0.14289112  1
  O  O29  1  0.45896724  0.50763226  0.85710888  1
  O  O30  1  0.78032395  0.67214068  0.83830591  1
  O  O31  1  0.71967605  0.17214068  0.16169409  1
  O  O32  1  0.21967605  0.32785932  0.16169409  1
  O  O33  1  0.28032395  0.82785932  0.83830591  1
  O  O34  1  0.33986717  0.32860246  0.00959426  1
  O  O35  1  0.16013283  0.82860246  0.99040574  1
  O  O36  1  0.66013283  0.67139754  0.99040574  1
  O  O37  1  0.83986717  0.17139754  0.00959426  1
  O  O38  1  0.93019324  0.03938190  0.68727587  1
  O  O39  1  0.56980676  0.53938190  0.31272413  1
  O  O40  1  0.06980676  0.96061810  0.31272413  1
  O  O41  1  0.43019324  0.46061810  0.68727587  1
  Ga  Ga42  1  0.70458095  0.56945187  0.56571091  1
  Ga  Ga43  1  0.79541905  0.06945187  0.43428909  1
  Ga  Ga44  1  0.29541905  0.43054813  0.43428909  1
  Ga  Ga45  1  0.20458095  0.93054813  0.56571091  1
  Ga  Ga46  1  0.18523091  0.92648182  0.90878825  1
  Ga  Ga47  1  0.31476909  0.42648182  0.09121175  1
  Ga  Ga48  1  0.81476909  0.07351818  0.09121175  1
  Ga  Ga49  1  0.68523091  0.57351818  0.90878825  1
  Ga  Ga50  1  0.80334960  0.05992968  0.76805000  1
  Ga  Ga51  1  0.69665040  0.55992968  0.23195000  1
  Ga  Ga52  1  0.19665040  0.94007032  0.23195000  1
  Ga  Ga53  1  0.30334960  0.44007032  0.76805000  1
  Ba  Ba54  1  0.96021212  0.78622739  0.74310605  1
  Ba  Ba55  1  0.53978788  0.28622739  0.25689395  1
  Ba  Ba56  1  0.03978788  0.21377261  0.25689395  1
  Ba  Ba57  1  0.46021212  0.71377261  0.74310605  1
  Ba  Ba58  1  0.54303788  0.26776523  0.90730508  1
  Ba  Ba59  1  0.95696212  0.76776523  0.09269492  1
  Ba  Ba60  1  0.45696212  0.73223477  0.09269492  1
  Ba  Ba61  1  0.04303788  0.23223477  0.90730508  1
  Ba  Ba62  1  0.49755203  0.29048636  0.58941810  1
  Ba  Ba63  1  0.00244797  0.79048636  0.41058190  1
  Ba  Ba64  1  0.50244797  0.70951364  0.41058190  1
  Ba  Ba65  1  0.99755203  0.20951364  0.58941810  1
  Ba  Ba66  1  0.65796422  0.89589490  0.91801873  1
  Ba  Ba67  1  0.84203578  0.39589490  0.08198127  1
  Ba  Ba68  1  0.34203578  0.10410510  0.08198127  1
  Ba  Ba69  1  0.15796422  0.60410510  0.91801873  1
  Ba  Ba70  1  0.79691554  0.44902768  0.75067009  1
  Ba  Ba71  1  0.70308446  0.94902768  0.24932991  1
  Ba  Ba72  1  0.20308446  0.55097232  0.24932991  1
  Ba  Ba73  1  0.29691554  0.05097232  0.75067009  1
  Ba  Ba74  1  0.65677340  0.92704171  0.58831554  1
  Ba  Ba75  1  0.84322660  0.42704171  0.41168446  1
  Ba  Ba76  1  0.34322660  0.07295829  0.41168446  1
  Ba  Ba77  1  0.15677340  0.57295829  0.58831554  1
