# generated using pymatgen
data_Sr4Nb2O9
_symmetry_space_group_name_H-M   'P 1'
_cell_length_a   5.94796689
_cell_length_b   5.95130408
_cell_length_c   15.94286650
_cell_angle_alpha   90.00269369
_cell_angle_beta   90.00845566
_cell_angle_gamma   60.00686094
_symmetry_Int_Tables_number   1
_chemical_formula_structural   Sr4Nb2O9
_chemical_formula_sum   'Sr8 Nb4 O18'
_cell_volume   488.77359997
_cell_formula_units_Z   2
loop_
 _symmetry_equiv_pos_site_id
 _symmetry_equiv_pos_as_xyz
  1  'x, y, z'
loop_
 _atom_site_type_symbol
 _atom_site_label
 _atom_site_symmetry_multiplicity
 _atom_site_fract_x
 _atom_site_fract_y
 _atom_site_fract_z
 _atom_site_occupancy
  Sr  Sr0  1  0.33277910  0.33607326  0.13790444  1
  Sr  Sr1  1  0.66627698  0.66714720  0.64283402  1
  Sr  Sr2  1  0.66722090  0.66392674  0.86209556  1
  Sr  Sr3  1  0.33372302  0.33285280  0.35716598  1
  Sr  Sr4  1  0.00033446  0.00045907  0.25003127  1
  Sr  Sr5  1  -0.00000000  -0.00000000  -0.00000000  1
  Sr  Sr6  1  0.99966554  0.99954093  0.74996873  1
  Sr  Sr7  1  -0.00000000  -0.00000000  0.50000000  1
  Nb  Nb8  1  0.33275943  0.33339392  0.65557829  1
  Nb  Nb9  1  0.33466142  0.33067158  0.84737928  1
  Nb  Nb10  1  0.66724057  0.66660608  0.34442171  1
  Nb  Nb11  1  0.66533858  0.66932842  0.15262072  1
  O  O12  1  0.72471082  0.35763071  0.09940598  1
  O  O13  1  0.07918301  0.27165731  0.60382626  1
  O  O14  1  0.92081699  0.72834269  0.39617374  1
  O  O15  1  0.40712338  0.03554638  0.75099330  1
  O  O16  1  0.96234964  0.44468113  0.24836035  1
  O  O17  1  0.07976667  0.26868069  0.89787623  1
  O  O18  1  0.35055689  0.92484349  0.10142814  1
  O  O19  1  0.03765036  0.55531887  0.75163965  1
  O  O20  1  0.27528918  0.64236929  0.90059402  1
  O  O21  1  0.55600744  0.40608438  0.75190835  1
  O  O22  1  0.44399256  0.59391562  0.24809165  1
  O  O23  1  0.59287662  0.96445362  0.24900670  1
  O  O24  1  0.35049643  0.91972734  0.39578493  1
  O  O25  1  0.72961219  0.34997569  0.39550217  1
  O  O26  1  0.64950357  0.08027266  0.60421507  1
  O  O27  1  0.64944311  0.07515651  0.89857186  1
  O  O28  1  0.27038781  0.65002431  0.60449783  1
  O  O29  1  0.92023333  0.73131931  0.10212377  1
