# generated using pymatgen
data_Nb3(BiS3)2
_symmetry_space_group_name_H-M   'P 1'
_cell_length_a   5.79563271
_cell_length_b   5.79563271
_cell_length_c   17.51597844
_cell_angle_alpha   90.00000000
_cell_angle_beta   90.00000000
_cell_angle_gamma   120.00000003
_symmetry_Int_Tables_number   1
_chemical_formula_structural   Nb3(BiS3)2
_chemical_formula_sum   'Nb6 Bi4 S12'
_cell_volume   509.52646176
_cell_formula_units_Z   2
loop_
 _symmetry_equiv_pos_site_id
 _symmetry_equiv_pos_as_xyz
  1  'x, y, z'
loop_
 _atom_site_type_symbol
 _atom_site_label
 _atom_site_symmetry_multiplicity
 _atom_site_fract_x
 _atom_site_fract_y
 _atom_site_fract_z
 _atom_site_occupancy
  S  S0  1  0.33333333  0.66666667  0.91168537  1
  S  S1  1  0.66666667  0.33333333  0.41168537  1
  S  S2  1  0.66666667  0.33333333  0.08831463  1
  S  S3  1  0.33333333  0.66666667  0.58831463  1
  S  S4  1  0.33333333  0.66666667  0.41168537  1
  S  S5  1  0.66666667  0.33333333  0.91168537  1
  S  S6  1  0.66666667  0.33333333  0.58831463  1
  S  S7  1  0.33333333  0.66666667  0.08831463  1
  S  S8  1  0.00000000  0.00000000  0.40845046  1
  S  S9  1  0.00000000  0.00000000  0.90845046  1
  S  S10  1  0.00000000  0.00000000  0.09154954  1
  S  S11  1  0.00000000  0.00000000  0.59154954  1
  Nb  Nb12  1  0.67381797  0.00000000  0.00000000  1
  Nb  Nb13  1  0.67381797  0.67381797  0.50000000  1
  Nb  Nb14  1  0.00000000  0.32618203  0.50000000  1
  Nb  Nb15  1  0.00000000  0.67381797  0.00000000  1
  Nb  Nb16  1  0.32618203  0.00000000  0.50000000  1
  Nb  Nb17  1  0.32618203  0.32618203  0.00000000  1
  Bi  Bi18  1  0.33333333  0.66666667  0.25000000  1
  Bi  Bi19  1  0.66666667  0.33333333  0.75000000  1
  Bi  Bi20  1  0.33333333  0.66666667  0.75000000  1
  Bi  Bi21  1  0.66666667  0.33333333  0.25000000  1
