# generated using pymatgen
data_Ga8BIr4
_symmetry_space_group_name_H-M   'P 1'
_cell_length_a   8.62469280
_cell_length_b   8.62469281
_cell_length_c   12.26517780
_cell_angle_alpha   110.58475987
_cell_angle_beta   110.58475988
_cell_angle_gamma   89.99999998
_symmetry_Int_Tables_number   1
_chemical_formula_structural   Ga8BIr4
_chemical_formula_sum   'Ga32 B4 Ir16'
_cell_volume   791.57284902
_cell_formula_units_Z   4
loop_
 _symmetry_equiv_pos_site_id
 _symmetry_equiv_pos_as_xyz
  1  'x, y, z'
loop_
 _atom_site_type_symbol
 _atom_site_label
 _atom_site_symmetry_multiplicity
 _atom_site_fract_x
 _atom_site_fract_y
 _atom_site_fract_z
 _atom_site_occupancy
  B  B0  1  0.37500000  0.62500000  0.25000000  1
  B  B1  1  0.12500000  0.87500000  0.75000000  1
  B  B2  1  0.62500000  0.37500000  0.75000000  1
  B  B3  1  0.87500000  0.12500000  0.25000000  1
  Ga  Ga4  1  0.25038716  0.27628349  0.12390278  1
  Ga  Ga5  1  0.15238071  0.62648438  0.37609722  1
  Ga  Ga6  1  0.72371651  0.74961284  0.37609722  1
  Ga  Ga7  1  0.12648438  0.22371651  0.87609722  1
  Ga  Ga8  1  0.24961284  0.65238071  0.87609722  1
  Ga  Ga9  1  0.34761929  0.75038716  0.62390278  1
  Ga  Ga10  1  0.77628349  0.87351562  0.62390278  1
  Ga  Ga11  1  0.37351562  0.84761929  0.12390278  1
  Ga  Ga12  1  0.74961284  0.72371651  0.87609722  1
  Ga  Ga13  1  0.84761929  0.37351562  0.62390278  1
  Ga  Ga14  1  0.27628349  0.25038716  0.62390278  1
  Ga  Ga15  1  0.87351562  0.77628349  0.12390278  1
  Ga  Ga16  1  0.40682446  0.37618075  0.88176023  1
  Ga  Ga17  1  0.00557948  0.90682446  0.38176023  1
  Ga  Ga18  1  0.87618075  0.47493577  0.38176023  1
  Ga  Ga19  1  0.52506423  0.12381925  0.11823977  1
  Ga  Ga20  1  0.09317554  0.99442052  0.11823977  1
  Ga  Ga21  1  0.49442052  0.02506423  0.61823977  1
  Ga  Ga22  1  0.62381925  0.59317554  0.61823977  1
  Ga  Ga23  1  0.97493577  0.50557948  0.88176023  1
  Ga  Ga24  1  0.59317554  0.62381925  0.11823977  1
  Ga  Ga25  1  0.99442052  0.09317554  0.61823977  1
  Ga  Ga26  1  0.12381925  0.52506423  0.61823977  1
  Ga  Ga27  1  0.47493577  0.87618075  0.88176023  1
  Ga  Ga28  1  0.90682446  0.00557948  0.88176023  1
  Ga  Ga29  1  0.50557948  0.97493577  0.38176023  1
  Ga  Ga30  1  0.37618075  0.40682446  0.38176023  1
  Ga  Ga31  1  0.02506423  0.49442052  0.11823977  1
  Ga  Ga32  1  0.62648438  0.15238071  0.87609722  1
  Ga  Ga33  1  0.22371651  0.12648438  0.37609722  1
  Ga  Ga34  1  0.65238071  0.24961284  0.37609722  1
  Ga  Ga35  1  0.75038716  0.34761929  0.12390278  1
  Ir  Ir36  1  0.02298779  0.77298779  0.54597559  1
  Ir  Ir37  1  0.27298779  0.52298779  0.04597559  1
  Ir  Ir38  1  0.47701221  0.72701221  0.45402441  1
  Ir  Ir39  1  0.22701221  0.97701221  0.95402441  1
  Ir  Ir40  1  0.97701221  0.22701221  0.45402441  1
  Ir  Ir41  1  0.72701221  0.47701221  0.95402441  1
  Ir  Ir42  1  0.52298779  0.27298779  0.54597559  1
  Ir  Ir43  1  0.77298779  0.02298779  0.04597559  1
  Ir  Ir44  1  0.80072039  0.19927961  0.75000000  1
  Ir  Ir45  1  0.05072039  0.30072039  0.25000000  1
  Ir  Ir46  1  0.69927961  0.94927961  0.25000000  1
  Ir  Ir47  1  0.44927961  0.55072039  0.75000000  1
  Ir  Ir48  1  0.19927961  0.80072039  0.25000000  1
  Ir  Ir49  1  0.94927961  0.69927961  0.75000000  1
  Ir  Ir50  1  0.30072039  0.05072039  0.75000000  1
  Ir  Ir51  1  0.55072039  0.44927961  0.25000000  1
