# generated using pymatgen
data_Sr3Ga4O9
_symmetry_space_group_name_H-M   'P 1'
_cell_length_a   6.82466587
_cell_length_b   8.13615131
_cell_length_c   9.83518668
_cell_angle_alpha   84.92813384
_cell_angle_beta   72.54023101
_cell_angle_gamma   74.37768317
_symmetry_Int_Tables_number   1
_chemical_formula_structural   Sr3Ga4O9
_chemical_formula_sum   'Sr6 Ga8 O18'
_cell_volume   501.69063247
_cell_formula_units_Z   2
loop_
 _symmetry_equiv_pos_site_id
 _symmetry_equiv_pos_as_xyz
  1  'x, y, z'
loop_
 _atom_site_type_symbol
 _atom_site_label
 _atom_site_symmetry_multiplicity
 _atom_site_fract_x
 _atom_site_fract_y
 _atom_site_fract_z
 _atom_site_occupancy
  O  O0  1  0.59206124  0.19771389  0.38525620  1
  O  O1  1  0.40793876  0.80228611  0.61474380  1
  O  O2  1  0.78637496  0.25975932  0.86158917  1
  O  O3  1  0.21362504  0.74024068  0.13841083  1
  O  O4  1  0.56108551  0.10519666  0.11434220  1
  O  O5  1  0.43891449  0.89480334  0.88565780  1
  O  O6  1  0.70074676  0.36193771  0.58706575  1
  O  O7  1  0.29925324  0.63806229  0.41293425  1
  O  O8  1  0.24181353  0.01621558  0.39805948  1
  O  O9  1  0.75818647  0.98378442  0.60194052  1
  O  O10  1  0.70870857  0.75773341  0.29767651  1
  O  O11  1  0.29129143  0.24226659  0.70232349  1
  O  O12  1  0.98064452  0.18455262  0.12407803  1
  O  O13  1  0.01935548  0.81544738  0.87592197  1
  O  O14  1  0.37659677  0.52004934  0.86984298  1
  O  O15  1  0.62340323  0.47995066  0.13015702  1
  O  O16  1  0.79609624  0.62515098  0.73329536  1
  O  O17  1  0.20390376  0.37484902  0.26670464  1
  Ga  Ga18  1  0.25139758  0.74740077  0.94292993  1
  Ga  Ga19  1  0.74860242  0.25259923  0.05707007  1
  Ga  Ga20  1  0.66514823  0.44770816  0.76563878  1
  Ga  Ga21  1  0.33485177  0.55229184  0.23436122  1
  Ga  Ga22  1  0.39053950  0.17190234  0.30101663  1
  Ga  Ga23  1  0.60946050  0.82809766  0.69898337  1
  Ga  Ga24  1  0.56076542  0.19383255  0.58114542  1
  Ga  Ga25  1  0.43923458  0.80616745  0.41885458  1
  Sr  Sr26  1  0.81472738  0.43189488  0.32360552  1
  Sr  Sr27  1  0.18527262  0.56810512  0.67639448  1
  Sr  Sr28  1  0.68788436  0.78706312  0.04080949  1
  Sr  Sr29  1  0.31211564  0.21293688  0.95919051  1
  Sr  Sr30  1  0.05806203  0.05235511  0.68915565  1
  Sr  Sr31  1  0.94193797  0.94764489  0.31084435  1
