# generated using pymatgen
data_Nb3Te3As
_symmetry_space_group_name_H-M   'P 1'
_cell_length_a   10.53071895
_cell_length_b   10.53071896
_cell_length_c   3.58312764
_cell_angle_alpha   90.00000000
_cell_angle_beta   90.00000000
_cell_angle_gamma   120.00000002
_symmetry_Int_Tables_number   1
_chemical_formula_structural   Nb3Te3As
_chemical_formula_sum   'Nb6 Te6 As2'
_cell_volume   344.11924028
_cell_formula_units_Z   2
loop_
 _symmetry_equiv_pos_site_id
 _symmetry_equiv_pos_as_xyz
  1  'x, y, z'
loop_
 _atom_site_type_symbol
 _atom_site_label
 _atom_site_symmetry_multiplicity
 _atom_site_fract_x
 _atom_site_fract_y
 _atom_site_fract_z
 _atom_site_occupancy
  As  As0  1  0.33333333  0.66666667  0.75000000  1
  As  As1  1  0.66666667  0.33333333  0.25000000  1
  Nb  Nb2  1  0.62168814  0.12574854  0.75000000  1
  Nb  Nb3  1  0.50406040  0.37831186  0.75000000  1
  Nb  Nb4  1  0.37831186  0.87425146  0.25000000  1
  Nb  Nb5  1  0.87425146  0.49593960  0.75000000  1
  Nb  Nb6  1  0.49593960  0.62168814  0.25000000  1
  Nb  Nb7  1  0.12574854  0.50406040  0.25000000  1
  Te  Te8  1  0.72266504  0.66980933  0.75000000  1
  Te  Te9  1  0.27733496  0.33019067  0.25000000  1
  Te  Te10  1  0.66980933  0.94714428  0.25000000  1
  Te  Te11  1  0.94714428  0.27733496  0.75000000  1
  Te  Te12  1  0.05285572  0.72266504  0.25000000  1
  Te  Te13  1  0.33019067  0.05285572  0.75000000  1
