# generated using pymatgen
data_KSb2
_symmetry_space_group_name_H-M   'P 1'
_cell_length_a   4.30420846
_cell_length_b   7.18469312
_cell_length_c   7.50476193
_cell_angle_alpha   93.41331077
_cell_angle_beta   106.66438946
_cell_angle_gamma   89.99999998
_symmetry_Int_Tables_number   1
_chemical_formula_structural   KSb2
_chemical_formula_sum   'K2 Sb4'
_cell_volume   221.90343306
_cell_formula_units_Z   2
loop_
 _symmetry_equiv_pos_site_id
 _symmetry_equiv_pos_as_xyz
  1  'x, y, z'
loop_
 _atom_site_type_symbol
 _atom_site_label
 _atom_site_symmetry_multiplicity
 _atom_site_fract_x
 _atom_site_fract_y
 _atom_site_fract_z
 _atom_site_occupancy
  K  K0  1  0.63426237  0.62961016  0.26852475  1
  K  K1  1  0.36573763  0.37038984  0.73147525  1
  Sb  Sb2  1  0.31454378  0.87187218  0.62908757  1
  Sb  Sb3  1  0.68545622  0.12812782  0.37091243  1
  Sb  Sb4  1  0.05218267  0.18059661  0.10436534  1
  Sb  Sb5  1  0.94781733  0.81940339  0.89563466  1
