# generated using pymatgen
data_Cu(PtS2)2
_symmetry_space_group_name_H-M   'P 1'
_cell_length_a   6.82340370
_cell_length_b   6.99459703
_cell_length_c   10.75318444
_cell_angle_alpha   90.00000000
_cell_angle_beta   91.74147821
_cell_angle_gamma   90.00000000
_symmetry_Int_Tables_number   1
_chemical_formula_structural   Cu(PtS2)2
_chemical_formula_sum   'Cu4 Pt8 S16'
_cell_volume   512.97975178
_cell_formula_units_Z   4
loop_
 _symmetry_equiv_pos_site_id
 _symmetry_equiv_pos_as_xyz
  1  'x, y, z'
loop_
 _atom_site_type_symbol
 _atom_site_label
 _atom_site_symmetry_multiplicity
 _atom_site_fract_x
 _atom_site_fract_y
 _atom_site_fract_z
 _atom_site_occupancy
  S  S0  1  0.75107239  -0.00000824  0.99645357  1
  S  S1  1  0.74892761  -0.00000824  0.50354643  1
  S  S2  1  0.24892761  1.00000824  0.00354643  1
  S  S3  1  0.25107239  1.00000824  0.49645357  1
  S  S4  1  0.76167730  0.50000600  0.97786817  1
  S  S5  1  0.73832270  0.50000600  0.52213183  1
  S  S6  1  0.23832270  0.49999400  0.02213183  1
  S  S7  1  0.26167730  0.49999400  0.47786817  1
  S  S8  1  0.99315170  0.26854322  0.22325656  1
  S  S9  1  0.50684830  0.26854322  0.27674344  1
  S  S10  1  0.00684830  0.73145678  0.77674344  1
  S  S11  1  0.49315170  0.73145678  0.72325656  1
  S  S12  1  0.50681444  0.73154260  0.27675363  1
  S  S13  1  0.99318556  0.73154260  0.22324637  1
  S  S14  1  0.49318556  0.26845740  0.72324637  1
  S  S15  1  0.00681444  0.26845740  0.77675363  1
  Cu  Cu16  1  0.99203945  1.00001283  0.34830702  1
  Cu  Cu17  1  0.50796055  1.00001283  0.15169298  1
  Cu  Cu18  1  0.00796055  -0.00001283  0.65169298  1
  Cu  Cu19  1  0.49203945  -0.00001283  0.84830702  1
  Pt  Pt20  1  -0.00001359  0.24839718  0.00000568  1
  Pt  Pt21  1  0.50001359  0.24839718  0.49999432  1
  Pt  Pt22  1  1.00001359  0.75160282  0.99999432  1
  Pt  Pt23  1  0.49998641  0.75160282  0.50000568  1
  Pt  Pt24  1  0.25000000  0.49993397  0.75000000  1
  Pt  Pt25  1  0.75000000  0.50006603  0.25000000  1
  Pt  Pt26  1  0.25000000  0.50002154  0.25000000  1
  Pt  Pt27  1  0.75000000  0.49997846  0.75000000  1
