# generated using pymatgen
data_Sr(BiO2)2
_symmetry_space_group_name_H-M   'P 1'
_cell_length_a   4.38569610
_cell_length_b   6.43951828
_cell_length_c   10.36901365
_cell_angle_alpha   96.80992426
_cell_angle_beta   102.20914930
_cell_angle_gamma   89.99999998
_symmetry_Int_Tables_number   1
_chemical_formula_structural   Sr(BiO2)2
_chemical_formula_sum   'Sr2 Bi4 O8'
_cell_volume   284.10175415
_cell_formula_units_Z   2
loop_
 _symmetry_equiv_pos_site_id
 _symmetry_equiv_pos_as_xyz
  1  'x, y, z'
loop_
 _atom_site_type_symbol
 _atom_site_label
 _atom_site_symmetry_multiplicity
 _atom_site_fract_x
 _atom_site_fract_y
 _atom_site_fract_z
 _atom_site_occupancy
  O  O0  1  0.09830023  0.17997132  0.19660045  1
  O  O1  1  0.90169977  0.82002868  0.80339955  1
  O  O2  1  0.20100079  0.86430381  0.40200157  1
  O  O3  1  0.79899921  0.13569619  0.59799843  1
  O  O4  1  0.31527477  0.59668006  0.63054954  1
  O  O5  1  0.68472523  0.40331994  0.36945046  1
  O  O6  1  0.59119288  0.94058141  0.18238577  1
  O  O7  1  0.40880712  0.05941859  0.81761423  1
  Sr  Sr8  1  0.24096783  0.25413185  0.48193565  1
  Sr  Sr9  1  0.75903217  0.74586815  0.51806435  1
  Bi  Bi10  1  0.41385120  0.72341255  0.82770239  1
  Bi  Bi11  1  0.58614880  0.27658745  0.17229761  1
  Bi  Bi12  1  0.09920478  0.84053047  0.19840956  1
  Bi  Bi13  1  0.90079522  0.15946953  0.80159044  1
