# generated using pymatgen
data_TiF4
_symmetry_space_group_name_H-M   'P 1'
_cell_length_a   3.91322093
_cell_length_b   9.86683250
_cell_length_c   23.59772460
_cell_angle_alpha   90.00000000
_cell_angle_beta   90.00000000
_cell_angle_gamma   90.00000000
_symmetry_Int_Tables_number   1
_chemical_formula_structural   TiF4
_chemical_formula_sum   'Ti12 F48'
_cell_volume   911.13399698
_cell_formula_units_Z   12
loop_
 _symmetry_equiv_pos_site_id
 _symmetry_equiv_pos_as_xyz
  1  'x, y, z'
loop_
 _atom_site_type_symbol
 _atom_site_label
 _atom_site_symmetry_multiplicity
 _atom_site_fract_x
 _atom_site_fract_y
 _atom_site_fract_z
 _atom_site_occupancy
  F  F0  1  0.25000000  0.64374767  0.07254347  1
  F  F1  1  0.75000000  0.35625233  0.92745653  1
  F  F2  1  0.75000000  0.14374767  0.42745653  1
  F  F3  1  0.25000000  0.85625233  0.57254347  1
  F  F4  1  0.25000000  0.64306095  0.50199963  1
  F  F5  1  0.75000000  0.35693905  0.49800037  1
  F  F6  1  0.75000000  0.14306095  -0.00199963  1
  F  F7  1  0.25000000  0.85693905  1.00199963  1
  F  F8  1  0.25000000  0.92279367  0.78753012  1
  F  F9  1  0.75000000  0.07720633  0.21246988  1
  F  F10  1  0.75000000  0.42279367  0.71246988  1
  F  F11  1  0.25000000  0.57720633  0.28753012  1
  F  F12  1  0.25000000  0.30688133  0.77560763  1
  F  F13  1  0.75000000  0.69311867  0.22439237  1
  F  F14  1  0.75000000  0.80688133  0.72439237  1
  F  F15  1  0.25000000  0.19311867  0.27560763  1
  F  F16  1  0.25000000  0.33327673  0.41893483  1
  F  F17  1  0.75000000  0.66672327  0.58106517  1
  F  F18  1  0.75000000  0.83327673  0.08106517  1
  F  F19  1  0.25000000  0.16672327  0.91893483  1
  F  F20  1  0.25000000  0.10676378  0.52831297  1
  F  F21  1  0.75000000  0.89323622  0.47168703  1
  F  F22  1  0.75000000  0.60676378  0.97168703  1
  F  F23  1  0.25000000  0.39323622  0.02831297  1
  F  F24  1  0.25000000  0.02175834  0.09232281  1
  F  F25  1  0.75000000  0.97824166  0.90767719  1
  F  F26  1  0.75000000  0.52175834  0.40767719  1
  F  F27  1  0.25000000  0.47824166  0.59232281  1
  F  F28  1  0.25000000  0.80552669  0.15979175  1
  F  F29  1  0.75000000  0.19447331  0.84020825  1
  F  F30  1  0.75000000  0.30552669  0.34020825  1
  F  F31  1  0.25000000  0.69447331  0.65979175  1
  F  F32  1  0.25000000  0.96713496  0.39849290  1
  F  F33  1  0.75000000  0.03286504  0.60150710  1
  F  F34  1  0.75000000  0.46713496  0.10150710  1
  F  F35  1  0.25000000  0.53286504  0.89849290  1
  F  F36  1  0.25000000  0.84785052  0.27036617  1
  F  F37  1  0.75000000  0.15214948  0.72963383  1
  F  F38  1  0.75000000  0.34785052  0.22963383  1
  F  F39  1  0.25000000  0.65214948  0.77036617  1
  F  F40  1  0.25000000  0.20567535  0.63444065  1
  F  F41  1  0.75000000  0.79432465  0.36555935  1
  F  F42  1  0.75000000  0.70567535  0.86555935  1
  F  F43  1  0.25000000  0.29432465  0.13444065  1
  F  F44  1  0.25000000  0.54534650  0.17469003  1
  F  F45  1  0.75000000  0.45465350  0.82530997  1
  F  F46  1  0.75000000  0.04534650  0.32530997  1
  F  F47  1  0.25000000  0.95465350  0.67469003  1
  Ti  Ti48  1  0.25000000  0.65237025  0.57675453  1
  Ti  Ti49  1  0.75000000  0.34762975  0.42324547  1
  Ti  Ti50  1  0.75000000  0.15237025  0.92324547  1
  Ti  Ti51  1  0.25000000  0.84762975  0.07675453  1
  Ti  Ti52  1  0.25000000  0.45152844  0.09906395  1
  Ti  Ti53  1  0.75000000  0.54847156  0.90093605  1
  Ti  Ti54  1  0.75000000  0.95152844  0.40093605  1
  Ti  Ti55  1  0.25000000  0.04847156  0.59906395  1
  Ti  Ti56  1  0.25000000  0.80500705  0.73135707  1
  Ti  Ti57  1  0.75000000  0.19499295  0.26864293  1
  Ti  Ti58  1  0.75000000  0.30500705  0.76864293  1
  Ti  Ti59  1  0.25000000  0.69499295  0.23135707  1
