# generated using pymatgen
data_MnZnO3
_symmetry_space_group_name_H-M   'P 1'
_cell_length_a   5.18824782
_cell_length_b   7.40550695
_cell_length_c   5.07781701
_cell_angle_alpha   90.00000000
_cell_angle_beta   90.00000000
_cell_angle_gamma   90.00000000
_symmetry_Int_Tables_number   1
_chemical_formula_structural   MnZnO3
_chemical_formula_sum   'Mn4 Zn4 O12'
_cell_volume   195.09788089
_cell_formula_units_Z   4
loop_
 _symmetry_equiv_pos_site_id
 _symmetry_equiv_pos_as_xyz
  1  'x, y, z'
loop_
 _atom_site_type_symbol
 _atom_site_label
 _atom_site_symmetry_multiplicity
 _atom_site_fract_x
 _atom_site_fract_y
 _atom_site_fract_z
 _atom_site_occupancy
  Mn  Mn0  1  0.00000000  0.00000000  0.50000000  1
  Mn  Mn1  1  0.00000000  0.50000000  0.50000000  1
  Mn  Mn2  1  0.50000000  0.00000000  0.00000000  1
  Mn  Mn3  1  0.50000000  0.50000000  0.00000000  1
  Zn  Zn4  1  0.04814821  0.25000000  0.99116416  1
  Zn  Zn5  1  0.45185179  0.75000000  0.49116416  1
  Zn  Zn6  1  0.54814821  0.25000000  0.50883584  1
  Zn  Zn7  1  0.95185179  0.75000000  0.00883584  1
  O  O8  1  0.06207003  0.75000000  0.62007045  1
  O  O9  1  0.18949154  0.56443028  0.18481751  1
  O  O10  1  0.18949154  0.93556972  0.18481751  1
  O  O11  1  0.31050846  0.06443028  0.68481751  1
  O  O12  1  0.31050846  0.43556972  0.68481751  1
  O  O13  1  0.43792997  0.25000000  0.12007045  1
  O  O14  1  0.56207003  0.75000000  0.87992955  1
  O  O15  1  0.68949154  0.93556972  0.31518249  1
  O  O16  1  0.68949154  0.56443028  0.31518249  1
  O  O17  1  0.81050846  0.06443028  0.81518249  1
  O  O18  1  0.81050846  0.43556972  0.81518249  1
  O  O19  1  0.93792997  0.25000000  0.37992955  1
