# generated using pymatgen
data_Ba2P3Pd
_symmetry_space_group_name_H-M   'P 1'
_cell_length_a   6.54785094
_cell_length_b   7.25856815
_cell_length_c   12.99020687
_cell_angle_alpha   90.00000000
_cell_angle_beta   91.50989914
_cell_angle_gamma   90.00000000
_symmetry_Int_Tables_number   1
_chemical_formula_structural   Ba2P3Pd
_chemical_formula_sum   'Ba8 P12 Pd4'
_cell_volume   617.18447279
_cell_formula_units_Z   4
loop_
 _symmetry_equiv_pos_site_id
 _symmetry_equiv_pos_as_xyz
  1  'x, y, z'
loop_
 _atom_site_type_symbol
 _atom_site_label
 _atom_site_symmetry_multiplicity
 _atom_site_fract_x
 _atom_site_fract_y
 _atom_site_fract_z
 _atom_site_occupancy
  P  P0  1  0.31387580  0.90974565  0.59509682  1
  P  P1  1  0.68612420  0.40974565  0.90490318  1
  P  P2  1  0.68612420  0.09025435  0.40490318  1
  P  P3  1  0.31387580  0.59025435  0.09509682  1
  P  P4  1  0.31702449  0.60930514  0.59436026  1
  P  P5  1  0.68297551  0.10930514  0.90563974  1
  P  P6  1  0.68297551  0.39069486  0.40563974  1
  P  P7  1  0.09636985  0.42726672  0.19216636  1
  P  P8  1  0.09636985  0.07273328  0.69216636  1
  P  P9  1  0.90363015  0.57273328  0.80783364  1
  P  P10  1  0.90363015  0.92726672  0.30783364  1
  P  P11  1  0.31702449  0.89069486  0.09436026  1
  Pd  Pd12  1  0.11669753  0.09921689  0.19264187  1
  Pd  Pd13  1  0.88330247  0.90078311  0.80735813  1
  Pd  Pd14  1  0.88330247  0.59921689  0.30735813  1
  Pd  Pd15  1  0.11669753  0.40078311  0.69264187  1
  Ba  Ba16  1  0.37822517  0.74468137  0.33492419  1
  Ba  Ba17  1  0.37822517  0.75531863  0.83492419  1
  Ba  Ba18  1  0.62177483  0.25531863  0.66507581  1
  Ba  Ba19  1  0.62177483  0.24468137  0.16507581  1
  Ba  Ba20  1  0.16396071  0.25088455  0.43903969  1
  Ba  Ba21  1  0.83603929  0.75088455  0.06096031  1
  Ba  Ba22  1  0.83603929  0.74911545  0.56096031  1
  Ba  Ba23  1  0.16396071  0.24911545  0.93903969  1
