# generated using pymatgen
data_Ba(YS2)2
_symmetry_space_group_name_H-M   'P 1'
_cell_length_a   4.06147963
_cell_length_b   12.33171943
_cell_length_c   14.60256593
_cell_angle_alpha   90.00000000
_cell_angle_beta   90.00000000
_cell_angle_gamma   90.00000000
_symmetry_Int_Tables_number   1
_chemical_formula_structural   Ba(YS2)2
_chemical_formula_sum   'Ba4 Y8 S16'
_cell_volume   731.36991278
_cell_formula_units_Z   4
loop_
 _symmetry_equiv_pos_site_id
 _symmetry_equiv_pos_as_xyz
  1  'x, y, z'
loop_
 _atom_site_type_symbol
 _atom_site_label
 _atom_site_symmetry_multiplicity
 _atom_site_fract_x
 _atom_site_fract_y
 _atom_site_fract_z
 _atom_site_occupancy
  S  S0  1  0.75000000  0.29281046  0.16381850  1
  S  S1  1  0.25000000  0.70718954  0.83618150  1
  S  S2  1  0.75000000  0.79281046  0.33618150  1
  S  S3  1  0.25000000  0.20718954  0.66381850  1
  S  S4  1  0.75000000  0.37564730  0.47678814  1
  S  S5  1  0.25000000  0.62435270  0.52321186  1
  S  S6  1  0.75000000  0.87564730  0.02321186  1
  S  S7  1  0.25000000  0.12435270  0.97678814  1
  S  S8  1  0.25000000  0.41885035  0.92303552  1
  S  S9  1  0.75000000  0.58114965  0.07696448  1
  S  S10  1  0.25000000  0.91885035  0.57696448  1
  S  S11  1  0.75000000  0.08114965  0.42303552  1
  S  S12  1  0.25000000  0.02226902  0.21678999  1
  S  S13  1  0.75000000  0.97773098  0.78321001  1
  S  S14  1  0.25000000  0.52226902  0.28321001  1
  S  S15  1  0.75000000  0.47773098  0.71678999  1
  Y  Y16  1  0.25000000  0.42141677  0.60161088  1
  Y  Y17  1  0.75000000  0.57858323  0.39838912  1
  Y  Y18  1  0.25000000  0.92141677  0.89838912  1
  Y  Y19  1  0.75000000  0.07858323  0.10161088  1
  Y  Y20  1  0.25000000  0.43273125  0.10858860  1
  Y  Y21  1  0.75000000  0.56726875  0.89141140  1
  Y  Y22  1  0.25000000  0.93273125  0.39141140  1
  Y  Y23  1  0.75000000  0.06726875  0.60858860  1
  Ba  Ba24  1  0.25000000  0.25779604  0.33815537  1
  Ba  Ba25  1  0.75000000  0.74220396  0.66184463  1
  Ba  Ba26  1  0.25000000  0.75779604  0.16184463  1
  Ba  Ba27  1  0.75000000  0.24220396  0.83815537  1
