# generated using pymatgen
data_ThZr2F12
_symmetry_space_group_name_H-M   'P 1'
_cell_length_a   7.97751894
_cell_length_b   8.30159991
_cell_length_c   8.30159990
_cell_angle_alpha   79.66289789
_cell_angle_beta   61.79424449
_cell_angle_gamma   61.79424453
_symmetry_Int_Tables_number   1
_chemical_formula_structural   ThZr2F12
_chemical_formula_sum   'Th2 Zr4 F24'
_cell_volume   426.28404292
_cell_formula_units_Z   2
loop_
 _symmetry_equiv_pos_site_id
 _symmetry_equiv_pos_as_xyz
  1  'x, y, z'
loop_
 _atom_site_type_symbol
 _atom_site_label
 _atom_site_symmetry_multiplicity
 _atom_site_fract_x
 _atom_site_fract_y
 _atom_site_fract_z
 _atom_site_occupancy
  F  F0  1  0.86668394  0.56072941  0.30410864  1
  F  F1  1  0.13331606  0.69589136  0.43927059  1
  F  F2  1  0.13331606  0.43927059  0.69589136  1
  F  F3  1  0.86668394  0.30410864  0.56072941  1
  F  F4  1  0.85922653  0.77781935  0.77781935  1
  F  F5  1  0.14077347  0.22218065  0.22218065  1
  F  F6  1  0.00000000  0.00000000  0.00000000  1
  F  F7  1  0.50000000  0.00000000  0.00000000  1
  F  F8  1  0.50000000  0.61192695  0.38807305  1
  F  F9  1  0.50000000  0.38807305  0.61192695  1
  F  F10  1  0.27890584  0.16974308  0.46637986  1
  F  F11  1  0.72109416  0.53362014  0.83025692  1
  F  F12  1  0.72109416  0.83025692  0.53362014  1
  F  F13  1  0.27890584  0.46637986  0.16974308  1
  F  F14  1  0.57185127  0.28832423  0.28832423  1
  F  F15  1  0.42814873  0.71167577  0.71167577  1
  F  F16  1  0.88941443  0.06615414  0.35375652  1
  F  F17  1  0.11058557  0.64624348  0.93384586  1
  F  F18  1  0.11058557  0.93384586  0.64624348  1
  F  F19  1  0.88941443  0.35375652  0.06615414  1
  F  F20  1  0.66513153  0.21989197  0.94052568  1
  F  F21  1  0.33486847  0.05947432  0.78010803  1
  F  F22  1  0.33486847  0.78010803  0.05947432  1
  F  F23  1  0.66513153  0.94052568  0.21989197  1
  Zr  Zr24  1  0.22569829  0.64900212  0.64900212  1
  Zr  Zr25  1  0.77430171  0.35099788  0.35099788  1
  Zr  Zr26  1  0.56975763  0.81088200  0.81088200  1
  Zr  Zr27  1  0.43024237  0.18911800  0.18911800  1
  Th  Th28  1  0.00000000  0.22125195  0.77874805  1
  Th  Th29  1  0.00000000  0.77874805  0.22125195  1
