# generated using pymatgen
data_Rb2UCl5
_symmetry_space_group_name_H-M   'P 1'
_cell_length_a   8.37602520
_cell_length_b   9.01061790
_cell_length_c   13.46713138
_cell_angle_alpha   90.00000000
_cell_angle_beta   90.00000000
_cell_angle_gamma   90.00000000
_symmetry_Int_Tables_number   1
_chemical_formula_structural   Rb2UCl5
_chemical_formula_sum   'Rb8 U4 Cl20'
_cell_volume   1016.40699637
_cell_formula_units_Z   4
loop_
 _symmetry_equiv_pos_site_id
 _symmetry_equiv_pos_as_xyz
  1  'x, y, z'
loop_
 _atom_site_type_symbol
 _atom_site_label
 _atom_site_symmetry_multiplicity
 _atom_site_fract_x
 _atom_site_fract_y
 _atom_site_fract_z
 _atom_site_occupancy
  Cl  Cl0  1  0.33956201  0.95912279  0.07203665  1
  Cl  Cl1  1  0.83956201  0.04087721  0.42796335  1
  Cl  Cl2  1  0.66043799  0.45912279  0.92796335  1
  Cl  Cl3  1  0.16043799  0.54087721  0.57203665  1
  Cl  Cl4  1  0.66043799  0.04087721  0.92796335  1
  Cl  Cl5  1  0.16043799  0.95912279  0.57203665  1
  Cl  Cl6  1  0.33956201  0.54087721  0.07203665  1
  Cl  Cl7  1  0.83956201  0.45912279  0.42796335  1
  Cl  Cl8  1  0.38276090  0.75000000  0.82437954  1
  Cl  Cl9  1  0.88276090  0.25000000  0.67562046  1
  Cl  Cl10  1  0.61723910  0.25000000  0.17562046  1
  Cl  Cl11  1  0.11723910  0.75000000  0.32437954  1
  Cl  Cl12  1  0.09524478  0.25000000  0.00972547  1
  Cl  Cl13  1  0.59524478  0.75000000  0.49027453  1
  Cl  Cl14  1  0.90475522  0.75000000  0.99027453  1
  Cl  Cl15  1  0.40475522  0.25000000  0.50972547  1
  Cl  Cl16  1  0.65323878  0.75000000  0.19689709  1
  Cl  Cl17  1  0.15323878  0.25000000  0.30310291  1
  Cl  Cl18  1  0.34676122  0.25000000  0.80310291  1
  Cl  Cl19  1  0.84676122  0.75000000  0.69689709  1
  Rb  Rb20  1  0.44404235  0.50540770  0.32995247  1
  Rb  Rb21  1  0.94404235  0.49459230  0.17004753  1
  Rb  Rb22  1  0.55595765  0.00540770  0.67004753  1
  Rb  Rb23  1  0.05595765  0.99459230  0.82995247  1
  Rb  Rb24  1  0.94404235  0.00540770  0.17004753  1
  Rb  Rb25  1  0.44404235  0.99459230  0.32995247  1
  Rb  Rb26  1  0.05595765  0.50540770  0.82995247  1
  Rb  Rb27  1  0.55595765  0.49459230  0.67004753  1
  U  U28  1  0.93421766  0.75000000  0.49731727  1
  U  U29  1  0.43421766  0.25000000  0.00268273  1
  U  U30  1  0.06578234  0.25000000  0.50268273  1
  U  U31  1  0.56578234  0.75000000  0.99731727  1
