# generated using pymatgen
data_La5C2Br9
_symmetry_space_group_name_H-M   'P 1'
_cell_length_a   10.05322738
_cell_length_b   11.43789056
_cell_length_c   16.97279116
_cell_angle_alpha   90.00000000
_cell_angle_beta   90.00000000
_cell_angle_gamma   90.00000000
_symmetry_Int_Tables_number   1
_chemical_formula_structural   La5C2Br9
_chemical_formula_sum   'La20 C8 Br36'
_cell_volume   1951.66246498
_cell_formula_units_Z   4
loop_
 _symmetry_equiv_pos_site_id
 _symmetry_equiv_pos_as_xyz
  1  'x, y, z'
loop_
 _atom_site_type_symbol
 _atom_site_label
 _atom_site_symmetry_multiplicity
 _atom_site_fract_x
 _atom_site_fract_y
 _atom_site_fract_z
 _atom_site_occupancy
  C  C0  1  0.25000000  0.24609286  0.02803925  1
  C  C1  1  0.75000000  0.75390714  0.97196075  1
  C  C2  1  0.25000000  0.74609286  0.47196075  1
  C  C3  1  0.75000000  0.25390714  0.52803925  1
  C  C4  1  0.25000000  0.32047843  0.95766192  1
  C  C5  1  0.75000000  0.67952157  0.04233808  1
  C  C6  1  0.25000000  0.82047843  0.54233808  1
  C  C7  1  0.75000000  0.17952157  0.45766192  1
  Br  Br8  1  0.96702595  0.06934938  0.10882538  1
  Br  Br9  1  0.46702595  0.93065062  0.89117462  1
  Br  Br10  1  0.53297405  0.56934938  0.39117462  1
  Br  Br11  1  0.03297405  0.43065062  0.60882538  1
  Br  Br12  1  0.03297405  0.93065062  0.89117462  1
  Br  Br13  1  0.53297405  0.06934938  0.10882538  1
  Br  Br14  1  0.46702595  0.43065062  0.60882538  1
  Br  Br15  1  0.96702595  0.56934938  0.39117462  1
  Br  Br16  1  0.07318940  0.61377583  0.94072519  1
  Br  Br17  1  0.57318940  0.38622417  0.05927481  1
  Br  Br18  1  0.42681060  0.11377583  0.55927481  1
  Br  Br19  1  0.92681060  0.88622417  0.44072519  1
  Br  Br20  1  0.92681060  0.38622417  0.05927481  1
  Br  Br21  1  0.42681060  0.61377583  0.94072519  1
  Br  Br22  1  0.57318940  0.88622417  0.44072519  1
  Br  Br23  1  0.07318940  0.11377583  0.55927481  1
  Br  Br24  1  0.04936050  0.63323210  0.17461899  1
  Br  Br25  1  0.54936050  0.36676790  0.82538101  1
  Br  Br26  1  0.45063950  0.13323210  0.32538101  1
  Br  Br27  1  0.95063950  0.86676790  0.67461899  1
  Br  Br28  1  0.95063950  0.36676790  0.82538101  1
  Br  Br29  1  0.45063950  0.63323210  0.17461899  1
  Br  Br30  1  0.54936050  0.86676790  0.67461899  1
  Br  Br31  1  0.04936050  0.13323210  0.32538101  1
  Br  Br32  1  0.25000000  0.36773687  0.22640347  1
  Br  Br33  1  0.75000000  0.63226313  0.77359653  1
  Br  Br34  1  0.25000000  0.86773687  0.27359653  1
  Br  Br35  1  0.75000000  0.13226313  0.72640347  1
  Br  Br36  1  0.25000000  0.15855349  0.79568061  1
  Br  Br37  1  0.75000000  0.84144651  0.20431939  1
  Br  Br38  1  0.25000000  0.65855349  0.70431939  1
  Br  Br39  1  0.75000000  0.34144651  0.29568061  1
  Br  Br40  1  0.25000000  0.88571082  0.06156608  1
  Br  Br41  1  0.75000000  0.11428918  0.93843392  1
  Br  Br42  1  0.25000000  0.38571082  0.43843392  1
  Br  Br43  1  0.75000000  0.61428918  0.56156608  1
  La  La44  1  0.95299340  0.80858341  0.04961603  1
  La  La45  1  0.45299340  0.19141659  0.95038397  1
  La  La46  1  0.54700660  0.30858341  0.45038397  1
  La  La47  1  0.04700660  0.69141659  0.54961603  1
  La  La48  1  0.04700660  0.19141659  0.95038397  1
  La  La49  1  0.54700660  0.80858341  0.04961603  1
  La  La50  1  0.45299340  0.69141659  0.54961603  1
  La  La51  1  0.95299340  0.30858341  0.45038397  1
  La  La52  1  0.25000000  0.46290059  0.06553252  1
  La  La53  1  0.75000000  0.53709941  0.93446748  1
  La  La54  1  0.25000000  0.96290059  0.43446748  1
  La  La55  1  0.75000000  0.03709941  0.56553252  1
  La  La56  1  0.25000000  0.13655404  0.14569116  1
  La  La57  1  0.75000000  0.86344596  0.85430884  1
  La  La58  1  0.25000000  0.63655404  0.35430884  1
  La  La59  1  0.75000000  0.36344596  0.64569116  1
  La  La60  1  0.25000000  0.42883883  0.84374289  1
  La  La61  1  0.75000000  0.57116117  0.15625711  1
  La  La62  1  0.25000000  0.92883883  0.65625711  1
  La  La63  1  0.75000000  0.07116117  0.34374289  1
