# generated using pymatgen
data_HoCuP2
_symmetry_space_group_name_H-M   'P 1'
_cell_length_a   3.71197614
_cell_length_b   3.71197614
_cell_length_c   9.69880418
_cell_angle_alpha   90.00000000
_cell_angle_beta   90.00000000
_cell_angle_gamma   89.75732915
_symmetry_Int_Tables_number   1
_chemical_formula_structural   HoCuP2
_chemical_formula_sum   'Ho2 Cu2 P4'
_cell_volume   133.63636291
_cell_formula_units_Z   2
loop_
 _symmetry_equiv_pos_site_id
 _symmetry_equiv_pos_as_xyz
  1  'x, y, z'
loop_
 _atom_site_type_symbol
 _atom_site_label
 _atom_site_symmetry_multiplicity
 _atom_site_fract_x
 _atom_site_fract_y
 _atom_site_fract_z
 _atom_site_occupancy
  P  P0  1  0.75000000  0.75000000  0.00000000  1
  P  P1  1  0.25000000  0.25000000  0.00000000  1
  P  P2  1  0.25000000  0.75000000  0.34295978  1
  P  P3  1  0.75000000  0.25000000  0.65704022  1
  Cu  Cu4  1  0.25000000  0.25000000  0.50000000  1
  Cu  Cu5  1  0.75000000  0.75000000  0.50000000  1
  Ho  Ho6  1  0.75000000  0.25000000  0.23164765  1
  Ho  Ho7  1  0.25000000  0.75000000  0.76835235  1
