# generated using pymatgen
data_K3ErCl6
_symmetry_space_group_name_H-M   'P 1'
_cell_length_a   7.82128624
_cell_length_b   12.79713479
_cell_length_c   13.23078262
_cell_angle_alpha   110.06407930
_cell_angle_beta   90.00000000
_cell_angle_gamma   90.00000000
_symmetry_Int_Tables_number   1
_chemical_formula_structural   K3ErCl6
_chemical_formula_sum   'K12 Er4 Cl24'
_cell_volume   1243.89918253
_cell_formula_units_Z   4
loop_
 _symmetry_equiv_pos_site_id
 _symmetry_equiv_pos_as_xyz
  1  'x, y, z'
loop_
 _atom_site_type_symbol
 _atom_site_label
 _atom_site_symmetry_multiplicity
 _atom_site_fract_x
 _atom_site_fract_y
 _atom_site_fract_z
 _atom_site_occupancy
  Cl  Cl0  1  0.83215496  0.64955784  0.65203584  1
  Cl  Cl1  1  0.33215496  0.85044216  0.34796416  1
  Cl  Cl2  1  0.16784504  0.35044216  0.34796416  1
  Cl  Cl3  1  0.66784504  0.14955784  0.65203584  1
  Cl  Cl4  1  0.28998698  0.57402663  0.60613828  1
  Cl  Cl5  1  0.78998698  0.92597337  0.39386172  1
  Cl  Cl6  1  0.71001302  0.42597337  0.39386172  1
  Cl  Cl7  1  0.21001302  0.07402663  0.60613828  1
  Cl  Cl8  1  0.96785580  0.35743469  0.60005482  1
  Cl  Cl9  1  0.46785580  0.14256531  0.39994518  1
  Cl  Cl10  1  0.03214420  0.64256531  0.39994518  1
  Cl  Cl11  1  0.53214420  0.85743469  0.60005482  1
  Cl  Cl12  1  0.29675857  0.39359288  0.83852765  1
  Cl  Cl13  1  0.79675857  0.10640712  0.16147235  1
  Cl  Cl14  1  0.70324143  0.60640712  0.16147235  1
  Cl  Cl15  1  0.20324143  0.89359288  0.83852765  1
  Cl  Cl16  1  0.12858189  0.19044696  0.99690325  1
  Cl  Cl17  1  0.62858189  0.30955304  0.00309675  1
  Cl  Cl18  1  0.87141811  0.80955304  0.00309675  1
  Cl  Cl19  1  0.37141811  0.69044696  0.99690325  1
  Cl  Cl20  1  0.22874543  1.00136175  0.14468388  1
  Cl  Cl21  1  0.72874543  0.49863825  0.85531612  1
  Cl  Cl22  1  0.77125457  -0.00136175  0.85531612  1
  Cl  Cl23  1  0.27125457  0.50136175  0.14468388  1
  K  K24  1  0.42470652  0.10955958  0.82371586  1
  K  K25  1  0.92470652  0.39044042  0.17628414  1
  K  K26  1  0.57529348  0.89044042  0.17628414  1
  K  K27  1  0.07529348  0.60955958  0.82371586  1
  K  K28  1  0.94592294  0.26722751  0.81093880  1
  K  K29  1  0.44592294  0.23277249  0.18906120  1
  K  K30  1  0.05407706  0.73277249  0.18906120  1
  K  K31  1  0.55407706  0.76722751  0.81093880  1
  K  K32  1  0.53639719  0.37041771  0.60868438  1
  K  K33  1  0.03639719  0.12958229  0.39131562  1
  K  K34  1  0.46360281  0.62958229  0.39131562  1
  K  K35  1  0.96360281  0.87041771  0.60868438  1
  Er  Er36  1  0.00000000  0.50000000  0.50000000  1
  Er  Er37  1  0.50000000  0.00000000  0.50000000  1
  Er  Er38  1  0.50000000  0.50000000  0.00000000  1
  Er  Er39  1  0.00000000  0.00000000  0.00000000  1
