# generated using pymatgen
data_La(AuF4)3
_symmetry_space_group_name_H-M   'P 1'
_cell_length_a   8.35897342
_cell_length_b   8.35897343
_cell_length_c   8.35897343
_cell_angle_alpha   80.15867342
_cell_angle_beta   80.15867343
_cell_angle_gamma   80.15867345
_symmetry_Int_Tables_number   1
_chemical_formula_structural   La(AuF4)3
_chemical_formula_sum   'La2 Au6 F24'
_cell_volume   560.92603327
_cell_formula_units_Z   2
loop_
 _symmetry_equiv_pos_site_id
 _symmetry_equiv_pos_as_xyz
  1  'x, y, z'
loop_
 _atom_site_type_symbol
 _atom_site_label
 _atom_site_symmetry_multiplicity
 _atom_site_fract_x
 _atom_site_fract_y
 _atom_site_fract_z
 _atom_site_occupancy
  F  F0  1  0.19525204  0.50873668  0.37247021  1
  F  F1  1  0.50873668  0.37247021  0.19525204  1
  F  F2  1  0.37247021  0.19525204  0.50873668  1
  F  F3  1  0.12752979  0.99126332  0.30474796  1
  F  F4  1  0.99126332  0.30474796  0.12752979  1
  F  F5  1  0.30474796  0.12752979  0.99126332  1
  F  F6  1  0.80474796  0.49126332  0.62752979  1
  F  F7  1  0.49126332  0.62752979  0.80474796  1
  F  F8  1  0.47616529  0.02383471  0.25000000  1
  F  F9  1  0.25000000  0.47616529  0.02383471  1
  F  F10  1  0.02383471  0.25000000  0.47616529  1
  F  F11  1  0.52383471  0.97616529  0.75000000  1
  F  F12  1  0.75000000  0.52383471  0.97616529  1
  F  F13  1  0.97616529  0.75000000  0.52383471  1
  F  F14  1  0.84081667  0.65918333  0.25000000  1
  F  F15  1  0.25000000  0.84081667  0.65918333  1
  F  F16  1  0.65918333  0.25000000  0.84081667  1
  F  F17  1  0.15918333  0.34081667  0.75000000  1
  F  F18  1  0.75000000  0.15918333  0.34081667  1
  F  F19  1  0.34081667  0.75000000  0.15918333  1
  F  F20  1  0.69525204  0.87247021  0.00873668  1
  F  F21  1  0.00873668  0.69525204  0.87247021  1
  F  F22  1  0.87247021  0.00873668  0.69525204  1
  F  F23  1  0.62752979  0.80474796  0.49126332  1
  La  La24  1  0.25000000  0.25000000  0.25000000  1
  La  La25  1  0.75000000  0.75000000  0.75000000  1
  Au  Au26  1  0.33905108  0.16094892  0.75000000  1
  Au  Au27  1  0.83905108  0.25000000  0.66094892  1
  Au  Au28  1  0.25000000  0.66094892  0.83905108  1
  Au  Au29  1  0.66094892  0.83905108  0.25000000  1
  Au  Au30  1  0.75000000  0.33905108  0.16094892  1
  Au  Au31  1  0.16094892  0.75000000  0.33905108  1
