# generated using pymatgen
data_Rb2Si2O5
_symmetry_space_group_name_H-M   'P 1'
_cell_length_a   6.73926475
_cell_length_b   6.73926474
_cell_length_c   14.89811625
_cell_angle_alpha   90.27302990
_cell_angle_beta   90.27302990
_cell_angle_gamma   78.70989081
_symmetry_Int_Tables_number   1
_chemical_formula_structural   Rb2Si2O5
_chemical_formula_sum   'Rb8 Si8 O20'
_cell_volume   663.53143280
_cell_formula_units_Z   4
loop_
 _symmetry_equiv_pos_site_id
 _symmetry_equiv_pos_as_xyz
  1  'x, y, z'
loop_
 _atom_site_type_symbol
 _atom_site_label
 _atom_site_symmetry_multiplicity
 _atom_site_fract_x
 _atom_site_fract_y
 _atom_site_fract_z
 _atom_site_occupancy
  O  O0  1  0.25657773  0.01126486  0.30996394  1
  O  O1  1  0.27096936  0.50088418  0.08734234  1
  O  O2  1  0.49911582  0.72903064  0.41265766  1
  O  O3  1  0.72903064  0.49911582  0.91265766  1
  O  O4  1  0.50088418  0.27096936  0.58734234  1
  O  O5  1  0.98729326  0.28838471  0.40288287  1
  O  O6  1  0.71161529  0.01270674  0.09711713  1
  O  O7  1  0.01270674  0.71161529  0.59711713  1
  O  O8  1  0.12148498  0.87851502  0.75000000  1
  O  O9  1  0.87851502  0.12148498  0.25000000  1
  O  O10  1  0.36785943  0.12929154  0.73882117  1
  O  O11  1  0.87070846  0.63214057  0.76117883  1
  O  O12  1  0.63214057  0.87070846  0.26117883  1
  O  O13  1  0.12929154  0.36785943  0.23882117  1
  O  O14  1  0.63300129  0.36699871  0.75000000  1
  O  O15  1  0.36699871  0.63300129  0.25000000  1
  O  O16  1  0.74342227  0.98873514  0.69003606  1
  O  O17  1  0.01126486  0.25657773  0.80996394  1
  O  O18  1  0.98873514  0.74342227  0.19003606  1
  O  O19  1  0.28838471  0.98729326  0.90288287  1
  Si  Si20  1  0.56130913  0.19178915  0.68582002  1
  Si  Si21  1  0.06062892  0.20126154  0.30690140  1
  Si  Si22  1  0.79873846  0.93937108  0.19309860  1
  Si  Si23  1  0.93937108  0.79873846  0.69309860  1
  Si  Si24  1  0.20126154  0.06062892  0.80690140  1
  Si  Si25  1  0.19178915  0.56130913  0.18582002  1
  Si  Si26  1  0.43869087  0.80821085  0.31417998  1
  Si  Si27  1  0.80821085  0.43869087  0.81417998  1
  Rb  Rb28  1  0.72058136  0.94008826  0.91444884  1
  Rb  Rb29  1  0.05991174  0.27941864  0.58555116  1
  Rb  Rb30  1  0.27941864  0.05991174  0.08555116  1
  Rb  Rb31  1  0.94008826  0.72058136  0.41444884  1
  Rb  Rb32  1  0.44888436  0.70880816  0.59743632  1
  Rb  Rb33  1  0.29119184  0.55111564  0.90256368  1
  Rb  Rb34  1  0.55111564  0.29119184  0.40256368  1
  Rb  Rb35  1  0.70880816  0.44888436  0.09743632  1
