# generated using pymatgen
data_Li5Co7O12
_symmetry_space_group_name_H-M   'P 1'
_cell_length_a   5.03246890
_cell_length_b   5.03246885
_cell_length_c   9.65268631
_cell_angle_alpha   85.24427049
_cell_angle_beta   94.75573247
_cell_angle_gamma   59.74229522
_symmetry_Int_Tables_number   1
_chemical_formula_structural   Li5Co7O12
_chemical_formula_sum   'Li5 Co7 O12'
_cell_volume   208.21172356
_cell_formula_units_Z   1
loop_
 _symmetry_equiv_pos_site_id
 _symmetry_equiv_pos_as_xyz
  1  'x, y, z'
loop_
 _atom_site_type_symbol
 _atom_site_label
 _atom_site_symmetry_multiplicity
 _atom_site_fract_x
 _atom_site_fract_y
 _atom_site_fract_z
 _atom_site_occupancy
  Li  Li0  1  0.16585131  0.66370654  0.50908216  1
  Li  Li1  1  0.33128794  0.83641540  0.99118400  1
  Li  Li2  1  0.66370654  0.16585131  0.99091784  1
  Li  Li3  1  0.83641540  0.33128794  0.50881600  1
  Li  Li4  1  0.91751027  0.91751027  0.75000000  1
  Co  Co5  1  0.08098942  0.08098942  0.25000000  1
  Co  Co6  1  0.99596129  0.51417957  0.99104165  1
  Co  Co7  1  0.25068062  0.25068062  0.75000000  1
  Co  Co8  1  0.51417957  0.99596129  0.50895835  1
  Co  Co9  1  0.41959666  0.41959666  0.25000000  1
  Co  Co10  1  0.58283099  0.58283099  0.75000000  1
  Co  Co11  1  0.74866941  0.74866941  0.25000000  1
  O  O12  1  0.95135236  0.24162934  0.86607250  1
  O  O13  1  0.24162934  0.95135236  0.63392750  1
  O  O14  1  0.11509372  0.39035757  0.36413305  1
  O  O15  1  0.39035757  0.11509372  0.13586695  1
  O  O16  1  0.30007295  0.52319370  0.86615488  1
  O  O17  1  0.52319370  0.30007295  0.63384512  1
  O  O18  1  0.47815025  0.70525273  0.36644814  1
  O  O19  1  0.70525273  0.47815025  0.13355186  1
  O  O20  1  0.60198606  0.87334423  0.86249934  1
  O  O21  1  0.87334423  0.60198606  0.63750066  1
  O  O22  1  0.78005292  0.03183477  0.36829965  1
  O  O23  1  0.03183477  0.78005292  0.13170035  1
