# generated using pymatgen
data_PRhO4
_symmetry_space_group_name_H-M   'P 1'
_cell_length_a   6.47758756
_cell_length_b   9.09872893
_cell_length_c   9.09872893
_cell_angle_alpha   70.96513105
_cell_angle_beta   69.14763903
_cell_angle_gamma   69.14763903
_symmetry_Int_Tables_number   1
_chemical_formula_structural   PRhO4
_chemical_formula_sum   'P6 Rh6 O24'
_cell_volume   455.93510422
_cell_formula_units_Z   6
loop_
 _symmetry_equiv_pos_site_id
 _symmetry_equiv_pos_as_xyz
  1  'x, y, z'
loop_
 _atom_site_type_symbol
 _atom_site_label
 _atom_site_symmetry_multiplicity
 _atom_site_fract_x
 _atom_site_fract_y
 _atom_site_fract_z
 _atom_site_occupancy
  O  O0  1  0.78329525  0.85601430  0.13057460  1
  O  O1  1  0.26988416  0.64398570  0.36942540  1
  O  O2  1  0.21670475  0.86942540  0.14398570  1
  O  O3  1  0.73011584  0.63057460  0.35601430  1
  O  O4  1  0.21670475  0.14398570  0.86942540  1
  O  O5  1  0.73011584  0.35601430  0.63057460  1
  O  O6  1  0.78329525  0.13057460  0.85601430  1
  O  O7  1  0.26988416  0.36942540  0.64398570  1
  O  O8  1  0.57732276  0.08508700  0.63743084  1
  O  O9  1  0.79984060  0.41491300  0.86256916  1
  O  O10  1  0.42267724  0.36256916  0.91491300  1
  O  O11  1  0.20015940  0.13743084  0.58508700  1
  O  O12  1  0.20253697  0.84596200  0.84596200  1
  O  O13  1  0.39446097  0.65403800  0.65403800  1
  O  O14  1  0.79746303  0.15403800  0.15403800  1
  O  O15  1  0.60553903  0.34596200  0.34596200  1
  O  O16  1  0.97692765  0.37182654  0.12817346  1
  O  O17  1  0.97692765  0.12817346  0.37182654  1
  O  O18  1  0.02307235  0.87182654  0.62817346  1
  O  O19  1  0.02307235  0.62817346  0.87182654  1
  O  O20  1  0.79984060  0.86256916  0.41491300  1
  O  O21  1  0.57732276  0.63743084  0.08508700  1
  O  O22  1  0.20015940  0.58508700  0.13743084  1
  O  O23  1  0.42267724  0.91491300  0.36256916  1
  P  P24  1  0.67424426  0.82575574  0.32575574  1
  P  P25  1  0.32575574  0.67424426  0.17424426  1
  P  P26  1  0.32575574  0.17424426  0.67424426  1
  P  P27  1  0.67424426  0.32575574  0.82575574  1
  P  P28  1  0.83078660  0.25000000  0.25000000  1
  P  P29  1  0.16921340  0.75000000  0.75000000  1
  Rh  Rh30  1  0.11897264  0.88102736  0.38102736  1
  Rh  Rh31  1  0.88102736  0.61897264  0.11897264  1
  Rh  Rh32  1  0.88102736  0.11897264  0.61897264  1
  Rh  Rh33  1  0.11897264  0.38102736  0.88102736  1
  Rh  Rh34  1  0.50000000  0.50000000  0.50000000  1
  Rh  Rh35  1  0.00000000  0.00000000  0.00000000  1
