# generated using pymatgen
data_Pr2NCl3
_symmetry_space_group_name_H-M   'P 1'
_cell_length_a   6.21937310
_cell_length_b   6.91991377
_cell_length_c   8.29080517
_cell_angle_alpha   114.66926949
_cell_angle_beta   112.02904381
_cell_angle_gamma   90.00000001
_symmetry_Int_Tables_number   1
_chemical_formula_structural   Pr2NCl3
_chemical_formula_sum   'Pr4 N2 Cl6'
_cell_volume   295.34165808
_cell_formula_units_Z   2
loop_
 _symmetry_equiv_pos_site_id
 _symmetry_equiv_pos_as_xyz
  1  'x, y, z'
loop_
 _atom_site_type_symbol
 _atom_site_label
 _atom_site_symmetry_multiplicity
 _atom_site_fract_x
 _atom_site_fract_y
 _atom_site_fract_z
 _atom_site_occupancy
  N  N0  1  0.24999036  0.00000000  0.00000000  1
  N  N1  1  0.75000964  0.00000000  0.00000000  1
  Cl  Cl2  1  0.70313460  0.37756046  0.40626921  1
  Cl  Cl3  1  0.29686540  0.62243954  0.59373079  1
  Cl  Cl4  1  0.74998876  0.50000000  0.00000000  1
  Cl  Cl5  1  0.25001124  0.50000000  0.00000000  1
  Cl  Cl6  1  0.20310312  0.02869009  0.40620623  1
  Cl  Cl7  1  0.79689688  0.97130991  0.59379377  1
  Pr  Pr8  1  0.40702218  0.08267638  0.81404436  1
  Pr  Pr9  1  0.59297782  0.91732362  0.18595564  1
  Pr  Pr10  1  0.09295961  0.26872586  0.18591923  1
  Pr  Pr11  1  0.90704039  0.73127414  0.81408077  1
