# generated using pymatgen
data_PSe
_symmetry_space_group_name_H-M   'P 1'
_cell_length_a   7.43937550
_cell_length_b   12.35929341
_cell_length_c   12.77919142
_cell_angle_alpha   115.98746963
_cell_angle_beta   90.00000000
_cell_angle_gamma   90.00000000
_symmetry_Int_Tables_number   1
_chemical_formula_structural   PSe
_chemical_formula_sum   'P16 Se16'
_cell_volume   1056.18500281
_cell_formula_units_Z   16
loop_
 _symmetry_equiv_pos_site_id
 _symmetry_equiv_pos_as_xyz
  1  'x, y, z'
loop_
 _atom_site_type_symbol
 _atom_site_label
 _atom_site_symmetry_multiplicity
 _atom_site_fract_x
 _atom_site_fract_y
 _atom_site_fract_z
 _atom_site_occupancy
  P  P0  1  0.99047492  0.76117177  0.16845698  1
  P  P1  1  0.49047492  0.23882823  0.33154302  1
  P  P2  1  0.00952508  0.23882823  0.83154302  1
  P  P3  1  0.50952508  0.76117177  0.66845698  1
  P  P4  1  0.81159129  0.67328895  0.24622745  1
  P  P5  1  0.31159129  0.32671105  0.25377255  1
  P  P6  1  0.18840871  0.32671105  0.75377255  1
  P  P7  1  0.68840871  0.67328895  0.74622745  1
  P  P8  1  0.19475262  0.82366398  0.42822224  1
  P  P9  1  0.69475262  0.17633602  0.07177776  1
  P  P10  1  0.80524738  0.17633602  0.57177776  1
  P  P11  1  0.30524738  0.82366398  0.92822224  1
  P  P12  1  0.36881998  0.68247167  0.30064867  1
  P  P13  1  0.86881998  0.31752833  0.19935133  1
  P  P14  1  0.63118002  0.31752833  0.69935133  1
  P  P15  1  0.13118002  0.68247167  0.80064867  1
  Se  Se16  1  0.58570163  0.81593577  0.30061449  1
  Se  Se17  1  0.08570163  0.18406423  0.19938551  1
  Se  Se18  1  0.41429837  0.18406423  0.69938551  1
  Se  Se19  1  0.91429837  0.81593577  0.80061449  1
  Se  Se20  1  0.95682569  0.70225759  0.41640421  1
  Se  Se21  1  0.45682569  0.29774241  0.08359579  1
  Se  Se22  1  0.04317431  0.29774241  0.58359579  1
  Se  Se23  1  0.54317431  0.70225759  0.91640421  1
  Se  Se24  1  0.09928923  0.92374575  0.32523744  1
  Se  Se25  1  0.59928923  0.07625425  0.17476256  1
  Se  Se26  1  0.90071077  0.07625425  0.67476256  1
  Se  Se27  1  0.40071077  0.92374575  0.82523744  1
  Se  Se28  1  0.21511206  0.62144399  0.12727927  1
  Se  Se29  1  0.71511206  0.37855601  0.37272073  1
  Se  Se30  1  0.78488794  0.37855601  0.87272073  1
  Se  Se31  1  0.28488794  0.62144399  0.62727927  1
