# generated using pymatgen
data_Ba5(RuO5)2
_symmetry_space_group_name_H-M   'P 1'
_cell_length_a   6.07569326
_cell_length_b   6.07569326
_cell_length_c   18.05620213
_cell_angle_alpha   90.00000000
_cell_angle_beta   90.00000000
_cell_angle_gamma   119.99999999
_symmetry_Int_Tables_number   1
_chemical_formula_structural   Ba5(RuO5)2
_chemical_formula_sum   'Ba10 Ru4 O20'
_cell_volume   577.22976718
_cell_formula_units_Z   2
loop_
 _symmetry_equiv_pos_site_id
 _symmetry_equiv_pos_as_xyz
  1  'x, y, z'
loop_
 _atom_site_type_symbol
 _atom_site_label
 _atom_site_symmetry_multiplicity
 _atom_site_fract_x
 _atom_site_fract_y
 _atom_site_fract_z
 _atom_site_occupancy
  O  O0  1  0.00000000  0.00000000  0.50000000  1
  O  O1  1  0.00000000  0.00000000  0.00000000  1
  O  O2  1  0.48803399  0.51196601  0.88390705  1
  O  O3  1  0.48803399  0.97606798  0.88390705  1
  O  O4  1  0.02393202  0.51196601  0.88390705  1
  O  O5  1  0.97606798  0.48803399  0.38390705  1
  O  O6  1  0.51196601  0.02393202  0.11609295  1
  O  O7  1  0.51196601  0.48803399  0.38390705  1
  O  O8  1  0.51196601  0.02393202  0.38390705  1
  O  O9  1  0.48803399  0.51196601  0.61609295  1
  O  O10  1  0.02393202  0.51196601  0.61609295  1
  O  O11  1  0.97606798  0.48803399  0.11609295  1
  O  O12  1  0.51196601  0.48803399  0.11609295  1
  O  O13  1  0.48803399  0.97606798  0.61609295  1
  O  O14  1  0.18688052  0.37376103  0.75000000  1
  O  O15  1  0.81311948  0.18688052  0.25000000  1
  O  O16  1  0.37376103  0.18688052  0.25000000  1
  O  O17  1  0.62623897  0.81311948  0.75000000  1
  O  O18  1  0.18688052  0.81311948  0.75000000  1
  O  O19  1  0.81311948  0.62623897  0.25000000  1
  Ru  Ru20  1  0.33333333  0.66666667  0.82730390  1
  Ru  Ru21  1  0.66666667  0.33333333  0.32730390  1
  Ru  Ru22  1  0.66666667  0.33333333  0.17269610  1
  Ru  Ru23  1  0.33333333  0.66666667  0.67269610  1
  Ba  Ba24  1  0.33333333  0.66666667  0.48435720  1
  Ba  Ba25  1  0.66666667  0.33333333  0.98435720  1
  Ba  Ba26  1  0.66666667  0.33333333  0.51564280  1
  Ba  Ba27  1  0.33333333  0.66666667  0.01564280  1
  Ba  Ba28  1  0.66666667  0.33333333  0.75000000  1
  Ba  Ba29  1  0.33333333  0.66666667  0.25000000  1
  Ba  Ba30  1  0.00000000  0.00000000  0.36336444  1
  Ba  Ba31  1  0.00000000  0.00000000  0.86336444  1
  Ba  Ba32  1  0.00000000  0.00000000  0.63663556  1
  Ba  Ba33  1  0.00000000  0.00000000  0.13663556  1
