# generated using pymatgen
data_Cr3Co5O16
_symmetry_space_group_name_H-M   'P 1'
_cell_length_a   5.72483115
_cell_length_b   5.76086288
_cell_length_c   8.61089593
_cell_angle_alpha   89.93924296
_cell_angle_beta   90.02961290
_cell_angle_gamma   120.06379953
_symmetry_Int_Tables_number   1
_chemical_formula_structural   Cr3Co5O16
_chemical_formula_sum   'Cr3 Co5 O16'
_cell_volume   245.78161092
_cell_formula_units_Z   1
loop_
 _symmetry_equiv_pos_site_id
 _symmetry_equiv_pos_as_xyz
  1  'x, y, z'
loop_
 _atom_site_type_symbol
 _atom_site_label
 _atom_site_symmetry_multiplicity
 _atom_site_fract_x
 _atom_site_fract_y
 _atom_site_fract_z
 _atom_site_occupancy
  Cr  Cr0  1  0.15918320  0.83146324  0.20232992  1
  Cr  Cr1  1  0.15873089  0.32763487  0.20293641  1
  Cr  Cr2  1  0.32291818  0.16197778  0.70077089  1
  Co  Co3  1  0.34138573  0.66948353  0.48707470  1
  Co  Co4  1  0.65377998  0.82664898  0.21333364  1
  Co  Co5  1  0.67037669  0.33543270  0.98163455  1
  Co  Co6  1  0.82863670  0.66006927  0.70804245  1
  Co  Co7  1  0.82733089  0.16926355  0.71127951  1
  O  O8  1  0.17031448  0.83256203  0.60528740  1
  O  O9  1  0.05697981  0.52888192  0.34371089  1
  O  O10  1  0.34459629  0.67205557  0.09451595  1
  O  O11  1  0.98231789  0.99082014  0.31739128  1
  O  O12  1  0.98261098  0.99401203  0.81622602  1
  O  O13  1  0.17071553  0.33757898  0.60388603  1
  O  O14  1  0.48216996  0.95555000  0.34464049  1
  O  O15  1  0.48251160  0.52550792  0.34469766  1
  O  O16  1  0.35013301  0.17531611  0.10874733  1
  O  O17  1  0.66333411  0.83053571  0.60324463  1
  O  O18  1  0.52622588  0.47818542  0.84146160  1
  O  O19  1  0.52581632  0.04661691  0.84292242  1
  O  O20  1  0.67900139  0.33777381  0.59796970  1
  O  O21  1  0.83171977  0.65965692  0.10228728  1
  O  O22  1  0.95768072  0.48093270  0.83876715  1
  O  O23  1  0.83152900  0.17223889  0.10256311  1
