# generated using pymatgen
data_ThTl3F7
_symmetry_space_group_name_H-M   'P 1'
_cell_length_a   8.58497967
_cell_length_b   9.93661105
_cell_length_c   10.87743024
_cell_angle_alpha   117.21653382
_cell_angle_beta   90.00000000
_cell_angle_gamma   90.00000000
_symmetry_Int_Tables_number   1
_chemical_formula_structural   ThTl3F7
_chemical_formula_sum   'Th4 Tl12 F28'
_cell_volume   825.17214192
_cell_formula_units_Z   4
loop_
 _symmetry_equiv_pos_site_id
 _symmetry_equiv_pos_as_xyz
  1  'x, y, z'
loop_
 _atom_site_type_symbol
 _atom_site_label
 _atom_site_symmetry_multiplicity
 _atom_site_fract_x
 _atom_site_fract_y
 _atom_site_fract_z
 _atom_site_occupancy
  F  F0  1  0.94600656  0.64191645  0.72847257  1
  F  F1  1  0.44600656  0.35808355  0.27152743  1
  F  F2  1  0.05399344  0.35808355  0.27152743  1
  F  F3  1  0.55399344  0.64191645  0.72847257  1
  F  F4  1  0.44510531  0.91349275  0.27099363  1
  F  F5  1  0.94510531  0.08650725  0.72900637  1
  F  F6  1  0.55489469  0.08650725  0.72900637  1
  F  F7  1  0.05489469  0.91349275  0.27099363  1
  F  F8  1  0.25000000  0.05171047  0.10338096  1
  F  F9  1  0.75000000  0.94828953  0.89661904  1
  F  F10  1  0.25000000  0.17891184  0.35725309  1
  F  F11  1  0.75000000  0.82108816  0.64274691  1
  F  F12  1  0.06592504  0.77764791  0.55506891  1
  F  F13  1  0.56592504  0.22235209  0.44493109  1
  F  F14  1  0.93407496  0.22235209  0.44493109  1
  F  F15  1  0.43407496  0.77764791  0.55506891  1
  F  F16  1  0.00018074  0.12952083  1.00003825  1
  F  F17  1  0.50018074  0.87047917  -0.00003825  1
  F  F18  1  0.99981926  0.87047917  -0.00003825  1
  F  F19  1  0.49981926  0.12952083  1.00003825  1
  F  F20  1  0.50000000  0.50000000  0.00000000  1
  F  F21  1  0.00000000  0.50000000  0.00000000  1
  F  F22  1  0.75000000  0.36364242  0.72841597  1
  F  F23  1  0.25000000  0.63635758  0.27158403  1
  F  F24  1  0.75000000  0.97957609  0.21079706  1
  F  F25  1  0.25000000  0.02042391  0.78920294  1
  F  F26  1  0.75000000  0.23026365  0.21022470  1
  F  F27  1  0.25000000  0.76973635  0.78977530  1
  Tl  Tl28  1  0.53277537  0.63649300  0.27286660  1
  Tl  Tl29  1  0.03277537  0.36350700  0.72713340  1
  Tl  Tl30  1  0.46722463  0.36350700  0.72713340  1
  Tl  Tl31  1  0.96722463  0.63649300  0.27286660  1
  Tl  Tl32  1  0.25000000  0.97575927  0.48492067  1
  Tl  Tl33  1  0.75000000  0.02424073  0.51507933  1
  Tl  Tl34  1  0.25000000  0.50899388  0.48489626  1
  Tl  Tl35  1  0.75000000  0.49100612  0.51510374  1
  Tl  Tl36  1  0.25000000  0.70773322  0.03132202  1
  Tl  Tl37  1  0.75000000  0.29226678  0.96867798  1
  Tl  Tl38  1  0.25000000  0.32327874  0.03105043  1
  Tl  Tl39  1  0.75000000  0.67672126  0.96894957  1
  Th  Th40  1  0.00095556  0.89157514  0.78317772  1
  Th  Th41  1  0.50095556  0.10842486  0.21682228  1
  Th  Th42  1  0.99904444  0.10842486  0.21682228  1
  Th  Th43  1  0.49904444  0.89157514  0.78317772  1
