# generated using pymatgen
data_LiBiO3
_symmetry_space_group_name_H-M   'P 1'
_cell_length_a   5.03731817
_cell_length_b   9.02075977
_cell_length_c   10.94586084
_cell_angle_alpha   90.00000000
_cell_angle_beta   90.00000000
_cell_angle_gamma   90.00000000
_symmetry_Int_Tables_number   1
_chemical_formula_structural   LiBiO3
_chemical_formula_sum   'Li8 Bi8 O24'
_cell_volume   497.38470097
_cell_formula_units_Z   8
loop_
 _symmetry_equiv_pos_site_id
 _symmetry_equiv_pos_as_xyz
  1  'x, y, z'
loop_
 _atom_site_type_symbol
 _atom_site_label
 _atom_site_symmetry_multiplicity
 _atom_site_fract_x
 _atom_site_fract_y
 _atom_site_fract_z
 _atom_site_occupancy
  Li  Li0  1  0.50056459  0.71241766  0.40344937  1
  Li  Li1  1  0.00056459  0.28758234  0.09655063  1
  Li  Li2  1  0.49943541  0.21241766  0.09655063  1
  Li  Li3  1  0.99943541  0.78758234  0.40344937  1
  Li  Li4  1  0.49943541  0.28758234  0.59655063  1
  Li  Li5  1  0.99943541  0.71241766  0.90344937  1
  Li  Li6  1  0.50056459  0.78758234  0.90344937  1
  Li  Li7  1  0.00056459  0.21241766  0.59655063  1
  O  O8  1  0.75000000  0.75000000  0.72213829  1
  O  O9  1  0.25000000  0.25000000  0.77786171  1
  O  O10  1  0.25000000  0.25000000  0.27786171  1
  O  O11  1  0.75000000  0.75000000  0.22213829  1
  O  O12  1  0.25000000  0.75000000  0.05034873  1
  O  O13  1  0.75000000  0.25000000  0.44965127  1
  O  O14  1  0.75000000  0.25000000  0.94965127  1
  O  O15  1  0.25000000  0.75000000  0.55034873  1
  O  O16  1  0.68996874  0.59537599  0.95737566  1
  O  O17  1  0.18996874  0.40462401  0.54262434  1
  O  O18  1  0.31003126  0.09537599  0.54262434  1
  O  O19  1  0.81003126  0.90462401  0.95737566  1
  O  O20  1  0.31003126  0.40462401  0.04262434  1
  O  O21  1  0.81003126  0.59537599  0.45737566  1
  O  O22  1  0.68996874  0.90462401  0.45737566  1
  O  O23  1  0.18996874  0.09537599  0.04262434  1
  O  O24  1  0.22478952  0.58453547  0.79994019  1
  O  O25  1  0.72478952  0.41546453  0.70005981  1
  O  O26  1  0.77521048  0.08453547  0.70005981  1
  O  O27  1  0.27521048  0.91546453  0.79994019  1
  O  O28  1  0.77521048  0.41546453  0.20005981  1
  O  O29  1  0.27521048  0.58453547  0.29994019  1
  O  O30  1  0.22478952  0.91546453  0.29994019  1
  O  O31  1  0.72478952  0.08453547  0.20005981  1
  Bi  Bi32  1  0.49626598  0.08614842  0.36343648  1
  Bi  Bi33  1  0.99626598  0.91385158  0.13656352  1
  Bi  Bi34  1  0.50373402  0.58614842  0.13656352  1
  Bi  Bi35  1  0.00373402  0.41385158  0.36343648  1
  Bi  Bi36  1  0.50373402  0.91385158  0.63656352  1
  Bi  Bi37  1  0.00373402  0.08614842  0.86343648  1
  Bi  Bi38  1  0.49626598  0.41385158  0.86343648  1
  Bi  Bi39  1  0.99626598  0.58614842  0.63656352  1
