# generated using pymatgen
data_Hf5FeTe3
_symmetry_space_group_name_H-M   'P 1'
_cell_length_a   3.67073882
_cell_length_b   13.37794766
_cell_length_c   18.07708301
_cell_angle_alpha   90.00000000
_cell_angle_beta   90.00000000
_cell_angle_gamma   90.00000000
_symmetry_Int_Tables_number   1
_chemical_formula_structural   Hf5FeTe3
_chemical_formula_sum   'Hf20 Fe4 Te12'
_cell_volume   887.71044419
_cell_formula_units_Z   4
loop_
 _symmetry_equiv_pos_site_id
 _symmetry_equiv_pos_as_xyz
  1  'x, y, z'
loop_
 _atom_site_type_symbol
 _atom_site_label
 _atom_site_symmetry_multiplicity
 _atom_site_fract_x
 _atom_site_fract_y
 _atom_site_fract_z
 _atom_site_occupancy
  Fe  Fe0  1  0.25000000  0.52243697  0.12988877  1
  Fe  Fe1  1  0.75000000  0.47756303  0.87011123  1
  Fe  Fe2  1  0.75000000  0.02243697  0.37011123  1
  Fe  Fe3  1  0.25000000  0.97756303  0.62988877  1
  Te  Te4  1  0.25000000  0.44325326  0.64823970  1
  Te  Te5  1  0.75000000  0.55674674  0.35176030  1
  Te  Te6  1  0.75000000  0.94325326  0.85176030  1
  Te  Te7  1  0.25000000  0.05674674  0.14823970  1
  Te  Te8  1  0.75000000  0.69376701  0.70637917  1
  Te  Te9  1  0.25000000  0.30623299  0.29362083  1
  Te  Te10  1  0.25000000  0.19376701  0.79362083  1
  Te  Te11  1  0.75000000  0.80623299  0.20637917  1
  Te  Te12  1  0.25000000  0.78619989  0.00062403  1
  Te  Te13  1  0.75000000  0.21380011  0.99937597  1
  Te  Te14  1  0.75000000  0.28619989  0.49937597  1
  Te  Te15  1  0.25000000  0.71380011  0.50062403  1
  Hf  Hf16  1  0.25000000  0.64049024  0.24321156  1
  Hf  Hf17  1  0.75000000  0.35950976  0.75678844  1
  Hf  Hf18  1  0.75000000  0.14049024  0.25678844  1
  Hf  Hf19  1  0.25000000  0.85950976  0.74321156  1
  Hf  Hf20  1  0.25000000  0.57013197  0.95721619  1
  Hf  Hf21  1  0.75000000  0.42986803  0.04278381  1
  Hf  Hf22  1  0.75000000  0.07013197  0.54278381  1
  Hf  Hf23  1  0.25000000  0.92986803  0.45721619  1
  Hf  Hf24  1  0.75000000  0.84992614  0.58910954  1
  Hf  Hf25  1  0.25000000  0.15007386  0.41089046  1
  Hf  Hf26  1  0.25000000  0.34992614  0.91089046  1
  Hf  Hf27  1  0.75000000  0.65007386  0.08910954  1
  Hf  Hf28  1  0.25000000  0.22548292  0.62267142  1
  Hf  Hf29  1  0.75000000  0.77451708  0.37732858  1
  Hf  Hf30  1  0.75000000  0.72548292  0.87732858  1
  Hf  Hf31  1  0.25000000  0.27451708  0.12267142  1
  Hf  Hf32  1  0.25000000  0.55973109  0.78972993  1
  Hf  Hf33  1  0.75000000  0.44026891  0.21027007  1
  Hf  Hf34  1  0.75000000  0.05973109  0.71027007  1
  Hf  Hf35  1  0.25000000  0.94026891  0.28972993  1
