# generated using pymatgen
data_K2GeSe4
_symmetry_space_group_name_H-M   'P 1'
_cell_length_a   8.47277317
_cell_length_b   9.20015254
_cell_length_c   12.22371179
_cell_angle_alpha   106.31442248
_cell_angle_beta   90.00000000
_cell_angle_gamma   90.00000000
_symmetry_Int_Tables_number   1
_chemical_formula_structural   K2GeSe4
_chemical_formula_sum   'K8 Ge4 Se16'
_cell_volume   914.48137954
_cell_formula_units_Z   4
loop_
 _symmetry_equiv_pos_site_id
 _symmetry_equiv_pos_as_xyz
  1  'x, y, z'
loop_
 _atom_site_type_symbol
 _atom_site_label
 _atom_site_symmetry_multiplicity
 _atom_site_fract_x
 _atom_site_fract_y
 _atom_site_fract_z
 _atom_site_occupancy
  K  K0  1  0.91161754  0.30736019  0.15752742  1
  K  K1  1  0.92581784  0.77242658  0.45489012  1
  K  K2  1  0.42581784  0.72757342  0.54510988  1
  K  K3  1  0.07418216  0.22757342  0.54510988  1
  K  K4  1  0.41161754  0.19263981  0.84247258  1
  K  K5  1  0.57418216  0.27242658  0.45489012  1
  K  K6  1  0.08838246  0.69263981  0.84247258  1
  K  K7  1  0.58838246  0.80736019  0.15752742  1
  Ge  Ge8  1  0.36583290  0.45139550  0.24181090  1
  Ge  Ge9  1  0.86583290  0.04860450  0.75818910  1
  Ge  Ge10  1  0.63416710  0.54860450  0.75818910  1
  Ge  Ge11  1  0.13416710  0.95139550  0.24181090  1
  Se  Se12  1  0.44549009  0.19147822  0.13757303  1
  Se  Se13  1  0.71318430  0.45413135  0.92128022  1
  Se  Se14  1  0.21318430  0.04586865  0.07871978  1
  Se  Se15  1  0.28681570  0.54586865  0.07871978  1
  Se  Se16  1  0.87767502  0.03209540  0.30007212  1
  Se  Se17  1  0.37767502  0.46790460  0.69992788  1
  Se  Se18  1  0.12232498  0.96790460  0.69992788  1
  Se  Se19  1  0.62232498  0.53209540  0.30007212  1
  Se  Se20  1  0.94549009  0.30852178  0.86242697  1
  Se  Se21  1  0.55450991  0.80852178  0.86242697  1
  Se  Se22  1  0.05450991  0.69147822  0.13757303  1
  Se  Se23  1  0.16912544  0.46521001  0.37433373  1
  Se  Se24  1  0.66912544  0.03478999  0.62566627  1
  Se  Se25  1  0.83087456  0.53478999  0.62566627  1
  Se  Se26  1  0.33087456  0.96521001  0.37433373  1
  Se  Se27  1  0.78681570  0.95413135  0.92128022  1
