# generated using pymatgen
data_Zr6FeCl14
_symmetry_space_group_name_H-M   'P 1'
_cell_length_a   9.87499053
_cell_length_b   9.87499053
_cell_length_c   12.01198070
_cell_angle_alpha   90.00000000
_cell_angle_beta   90.00000000
_cell_angle_gamma   96.19092688
_symmetry_Int_Tables_number   1
_chemical_formula_structural   Zr6FeCl14
_chemical_formula_sum   'Zr12 Fe2 Cl28'
_cell_volume   1164.52228753
_cell_formula_units_Z   2
loop_
 _symmetry_equiv_pos_site_id
 _symmetry_equiv_pos_as_xyz
  1  'x, y, z'
loop_
 _atom_site_type_symbol
 _atom_site_label
 _atom_site_symmetry_multiplicity
 _atom_site_fract_x
 _atom_site_fract_y
 _atom_site_fract_z
 _atom_site_occupancy
  Cl  Cl0  1  0.11752958  0.36077630  0.50786984  1
  Cl  Cl1  1  0.60053831  0.10053831  0.25000000  1
  Cl  Cl2  1  0.75211835  0.24788165  0.50000000  1
  Cl  Cl3  1  0.74788165  0.25211835  0.00000000  1
  Cl  Cl4  1  0.24788165  0.75211835  0.50000000  1
  Cl  Cl5  1  0.25211835  0.74788165  0.00000000  1
  Cl  Cl6  1  0.84352298  0.84352298  0.24428876  1
  Cl  Cl7  1  0.65647702  0.65647702  0.74428876  1
  Cl  Cl8  1  0.34352298  0.34352298  0.25571124  1
  Cl  Cl9  1  0.15647702  0.15647702  0.75571124  1
  Cl  Cl10  1  0.10053831  0.60053831  0.25000000  1
  Cl  Cl11  1  0.39946169  0.89946169  0.75000000  1
  Cl  Cl12  1  0.20710362  0.96379711  0.25518563  1
  Cl  Cl13  1  0.29289638  0.53620289  0.75518563  1
  Cl  Cl14  1  0.13922370  0.38247042  0.00786984  1
  Cl  Cl15  1  0.03620289  0.79289638  0.74481437  1
  Cl  Cl16  1  0.79289638  0.03620289  0.74481437  1
  Cl  Cl17  1  0.70710362  0.46379711  0.24481437  1
  Cl  Cl18  1  0.53620289  0.29289638  0.75518563  1
  Cl  Cl19  1  0.96379711  0.20710362  0.25518563  1
  Cl  Cl20  1  0.38247042  0.13922370  0.00786984  1
  Cl  Cl21  1  0.46379711  0.70710362  0.24481437  1
  Cl  Cl22  1  0.63922370  0.88247042  0.49213016  1
  Cl  Cl23  1  0.86077630  0.61752958  0.99213016  1
  Cl  Cl24  1  0.61752958  0.86077630  0.99213016  1
  Cl  Cl25  1  0.88247042  0.63922370  0.49213016  1
  Cl  Cl26  1  0.36077630  0.11752958  0.50786984  1
  Cl  Cl27  1  0.89946169  0.39946169  0.75000000  1
  Fe  Fe28  1  0.00000000  0.00000000  0.50000000  1
  Fe  Fe29  1  0.50000000  0.50000000  0.00000000  1
  Zr  Zr30  1  0.80781038  0.04750424  0.38106423  1
  Zr  Zr31  1  0.84828640  0.84828640  0.61124641  1
  Zr  Zr32  1  0.15171360  0.15171360  0.38875359  1
  Zr  Zr33  1  0.34828640  0.34828640  0.88875359  1
  Zr  Zr34  1  0.69218962  0.45249576  0.88106423  1
  Zr  Zr35  1  0.65171360  0.65171360  0.11124641  1
  Zr  Zr36  1  0.95249576  0.19218962  0.61893577  1
  Zr  Zr37  1  0.54750424  0.30781038  0.11893577  1
  Zr  Zr38  1  0.30781038  0.54750424  0.11893577  1
  Zr  Zr39  1  0.19218962  0.95249576  0.61893577  1
  Zr  Zr40  1  0.04750424  0.80781038  0.38106423  1
  Zr  Zr41  1  0.45249576  0.69218962  0.88106423  1
