# generated using pymatgen
data_K3BiSe3
_symmetry_space_group_name_H-M   'P 1'
_cell_length_a   9.96261764
_cell_length_b   9.96261764
_cell_length_c   9.96261764
_cell_angle_alpha   90.00000000
_cell_angle_beta   90.00000000
_cell_angle_gamma   90.00000000
_symmetry_Int_Tables_number   1
_chemical_formula_structural   K3BiSe3
_chemical_formula_sum   'K12 Bi4 Se12'
_cell_volume   988.82716299
_cell_formula_units_Z   4
loop_
 _symmetry_equiv_pos_site_id
 _symmetry_equiv_pos_as_xyz
  1  'x, y, z'
loop_
 _atom_site_type_symbol
 _atom_site_label
 _atom_site_symmetry_multiplicity
 _atom_site_fract_x
 _atom_site_fract_y
 _atom_site_fract_z
 _atom_site_occupancy
  K  K0  1  0.32156814  0.32156814  0.32156814  1
  K  K1  1  0.17843186  0.67843186  0.82156814  1
  K  K2  1  0.82156814  0.17843186  0.67843186  1
  K  K3  1  0.67843186  0.82156814  0.17843186  1
  K  K4  1  0.57259169  0.57259169  0.57259169  1
  K  K5  1  0.92740831  0.42740831  0.07259169  1
  K  K6  1  0.07259169  0.92740831  0.42740831  1
  K  K7  1  0.42740831  0.07259169  0.92740831  1
  K  K8  1  0.81363721  0.81363721  0.81363721  1
  K  K9  1  0.68636279  0.18636279  0.31363721  1
  K  K10  1  0.31363721  0.68636279  0.18636279  1
  K  K11  1  0.18636279  0.31363721  0.68636279  1
  Se  Se12  1  0.77619971  0.11120417  0.00150120  1
  Se  Se13  1  0.72380029  0.88879583  0.50150120  1
  Se  Se14  1  0.27619971  0.38879583  0.99849880  1
  Se  Se15  1  0.11120417  0.00150120  0.77619971  1
  Se  Se16  1  0.22380029  0.61120417  0.49849880  1
  Se  Se17  1  0.49849880  0.22380029  0.61120417  1
  Se  Se18  1  0.61120417  0.49849880  0.22380029  1
  Se  Se19  1  0.88879583  0.50150120  0.72380029  1
  Se  Se20  1  0.99849880  0.27619971  0.38879583  1
  Se  Se21  1  0.38879583  0.99849880  0.27619971  1
  Se  Se22  1  0.00150120  0.77619971  0.11120417  1
  Se  Se23  1  0.50150120  0.72380029  0.88879583  1
  Bi  Bi24  1  0.96590406  0.53409594  0.46590406  1
  Bi  Bi25  1  0.46590406  0.96590406  0.53409594  1
  Bi  Bi26  1  0.03409594  0.03409594  0.03409594  1
  Bi  Bi27  1  0.53409594  0.46590406  0.96590406  1
