# generated using pymatgen
data_Ho3Ge3Ru2
_symmetry_space_group_name_H-M   'P 1'
_cell_length_a   4.26263739
_cell_length_b   5.81425284
_cell_length_c   13.92064598
_cell_angle_alpha   90.00000000
_cell_angle_beta   90.00000000
_cell_angle_gamma   111.50410834
_symmetry_Int_Tables_number   1
_chemical_formula_structural   Ho3Ge3Ru2
_chemical_formula_sum   'Ho6 Ge6 Ru4'
_cell_volume   320.99430482
_cell_formula_units_Z   2
loop_
 _symmetry_equiv_pos_site_id
 _symmetry_equiv_pos_as_xyz
  1  'x, y, z'
loop_
 _atom_site_type_symbol
 _atom_site_label
 _atom_site_symmetry_multiplicity
 _atom_site_fract_x
 _atom_site_fract_y
 _atom_site_fract_z
 _atom_site_occupancy
  Ge  Ge0  1  0.83606728  0.67213456  0.25000000  1
  Ge  Ge1  1  0.16393272  0.32786544  0.75000000  1
  Ge  Ge2  1  0.88432638  0.76865276  0.54056218  1
  Ge  Ge3  1  0.11567362  0.23134724  0.45943782  1
  Ge  Ge4  1  0.11567362  0.23134724  0.04056218  1
  Ge  Ge5  1  0.88432638  0.76865276  0.95943782  1
  Ru  Ru6  1  0.28666841  0.57333681  0.58267106  1
  Ru  Ru7  1  0.71333159  0.42666319  0.41732894  1
  Ru  Ru8  1  0.71333159  0.42666319  0.08267106  1
  Ru  Ru9  1  0.28666841  0.57333681  0.91732894  1
  Ho  Ho10  1  0.14658016  0.29316033  0.25000000  1
  Ho  Ho11  1  0.85341984  0.70683967  0.75000000  1
  Ho  Ho12  1  0.57820218  0.15640437  0.88687700  1
  Ho  Ho13  1  0.42179782  0.84359563  0.11312300  1
  Ho  Ho14  1  0.42179782  0.84359563  0.38687700  1
  Ho  Ho15  1  0.57820218  0.15640437  0.61312300  1
