# generated using pymatgen
data_Bi2(PSe3)3
_symmetry_space_group_name_H-M   'P 1'
_cell_length_a   7.63246587
_cell_length_b   9.66253957
_cell_length_c   21.77109323
_cell_angle_alpha   91.42003821
_cell_angle_beta   90.00000000
_cell_angle_gamma   90.00000000
_symmetry_Int_Tables_number   1
_chemical_formula_structural   Bi2(PSe3)3
_chemical_formula_sum   'Bi8 P12 Se36'
_cell_volume   1605.10332698
_cell_formula_units_Z   4
loop_
 _symmetry_equiv_pos_site_id
 _symmetry_equiv_pos_as_xyz
  1  'x, y, z'
loop_
 _atom_site_type_symbol
 _atom_site_label
 _atom_site_symmetry_multiplicity
 _atom_site_fract_x
 _atom_site_fract_y
 _atom_site_fract_z
 _atom_site_occupancy
  P  P0  1  0.55557355  0.02823478  0.45323101  1
  P  P1  1  0.05557355  0.47176522  0.04676899  1
  P  P2  1  0.44442645  0.97176522  0.54676899  1
  P  P3  1  0.94442645  0.52823478  0.95323101  1
  P  P4  1  0.43839691  0.06841475  0.14631625  1
  P  P5  1  0.93839691  0.43158525  0.35368375  1
  P  P6  1  0.56160309  0.93158525  0.85368375  1
  P  P7  1  0.06160309  0.56841475  0.64631625  1
  P  P8  1  0.34249591  0.06067165  0.81377862  1
  P  P9  1  0.84249591  0.43932835  0.68622138  1
  P  P10  1  0.65750409  0.93932835  0.18622138  1
  P  P11  1  0.15750409  0.56067165  0.31377862  1
  Se  Se12  1  0.75941564  0.04846491  0.26856285  1
  Se  Se13  1  0.45592284  0.26831386  0.79652822  1
  Se  Se14  1  0.04407716  0.76831386  0.29652822  1
  Se  Se15  1  0.54407716  0.73168614  0.20347178  1
  Se  Se16  1  0.64195321  0.44854031  0.61108236  1
  Se  Se17  1  0.14195321  0.05145969  0.88891764  1
  Se  Se18  1  0.35804679  0.55145969  0.38891764  1
  Se  Se19  1  0.85804679  0.94854031  0.11108236  1
  Se  Se20  1  0.26287939  0.56866229  0.71943494  1
  Se  Se21  1  0.76287939  0.93133771  0.78056506  1
  Se  Se22  1  0.73712061  0.43133771  0.28056506  1
  Se  Se23  1  0.95592284  0.23168614  0.70347178  1
  Se  Se24  1  0.94477897  0.76912129  0.62221578  1
  Se  Se25  1  0.44477897  0.73087871  0.87778422  1
  Se  Se26  1  0.05522103  0.23087871  0.37778422  1
  Se  Se27  1  0.55522103  0.26912129  0.12221578  1
  Se  Se28  1  0.15253355  0.44079535  0.56616139  1
  Se  Se29  1  0.65253355  0.05920465  0.93383861  1
  Se  Se30  1  0.84746645  0.55920465  0.43383861  1
  Se  Se31  1  0.34746645  0.94079535  0.06616139  1
  Se  Se32  1  0.91647971  0.75689094  0.95567167  1
  Se  Se33  1  0.41647971  0.74310906  0.54432833  1
  Se  Se34  1  0.08352029  0.24310906  0.04432833  1
  Se  Se35  1  0.58352029  0.25689094  0.45567167  1
  Se  Se36  1  0.12998958  0.45466741  0.88210267  1
  Se  Se37  1  0.62998958  0.04533259  0.61789733  1
  Se  Se38  1  0.87001042  0.54533259  0.11789733  1
  Se  Se39  1  0.37001042  0.95466741  0.38210267  1
  Se  Se40  1  0.68892434  0.41933776  0.94707586  1
  Se  Se41  1  0.18892434  0.08066224  0.55292414  1
  Se  Se42  1  0.31107566  0.58066224  0.05292414  1
  Se  Se43  1  0.81107566  0.91933776  0.44707586  1
  Se  Se44  1  0.24058436  0.95153509  0.73143715  1
  Se  Se45  1  0.74058436  0.54846491  0.76856285  1
  Se  Se46  1  0.23712061  0.06866229  0.21943494  1
  Se  Se47  1  0.25941564  0.45153509  0.23143715  1
  Bi  Bi48  1  0.68994391  0.74166536  0.35120867  1
  Bi  Bi49  1  0.18994391  0.75833464  0.14879133  1
  Bi  Bi50  1  0.31005609  0.25833464  0.64879133  1
  Bi  Bi51  1  0.81005609  0.24166536  0.85120867  1
  Bi  Bi52  1  0.58485215  0.73021419  0.66146201  1
  Bi  Bi53  1  0.08485215  0.76978581  0.83853799  1
  Bi  Bi54  1  0.41514785  0.26978581  0.33853799  1
  Bi  Bi55  1  0.91514785  0.23021419  0.16146201  1
