# generated using pymatgen
data_Y2AlGe3
_symmetry_space_group_name_H-M   'P 1'
_cell_length_a   4.21586996
_cell_length_b   6.84005337
_cell_length_c   17.75491945
_cell_angle_alpha   90.00000000
_cell_angle_beta   90.00000000
_cell_angle_gamma   90.00000000
_symmetry_Int_Tables_number   1
_chemical_formula_structural   Y2AlGe3
_chemical_formula_sum   'Y8 Al4 Ge12'
_cell_volume   511.99462669
_cell_formula_units_Z   4
loop_
 _symmetry_equiv_pos_site_id
 _symmetry_equiv_pos_as_xyz
  1  'x, y, z'
loop_
 _atom_site_type_symbol
 _atom_site_label
 _atom_site_symmetry_multiplicity
 _atom_site_fract_x
 _atom_site_fract_y
 _atom_site_fract_z
 _atom_site_occupancy
  Al  Al0  1  0.25000000  0.94995831  0.56422833  1
  Al  Al1  1  0.75000000  0.05004169  0.43577167  1
  Al  Al2  1  0.25000000  0.44995831  0.93577167  1
  Al  Al3  1  0.75000000  0.55004169  0.06422833  1
  Ge  Ge4  1  0.25000000  0.53657292  0.67297659  1
  Ge  Ge5  1  0.75000000  0.46342708  0.32702341  1
  Ge  Ge6  1  0.25000000  0.03657292  0.82702341  1
  Ge  Ge7  1  0.75000000  0.96342708  0.17297659  1
  Ge  Ge8  1  0.75000000  0.35513272  0.18804933  1
  Ge  Ge9  1  0.25000000  0.64486728  0.81195067  1
  Ge  Ge10  1  0.75000000  0.85513272  0.31195067  1
  Ge  Ge11  1  0.25000000  0.14486728  0.68804933  1
  Ge  Ge12  1  0.75000000  0.25005434  0.96566616  1
  Ge  Ge13  1  0.25000000  0.74994566  0.03433384  1
  Ge  Ge14  1  0.75000000  0.75005434  0.53433384  1
  Ge  Ge15  1  0.25000000  0.24994566  0.46566616  1
  Y  Y16  1  0.25000000  0.16733925  0.29605299  1
  Y  Y17  1  0.75000000  0.83266075  0.70394701  1
  Y  Y18  1  0.25000000  0.66733925  0.20394701  1
  Y  Y19  1  0.75000000  0.33266075  0.79605299  1
  Y  Y20  1  0.25000000  0.66903175  0.41461869  1
  Y  Y21  1  0.75000000  0.33096825  0.58538131  1
  Y  Y22  1  0.25000000  0.16903175  0.08538131  1
  Y  Y23  1  0.75000000  0.83096825  0.91461869  1
