# generated using pymatgen
data_Ca7Au3
_symmetry_space_group_name_H-M   'P 1'
_cell_length_a   6.72650217
_cell_length_b   18.10713986
_cell_length_c   20.81255175
_cell_angle_alpha   90.00000000
_cell_angle_beta   90.00000000
_cell_angle_gamma   90.00000000
_symmetry_Int_Tables_number   1
_chemical_formula_structural   Ca7Au3
_chemical_formula_sum   'Ca56 Au24'
_cell_volume   2534.92125814
_cell_formula_units_Z   8
loop_
 _symmetry_equiv_pos_site_id
 _symmetry_equiv_pos_as_xyz
  1  'x, y, z'
loop_
 _atom_site_type_symbol
 _atom_site_label
 _atom_site_symmetry_multiplicity
 _atom_site_fract_x
 _atom_site_fract_y
 _atom_site_fract_z
 _atom_site_occupancy
  Ca  Ca0  1  0.04326778  0.81459178  0.78317643  1
  Ca  Ca1  1  0.54326778  0.18540822  0.71682357  1
  Ca  Ca2  1  0.45673222  0.31459178  0.21682357  1
  Ca  Ca3  1  0.95673222  0.68540822  0.28317643  1
  Ca  Ca4  1  0.95673222  0.18540822  0.21682357  1
  Ca  Ca5  1  0.45673222  0.81459178  0.28317643  1
  Ca  Ca6  1  0.54326778  0.68540822  0.78317643  1
  Ca  Ca7  1  0.04326778  0.31459178  0.71682357  1
  Ca  Ca8  1  0.05224055  0.81116159  0.97003801  1
  Ca  Ca9  1  0.55224055  0.18883841  0.52996199  1
  Ca  Ca10  1  0.44775945  0.31116159  0.02996199  1
  Ca  Ca11  1  0.94775945  0.68883841  0.47003801  1
  Ca  Ca12  1  0.94775945  0.18883841  0.02996199  1
  Ca  Ca13  1  0.44775945  0.81116159  0.47003801  1
  Ca  Ca14  1  0.55224055  0.68883841  0.97003801  1
  Ca  Ca15  1  0.05224055  0.31116159  0.52996199  1
  Ca  Ca16  1  0.54468979  0.87488145  0.87509201  1
  Ca  Ca17  1  0.04468979  0.12511855  0.62490799  1
  Ca  Ca18  1  0.95531021  0.37488145  0.12490799  1
  Ca  Ca19  1  0.45531021  0.62511855  0.37509201  1
  Ca  Ca20  1  0.45531021  0.12511855  0.12490799  1
  Ca  Ca21  1  0.95531021  0.87488145  0.37509201  1
  Ca  Ca22  1  0.04468979  0.62511855  0.87509201  1
  Ca  Ca23  1  0.54468979  0.37488145  0.62490799  1
  Ca  Ca24  1  0.75183867  0.78873276  0.62610647  1
  Ca  Ca25  1  0.25183867  0.21126724  0.87389353  1
  Ca  Ca26  1  0.74816133  0.28873276  0.37389353  1
  Ca  Ca27  1  0.24816133  0.71126724  0.12610647  1
  Ca  Ca28  1  0.24816133  0.21126724  0.37389353  1
  Ca  Ca29  1  0.74816133  0.78873276  0.12610647  1
  Ca  Ca30  1  0.25183867  0.71126724  0.62610647  1
  Ca  Ca31  1  0.75183867  0.28873276  0.87389353  1
  Ca  Ca32  1  0.73018291  0.97891524  0.71730674  1
  Ca  Ca33  1  0.23018291  0.02108476  0.78269326  1
  Ca  Ca34  1  0.76981709  0.47891524  0.28269326  1
  Ca  Ca35  1  0.26981709  0.52108476  0.21730674  1
  Ca  Ca36  1  0.26981709  0.02108476  0.28269326  1
  Ca  Ca37  1  0.76981709  0.97891524  0.21730674  1
  Ca  Ca38  1  0.23018291  0.52108476  0.71730674  1
  Ca  Ca39  1  0.73018291  0.47891524  0.78269326  1
  Ca  Ca40  1  0.74913865  0.97917008  0.52793686  1
  Ca  Ca41  1  0.24913865  0.02082992  0.97206314  1
  Ca  Ca42  1  0.75086135  0.47917008  0.47206314  1
  Ca  Ca43  1  0.25086135  0.52082992  0.02793686  1
  Ca  Ca44  1  0.25086135  0.02082992  0.47206314  1
  Ca  Ca45  1  0.75086135  0.97917008  0.02793686  1
  Ca  Ca46  1  0.24913865  0.52082992  0.52793686  1
  Ca  Ca47  1  0.74913865  0.47917008  0.97206314  1
  Ca  Ca48  1  0.24557338  0.91715755  0.62702681  1
  Ca  Ca49  1  0.74557338  0.08284245  0.87297319  1
  Ca  Ca50  1  0.25442662  0.41715755  0.37297319  1
  Ca  Ca51  1  0.75442662  0.58284245  0.12702681  1
  Ca  Ca52  1  0.75442662  0.08284245  0.37297319  1
  Ca  Ca53  1  0.25442662  0.91715755  0.12702681  1
  Ca  Ca54  1  0.74557338  0.58284245  0.62702681  1
  Ca  Ca55  1  0.24557338  0.41715755  0.87297319  1
  Au  Au56  1  0.96713812  0.93973339  0.88069388  1
  Au  Au57  1  0.46713812  0.06026661  0.61930612  1
  Au  Au58  1  0.53286188  0.43973339  0.11930612  1
  Au  Au59  1  0.03286188  0.56026661  0.38069388  1
  Au  Au60  1  0.03286188  0.06026661  0.11930612  1
  Au  Au61  1  0.53286188  0.93973339  0.38069388  1
  Au  Au62  1  0.46713812  0.56026661  0.88069388  1
  Au  Au63  1  0.96713812  0.43973339  0.61930612  1
  Au  Au64  1  0.46896091  0.84084223  0.73225797  1
  Au  Au65  1  0.96896091  0.15915777  0.76774203  1
  Au  Au66  1  0.03103909  0.34084223  0.26774203  1
  Au  Au67  1  0.53103909  0.65915777  0.23225797  1
  Au  Au68  1  0.53103909  0.15915777  0.26774203  1
  Au  Au69  1  0.03103909  0.84084223  0.23225797  1
  Au  Au70  1  0.96896091  0.65915777  0.73225797  1
  Au  Au71  1  0.46896091  0.34084223  0.76774203  1
  Au  Au72  1  0.02786634  0.84527273  0.51920894  1
  Au  Au73  1  0.52786634  0.15472727  0.98079106  1
  Au  Au74  1  0.47213366  0.34527273  0.48079106  1
  Au  Au75  1  0.97213366  0.65472727  0.01920894  1
  Au  Au76  1  0.97213366  0.15472727  0.48079106  1
  Au  Au77  1  0.47213366  0.84527273  0.01920894  1
  Au  Au78  1  0.52786634  0.65472727  0.51920894  1
  Au  Au79  1  0.02786634  0.34527273  0.98079106  1
