# generated using pymatgen
data_Bi4O7
_symmetry_space_group_name_H-M   'P 1'
_cell_length_a   6.82618036
_cell_length_b   7.00339079
_cell_length_c   7.90972306
_cell_angle_alpha   73.04996978
_cell_angle_beta   89.18062368
_cell_angle_gamma   78.01678307
_symmetry_Int_Tables_number   1
_chemical_formula_structural   Bi4O7
_chemical_formula_sum   'Bi8 O14'
_cell_volume   353.39471151
_cell_formula_units_Z   2
loop_
 _symmetry_equiv_pos_site_id
 _symmetry_equiv_pos_as_xyz
  1  'x, y, z'
loop_
 _atom_site_type_symbol
 _atom_site_label
 _atom_site_symmetry_multiplicity
 _atom_site_fract_x
 _atom_site_fract_y
 _atom_site_fract_z
 _atom_site_occupancy
  O  O0  1  0.53150110  0.62957232  0.81529059  1
  O  O1  1  0.46849890  0.37042768  0.18470941  1
  O  O2  1  0.71029782  0.94263865  0.05881256  1
  O  O3  1  0.28970218  0.05736135  0.94118744  1
  O  O4  1  0.71301800  0.92443077  0.48206387  1
  O  O5  1  0.28698200  0.07556923  0.51793613  1
  O  O6  1  0.46846894  0.34544023  0.63732941  1
  O  O7  1  0.53153106  0.65455977  0.36267059  1
  O  O8  1  0.09714042  0.67765989  0.03784312  1
  O  O9  1  0.90285958  0.32234011  0.96215688  1
  O  O10  1  0.89630569  0.32201505  0.37338591  1
  O  O11  1  0.10369431  0.67798495  0.62661409  1
  O  O12  1  0.11634629  0.91050065  0.27303038  1
  O  O13  1  0.88365371  0.08949935  0.72696962  1
  Bi  Bi14  1  0.00000000  0.00000000  0.50000000  1
  Bi  Bi15  1  0.52189168  0.99668401  0.74252411  1
  Bi  Bi16  1  0.47810832  0.00331599  0.25747589  1
  Bi  Bi17  1  0.00000000  0.00000000  0.00000000  1
  Bi  Bi18  1  0.73577158  0.51535813  0.11979097  1
  Bi  Bi19  1  0.26422842  0.48464187  0.88020903  1
  Bi  Bi20  1  0.27211823  0.51010068  0.37671857  1
  Bi  Bi21  1  0.72788177  0.48989932  0.62328143  1
