# generated using pymatgen
data_SrAu
_symmetry_space_group_name_H-M   'P 1'
_cell_length_a   4.81941638
_cell_length_b   6.23321280
_cell_length_c   40.42674498
_cell_angle_alpha   94.21388105
_cell_angle_beta   90.00000000
_cell_angle_gamma   90.00000000
_symmetry_Int_Tables_number   1
_chemical_formula_structural   SrAu
_chemical_formula_sum   'Sr20 Au20'
_cell_volume   1211.15454074
_cell_formula_units_Z   20
loop_
 _symmetry_equiv_pos_site_id
 _symmetry_equiv_pos_as_xyz
  1  'x, y, z'
loop_
 _atom_site_type_symbol
 _atom_site_label
 _atom_site_symmetry_multiplicity
 _atom_site_fract_x
 _atom_site_fract_y
 _atom_site_fract_z
 _atom_site_occupancy
  Sr  Sr0  1  0.75000000  0.05815534  0.08642444  1
  Sr  Sr1  1  0.25000000  0.94184466  0.91357556  1
  Sr  Sr2  1  0.75000000  0.34054716  0.18631581  1
  Sr  Sr3  1  0.25000000  0.65945284  0.81368419  1
  Sr  Sr4  1  0.75000000  0.15719484  0.28656331  1
  Sr  Sr5  1  0.25000000  0.84280516  0.71343669  1
  Sr  Sr6  1  0.75000000  0.96426980  0.38635335  1
  Sr  Sr7  1  0.25000000  0.03573020  0.61364665  1
  Sr  Sr8  1  0.75000000  0.23722313  0.48635887  1
  Sr  Sr9  1  0.25000000  0.76277687  0.51364113  1
  Sr  Sr10  1  0.75000000  0.52189411  0.58608498  1
  Sr  Sr11  1  0.25000000  0.47810589  0.41391502  1
  Sr  Sr12  1  0.75000000  0.34498774  0.68600205  1
  Sr  Sr13  1  0.25000000  0.65501226  0.31399795  1
  Sr  Sr14  1  0.75000000  0.14675555  0.78605472  1
  Sr  Sr15  1  0.25000000  0.85324445  0.21394528  1
  Sr  Sr16  1  0.75000000  0.42627819  0.88607708  1
  Sr  Sr17  1  0.25000000  0.57372181  0.11392292  1
  Sr  Sr18  1  0.75000000  0.25075651  0.98625758  1
  Sr  Sr19  1  0.25000000  0.74924349  0.01374242  1
  Au  Au20  1  0.75000000  0.54412149  0.05795883  1
  Au  Au21  1  0.25000000  0.45587851  0.94204117  1
  Au  Au22  1  0.75000000  0.82641670  0.15822456  1
  Au  Au23  1  0.25000000  0.17358330  0.84177544  1
  Au  Au24  1  0.75000000  0.64447736  0.25817001  1
  Au  Au25  1  0.25000000  0.35552264  0.74182999  1
  Au  Au26  1  0.75000000  0.45067127  0.35824806  1
  Au  Au27  1  0.25000000  0.54932873  0.64175194  1
  Au  Au28  1  0.75000000  0.72529852  0.45792052  1
  Au  Au29  1  0.25000000  0.27470148  0.54207948  1
  Au  Au30  1  0.75000000  0.00746568  0.55782675  1
  Au  Au31  1  0.25000000  0.99253432  0.44217325  1
  Au  Au32  1  0.75000000  0.83115208  0.65755070  1
  Au  Au33  1  0.25000000  0.16884792  0.34244930  1
  Au  Au34  1  0.75000000  0.63535993  0.75759597  1
  Au  Au35  1  0.25000000  0.36464007  0.24240403  1
  Au  Au36  1  0.75000000  0.91054063  0.85764833  1
  Au  Au37  1  0.25000000  0.08945937  0.14235167  1
  Au  Au38  1  0.75000000  0.73763377  0.95787766  1
  Au  Au39  1  0.25000000  0.26236623  0.04212234  1
