# generated using pymatgen
data_Na3As7
_symmetry_space_group_name_H-M   'P 1'
_cell_length_a   11.08950709
_cell_length_b   14.47755301
_cell_length_c   15.79946235
_cell_angle_alpha   115.83435828
_cell_angle_beta   90.00000000
_cell_angle_gamma   90.00000000
_symmetry_Int_Tables_number   1
_chemical_formula_structural   Na3As7
_chemical_formula_sum   'Na24 As56'
_cell_volume   2283.07420182
_cell_formula_units_Z   8
loop_
 _symmetry_equiv_pos_site_id
 _symmetry_equiv_pos_as_xyz
  1  'x, y, z'
loop_
 _atom_site_type_symbol
 _atom_site_label
 _atom_site_symmetry_multiplicity
 _atom_site_fract_x
 _atom_site_fract_y
 _atom_site_fract_z
 _atom_site_occupancy
  Na  Na0  1  0.70671977  0.56897359  0.71498918  1
  Na  Na1  1  0.20671977  0.93102641  0.28501082  1
  Na  Na2  1  0.29328023  0.43102641  0.28501082  1
  Na  Na3  1  0.79328023  0.06897359  0.71498918  1
  Na  Na4  1  0.19937348  0.34832885  0.79013780  1
  Na  Na5  1  0.69937348  0.15167115  0.20986220  1
  Na  Na6  1  0.80062652  0.65167115  0.20986220  1
  Na  Na7  1  0.30062652  0.84832885  0.79013780  1
  Na  Na8  1  0.55871286  0.36774875  0.06840013  1
  Na  Na9  1  0.05871286  0.13225125  0.93159987  1
  Na  Na10  1  0.44128714  0.63225125  0.93159987  1
  Na  Na11  1  0.94128714  0.86774875  0.06840013  1
  Na  Na12  1  0.56547821  0.69668222  0.56151496  1
  Na  Na13  1  0.06547821  0.80331778  0.43848504  1
  Na  Na14  1  0.43452179  0.30331778  0.43848504  1
  Na  Na15  1  0.93452179  0.19668222  0.56151496  1
  Na  Na16  1  0.54264309  0.01871802  0.89740756  1
  Na  Na17  1  0.04264309  0.48128198  0.10259244  1
  Na  Na18  1  0.45735691  0.98128198  0.10259244  1
  Na  Na19  1  0.95735691  0.51871802  0.89740756  1
  Na  Na20  1  0.46193286  0.12620402  0.60158470  1
  Na  Na21  1  0.96193286  0.37379598  0.39841530  1
  Na  Na22  1  0.53806714  0.87379598  0.39841530  1
  Na  Na23  1  0.03806714  0.62620402  0.60158470  1
  As  As24  1  0.33936065  0.31982423  0.62116578  1
  As  As25  1  0.77961666  0.54069024  0.51589941  1
  As  As26  1  0.72038334  0.04069024  0.51589941  1
  As  As27  1  0.22038334  0.45930976  0.48410059  1
  As  As28  1  0.65439670  0.79195450  0.94176123  1
  As  As29  1  0.15439670  0.70804550  0.05823877  1
  As  As30  1  0.34560330  0.20804550  0.05823877  1
  As  As31  1  0.84560330  0.29195450  0.94176123  1
  As  As32  1  0.92900125  0.79404478  0.80633396  1
  As  As33  1  0.42900125  0.70595522  0.19366604  1
  As  As34  1  0.07099875  0.20595522  0.19366604  1
  As  As35  1  0.57099875  0.29404478  0.80633396  1
  As  As36  1  0.74720288  0.84944604  0.74183305  1
  As  As37  1  0.24720288  0.65055396  0.25816695  1
  As  As38  1  0.25279712  0.15055396  0.25816695  1
  As  As39  1  0.75279712  0.34944604  0.74183305  1
  As  As40  1  0.27961666  0.95930976  0.48410059  1
  As  As41  1  0.34740373  0.52535337  0.10698926  1
  As  As42  1  0.15259627  0.02535337  0.10698926  1
  As  As43  1  0.65259627  0.47464663  0.89301074  1
  As  As44  1  0.84483232  0.70196871  0.88719866  1
  As  As45  1  0.34483232  0.79803129  0.11280134  1
  As  As46  1  0.15516768  0.29803129  0.11280134  1
  As  As47  1  0.65516768  0.20196871  0.88719866  1
  As  As48  1  0.57557247  0.78524017  0.79355339  1
  As  As49  1  0.07557247  0.71475983  0.20644661  1
  As  As50  1  0.42442753  0.21475983  0.20644661  1
  As  As51  1  0.92442753  0.28524017  0.79355339  1
  As  As52  1  0.72782339  0.96998419  0.01822720  1
  As  As53  1  0.22782339  0.53001581  0.98177280  1
  As  As54  1  0.27217661  0.03001581  0.98177280  1
  As  As55  1  0.77217661  0.46998419  0.01822720  1
  As  As56  1  0.08428443  0.51186867  0.71820937  1
  As  As57  1  0.58428443  0.98813133  0.28179063  1
  As  As58  1  0.91571557  0.48813133  0.28179063  1
  As  As59  1  0.41571557  0.01186867  0.71820937  1
  As  As60  1  0.84740373  0.97464663  0.89301074  1
  As  As61  1  0.83936065  0.18017577  0.37883422  1
  As  As62  1  0.66063935  0.68017577  0.37883422  1
  As  As63  1  0.16063935  0.81982423  0.62116578  1
  As  As64  1  0.35570186  0.57807033  0.59821904  1
  As  As65  1  0.85570186  0.92192967  0.40178096  1
  As  As66  1  0.64429814  0.42192967  0.40178096  1
  As  As67  1  0.14429814  0.07807033  0.59821904  1
  As  As68  1  0.26517458  0.61311512  0.75661678  1
  As  As69  1  0.76517458  0.88688488  0.24338322  1
  As  As70  1  0.73482542  0.38688488  0.24338322  1
  As  As71  1  0.23482542  0.11311512  0.75661678  1
  As  As72  1  0.43653335  0.48421794  0.68887086  1
  As  As73  1  0.93653335  0.01578206  0.31112914  1
  As  As74  1  0.56346665  0.51578206  0.31112914  1
  As  As75  1  0.06346665  0.98421794  0.68887086  1
  As  As76  1  0.14827038  0.36594210  0.57262649  1
  As  As77  1  0.64827038  0.13405790  0.42737351  1
  As  As78  1  0.85172962  0.63405790  0.42737351  1
  As  As79  1  0.35172962  0.86594210  0.57262649  1
