# generated using pymatgen
data_Nd4Se3N2
_symmetry_space_group_name_H-M   'P 1'
_cell_length_a   6.49910541
_cell_length_b   8.34158675
_cell_length_c   8.34158675
_cell_angle_alpha   75.63168891
_cell_angle_beta   89.84024033
_cell_angle_gamma   89.84024040
_symmetry_Int_Tables_number   1
_chemical_formula_structural   Nd4Se3N2
_chemical_formula_sum   'Nd8 Se6 N4'
_cell_volume   438.07324855
_cell_formula_units_Z   2
loop_
 _symmetry_equiv_pos_site_id
 _symmetry_equiv_pos_as_xyz
  1  'x, y, z'
loop_
 _atom_site_type_symbol
 _atom_site_label
 _atom_site_symmetry_multiplicity
 _atom_site_fract_x
 _atom_site_fract_y
 _atom_site_fract_z
 _atom_site_occupancy
  N  N0  1  0.58523313  0.91816837  0.67057561  1
  N  N1  1  0.08523313  0.67057561  0.91816837  1
  N  N2  1  0.41476687  0.08183163  0.32942439  1
  N  N3  1  0.91476687  0.32942439  0.08183163  1
  Se  Se4  1  0.96468226  0.25353050  0.51602785  1
  Se  Se5  1  0.75000000  0.90337188  0.09662812  1
  Se  Se6  1  0.53531774  0.48397215  0.74646950  1
  Se  Se7  1  0.03531774  0.74646950  0.48397215  1
  Se  Se8  1  0.25000000  0.09662812  0.90337188  1
  Se  Se9  1  0.46468226  0.51602785  0.25353050  1
  Nd  Nd10  1  0.42783596  0.75538891  0.91439342  1
  Nd  Nd11  1  0.07216404  0.08560658  0.24461109  1
  Nd  Nd12  1  0.57216404  0.24461109  0.08560658  1
  Nd  Nd13  1  0.92783596  0.91439342  0.75538891  1
  Nd  Nd14  1  0.47011583  0.18942149  0.55708215  1
  Nd  Nd15  1  0.02988417  0.44291785  0.81057851  1
  Nd  Nd16  1  0.52988417  0.81057851  0.44291785  1
  Nd  Nd17  1  0.97011583  0.55708215  0.18942149  1
