# generated using pymatgen
data_Cr3WO8
_symmetry_space_group_name_H-M   'P 1'
_cell_length_a   5.99019214
_cell_length_b   5.98998066
_cell_length_c   9.18750275
_cell_angle_alpha   89.99403172
_cell_angle_beta   90.00055905
_cell_angle_gamma   119.99994784
_symmetry_Int_Tables_number   1
_chemical_formula_structural   Cr3WO8
_chemical_formula_sum   'Cr6 W2 O16'
_cell_volume   285.49237415
_cell_formula_units_Z   2
loop_
 _symmetry_equiv_pos_site_id
 _symmetry_equiv_pos_as_xyz
  1  'x, y, z'
loop_
 _atom_site_type_symbol
 _atom_site_label
 _atom_site_symmetry_multiplicity
 _atom_site_fract_x
 _atom_site_fract_y
 _atom_site_fract_z
 _atom_site_occupancy
  Cr  Cr0  1  0.17039137  0.82961513  0.21406589  1
  Cr  Cr1  1  0.17039577  0.34078730  0.21408240  1
  Cr  Cr2  1  0.65921236  0.82960691  0.21407665  1
  Cr  Cr3  1  0.34079264  0.17038624  0.71409680  1
  Cr  Cr4  1  0.82961817  0.65925459  0.71401596  1
  Cr  Cr5  1  0.82958744  0.17038022  0.71408845  1
  W  W6  1  0.33333801  0.66669421  0.49370215  1
  W  W7  1  0.66668802  0.33338521  0.99369787  1
  O  O8  1  0.17457308  0.82546902  0.59638785  1
  O  O9  1  0.04823557  0.52410175  0.34286689  1
  O  O10  1  0.33334888  0.66668033  0.10864506  1
  O  O11  1  0.99998703  0.99997853  0.29555605  1
  O  O12  1  0.00001601  0.00003402  0.79554777  1
  O  O13  1  0.17456481  0.34914300  0.59641112  1
  O  O14  1  0.47588663  0.95178227  0.34283623  1
  O  O15  1  0.47586411  0.52409004  0.34287245  1
  O  O16  1  0.34913632  0.17458588  0.09639530  1
  O  O17  1  0.65087172  0.82546766  0.59638933  1
  O  O18  1  0.52412155  0.47589319  0.84283486  1
  O  O19  1  0.52410934  0.04821186  0.84287758  1
  O  O20  1  0.66662966  0.33328443  0.60863548  1
  O  O21  1  0.82544430  0.65089683  0.09639729  1
  O  O22  1  0.95175213  0.47588285  0.84283829  1
  O  O23  1  0.82543810  0.17458653  0.09640227  1
