# generated using pymatgen
data_Ca3(Bi2Pd)4
_symmetry_space_group_name_H-M   'P 1'
_cell_length_a   4.23945702
_cell_length_b   10.96984472
_cell_length_c   17.22676654
_cell_angle_alpha   90.00000000
_cell_angle_beta   90.00000000
_cell_angle_gamma   90.00000000
_symmetry_Int_Tables_number   1
_chemical_formula_structural   Ca3(Bi2Pd)4
_chemical_formula_sum   'Ca6 Bi16 Pd8'
_cell_volume   801.15119522
_cell_formula_units_Z   2
loop_
 _symmetry_equiv_pos_site_id
 _symmetry_equiv_pos_as_xyz
  1  'x, y, z'
loop_
 _atom_site_type_symbol
 _atom_site_label
 _atom_site_symmetry_multiplicity
 _atom_site_fract_x
 _atom_site_fract_y
 _atom_site_fract_z
 _atom_site_occupancy
  Ca  Ca0  1  0.50000000  0.00000000  0.50000000  1
  Ca  Ca1  1  0.50000000  0.50000000  0.00000000  1
  Ca  Ca2  1  0.50000000  0.85823095  0.19891172  1
  Ca  Ca3  1  0.50000000  0.14176905  0.80108828  1
  Ca  Ca4  1  0.50000000  0.35823095  0.30108828  1
  Ca  Ca5  1  0.50000000  0.64176905  0.69891172  1
  Pd  Pd6  1  0.00000000  0.95357501  0.07812457  1
  Pd  Pd7  1  0.00000000  0.04642499  0.92187543  1
  Pd  Pd8  1  0.00000000  0.45357501  0.42187543  1
  Pd  Pd9  1  0.00000000  0.54642499  0.57812457  1
  Pd  Pd10  1  0.50000000  0.56992746  0.17549722  1
  Pd  Pd11  1  0.50000000  0.43007254  0.82450278  1
  Pd  Pd12  1  0.50000000  0.06992746  0.32450278  1
  Pd  Pd13  1  0.50000000  0.93007254  0.67549722  1
  Bi  Bi14  1  0.00000000  0.11016845  0.21350818  1
  Bi  Bi15  1  0.00000000  0.88983155  0.78649182  1
  Bi  Bi16  1  0.00000000  0.61016845  0.28649182  1
  Bi  Bi17  1  0.00000000  0.38983155  0.71350818  1
  Bi  Bi18  1  0.00000000  0.39317747  0.14252803  1
  Bi  Bi19  1  0.00000000  0.60682253  0.85747197  1
  Bi  Bi20  1  0.00000000  0.89317747  0.35747197  1
  Bi  Bi21  1  0.00000000  0.10682253  0.64252803  1
  Bi  Bi22  1  0.50000000  0.12966034  0.03877794  1
  Bi  Bi23  1  0.50000000  0.87033966  0.96122206  1
  Bi  Bi24  1  0.50000000  0.62966034  0.46122206  1
  Bi  Bi25  1  0.50000000  0.37033966  0.53877794  1
  Bi  Bi26  1  0.00000000  0.69545650  0.08566815  1
  Bi  Bi27  1  0.00000000  0.30454350  0.91433185  1
  Bi  Bi28  1  0.00000000  0.19545650  0.41433185  1
  Bi  Bi29  1  0.00000000  0.80454350  0.58566815  1
