# generated using pymatgen
data_Tb5C2Br9
_symmetry_space_group_name_H-M   'P 1'
_cell_length_a   10.23896186
_cell_length_b   11.96508982
_cell_length_c   16.67085572
_cell_angle_alpha   90.00000000
_cell_angle_beta   90.00000000
_cell_angle_gamma   105.02288739
_symmetry_Int_Tables_number   1
_chemical_formula_structural   Tb5C2Br9
_chemical_formula_sum   'Tb20 C8 Br36'
_cell_volume   1972.54553583
_cell_formula_units_Z   4
loop_
 _symmetry_equiv_pos_site_id
 _symmetry_equiv_pos_as_xyz
  1  'x, y, z'
loop_
 _atom_site_type_symbol
 _atom_site_label
 _atom_site_symmetry_multiplicity
 _atom_site_fract_x
 _atom_site_fract_y
 _atom_site_fract_z
 _atom_site_occupancy
  C  C0  1  0.09591775  0.66944347  0.03097189  1
  C  C1  1  0.40408225  0.83055653  0.53097189  1
  C  C2  1  0.90408225  0.33055653  0.96902811  1
  C  C3  1  0.59591775  0.16944347  0.46902811  1
  C  C4  1  0.99203093  0.62047862  0.08798633  1
  C  C5  1  0.50796907  0.87952138  0.58798633  1
  C  C6  1  0.00796907  0.37952138  0.91201367  1
  C  C7  1  0.49203093  0.12047862  0.41201367  1
  Br  Br8  1  0.77198000  0.73543245  0.93711220  1
  Br  Br9  1  0.72802000  0.76456755  0.43711220  1
  Br  Br10  1  0.22802000  0.26456755  0.06288780  1
  Br  Br11  1  0.27198000  0.23543245  0.56288780  1
  Br  Br12  1  0.35484864  0.55835928  0.93189233  1
  Br  Br13  1  0.14515136  0.94164072  0.43189233  1
  Br  Br14  1  0.64515136  0.44164072  0.06810767  1
  Br  Br15  1  0.85484864  0.05835928  0.56810767  1
  Br  Br16  1  0.09138819  0.67017503  0.80136308  1
  Br  Br17  1  0.40861181  0.82982497  0.30136308  1
  Br  Br18  1  0.90861181  0.32982497  0.19863692  1
  Br  Br19  1  0.59138819  0.17017503  0.69863692  1
  Br  Br20  1  0.13509416  0.93755579  0.18246613  1
  Br  Br21  1  0.36490584  0.56244421  0.68246613  1
  Br  Br22  1  0.86490584  0.06244421  0.81753387  1
  Br  Br23  1  0.63509416  0.43755579  0.31753387  1
  Br  Br24  1  0.04349725  0.64172630  0.30641631  1
  Br  Br25  1  0.45650275  0.85827370  0.80641631  1
  Br  Br26  1  0.95650275  0.35827370  0.69358369  1
  Br  Br27  1  0.54349725  0.14172630  0.19358369  1
  Br  Br28  1  0.74879980  0.75276544  0.17871701  1
  Br  Br29  1  0.75120020  0.74723456  0.67871701  1
  Br  Br30  1  0.25120020  0.24723456  0.82128299  1
  Br  Br31  1  0.24879980  0.25276544  0.32128299  1
  Br  Br32  1  0.43431674  0.84548809  0.06818857  1
  Br  Br33  1  0.06568326  0.65451191  0.56818857  1
  Br  Br34  1  0.56568326  0.15451191  0.93181143  1
  Br  Br35  1  0.93431674  0.34548809  0.43181143  1
  Br  Br36  1  0.13996165  0.95864534  0.94258435  1
  Br  Br37  1  0.36003835  0.54135466  0.44258435  1
  Br  Br38  1  0.86003835  0.04135466  0.05741565  1
  Br  Br39  1  0.63996165  0.45864534  0.55741565  1
  Br  Br40  1  0.31170520  0.53196251  0.17244813  1
  Br  Br41  1  0.18829480  0.96803749  0.67244813  1
  Br  Br42  1  0.68829480  0.46803749  0.82755187  1
  Br  Br43  1  0.81170520  0.03196251  0.32755187  1
  Tb  Tb44  1  0.84235025  0.55597437  0.18563199  1
  Tb  Tb45  1  0.65764975  0.94402563  0.68563199  1
  Tb  Tb46  1  0.15764975  0.44402563  0.81436801  1
  Tb  Tb47  1  0.34235025  0.05597437  0.31436801  1
  Tb  Tb48  1  0.25419322  0.76284972  0.94495247  1
  Tb  Tb49  1  0.24580678  0.73715028  0.44495247  1
  Tb  Tb50  1  0.74580678  0.23715028  0.05504753  1
  Tb  Tb51  1  0.75419322  0.26284972  0.55504753  1
  Tb  Tb52  1  0.20846798  0.72135049  0.16227661  1
  Tb  Tb53  1  0.29153202  0.77864951  0.66227661  1
  Tb  Tb54  1  0.79153202  0.27864951  0.83772339  1
  Tb  Tb55  1  0.70846798  0.22135049  0.33772339  1
  Tb  Tb56  1  0.95450816  0.81285164  0.05820154  1
  Tb  Tb57  1  0.54549184  0.68714836  0.55820154  1
  Tb  Tb58  1  0.04549184  0.18714836  0.94179846  1
  Tb  Tb59  1  0.45450816  0.31285164  0.44179846  1
  Tb  Tb60  1  0.87359990  0.53449076  0.96009975  1
  Tb  Tb61  1  0.62640010  0.96550924  0.46009975  1
  Tb  Tb62  1  0.12640010  0.46550924  0.03990025  1
  Tb  Tb63  1  0.37359990  0.03449076  0.53990025  1
