# generated using pymatgen
data_Sr3Au2
_symmetry_space_group_name_H-M   'P 1'
_cell_length_a   8.37739862
_cell_length_b   8.37739862
_cell_length_c   8.37739862
_cell_angle_alpha   71.28445249
_cell_angle_beta   71.28445248
_cell_angle_gamma   71.28445246
_symmetry_Int_Tables_number   1
_chemical_formula_structural   Sr3Au2
_chemical_formula_sum   'Sr9 Au6'
_cell_volume   511.60248348
_cell_formula_units_Z   3
loop_
 _symmetry_equiv_pos_site_id
 _symmetry_equiv_pos_as_xyz
  1  'x, y, z'
loop_
 _atom_site_type_symbol
 _atom_site_label
 _atom_site_symmetry_multiplicity
 _atom_site_fract_x
 _atom_site_fract_y
 _atom_site_fract_z
 _atom_site_occupancy
  Sr  Sr0  1  0.16862406  0.89353887  0.65811745  1
  Sr  Sr1  1  0.89353887  0.65811745  0.16862406  1
  Sr  Sr2  1  0.65811745  0.16862406  0.89353887  1
  Sr  Sr3  1  0.83137594  0.10646113  0.34188255  1
  Sr  Sr4  1  0.10646113  0.34188255  0.83137594  1
  Sr  Sr5  1  0.34188255  0.83137594  0.10646113  1
  Sr  Sr6  1  0.50000000  0.50000000  0.50000000  1
  Sr  Sr7  1  0.29803680  0.29803680  0.29803680  1
  Sr  Sr8  1  0.70196320  0.70196320  0.70196320  1
  Au  Au9  1  0.54373377  0.90799209  0.34633943  1
  Au  Au10  1  0.90799209  0.34633943  0.54373377  1
  Au  Au11  1  0.34633943  0.54373377  0.90799209  1
  Au  Au12  1  0.45626623  0.09200791  0.65366057  1
  Au  Au13  1  0.09200791  0.65366057  0.45626623  1
  Au  Au14  1  0.65366057  0.45626623  0.09200791  1
