# generated using pymatgen
data_HoCu2
_symmetry_space_group_name_H-M   'P 1'
_cell_length_a   4.30478152
_cell_length_b   5.43726992
_cell_length_c   5.43726992
_cell_angle_alpha   77.67576911
_cell_angle_beta   66.68045845
_cell_angle_gamma   66.68045845
_symmetry_Int_Tables_number   1
_chemical_formula_structural   HoCu2
_chemical_formula_sum   'Ho2 Cu4'
_cell_volume   107.07981599
_cell_formula_units_Z   2
loop_
 _symmetry_equiv_pos_site_id
 _symmetry_equiv_pos_as_xyz
  1  'x, y, z'
loop_
 _atom_site_type_symbol
 _atom_site_label
 _atom_site_symmetry_multiplicity
 _atom_site_fract_x
 _atom_site_fract_y
 _atom_site_fract_z
 _atom_site_occupancy
  Ho  Ho0  1  0.54435841  0.70564159  0.20564159  1
  Ho  Ho1  1  0.45564159  0.29435841  0.79435841  1
  Cu  Cu2  1  0.16367438  0.28190028  0.39075095  1
  Cu  Cu3  1  0.83632562  0.71809972  0.60924905  1
  Cu  Cu4  1  0.83632562  0.10924905  0.21809972  1
  Cu  Cu5  1  0.16367438  0.89075095  0.78190028  1
