# generated using pymatgen
data_In5S5Cl
_symmetry_space_group_name_H-M   'P 1'
_cell_length_a   3.97971783
_cell_length_b   9.07290705
_cell_length_c   15.32109618
_cell_angle_alpha   93.97249933
_cell_angle_beta   90.00000000
_cell_angle_gamma   90.00000000
_symmetry_Int_Tables_number   1
_chemical_formula_structural   In5S5Cl
_chemical_formula_sum   'In10 S10 Cl2'
_cell_volume   551.87903630
_cell_formula_units_Z   2
loop_
 _symmetry_equiv_pos_site_id
 _symmetry_equiv_pos_as_xyz
  1  'x, y, z'
loop_
 _atom_site_type_symbol
 _atom_site_label
 _atom_site_symmetry_multiplicity
 _atom_site_fract_x
 _atom_site_fract_y
 _atom_site_fract_z
 _atom_site_occupancy
  In  In0  1  0.25000000  0.34252290  0.55371244  1
  In  In1  1  0.75000000  0.65747710  0.44628756  1
  In  In2  1  0.25000000  0.86584174  0.93664980  1
  In  In3  1  0.75000000  0.13415826  0.06335020  1
  In  In4  1  0.75000000  0.04441963  0.64349096  1
  In  In5  1  0.25000000  0.95558037  0.35650904  1
  In  In6  1  0.75000000  0.76321307  0.70868210  1
  In  In7  1  0.25000000  0.23678693  0.29131790  1
  In  In8  1  0.75000000  0.37902044  0.84329285  1
  In  In9  1  0.25000000  0.62097956  0.15670715  1
  Cl  Cl10  1  0.75000000  0.67259877  0.99452902  1
  Cl  Cl11  1  0.25000000  0.32740123  0.00547098  1
  S  S12  1  0.75000000  0.53394582  0.59923009  1
  S  S13  1  0.25000000  0.46605418  0.40076991  1
  S  S14  1  0.75000000  0.16666689  0.49912314  1
  S  S15  1  0.25000000  0.83333311  0.50087686  1
  S  S16  1  0.25000000  0.68212462  0.80076701  1
  S  S17  1  0.75000000  0.31787538  0.19923299  1
  S  S18  1  0.75000000  0.03364668  0.90001518  1
  S  S19  1  0.25000000  0.96635332  0.09998482  1
  S  S20  1  0.25000000  0.20899159  0.70162753  1
  S  S21  1  0.75000000  0.79100841  0.29837247  1
