# generated using pymatgen
data_Li3NbV2O6
_symmetry_space_group_name_H-M   'P 1'
_cell_length_a   15.99944032
_cell_length_b   10.24636434
_cell_length_c   10.24636445
_cell_angle_alpha   16.46656454
_cell_angle_beta   16.40879846
_cell_angle_gamma   16.40879462
_symmetry_Int_Tables_number   1
_chemical_formula_structural   Li3NbV2O6
_chemical_formula_sum   'Li3 Nb1 V2 O6'
_cell_volume   117.14644810
_cell_formula_units_Z   1
loop_
 _symmetry_equiv_pos_site_id
 _symmetry_equiv_pos_as_xyz
  1  'x, y, z'
loop_
 _atom_site_type_symbol
 _atom_site_label
 _atom_site_symmetry_multiplicity
 _atom_site_fract_x
 _atom_site_fract_y
 _atom_site_fract_z
 _atom_site_occupancy
  Li  Li0  1  0.16666700  0.50000000  0.50000000  1
  Li  Li1  1  0.50815972  0.48845117  0.48845117  1
  Li  Li2  1  0.82517328  0.51154883  0.51154883  1
  Nb  Nb3  1  0.66666700  0.00000000  0.00000000  1
  V  V4  1  0.00388229  0.99821102  0.99821102  1
  V  V5  1  0.32945071  0.00178898  0.00178898  1
  O  O6  1  0.25703678  0.24819078  0.24819078  1
  O  O7  1  0.58067211  0.25822860  0.25822860  1
  O  O8  1  0.07629622  0.75180922  0.75180922  1
  O  O9  1  0.91774809  0.24750599  0.24750599  1
  O  O10  1  0.41558491  0.75249401  0.75249401  1
  O  O11  1  0.75266089  0.74177140  0.74177140  1
