# generated using pymatgen
data_Cd3Au
_symmetry_space_group_name_H-M   'P 1'
_cell_length_a   8.31576698
_cell_length_b   8.31576698
_cell_length_c   8.76155899
_cell_angle_alpha   90.00000000
_cell_angle_beta   90.00000000
_cell_angle_gamma   119.99999999
_symmetry_Int_Tables_number   1
_chemical_formula_structural   Cd3Au
_chemical_formula_sum   'Cd18 Au6'
_cell_volume   524.70674107
_cell_formula_units_Z   6
loop_
 _symmetry_equiv_pos_site_id
 _symmetry_equiv_pos_as_xyz
  1  'x, y, z'
loop_
 _atom_site_type_symbol
 _atom_site_label
 _atom_site_symmetry_multiplicity
 _atom_site_fract_x
 _atom_site_fract_y
 _atom_site_fract_z
 _atom_site_occupancy
  Cd  Cd0  1  0.63238468  0.00000000  0.92158572  1
  Cd  Cd1  1  0.63238468  0.63238468  0.42158572  1
  Cd  Cd2  1  0.00000000  0.36761532  0.42158572  1
  Cd  Cd3  1  0.00000000  0.63238468  0.92158572  1
  Cd  Cd4  1  0.36761532  0.36761532  0.92158572  1
  Cd  Cd5  1  0.36761532  0.00000000  0.42158572  1
  Cd  Cd6  1  0.00000000  0.00000000  0.32754208  1
  Cd  Cd7  1  0.00000000  0.00000000  0.82754208  1
  Cd  Cd8  1  0.33333333  0.66666667  0.20500832  1
  Cd  Cd9  1  0.66666667  0.33333333  0.70500832  1
  Cd  Cd10  1  0.33333333  0.66666667  0.70500832  1
  Cd  Cd11  1  0.66666667  0.33333333  0.20500832  1
  Cd  Cd12  1  0.29242113  0.00000000  0.07807518  1
  Cd  Cd13  1  0.29242113  0.29242113  0.57807518  1
  Cd  Cd14  1  0.00000000  0.70757887  0.57807518  1
  Cd  Cd15  1  0.00000000  0.29242113  0.07807518  1
  Cd  Cd16  1  0.70757887  0.70757887  0.07807518  1
  Cd  Cd17  1  0.70757887  0.00000000  0.57807518  1
  Au  Au18  1  0.67074609  0.00000000  0.25015286  1
  Au  Au19  1  0.67074609  0.67074609  0.75015286  1
  Au  Au20  1  0.00000000  0.32925391  0.75015286  1
  Au  Au21  1  0.00000000  0.67074609  0.25015286  1
  Au  Au22  1  0.32925391  0.32925391  0.25015286  1
  Au  Au23  1  0.32925391  0.00000000  0.75015286  1
