# generated using pymatgen
data_TlAsSe2
_symmetry_space_group_name_H-M   'P 1'
_cell_length_a   6.45901576
_cell_length_b   12.29915151
_cell_length_c   24.58965889
_cell_angle_alpha   90.00000000
_cell_angle_beta   90.00000000
_cell_angle_gamma   101.00380665
_symmetry_Int_Tables_number   1
_chemical_formula_structural   TlAsSe2
_chemical_formula_sum   'Tl16 As16 Se32'
_cell_volume   1917.49820741
_cell_formula_units_Z   16
loop_
 _symmetry_equiv_pos_site_id
 _symmetry_equiv_pos_as_xyz
  1  'x, y, z'
loop_
 _atom_site_type_symbol
 _atom_site_label
 _atom_site_symmetry_multiplicity
 _atom_site_fract_x
 _atom_site_fract_y
 _atom_site_fract_z
 _atom_site_occupancy
  As  As0  1  0.96709638  0.89164825  0.44687948  1
  As  As1  1  0.61436975  0.75397086  0.19007074  1
  As  As2  1  0.88563025  0.74602914  0.69007074  1
  As  As3  1  0.38563025  0.24602914  0.80992926  1
  As  As4  1  0.11436975  0.25397086  0.30992926  1
  As  As5  1  0.71898159  0.99718593  0.28950091  1
  As  As6  1  0.78101841  0.50281407  0.78950091  1
  As  As7  1  0.28101841  0.00281407  0.71049909  1
  As  As8  1  0.21898159  0.49718593  0.21049909  1
  As  As9  1  0.53290362  0.60835175  0.94687948  1
  As  As10  1  0.03290362  0.10835175  0.55312052  1
  As  As11  1  0.46709638  0.39164825  0.05312052  1
  As  As12  1  0.55510525  0.64179875  0.44960459  1
  As  As13  1  0.94489475  0.85820125  0.94960459  1
  As  As14  1  0.44489475  0.35820125  0.55039541  1
  As  As15  1  0.05510525  0.14179875  0.05039541  1
  Se  Se16  1  0.23692844  0.73946747  0.18953084  1
  Se  Se17  1  0.82454938  0.48376374  0.69368533  1
  Se  Se18  1  0.32454938  0.98376374  0.80631467  1
  Se  Se19  1  0.17545062  0.51623626  0.30631467  1
  Se  Se20  1  0.60615246  0.54709801  0.19539086  1
  Se  Se21  1  0.89384754  0.95290199  0.69539086  1
  Se  Se22  1  0.39384754  0.45290199  0.80460914  1
  Se  Se23  1  0.96325139  0.11003182  0.45634688  1
  Se  Se24  1  0.10615246  0.04709801  0.30460914  1
  Se  Se25  1  0.21720810  0.28551003  0.21429668  1
  Se  Se26  1  0.28279190  0.21448997  0.71429668  1
  Se  Se27  1  0.78279190  0.71448997  0.78570332  1
  Se  Se28  1  0.71720810  0.78551003  0.28570332  1
  Se  Se29  1  0.73692844  0.23946747  0.31046916  1
  Se  Se30  1  0.76307156  0.26053253  0.81046916  1
  Se  Se31  1  0.26307156  0.76053253  0.68953084  1
  Se  Se32  1  0.43955154  0.16127323  0.05971729  1
  Se  Se33  1  0.06044846  0.33872677  0.55971729  1
  Se  Se34  1  0.56044846  0.83872677  0.94028271  1
  Se  Se35  1  0.93955154  0.66127323  0.44028271  1
  Se  Se36  1  0.08046844  0.34986736  0.06052382  1
  Se  Se37  1  0.41953156  0.15013264  0.56052382  1
  Se  Se38  1  0.91953156  0.65013264  0.93947618  1
  Se  Se39  1  0.58046844  0.84986736  0.43947618  1
  Se  Se40  1  0.02179581  0.87459266  0.04525185  1
  Se  Se41  1  0.47820419  0.62540734  0.54525185  1
  Se  Se42  1  0.97820419  0.12540734  0.95474815  1
  Se  Se43  1  0.52179581  0.37459266  0.45474815  1
  Se  Se44  1  0.46325139  0.61003182  0.04365312  1
  Se  Se45  1  0.03674861  0.88996818  0.54365312  1
  Se  Se46  1  0.53674861  0.38996818  0.95634688  1
  Se  Se47  1  0.67545062  0.01623626  0.19368533  1
  Tl  Tl48  1  0.47180879  0.12298726  0.42389331  1
  Tl  Tl49  1  0.02819121  0.37701274  0.92389331  1
  Tl  Tl50  1  0.52819121  0.87701274  0.57610669  1
  Tl  Tl51  1  0.97180879  0.62298726  0.07610669  1
  Tl  Tl52  1  0.02526137  0.38976975  0.43465962  1
  Tl  Tl53  1  0.47473863  0.11023025  0.93465962  1
  Tl  Tl54  1  0.97473863  0.61023025  0.56534038  1
  Tl  Tl55  1  0.52526137  0.88976975  0.06534038  1
  Tl  Tl56  1  0.67698305  0.49615647  0.32683173  1
  Tl  Tl57  1  0.82301695  0.00384353  0.82683173  1
  Tl  Tl58  1  0.32301695  0.50384353  0.67316827  1
  Tl  Tl59  1  0.17698305  0.99615647  0.17316827  1
  Tl  Tl60  1  0.21664375  0.77142534  0.31949282  1
  Tl  Tl61  1  0.28335625  0.72857466  0.81949282  1
  Tl  Tl62  1  0.78335625  0.22857466  0.68050718  1
  Tl  Tl63  1  0.71664375  0.27142534  0.18050718  1
