# generated using pymatgen
data_Tb4SiBr6
_symmetry_space_group_name_H-M   'P 1'
_cell_length_a   4.07918402
_cell_length_b   13.31256035
_cell_length_c   14.08290938
_cell_angle_alpha   90.00000000
_cell_angle_beta   90.00000000
_cell_angle_gamma   90.00000000
_symmetry_Int_Tables_number   1
_chemical_formula_structural   Tb4SiBr6
_chemical_formula_sum   'Tb8 Si2 Br12'
_cell_volume   764.76371099
_cell_formula_units_Z   2
loop_
 _symmetry_equiv_pos_site_id
 _symmetry_equiv_pos_as_xyz
  1  'x, y, z'
loop_
 _atom_site_type_symbol
 _atom_site_label
 _atom_site_symmetry_multiplicity
 _atom_site_fract_x
 _atom_site_fract_y
 _atom_site_fract_z
 _atom_site_occupancy
  Tb  Tb0  1  0.50000000  0.11839153  0.34089652  1
  Tb  Tb1  1  0.50000000  0.88160847  0.65910348  1
  Tb  Tb2  1  0.50000000  0.61839153  0.15910348  1
  Tb  Tb3  1  0.50000000  0.38160847  0.84089652  1
  Tb  Tb4  1  0.00000000  0.11799789  0.57819930  1
  Tb  Tb5  1  0.00000000  0.88200211  0.42180070  1
  Tb  Tb6  1  0.00000000  0.61799789  0.92180070  1
  Tb  Tb7  1  0.00000000  0.38200211  0.07819930  1
  Br  Br8  1  0.50000000  0.24370494  0.16231285  1
  Br  Br9  1  0.50000000  0.75629506  0.83768715  1
  Br  Br10  1  0.50000000  0.74370494  0.33768715  1
  Br  Br11  1  0.50000000  0.25629506  0.66231285  1
  Br  Br12  1  0.00000000  0.25507942  0.41143691  1
  Br  Br13  1  0.00000000  0.74492058  0.58856309  1
  Br  Br14  1  0.00000000  0.75507942  0.08856309  1
  Br  Br15  1  0.00000000  0.24492058  0.91143691  1
  Br  Br16  1  0.00000000  0.00153705  0.24347974  1
  Br  Br17  1  0.00000000  0.99846295  0.75652026  1
  Br  Br18  1  0.00000000  0.50153705  0.25652026  1
  Br  Br19  1  0.00000000  0.49846295  0.74347974  1
  Si  Si20  1  0.50000000  0.00000000  0.50000000  1
  Si  Si21  1  0.50000000  0.50000000  0.00000000  1
