# generated using pymatgen
data_Li13(Ga7Cu2)3
_symmetry_space_group_name_H-M   'P 1'
_cell_length_a   11.81592168
_cell_length_b   11.81592156
_cell_length_c   11.81592171
_cell_angle_alpha   109.47121915
_cell_angle_beta   109.47121894
_cell_angle_gamma   109.47122256
_symmetry_Int_Tables_number   1
_chemical_formula_structural   Li13(Ga7Cu2)3
_chemical_formula_sum   'Li26 Ga42 Cu12'
_cell_volume   1269.93333548
_cell_formula_units_Z   2
loop_
 _symmetry_equiv_pos_site_id
 _symmetry_equiv_pos_as_xyz
  1  'x, y, z'
loop_
 _atom_site_type_symbol
 _atom_site_label
 _atom_site_symmetry_multiplicity
 _atom_site_fract_x
 _atom_site_fract_y
 _atom_site_fract_z
 _atom_site_occupancy
  Li  Li0  1  0.70483502  0.20483502  0.50000000  1
  Li  Li1  1  0.20483502  0.50000000  0.70483502  1
  Li  Li2  1  0.50000000  0.29516498  0.79516498  1
  Li  Li3  1  0.79516498  0.50000000  0.29516498  1
  Li  Li4  1  0.50000000  0.70483502  0.20483502  1
  Li  Li5  1  0.29516498  0.79516498  0.50000000  1
  Li  Li6  1  0.62740889  0.62740889  0.62740889  1
  Li  Li7  1  0.00000000  0.37259111  0.00000000  1
  Li  Li8  1  0.00000000  0.00000000  0.37259111  1
  Li  Li9  1  0.37259111  0.00000000  0.00000000  1
  Li  Li10  1  0.37259111  0.37259111  0.37259111  1
  Li  Li11  1  0.00000000  0.62740889  0.00000000  1
  Li  Li12  1  0.00000000  0.00000000  0.62740889  1
  Li  Li13  1  0.62740889  0.00000000  0.00000000  1
  Li  Li14  1  0.30449756  0.18878250  0.88428494  1
  Li  Li15  1  0.42021262  0.11571506  0.30449756  1
  Li  Li16  1  0.11571506  0.69550244  0.81121750  1
  Li  Li17  1  0.57978738  0.88428494  0.69550244  1
  Li  Li18  1  0.11571506  0.30449756  0.42021262  1
  Li  Li19  1  0.81121750  0.11571506  0.69550244  1
  Li  Li20  1  0.88428494  0.69550244  0.57978738  1
  Li  Li21  1  0.88428494  0.30449756  0.18878250  1
  Li  Li22  1  0.18878250  0.88428494  0.30449756  1
  Li  Li23  1  0.30449756  0.42021262  0.11571506  1
  Li  Li24  1  0.69550244  0.81121750  0.11571506  1
  Li  Li25  1  0.69550244  0.57978738  0.88428494  1
  Cu  Cu26  1  0.31755895  0.17751149  0.49507044  1
  Cu  Cu27  1  0.82248851  0.50492956  0.68244105  1
  Cu  Cu28  1  0.14004746  0.31755895  0.82248851  1
  Cu  Cu29  1  0.17751149  0.85995254  0.68244105  1
  Cu  Cu30  1  0.50492956  0.68244105  0.82248851  1
  Cu  Cu31  1  0.82248851  0.14004746  0.31755895  1
  Cu  Cu32  1  0.85995254  0.68244105  0.17751149  1
  Cu  Cu33  1  0.49507044  0.31755895  0.17751149  1
  Cu  Cu34  1  0.17751149  0.49507044  0.31755895  1
  Cu  Cu35  1  0.68244105  0.82248851  0.50492956  1
  Cu  Cu36  1  0.31755895  0.82248851  0.14004746  1
  Cu  Cu37  1  0.68244105  0.17751149  0.85995254  1
  Ga  Ga38  1  0.50000000  0.09310704  0.59310704  1
  Ga  Ga39  1  0.90689296  0.40689296  0.50000000  1
  Ga  Ga40  1  0.40689296  0.50000000  0.90689296  1
  Ga  Ga41  1  0.09310704  0.59310704  0.50000000  1
  Ga  Ga42  1  0.59310704  0.50000000  0.09310704  1
  Ga  Ga43  1  0.50000000  0.90689296  0.40689296  1
  Ga  Ga44  1  0.15952049  0.09734055  0.25686103  1
  Ga  Ga45  1  0.90265945  0.74313897  0.84047951  1
  Ga  Ga46  1  0.06217994  0.15952049  0.90265945  1
  Ga  Ga47  1  0.09734055  0.93782006  0.84047951  1
  Ga  Ga48  1  0.74313897  0.84047951  0.90265945  1
  Ga  Ga49  1  0.90265945  0.06217994  0.15952049  1
  Ga  Ga50  1  0.93782006  0.84047951  0.09734055  1
  Ga  Ga51  1  0.25686103  0.15952049  0.09734055  1
  Ga  Ga52  1  0.09734055  0.25686103  0.15952049  1
  Ga  Ga53  1  0.84047951  0.90265945  0.74313897  1
  Ga  Ga54  1  0.15952049  0.90265945  0.06217994  1
  Ga  Ga55  1  0.84047951  0.09734055  0.93782006  1
  Ga  Ga56  1  0.56426024  0.34886955  0.59474713  1
  Ga  Ga57  1  0.96951311  0.40525287  0.75412242  1
  Ga  Ga58  1  0.21539069  0.24587758  0.65113045  1
  Ga  Ga59  1  0.03048689  0.78460931  0.43573976  1
  Ga  Ga60  1  0.40525287  0.75412242  0.96951311  1
  Ga  Ga61  1  0.65113045  0.21539069  0.24587758  1
  Ga  Ga62  1  0.78460931  0.43573976  0.03048689  1
  Ga  Ga63  1  0.59474713  0.56426024  0.34886955  1
  Ga  Ga64  1  0.34886955  0.59474713  0.56426024  1
  Ga  Ga65  1  0.75412242  0.96951311  0.40525287  1
  Ga  Ga66  1  0.24587758  0.65113045  0.21539069  1
  Ga  Ga67  1  0.43573976  0.03048689  0.78460931  1
  Ga  Ga68  1  0.43573976  0.65113045  0.40525287  1
  Ga  Ga69  1  0.03048689  0.59474713  0.24587758  1
  Ga  Ga70  1  0.78460931  0.75412242  0.34886955  1
  Ga  Ga71  1  0.96951311  0.21539069  0.56426024  1
  Ga  Ga72  1  0.59474713  0.24587758  0.03048689  1
  Ga  Ga73  1  0.34886955  0.78460931  0.75412242  1
  Ga  Ga74  1  0.21539069  0.56426024  0.96951311  1
  Ga  Ga75  1  0.40525287  0.43573976  0.65113045  1
  Ga  Ga76  1  0.65113045  0.40525287  0.43573976  1
  Ga  Ga77  1  0.24587758  0.03048689  0.59474713  1
  Ga  Ga78  1  0.75412242  0.34886955  0.78460931  1
  Ga  Ga79  1  0.56426024  0.96951311  0.21539069  1
