# generated using pymatgen
data_Na2S2O7
_symmetry_space_group_name_H-M   'P 1'
_cell_length_a   6.88532700
_cell_length_b   6.92737441
_cell_length_c   6.97503128
_cell_angle_alpha   83.85994289
_cell_angle_beta   63.62070704
_cell_angle_gamma   83.60001899
_symmetry_Int_Tables_number   1
_chemical_formula_structural   Na2S2O7
_chemical_formula_sum   'Na4 S4 O14'
_cell_volume   295.57315433
_cell_formula_units_Z   2
loop_
 _symmetry_equiv_pos_site_id
 _symmetry_equiv_pos_as_xyz
  1  'x, y, z'
loop_
 _atom_site_type_symbol
 _atom_site_label
 _atom_site_symmetry_multiplicity
 _atom_site_fract_x
 _atom_site_fract_y
 _atom_site_fract_z
 _atom_site_occupancy
  O  O0  1  0.23530782  0.44710697  0.60881663  1
  O  O1  1  0.76469218  0.55289303  0.39118337  1
  O  O2  1  0.71051896  0.24329341  0.28687367  1
  O  O3  1  0.28948104  0.75670659  0.71312633  1
  O  O4  1  0.92158037  0.64339792  0.85548548  1
  O  O5  1  0.07841963  0.35660208  0.14451452  1
  O  O6  1  0.08892264  0.75889124  0.48684018  1
  O  O7  1  0.91107736  0.24110876  0.51315982  1
  O  O8  1  0.38303628  0.98806228  0.29028819  1
  O  O9  1  0.61696372  0.01193772  0.70971181  1
  O  O10  1  0.58200144  0.32613375  0.84861624  1
  O  O11  1  0.41799856  0.67386625  0.15138376  1
  O  O12  1  0.87187697  0.08366833  0.84723670  1
  O  O13  1  0.12812303  0.91633167  0.15276330  1
  Na  Na14  1  0.77510709  0.86422426  0.17603125  1
  Na  Na15  1  0.22489291  0.13577574  0.82396875  1
  Na  Na16  1  0.38468695  0.33589765  0.24308579  1
  Na  Na17  1  0.61531305  0.66410235  0.75691421  1
  S  S18  1  0.26972605  0.84063409  0.25224813  1
  S  S19  1  0.73027395  0.15936591  0.74775187  1
  S  S20  1  0.14243948  0.63970110  0.68511376  1
  S  S21  1  0.85756052  0.36029890  0.31488624  1
