# generated using pymatgen
data_Li7Cr7(P4O17)2
_symmetry_space_group_name_H-M   'P 1'
_cell_length_a   7.97331154
_cell_length_b   20.23719352
_cell_length_c   9.93075374
_cell_angle_alpha   90.00000000
_cell_angle_beta   112.09899460
_cell_angle_gamma   90.00000000
_symmetry_Int_Tables_number   1
_chemical_formula_structural   Li7Cr7(P4O17)2
_chemical_formula_sum   'Li14 Cr14 P16 O68'
_cell_volume   1484.68106379
_cell_formula_units_Z   2
loop_
 _symmetry_equiv_pos_site_id
 _symmetry_equiv_pos_as_xyz
  1  'x, y, z'
loop_
 _atom_site_type_symbol
 _atom_site_label
 _atom_site_symmetry_multiplicity
 _atom_site_fract_x
 _atom_site_fract_y
 _atom_site_fract_z
 _atom_site_occupancy
  Li  Li0  1  0.00000000  0.00000000  0.50000000  1
  Li  Li1  1  0.22323898  0.64420957  0.82623558  1
  Li  Li2  1  0.00000000  0.50000000  0.00000000  1
  Li  Li3  1  0.22323898  0.85579043  0.32623558  1
  Li  Li4  1  0.45011579  0.05106040  0.82173731  1
  Li  Li5  1  0.35476144  0.76063722  0.69960803  1
  Li  Li6  1  0.64523856  0.26063722  0.80039197  1
  Li  Li7  1  0.45011579  0.44893960  0.32173731  1
  Li  Li8  1  0.54988421  0.55106040  0.67826269  1
  Li  Li9  1  0.35476144  0.73936278  0.19960803  1
  Li  Li10  1  0.64523856  0.23936278  0.30039197  1
  Li  Li11  1  0.54988421  0.94893960  0.17826269  1
  Li  Li12  1  0.77676102  0.14420957  0.67376442  1
  Li  Li13  1  0.77676102  0.35579043  0.17376442  1
  Cr  Cr14  1  0.01757683  0.33883880  0.95143643  1
  Cr  Cr15  1  0.10107283  0.92002267  0.89139432  1
  Cr  Cr16  1  0.01757683  0.16116120  0.45143643  1
  Cr  Cr17  1  0.10107283  0.57997733  0.39139432  1
  Cr  Cr18  1  0.28185810  0.36144044  0.80127098  1
  Cr  Cr19  1  0.28185810  0.13855956  0.30127098  1
  Cr  Cr20  1  0.50000000  0.00000000  0.50000000  1
  Cr  Cr21  1  0.71814190  0.86144044  0.69872902  1
  Cr  Cr22  1  0.50000000  0.50000000  0.00000000  1
  Cr  Cr23  1  0.71814190  0.63855956  0.19872902  1
  Cr  Cr24  1  0.89892717  0.42002267  0.60860568  1
  Cr  Cr25  1  0.98242317  0.83883880  0.54856357  1
  Cr  Cr26  1  0.89892717  0.07997733  0.10860568  1
  Cr  Cr27  1  0.98242317  0.66116120  0.04856357  1
  P  P28  1  0.95507055  0.27489086  0.65061826  1
  P  P29  1  0.18028307  0.50678232  0.68580985  1
  P  P30  1  0.95507055  0.22510914  0.15061826  1
  P  P31  1  0.34492923  0.91506794  0.69923058  1
  P  P32  1  0.38367681  0.14712043  0.59773895  1
  P  P33  1  0.18028307  0.99321768  0.18580985  1
  P  P34  1  0.34492923  0.58493206  0.19923058  1
  P  P35  1  0.61632319  0.64712043  0.90226105  1
  P  P36  1  0.38367681  0.35287957  0.09773895  1
  P  P37  1  0.65507077  0.41506794  0.80076942  1
  P  P38  1  0.81971693  0.00678232  0.81419015  1
  P  P39  1  0.61632319  0.85287957  0.40226105  1
  P  P40  1  0.65507077  0.08493206  0.30076942  1
  P  P41  1  0.04492945  0.77489086  0.84938174  1
  P  P42  1  0.81971693  0.49321768  0.31419015  1
  P  P43  1  0.04492945  0.72510914  0.34938174  1
  O  O44  1  0.09801657  0.70485273  0.91688898  1
  O  O45  1  0.15315489  0.82741504  0.96086037  1
  O  O46  1  0.06017293  0.39423238  0.81130169  1
  O  O47  1  0.10342322  0.77581410  0.71294533  1
  O  O48  1  0.97341889  0.51490964  0.64249857  1
  O  O49  1  0.09801657  0.79514727  0.41688898  1
  O  O50  1  0.15315489  0.67258496  0.46086037  1
  O  O51  1  0.27306045  0.30211745  0.97618919  1
  O  O52  1  0.06017293  0.10576762  0.31130169  1
  O  O53  1  0.24857713  0.11619175  0.65679619  1
  O  O54  1  0.10342322  0.72418590  0.21294533  1
  O  O55  1  0.97341889  0.98509036  0.14249857  1
  O  O56  1  0.15972003  0.28452341  0.68664521  1
  O  O57  1  0.16302640  0.90900656  0.56460861  1
  O  O58  1  0.31971689  0.92733180  0.84391250  1
  O  O59  1  0.26444108  0.52547169  0.84890163  1
  O  O60  1  0.20623575  0.43250884  0.64667591  1
  O  O61  1  0.25987851  0.55332344  0.60082005  1
  O  O62  1  0.43119607  0.40552319  0.99789451  1
  O  O63  1  0.27306045  0.19788255  0.47618919  1
  O  O64  1  0.43117313  0.98000329  0.67131950  1
  O  O65  1  0.24857713  0.38380825  0.15679619  1
  O  O66  1  0.15972003  0.21547659  0.18664521  1
  O  O67  1  0.16302640  0.59099344  0.06460861  1
  O  O68  1  0.31971689  0.57266820  0.34391250  1
  O  O69  1  0.26444108  0.97452831  0.34890163  1
  O  O70  1  0.20623575  0.06749116  0.14667591  1
  O  O71  1  0.25987851  0.94667656  0.10082005  1
  O  O72  1  0.43119607  0.09447681  0.49789451  1
  O  O73  1  0.44246682  0.67572407  0.79333705  1
  O  O74  1  0.53872407  0.35189944  0.79040206  1
  O  O75  1  0.46127593  0.85189944  0.70959794  1
  O  O76  1  0.55753318  0.17572407  0.70666295  1
  O  O77  1  0.56882687  0.48000329  0.82868050  1
  O  O78  1  0.43117313  0.51999671  0.17131950  1
  O  O79  1  0.44246682  0.82427593  0.29333705  1
  O  O80  1  0.53872407  0.14810056  0.29040206  1
  O  O81  1  0.46127593  0.64810056  0.20959794  1
  O  O82  1  0.55753318  0.32427593  0.20666295  1
  O  O83  1  0.56880393  0.90552319  0.50210549  1
  O  O84  1  0.74012149  0.05332344  0.89917995  1
  O  O85  1  0.79376425  0.93250884  0.85332409  1
  O  O86  1  0.73555892  0.02547169  0.65109837  1
  O  O87  1  0.68028311  0.42733180  0.65608750  1
  O  O88  1  0.83697360  0.40900656  0.93539139  1
  O  O89  1  0.84027997  0.78452341  0.81335479  1
  O  O90  1  0.75142287  0.61619175  0.84320381  1
  O  O91  1  0.56882687  0.01999671  0.32868050  1
  O  O92  1  0.72693955  0.80211745  0.52381081  1
  O  O93  1  0.56880393  0.59447681  0.00210549  1
  O  O94  1  0.74012149  0.44667656  0.39917995  1
  O  O95  1  0.79376425  0.56749116  0.35332409  1
  O  O96  1  0.73555892  0.47452831  0.15109837  1
  O  O97  1  0.68028311  0.07266820  0.15608750  1
  O  O98  1  0.83697360  0.09099344  0.43539139  1
  O  O99  1  0.84027997  0.71547659  0.31335479  1
  O  O100  1  0.02658111  0.01490964  0.85750143  1
  O  O101  1  0.89657678  0.27581410  0.78705467  1
  O  O102  1  0.75142287  0.88380825  0.34320381  1
  O  O103  1  0.93982707  0.89423238  0.68869831  1
  O  O104  1  0.72693955  0.69788255  0.02381081  1
  O  O105  1  0.84684511  0.32741504  0.53913963  1
  O  O106  1  0.90198343  0.20485273  0.58311102  1
  O  O107  1  0.02658111  0.48509036  0.35750143  1
  O  O108  1  0.89657678  0.22418590  0.28705467  1
  O  O109  1  0.93982707  0.60576762  0.18869831  1
  O  O110  1  0.84684511  0.17258496  0.03913963  1
  O  O111  1  0.90198343  0.29514727  0.08311102  1
