# generated using pymatgen
data_K4(TiTe3)3
_symmetry_space_group_name_H-M   'P 1'
_cell_length_a   8.26103577
_cell_length_b   9.09045353
_cell_length_c   29.92113099
_cell_angle_alpha   92.22596514
_cell_angle_beta   90.00000000
_cell_angle_gamma   90.00000000
_symmetry_Int_Tables_number   1
_chemical_formula_structural   K4(TiTe3)3
_chemical_formula_sum   'K16 Ti12 Te36'
_cell_volume   2245.27853440
_cell_formula_units_Z   4
loop_
 _symmetry_equiv_pos_site_id
 _symmetry_equiv_pos_as_xyz
  1  'x, y, z'
loop_
 _atom_site_type_symbol
 _atom_site_label
 _atom_site_symmetry_multiplicity
 _atom_site_fract_x
 _atom_site_fract_y
 _atom_site_fract_z
 _atom_site_occupancy
  K  K0  1  0.76546321  0.60867108  0.51602201  1
  K  K1  1  0.26546321  0.39132892  0.98397799  1
  K  K2  1  0.23453679  0.39132892  0.48397799  1
  K  K3  1  0.73453679  0.60867108  0.01602201  1
  K  K4  1  0.78524860  0.06855466  0.56630397  1
  K  K5  1  0.28524860  0.93144534  0.93369603  1
  K  K6  1  0.21475140  0.93144534  0.43369603  1
  K  K7  1  0.71475140  0.06855466  0.06630397  1
  K  K8  1  0.76052255  0.87455214  0.23370303  1
  K  K9  1  0.26052255  0.12544786  0.26629697  1
  K  K10  1  0.23947745  0.12544786  0.76629697  1
  K  K11  1  0.73947745  0.87455214  0.73370303  1
  K  K12  1  0.77695669  0.42813113  0.68170318  1
  K  K13  1  0.27695669  0.57186887  0.81829682  1
  K  K14  1  0.22304331  0.57186887  0.31829682  1
  K  K15  1  0.72304331  0.42813113  0.18170318  1
  Ti  Ti16  1  0.73313583  0.74897065  0.37309634  1
  Ti  Ti17  1  0.23313583  0.25102935  0.12690366  1
  Ti  Ti18  1  0.26686417  0.25102935  0.62690366  1
  Ti  Ti19  1  0.76686417  0.74897065  0.87309634  1
  Ti  Ti20  1  0.81128127  0.08097303  0.87000405  1
  Ti  Ti21  1  0.31128127  0.91902697  0.62999595  1
  Ti  Ti22  1  0.18871873  0.91902697  0.12999595  1
  Ti  Ti23  1  0.68871873  0.08097303  0.37000405  1
  Ti  Ti24  1  0.80286744  0.41558050  0.88281257  1
  Ti  Ti25  1  0.30286744  0.58441950  0.61718743  1
  Ti  Ti26  1  0.19713256  0.58441950  0.11718743  1
  Ti  Ti27  1  0.69713256  0.41558050  0.38281257  1
  Te  Te28  1  0.96924609  0.57792680  0.40989962  1
  Te  Te29  1  0.46924609  0.42207320  0.09010038  1
  Te  Te30  1  0.03075391  0.42207320  0.59010038  1
  Te  Te31  1  0.53075391  0.57792680  0.90989962  1
  Te  Te32  1  0.01060289  0.88545765  0.82519624  1
  Te  Te33  1  0.51060289  0.11454235  0.67480376  1
  Te  Te34  1  0.98939711  0.11454235  0.17480376  1
  Te  Te35  1  0.48939711  0.88545765  0.32519624  1
  Te  Te36  1  0.99440388  0.38324718  0.07458561  1
  Te  Te37  1  0.49440388  0.61675282  0.42541439  1
  Te  Te38  1  0.00559612  0.61675282  0.92541439  1
  Te  Te39  1  0.50559612  0.38324718  0.57458561  1
  Te  Te40  1  0.96771991  0.92783821  0.33909566  1
  Te  Te41  1  0.46771991  0.07216179  0.16090434  1
  Te  Te42  1  0.03228009  0.07216179  0.66090434  1
  Te  Te43  1  0.53228009  0.92783821  0.83909566  1
  Te  Te44  1  0.83422904  0.55179598  0.80075797  1
  Te  Te45  1  0.33422904  0.44820402  0.69924203  1
  Te  Te46  1  0.16577096  0.44820402  0.19924203  1
  Te  Te47  1  0.66577096  0.55179598  0.30075797  1
  Te  Te48  1  0.83427618  0.93134578  0.94907896  1
  Te  Te49  1  0.33427618  0.06865422  0.55092104  1
  Te  Te50  1  0.16572382  0.06865422  0.05092104  1
  Te  Te51  1  0.66572382  0.93134578  0.44907896  1
  Te  Te52  1  0.83877818  0.25925615  0.30870215  1
  Te  Te53  1  0.33877818  0.74074385  0.19129785  1
  Te  Te54  1  0.16122182  0.74074385  0.69129785  1
  Te  Te55  1  0.66122182  0.25925615  0.80870215  1
  Te  Te56  1  0.83971129  0.23123721  0.44379809  1
  Te  Te57  1  0.33971129  0.76876279  0.05620191  1
  Te  Te58  1  0.16028871  0.76876279  0.55620191  1
  Te  Te59  1  0.66028871  0.23123721  0.94379809  1
  Te  Te60  1  0.91256317  0.74707412  0.12271558  1
  Te  Te61  1  0.41256317  0.25292588  0.37728442  1
  Te  Te62  1  0.08743683  0.25292588  0.87728442  1
  Te  Te63  1  0.58743683  0.74707412  0.62271558  1
