# generated using pymatgen
data_Sb2MoS
_symmetry_space_group_name_H-M   'P 1'
_cell_length_a   6.46082801
_cell_length_b   6.61416770
_cell_length_c   18.79409710
_cell_angle_alpha   94.92363548
_cell_angle_beta   99.89740601
_cell_angle_gamma   89.99999999
_symmetry_Int_Tables_number   1
_chemical_formula_structural   Sb2MoS
_chemical_formula_sum   'Sb16 Mo8 S8'
_cell_volume   788.16677758
_cell_formula_units_Z   8
loop_
 _symmetry_equiv_pos_site_id
 _symmetry_equiv_pos_as_xyz
  1  'x, y, z'
loop_
 _atom_site_type_symbol
 _atom_site_label
 _atom_site_symmetry_multiplicity
 _atom_site_fract_x
 _atom_site_fract_y
 _atom_site_fract_z
 _atom_site_occupancy
  S  S0  1  0.67161687  0.58733680  0.34323374  1
  S  S1  1  0.32838313  0.41266320  0.65676626  1
  S  S2  1  0.67159674  0.58793941  0.84306575  1
  S  S3  1  0.82853099  0.41206059  0.15693425  1
  S  S4  1  0.32840326  0.41206059  0.15693425  1
  S  S5  1  0.17146901  0.58793941  0.84306575  1
  S  S6  1  0.17168046  0.58749696  0.34336091  1
  S  S7  1  0.82831954  0.41250304  0.65663909  1
  Mo  Mo8  1  0.12211641  0.32912421  0.24423281  1
  Mo  Mo9  1  0.87788359  0.67087579  0.75576719  1
  Mo  Mo10  1  0.62214382  0.32956780  0.74390307  1
  Mo  Mo11  1  0.87824075  0.67043220  0.25609693  1
  Mo  Mo12  1  0.37785618  0.67043220  0.25609693  1
  Mo  Mo13  1  0.12175925  0.32956780  0.74390307  1
  Mo  Mo14  1  0.62207139  0.32861913  0.24414278  1
  Mo  Mo15  1  0.37792861  0.67138087  0.75585722  1
  Sb  Sb16  1  0.00981359  0.79484038  0.01962718  1
  Sb  Sb17  1  0.99018641  0.20515962  0.98037282  1
  Sb  Sb18  1  0.50987726  0.79485180  0.01975452  1
  Sb  Sb19  1  0.49012274  0.20514820  0.98024548  1
  Sb  Sb20  1  0.08613069  0.92247296  0.17226139  1
  Sb  Sb21  1  0.91386931  0.07752704  0.82773861  1
  Sb  Sb22  1  0.58665370  0.92371926  0.67388176  1
  Sb  Sb23  1  0.91277193  0.07628074  0.32611824  1
  Sb  Sb24  1  0.41334630  0.07628074  0.32611824  1
  Sb  Sb25  1  0.08722807  0.92371926  0.67388176  1
  Sb  Sb26  1  0.58617649  0.92243584  0.17235298  1
  Sb  Sb27  1  0.41382351  0.07756416  0.82764702  1
  Sb  Sb28  1  0.48733159  0.79351655  0.51995579  1
  Sb  Sb29  1  0.96737580  0.20648345  0.48004421  1
  Sb  Sb30  1  0.51266841  0.20648345  0.48004421  1
  Sb  Sb31  1  0.03262420  0.79351655  0.51995579  1
