# generated using pymatgen
data_CeGa4Os
_symmetry_space_group_name_H-M   'P 1'
_cell_length_a   7.69711100
_cell_length_b   8.88420075
_cell_length_c   9.54489723
_cell_angle_alpha   90.00000000
_cell_angle_beta   90.00000000
_cell_angle_gamma   90.00000000
_symmetry_Int_Tables_number   1
_chemical_formula_structural   CeGa4Os
_chemical_formula_sum   'Ce6 Ga24 Os6'
_cell_volume   652.70564641
_cell_formula_units_Z   6
loop_
 _symmetry_equiv_pos_site_id
 _symmetry_equiv_pos_as_xyz
  1  'x, y, z'
loop_
 _atom_site_type_symbol
 _atom_site_label
 _atom_site_symmetry_multiplicity
 _atom_site_fract_x
 _atom_site_fract_y
 _atom_site_fract_z
 _atom_site_occupancy
  Ga  Ga0  1  0.00000000  0.50000000  0.50000000  1
  Ga  Ga1  1  0.00000000  0.50000000  0.00000000  1
  Ga  Ga2  1  0.12994660  0.00000000  0.25000000  1
  Ga  Ga3  1  0.87005340  0.00000000  0.75000000  1
  Ga  Ga4  1  0.33754774  0.00000000  0.93554745  1
  Ga  Ga5  1  0.33754774  0.00000000  0.56445255  1
  Ga  Ga6  1  0.66245226  0.00000000  0.06445255  1
  Ga  Ga7  1  0.66245226  0.00000000  0.43554745  1
  Ga  Ga8  1  0.65593025  0.50000000  0.41037251  1
  Ga  Ga9  1  0.65593025  0.50000000  0.08962749  1
  Ga  Ga10  1  0.34406975  0.50000000  0.58962749  1
  Ga  Ga11  1  0.34406975  0.50000000  0.91037251  1
  Ga  Ga12  1  0.82247281  0.76145250  0.92053209  1
  Ga  Ga13  1  0.82247281  0.23854750  0.57946791  1
  Ga  Ga14  1  0.17752719  0.76145250  0.07946791  1
  Ga  Ga15  1  0.17752719  0.23854750  0.42053209  1
  Ga  Ga16  1  0.17752719  0.23854750  0.07946791  1
  Ga  Ga17  1  0.17752719  0.76145250  0.42053209  1
  Ga  Ga18  1  0.82247281  0.23854750  0.92053209  1
  Ga  Ga19  1  0.82247281  0.76145250  0.57946791  1
  Ga  Ga20  1  0.54633272  0.84269138  0.75000000  1
  Ga  Ga21  1  0.54633272  0.15730862  0.75000000  1
  Ga  Ga22  1  0.45366728  0.84269138  0.25000000  1
  Ga  Ga23  1  0.45366728  0.15730862  0.25000000  1
  Ce  Ce24  1  0.16337441  0.75356109  0.75000000  1
  Ce  Ce25  1  0.16337441  0.24643891  0.75000000  1
  Ce  Ce26  1  0.83662559  0.75356109  0.25000000  1
  Ce  Ce27  1  0.83662559  0.24643891  0.25000000  1
  Ce  Ce28  1  0.67716124  0.50000000  0.75000000  1
  Ce  Ce29  1  0.32283876  0.50000000  0.25000000  1
  Os  Os30  1  0.50000000  0.73979368  0.00000000  1
  Os  Os31  1  0.50000000  0.26020632  0.50000000  1
  Os  Os32  1  0.50000000  0.26020632  0.00000000  1
  Os  Os33  1  0.50000000  0.73979368  0.50000000  1
  Os  Os34  1  0.00000000  0.00000000  0.00000000  1
  Os  Os35  1  0.00000000  0.00000000  0.50000000  1
