# generated using pymatgen
data_Ho2Au
_symmetry_space_group_name_H-M   'P 1'
_cell_length_a   4.94829505
_cell_length_b   7.08392813
_cell_length_c   8.91671313
_cell_angle_alpha   90.00000000
_cell_angle_beta   90.00000000
_cell_angle_gamma   90.00000000
_symmetry_Int_Tables_number   1
_chemical_formula_structural   Ho2Au
_chemical_formula_sum   'Ho8 Au4'
_cell_volume   312.56081332
_cell_formula_units_Z   4
loop_
 _symmetry_equiv_pos_site_id
 _symmetry_equiv_pos_as_xyz
  1  'x, y, z'
loop_
 _atom_site_type_symbol
 _atom_site_label
 _atom_site_symmetry_multiplicity
 _atom_site_fract_x
 _atom_site_fract_y
 _atom_site_fract_z
 _atom_site_occupancy
  Ho  Ho0  1  0.25000000  0.98660511  0.67644065  1
  Ho  Ho1  1  0.75000000  0.01339489  0.32355935  1
  Ho  Ho2  1  0.25000000  0.48660511  0.82355935  1
  Ho  Ho3  1  0.75000000  0.51339489  0.17644065  1
  Ho  Ho4  1  0.75000000  0.14914120  0.91937586  1
  Ho  Ho5  1  0.25000000  0.85085880  0.08062414  1
  Ho  Ho6  1  0.75000000  0.64914120  0.58062414  1
  Ho  Ho7  1  0.25000000  0.35085880  0.41937586  1
  Au  Au8  1  0.25000000  0.75852762  0.40097635  1
  Au  Au9  1  0.75000000  0.24147238  0.59902365  1
  Au  Au10  1  0.25000000  0.25852762  0.09902365  1
  Au  Au11  1  0.75000000  0.74147238  0.90097635  1
