# generated using pymatgen
data_Ca5Au3
_symmetry_space_group_name_H-M   'P 1'
_cell_length_a   7.88268946
_cell_length_b   7.88269560
_cell_length_c   9.20071146
_cell_angle_alpha   115.36209430
_cell_angle_beta   115.36440849
_cell_angle_gamma   89.99999997
_symmetry_Int_Tables_number   1
_chemical_formula_structural   Ca5Au3
_chemical_formula_sum   'Ca10 Au6'
_cell_volume   454.86265340
_cell_formula_units_Z   2
loop_
 _symmetry_equiv_pos_site_id
 _symmetry_equiv_pos_as_xyz
  1  'x, y, z'
loop_
 _atom_site_type_symbol
 _atom_site_label
 _atom_site_symmetry_multiplicity
 _atom_site_fract_x
 _atom_site_fract_y
 _atom_site_fract_z
 _atom_site_occupancy
  Ca  Ca0  1  0.97477991  0.47476991  0.28808048  1
  Ca  Ca1  1  0.68669740  0.18670738  0.71192812  1
  Ca  Ca2  1  0.02522009  0.52523009  0.71191952  1
  Ca  Ca3  1  0.18669942  0.02523009  0.71191952  1
  Ca  Ca4  1  0.52523072  0.68670738  0.71192812  1
  Ca  Ca5  1  0.81330058  0.97476991  0.28808048  1
  Ca  Ca6  1  0.00000000  0.00000000  0.00000000  1
  Ca  Ca7  1  0.50000000  0.50000000  0.00000000  1
  Ca  Ca8  1  0.31330260  0.81329262  0.28807188  1
  Ca  Ca9  1  0.47476928  0.31329262  0.28807188  1
  Au  Au10  1  0.63019951  0.13020204  1.00004793  1
  Au  Au11  1  0.86984842  0.63020204  1.00004793  1
  Au  Au12  1  0.13015158  0.36979796  -0.00004793  1
  Au  Au13  1  0.36980049  0.86979796  -0.00004793  1
  Au  Au14  1  0.74999542  0.75000000  0.50000000  1
  Au  Au15  1  0.25000458  0.25000000  0.50000000  1
