# generated using pymatgen
data_Ba(RhPb2)3
_symmetry_space_group_name_H-M   'P 1'
_cell_length_a   4.60179276
_cell_length_b   8.41207601
_cell_length_c   14.39701917
_cell_angle_alpha   106.98650447
_cell_angle_beta   90.00000000
_cell_angle_gamma   90.00000000
_symmetry_Int_Tables_number   1
_chemical_formula_structural   Ba(RhPb2)3
_chemical_formula_sum   'Ba2 Rh6 Pb12'
_cell_volume   533.00392175
_cell_formula_units_Z   2
loop_
 _symmetry_equiv_pos_site_id
 _symmetry_equiv_pos_as_xyz
  1  'x, y, z'
loop_
 _atom_site_type_symbol
 _atom_site_label
 _atom_site_symmetry_multiplicity
 _atom_site_fract_x
 _atom_site_fract_y
 _atom_site_fract_z
 _atom_site_occupancy
  Rh  Rh0  1  0.75000000  0.40627479  0.43482643  1
  Rh  Rh1  1  0.75000000  0.03697514  0.07395027  1
  Rh  Rh2  1  0.25000000  0.59372521  0.56517357  1
  Rh  Rh3  1  0.25000000  0.96302486  0.92604973  1
  Rh  Rh4  1  0.25000000  0.97144835  0.56517357  1
  Rh  Rh5  1  0.75000000  0.02855165  0.43482643  1
  Ba  Ba6  1  0.25000000  0.41072776  0.82145552  1
  Ba  Ba7  1  0.75000000  0.58927224  0.17854448  1
  Pb  Pb8  1  0.25000000  0.84517446  0.09219544  1
  Pb  Pb9  1  0.75000000  0.75297902  0.90780456  1
  Pb  Pb10  1  0.25000000  0.24702098  0.09219544  1
  Pb  Pb11  1  0.25000000  0.86976333  0.34369722  1
  Pb  Pb12  1  0.25000000  0.47393389  0.34369722  1
  Pb  Pb13  1  0.75000000  0.52606611  0.65630278  1
  Pb  Pb14  1  0.75000000  0.15482554  0.90780456  1
  Pb  Pb15  1  0.25000000  0.25012940  0.50025880  1
  Pb  Pb16  1  0.75000000  0.74987060  0.49974120  1
  Pb  Pb17  1  0.25000000  0.86523759  0.73047518  1
  Pb  Pb18  1  0.75000000  0.13476241  0.26952482  1
  Pb  Pb19  1  0.75000000  0.13023667  0.65630278  1
