# generated using pymatgen
data_Tb(NiB)2
_symmetry_space_group_name_H-M   'P 1'
_cell_length_a   4.97205458
_cell_length_b   4.97205458
_cell_length_c   6.08377183
_cell_angle_alpha   102.62871410
_cell_angle_beta   104.19842018
_cell_angle_gamma   115.61738031
_symmetry_Int_Tables_number   1
_chemical_formula_structural   Tb(NiB)2
_chemical_formula_sum   'Tb2 Ni4 B4'
_cell_volume   122.06714395
_cell_formula_units_Z   2
loop_
 _symmetry_equiv_pos_site_id
 _symmetry_equiv_pos_as_xyz
  1  'x, y, z'
loop_
 _atom_site_type_symbol
 _atom_site_label
 _atom_site_symmetry_multiplicity
 _atom_site_fract_x
 _atom_site_fract_y
 _atom_site_fract_z
 _atom_site_occupancy
  B  B0  1  0.97087717  0.15421824  0.47569112  1
  B  B1  1  0.02912283  0.84578176  0.52430888  1
  B  B2  1  0.17852712  0.49518605  0.02430888  1
  B  B3  1  0.82147288  0.50481395  0.97569112  1
  Ni  Ni4  1  0.66771032  0.72064894  0.19978472  1
  Ni  Ni5  1  0.33228968  0.27935106  0.80021528  1
  Ni  Ni6  1  0.02086421  0.46792560  0.30021528  1
  Ni  Ni7  1  0.97913579  0.53207440  0.69978472  1
  Tb  Tb8  1  0.63189249  0.88189249  0.75000000  1
  Tb  Tb9  1  0.36810751  0.11810751  0.25000000  1
