# generated using pymatgen
data_Rb4Sn2Au7
_symmetry_space_group_name_H-M   'P 1'
_cell_length_a   10.71506848
_cell_length_b   10.71506856
_cell_length_c   10.71506882
_cell_angle_alpha   37.79393791
_cell_angle_beta   37.79393745
_cell_angle_gamma   37.79393638
_symmetry_Int_Tables_number   1
_chemical_formula_structural   Rb4Sn2Au7
_chemical_formula_sum   'Rb4 Sn2 Au7'
_cell_volume   414.56830403
_cell_formula_units_Z   1
loop_
 _symmetry_equiv_pos_site_id
 _symmetry_equiv_pos_as_xyz
  1  'x, y, z'
loop_
 _atom_site_type_symbol
 _atom_site_label
 _atom_site_symmetry_multiplicity
 _atom_site_fract_x
 _atom_site_fract_y
 _atom_site_fract_z
 _atom_site_occupancy
  Au  Au0  1  0.00000000  0.00000000  0.00000000  1
  Au  Au1  1  0.78710105  0.19466284  0.78710105  1
  Au  Au2  1  0.78710105  0.78710105  0.19466284  1
  Au  Au3  1  0.19466284  0.78710105  0.78710105  1
  Au  Au4  1  0.80533716  0.21289895  0.21289895  1
  Au  Au5  1  0.21289895  0.80533716  0.21289895  1
  Au  Au6  1  0.21289895  0.21289895  0.80533716  1
  Rb  Rb7  1  0.68452155  0.68452155  0.68452155  1
  Rb  Rb8  1  0.31547845  0.31547845  0.31547845  1
  Rb  Rb9  1  0.81236139  0.81236139  0.81236139  1
  Rb  Rb10  1  0.18763861  0.18763861  0.18763861  1
  Sn  Sn11  1  0.45042324  0.45042324  0.45042324  1
  Sn  Sn12  1  0.54957676  0.54957676  0.54957676  1
