# generated using pymatgen
data_YPS4
_symmetry_space_group_name_H-M   'P 1'
_cell_length_a   10.81537153
_cell_length_b   10.81537153
_cell_length_c   12.24994162
_cell_angle_alpha   116.19616784
_cell_angle_beta   116.19616782
_cell_angle_gamma   90.00000002
_symmetry_Int_Tables_number   1
_chemical_formula_structural   YPS4
_chemical_formula_sum   'Y8 P8 S32'
_cell_volume   1119.36366430
_cell_formula_units_Z   8
loop_
 _symmetry_equiv_pos_site_id
 _symmetry_equiv_pos_as_xyz
  1  'x, y, z'
loop_
 _atom_site_type_symbol
 _atom_site_label
 _atom_site_symmetry_multiplicity
 _atom_site_fract_x
 _atom_site_fract_y
 _atom_site_fract_z
 _atom_site_occupancy
  P  P0  1  0.28756194  0.25000000  0.50000000  1
  P  P1  1  0.78756194  0.25000000  0.50000000  1
  P  P2  1  0.75000000  0.78756194  0.00000000  1
  P  P3  1  0.25000000  0.71243806  0.00000000  1
  P  P4  1  0.71243806  0.75000000  0.50000000  1
  P  P5  1  0.21243806  0.75000000  0.50000000  1
  P  P6  1  0.25000000  0.21243806  0.00000000  1
  P  P7  1  0.75000000  0.28756194  0.00000000  1
  S  S8  1  0.08486968  0.61143188  0.99416575  1
  S  S9  1  0.90929607  0.88273387  0.99416575  1
  S  S10  1  0.61143188  0.90929607  0.49416575  1
  S  S11  1  0.88273387  0.08486968  0.49416575  1
  S  S12  1  0.41513032  0.61726613  0.00583425  1
  S  S13  1  0.59070393  0.88856812  0.00583425  1
  S  S14  1  0.88856812  0.41513032  0.50583425  1
  S  S15  1  0.61726613  0.59070393  0.50583425  1
  S  S16  1  0.34349024  0.40479702  0.17938699  1
  S  S17  1  0.27458997  0.34349024  0.67938699  1
  S  S18  1  0.40479702  0.83589675  0.67938699  1
  S  S19  1  0.66410325  0.09520298  0.82061301  1
  S  S20  1  0.15650976  0.22541003  0.82061301  1
  S  S21  1  0.22541003  0.66410325  0.32061301  1
  S  S22  1  0.09520298  0.15650976  0.32061301  1
  S  S23  1  0.83589675  0.27458997  0.17938699  1
  S  S24  1  0.65650976  0.59520298  0.82061301  1
  S  S25  1  0.72541003  0.65650976  0.32061301  1
  S  S26  1  0.59520298  0.16410325  0.32061301  1
  S  S27  1  0.33589675  0.90479702  0.17938699  1
  S  S28  1  0.84349024  0.77458997  0.17938699  1
  S  S29  1  0.77458997  0.33589675  0.67938699  1
  S  S30  1  0.90479702  0.84349024  0.67938699  1
  S  S31  1  0.16410325  0.72541003  0.82061301  1
  S  S32  1  0.09070393  0.11726613  0.00583425  1
  S  S33  1  0.38856812  0.09070393  0.50583425  1
  S  S34  1  0.11726613  0.91513032  0.50583425  1
  S  S35  1  0.58486968  0.38273387  0.99416575  1
  S  S36  1  0.40929607  0.11143188  0.99416575  1
  S  S37  1  0.11143188  0.58486968  0.49416575  1
  S  S38  1  0.38273387  0.40929607  0.49416575  1
  S  S39  1  0.91513032  0.38856812  0.00583425  1
  Y  Y40  1  0.87500000  0.12500000  0.75000000  1
  Y  Y41  1  0.12500000  0.87500000  0.25000000  1
  Y  Y42  1  0.62500000  0.37500000  0.25000000  1
  Y  Y43  1  0.37500000  0.62500000  0.75000000  1
  Y  Y44  1  0.62500000  0.87500000  0.25000000  1
  Y  Y45  1  0.87500000  0.62500000  0.75000000  1
  Y  Y46  1  0.37500000  0.12500000  0.75000000  1
  Y  Y47  1  0.12500000  0.37500000  0.25000000  1
