# generated using pymatgen
data_La2Fe2I
_symmetry_space_group_name_H-M   'P 1'
_cell_length_a   4.07097668
_cell_length_b   4.07097669
_cell_length_c   18.22854254
_cell_angle_alpha   90.00000000
_cell_angle_beta   90.00000000
_cell_angle_gamma   119.99999995
_symmetry_Int_Tables_number   1
_chemical_formula_structural   La2Fe2I
_chemical_formula_sum   'La4 Fe4 I2'
_cell_volume   261.62534126
_cell_formula_units_Z   2
loop_
 _symmetry_equiv_pos_site_id
 _symmetry_equiv_pos_as_xyz
  1  'x, y, z'
loop_
 _atom_site_type_symbol
 _atom_site_label
 _atom_site_symmetry_multiplicity
 _atom_site_fract_x
 _atom_site_fract_y
 _atom_site_fract_z
 _atom_site_occupancy
  Fe  Fe0  1  0.66666667  0.33333333  0.99820725  1
  Fe  Fe1  1  0.33333333  0.66666667  0.49820725  1
  Fe  Fe2  1  0.33333333  0.66666667  0.00179275  1
  Fe  Fe3  1  0.66666667  0.33333333  0.50179275  1
  I  I4  1  0.66666667  0.33333333  0.25000000  1
  I  I5  1  0.33333333  0.66666667  0.75000000  1
  La  La6  1  0.00000000  0.00000000  0.10566595  1
  La  La7  1  0.00000000  0.00000000  0.60566595  1
  La  La8  1  0.00000000  0.00000000  0.89433405  1
  La  La9  1  0.00000000  0.00000000  0.39433405  1
