# generated using pymatgen
data_Cs3BS3
_symmetry_space_group_name_H-M   'P 1'
_cell_length_a   6.74323857
_cell_length_b   10.86465492
_cell_length_c   13.84288799
_cell_angle_alpha   102.86503621
_cell_angle_beta   90.00000000
_cell_angle_gamma   90.00000000
_symmetry_Int_Tables_number   1
_chemical_formula_structural   Cs3BS3
_chemical_formula_sum   'Cs12 B4 S12'
_cell_volume   988.71246808
_cell_formula_units_Z   4
loop_
 _symmetry_equiv_pos_site_id
 _symmetry_equiv_pos_as_xyz
  1  'x, y, z'
loop_
 _atom_site_type_symbol
 _atom_site_label
 _atom_site_symmetry_multiplicity
 _atom_site_fract_x
 _atom_site_fract_y
 _atom_site_fract_z
 _atom_site_occupancy
  B  B0  1  0.12698604  0.76493309  0.37379660  1
  B  B1  1  0.62698604  0.23506691  0.12620340  1
  B  B2  1  0.87301396  0.23506691  0.62620340  1
  B  B3  1  0.37301396  0.76493309  0.87379660  1
  S  S4  1  0.94343494  0.72056903  0.27292089  1
  S  S5  1  0.44343494  0.27943097  0.22707911  1
  S  S6  1  0.05656506  0.27943097  0.72707911  1
  S  S7  1  0.55656506  0.72056903  0.77292089  1
  S  S8  1  0.28654072  0.90445547  0.38146719  1
  S  S9  1  0.78654072  0.09554453  0.11853281  1
  S  S10  1  0.71345928  0.09554453  0.61853281  1
  S  S11  1  0.21345928  0.90445547  0.88146719  1
  S  S12  1  0.34537058  0.66618402  0.96497011  1
  S  S13  1  0.84537058  0.33381598  0.53502989  1
  S  S14  1  0.65462942  0.33381598  0.03502989  1
  S  S15  1  0.15462942  0.66618402  0.46497011  1
  Cs  Cs16  1  0.64844663  0.74608723  0.50873932  1
  Cs  Cs17  1  0.14844663  0.25391277  0.99126068  1
  Cs  Cs18  1  0.35155337  0.25391277  0.49126068  1
  Cs  Cs19  1  0.85155337  0.74608723  0.00873932  1
  Cs  Cs20  1  0.28604425  0.96807412  0.14228489  1
  Cs  Cs21  1  0.78604425  0.03192588  0.35771511  1
  Cs  Cs22  1  0.71395575  0.03192588  0.85771511  1
  Cs  Cs23  1  0.21395575  0.96807412  0.64228489  1
  Cs  Cs24  1  0.44771008  0.59651428  0.19761510  1
  Cs  Cs25  1  0.94771008  0.40348572  0.30238490  1
  Cs  Cs26  1  0.55228992  0.40348572  0.80238490  1
  Cs  Cs27  1  0.05228992  0.59651428  0.69761510  1
