# generated using pymatgen
data_Sb2BrF15
_symmetry_space_group_name_H-M   'P 1'
_cell_length_a   5.37698033
_cell_length_b   14.58872315
_cell_length_c   14.87229748
_cell_angle_alpha   90.00000000
_cell_angle_beta   90.00000000
_cell_angle_gamma   88.00212504
_symmetry_Int_Tables_number   1
_chemical_formula_structural   Sb2BrF15
_chemical_formula_sum   'Sb8 Br4 F60'
_cell_volume   1165.92258497
_cell_formula_units_Z   4
loop_
 _symmetry_equiv_pos_site_id
 _symmetry_equiv_pos_as_xyz
  1  'x, y, z'
loop_
 _atom_site_type_symbol
 _atom_site_label
 _atom_site_symmetry_multiplicity
 _atom_site_fract_x
 _atom_site_fract_y
 _atom_site_fract_z
 _atom_site_occupancy
  F  F0  1  0.95441850  0.39272292  0.42494074  1
  F  F1  1  0.04558150  0.10727708  0.92494074  1
  F  F2  1  0.04558150  0.60727708  0.57505926  1
  F  F3  1  0.95441850  0.89272292  0.07505926  1
  F  F4  1  0.21028811  0.24149601  0.43036765  1
  F  F5  1  0.78971189  0.25850399  0.93036765  1
  F  F6  1  0.78971189  0.75850399  0.56963235  1
  F  F7  1  0.21028811  0.74149601  0.06963235  1
  F  F8  1  0.36415243  0.37826301  0.35545651  1
  F  F9  1  0.63584757  0.12173699  0.85545651  1
  F  F10  1  0.63584757  0.62173699  0.64454349  1
  F  F11  1  0.36415243  0.87826301  0.14454349  1
  F  F12  1  0.33185376  0.73122608  0.44045144  1
  F  F13  1  0.66814624  0.76877392  0.94045144  1
  F  F14  1  0.66814624  0.26877392  0.55954856  1
  F  F15  1  0.33185376  0.23122608  0.05954856  1
  F  F16  1  0.30201826  0.71632561  0.25346106  1
  F  F17  1  0.69798174  0.78367439  0.75346106  1
  F  F18  1  0.69798174  0.28367439  0.74653894  1
  F  F19  1  0.30201826  0.21632561  0.24653894  1
  F  F20  1  0.18961929  0.57258634  0.35560369  1
  F  F21  1  0.81038071  0.92741366  0.85560369  1
  F  F22  1  0.81038071  0.42741366  0.64439631  1
  F  F23  1  0.18961929  0.07258634  0.14439631  1
  F  F24  1  0.64430918  0.57325258  0.43559858  1
  F  F25  1  0.35569082  0.92674742  0.93559858  1
  F  F26  1  0.35569082  0.42674742  0.56440142  1
  F  F27  1  0.64430918  0.07325258  0.06440142  1
  F  F28  1  0.74929433  0.71920182  0.33099469  1
  F  F29  1  0.25070567  0.78079818  0.83099469  1
  F  F30  1  0.25070567  0.28079818  0.66900531  1
  F  F31  1  0.74929433  0.21920182  0.16900531  1
  F  F32  1  0.60154751  0.56272210  0.25377476  1
  F  F33  1  0.39845249  0.93727790  0.75377476  1
  F  F34  1  0.39845249  0.43727790  0.74622524  1
  F  F35  1  0.60154751  0.06272210  0.24622524  1
  F  F36  1  0.89465382  0.40970157  0.05778524  1
  F  F37  1  0.10534618  0.09029843  0.55778524  1
  F  F38  1  0.10534618  0.59029843  0.94221476  1
  F  F39  1  0.89465382  0.90970157  0.44221476  1
  F  F40  1  0.46506957  0.41484835  0.16282816  1
  F  F41  1  0.53493043  0.08515165  0.66282816  1
  F  F42  1  0.53493043  0.58515165  0.83717184  1
  F  F43  1  0.46506957  0.91484835  0.33717184  1
  F  F44  1  0.57797876  0.57068509  0.07059225  1
  F  F45  1  0.42202124  0.92931491  0.57059225  1
  F  F46  1  0.42202124  0.42931491  0.92940775  1
  F  F47  1  0.57797876  0.07068509  0.42940775  1
  F  F48  1  0.02328900  0.56235938  0.15798313  1
  F  F49  1  0.97671100  0.93764062  0.65798313  1
  F  F50  1  0.97671100  0.43764062  0.84201687  1
  F  F51  1  0.02328900  0.06235938  0.34201687  1
  F  F52  1  0.90388823  0.41127464  0.24449025  1
  F  F53  1  0.09611177  0.08872536  0.74449025  1
  F  F54  1  0.09611177  0.58872536  0.75550975  1
  F  F55  1  0.90388823  0.91127464  0.25550975  1
  F  F56  1  0.80265344  0.75299851  0.14241956  1
  F  F57  1  0.19734656  0.74700149  0.64241956  1
  F  F58  1  0.19734656  0.24700149  0.85758044  1
  F  F59  1  0.80265344  0.25299851  0.35758044  1
  Br  Br60  1  0.08474645  0.31465279  0.34864416  1
  Br  Br61  1  0.91525355  0.18534721  0.84864416  1
  Br  Br62  1  0.91525355  0.68534721  0.65135584  1
  Br  Br63  1  0.08474645  0.81465279  0.15135584  1
  Sb  Sb64  1  0.74834726  0.98614779  0.35346598  1
  Sb  Sb65  1  0.25165274  0.51385221  0.85346598  1
  Sb  Sb66  1  0.25165274  0.01385221  0.64653402  1
  Sb  Sb67  1  0.74834726  0.48614779  0.14653402  1
  Sb  Sb68  1  0.46535332  0.14937876  0.14669089  1
  Sb  Sb69  1  0.53464668  0.35062124  0.64669089  1
  Sb  Sb70  1  0.53464668  0.85062124  0.85330911  1
  Sb  Sb71  1  0.46535332  0.64937876  0.35330911  1
