# generated using pymatgen
data_Cs2PdSe8
_symmetry_space_group_name_H-M   'P 1'
_cell_length_a   12.79849516
_cell_length_b   12.79849516
_cell_length_c   12.79849516
_cell_angle_alpha   106.13068057
_cell_angle_beta   106.13068057
_cell_angle_gamma   116.38123650
_symmetry_Int_Tables_number   1
_chemical_formula_structural   Cs2PdSe8
_chemical_formula_sum   'Cs8 Pd4 Se32'
_cell_volume   1596.00985935
_cell_formula_units_Z   4
loop_
 _symmetry_equiv_pos_site_id
 _symmetry_equiv_pos_as_xyz
  1  'x, y, z'
loop_
 _atom_site_type_symbol
 _atom_site_label
 _atom_site_symmetry_multiplicity
 _atom_site_fract_x
 _atom_site_fract_y
 _atom_site_fract_z
 _atom_site_occupancy
  Se  Se0  1  0.84563175  0.93281124  0.09990859  1
  Se  Se1  1  0.74572315  0.84563175  0.41282051  1
  Se  Se2  1  0.93281124  0.33290264  0.08717949  1
  Se  Se3  1  0.33290264  0.74572315  0.40009141  1
  Se  Se4  1  0.56718876  0.65436825  0.40009141  1
  Se  Se5  1  0.65436825  0.75427685  0.08717949  1
  Se  Se6  1  0.16709736  0.56718876  0.41282051  1
  Se  Se7  1  0.75427685  0.16709736  0.09990859  1
  Se  Se8  1  0.15436825  0.06718876  0.90009141  1
  Se  Se9  1  0.25427685  0.15436825  0.58717949  1
  Se  Se10  1  0.06718876  0.66709736  0.91282051  1
  Se  Se11  1  0.66709736  0.25427685  0.59990859  1
  Se  Se12  1  0.41140319  0.79022539  0.93688534  1
  Se  Se13  1  0.79022539  0.35334005  0.37882220  1
  Se  Se14  1  0.47451785  0.41140319  0.12117780  1
  Se  Se15  1  0.35334005  0.47451785  0.56311466  1
  Se  Se16  1  0.70977461  0.08859681  0.56311466  1
  Se  Se17  1  0.14665995  0.70977461  0.12117780  1
  Se  Se18  1  0.08859681  0.02548215  0.37882220  1
  Se  Se19  1  0.02548215  0.14665995  0.93688534  1
  Se  Se20  1  0.58859681  0.20977461  0.06311466  1
  Se  Se21  1  0.20977461  0.64665995  0.62117780  1
  Se  Se22  1  0.52548215  0.58859681  0.87882220  1
  Se  Se23  1  0.64665995  0.52548215  0.43688534  1
  Se  Se24  1  0.29022539  0.91140319  0.43688534  1
  Se  Se25  1  0.85334005  0.29022539  0.87882220  1
  Se  Se26  1  0.91140319  0.97451785  0.62117780  1
  Se  Se27  1  0.97451785  0.85334005  0.06311466  1
  Se  Se28  1  0.24572315  0.83290264  0.90009141  1
  Se  Se29  1  0.83290264  0.43281124  0.58717949  1
  Se  Se30  1  0.34563175  0.24572315  0.91282051  1
  Se  Se31  1  0.43281124  0.34563175  0.59990859  1
  Pd  Pd32  1  0.37500000  0.62500000  0.75000000  1
  Pd  Pd33  1  0.62500000  0.37500000  0.25000000  1
  Pd  Pd34  1  0.87500000  0.12500000  0.75000000  1
  Pd  Pd35  1  0.12500000  0.87500000  0.25000000  1
  Cs  Cs36  1  0.74140949  0.75859051  0.75000000  1
  Cs  Cs37  1  0.75859051  0.50859051  0.01718102  1
  Cs  Cs38  1  0.99140949  0.74140949  0.48281898  1
  Cs  Cs39  1  0.50859051  0.99140949  0.75000000  1
  Cs  Cs40  1  0.49140949  0.00859051  0.25000000  1
  Cs  Cs41  1  0.00859051  0.25859051  0.51718102  1
  Cs  Cs42  1  0.24140949  0.49140949  0.98281898  1
  Cs  Cs43  1  0.25859051  0.24140949  0.25000000  1
