# generated using pymatgen
data_NpIO5
_symmetry_space_group_name_H-M   'P 1'
_cell_length_a   5.65009351
_cell_length_b   6.04436313
_cell_length_c   14.00002525
_cell_angle_alpha   90.00000000
_cell_angle_beta   90.00000000
_cell_angle_gamma   90.00000000
_symmetry_Int_Tables_number   1
_chemical_formula_structural   NpIO5
_chemical_formula_sum   'Np4 I4 O20'
_cell_volume   478.11789882
_cell_formula_units_Z   4
loop_
 _symmetry_equiv_pos_site_id
 _symmetry_equiv_pos_as_xyz
  1  'x, y, z'
loop_
 _atom_site_type_symbol
 _atom_site_label
 _atom_site_symmetry_multiplicity
 _atom_site_fract_x
 _atom_site_fract_y
 _atom_site_fract_z
 _atom_site_occupancy
  O  O0  1  0.60007923  -0.00345459  0.01072199  1
  O  O1  1  0.10007923  1.00345459  0.98927801  1
  O  O2  1  0.60007923  0.50345459  0.51072199  1
  O  O3  1  0.10007923  0.49654541  0.48927801  1
  O  O4  1  0.18988470  0.50977213  0.04490792  1
  O  O5  1  0.68988470  0.49022787  0.95509208  1
  O  O6  1  0.18988470  -0.00977213  0.54490792  1
  O  O7  1  0.68988470  1.00977213  0.45509208  1
  O  O8  1  0.82603023  0.24215348  0.63975743  1
  O  O9  1  0.32603023  0.75784652  0.36024257  1
  O  O10  1  0.82603023  0.25784652  0.13975743  1
  O  O11  1  0.32603023  0.74215348  0.86024257  1
  O  O12  1  0.74138843  0.10459076  0.82395511  1
  O  O13  1  0.24138843  0.89540924  0.17604489  1
  O  O14  1  0.74138843  0.39540924  0.32395511  1
  O  O15  1  0.24138843  0.60459076  0.67604489  1
  O  O16  1  0.67750917  0.81066653  0.67412572  1
  O  O17  1  0.17750917  0.18933347  0.32587428  1
  O  O18  1  0.67750917  0.68933347  0.17412572  1
  O  O19  1  0.17750917  0.31066653  0.82587428  1
  I  I20  1  0.39914798  0.50873072  0.78283474  1
  I  I21  1  0.89914798  0.49126928  0.21716526  1
  I  I22  1  0.39914798  -0.00873072  0.28283474  1
  I  I23  1  0.89914798  1.00873072  0.71716526  1
  Np  Np24  1  0.40307026  0.75218320  0.02892452  1
  Np  Np25  1  0.90307026  0.24781680  0.97107548  1
  Np  Np26  1  0.40307026  0.74781680  0.52892452  1
  Np  Np27  1  0.90307026  0.25218320  0.47107548  1
