# generated using pymatgen
data_W6CCl18
_symmetry_space_group_name_H-M   'P 1'
_cell_length_a   9.40841136
_cell_length_b   9.40841136
_cell_length_c   18.33670105
_cell_angle_alpha   90.00000000
_cell_angle_beta   90.00000000
_cell_angle_gamma   119.99999999
_symmetry_Int_Tables_number   1
_chemical_formula_structural   W6CCl18
_chemical_formula_sum   'W12 C2 Cl36'
_cell_volume   1405.67341638
_cell_formula_units_Z   2
loop_
 _symmetry_equiv_pos_site_id
 _symmetry_equiv_pos_as_xyz
  1  'x, y, z'
loop_
 _atom_site_type_symbol
 _atom_site_label
 _atom_site_symmetry_multiplicity
 _atom_site_fract_x
 _atom_site_fract_y
 _atom_site_fract_z
 _atom_site_occupancy
  C  C0  1  0.66666667  0.33333333  0.75000000  1
  C  C1  1  0.33333333  0.66666667  0.25000000  1
  Cl  Cl2  1  0.69600175  0.14203728  0.91682284  1
  Cl  Cl3  1  0.85796272  0.55396447  0.91682284  1
  Cl  Cl4  1  0.44603553  0.30399825  0.91682284  1
  Cl  Cl5  1  0.30399825  0.44603553  0.08317716  1
  Cl  Cl6  1  0.44603553  0.30399825  0.58317716  1
  Cl  Cl7  1  0.69600175  0.14203728  0.58317716  1
  Cl  Cl8  1  0.85796272  0.55396447  0.58317716  1
  Cl  Cl9  1  0.14203728  0.69600175  0.41682284  1
  Cl  Cl10  1  0.55396447  0.85796272  0.41682284  1
  Cl  Cl11  1  0.55396447  0.85796272  0.08317716  1
  Cl  Cl12  1  0.47366752  0.42852607  0.25000000  1
  Cl  Cl13  1  0.95485855  0.52633248  0.25000000  1
  Cl  Cl14  1  0.57147393  0.04514145  0.25000000  1
  Cl  Cl15  1  0.04514145  0.57147393  0.75000000  1
  Cl  Cl16  1  0.52633248  0.95485855  0.75000000  1
  Cl  Cl17  1  0.42852607  0.47366752  0.75000000  1
  Cl  Cl18  1  0.71445098  0.82577986  0.25000000  1
  Cl  Cl19  1  0.11132888  0.28554902  0.25000000  1
  Cl  Cl20  1  0.17422014  0.88867112  0.25000000  1
  Cl  Cl21  1  0.88867112  0.17422014  0.75000000  1
  Cl  Cl22  1  0.28554902  0.11132888  0.75000000  1
  Cl  Cl23  1  0.82577986  0.71445098  0.75000000  1
  Cl  Cl24  1  0.69680584  0.61151321  0.39206399  1
  Cl  Cl25  1  0.91470737  0.30319416  0.10793601  1
  Cl  Cl26  1  0.38848679  0.08529263  0.10793601  1
  Cl  Cl27  1  0.38848679  0.08529263  0.39206399  1
  Cl  Cl28  1  0.91470737  0.30319416  0.39206399  1
  Cl  Cl29  1  0.08529263  0.38848679  0.60793601  1
  Cl  Cl30  1  0.30319416  0.91470737  0.60793601  1
  Cl  Cl31  1  0.61151321  0.69680584  0.60793601  1
  Cl  Cl32  1  0.69680584  0.61151321  0.10793601  1
  Cl  Cl33  1  0.61151321  0.69680584  0.89206399  1
  Cl  Cl34  1  0.08529263  0.38848679  0.89206399  1
  Cl  Cl35  1  0.30319416  0.91470737  0.89206399  1
  Cl  Cl36  1  0.30399825  0.44603553  0.41682284  1
  Cl  Cl37  1  0.14203728  0.69600175  0.08317716  1
  W  W38  1  0.51066475  0.15327342  0.83027921  1
  W  W39  1  0.84672658  0.35739133  0.83027921  1
  W  W40  1  0.64260867  0.48933525  0.83027921  1
  W  W41  1  0.48933525  0.64260867  0.16972079  1
  W  W42  1  0.64260867  0.48933525  0.66972079  1
  W  W43  1  0.51066475  0.15327342  0.66972079  1
  W  W44  1  0.84672658  0.35739133  0.66972079  1
  W  W45  1  0.15327342  0.51066475  0.33027921  1
  W  W46  1  0.35739133  0.84672658  0.33027921  1
  W  W47  1  0.35739133  0.84672658  0.16972079  1
  W  W48  1  0.15327342  0.51066475  0.16972079  1
  W  W49  1  0.48933525  0.64260867  0.33027921  1
