# generated using pymatgen
data_Li3Cr(PO4)2
_symmetry_space_group_name_H-M   'P 1'
_cell_length_a   5.13303181
_cell_length_b   12.48346903
_cell_length_c   17.96316941
_cell_angle_alpha   90.00000000
_cell_angle_beta   90.00000000
_cell_angle_gamma   90.00000000
_symmetry_Int_Tables_number   1
_chemical_formula_structural   Li3Cr(PO4)2
_chemical_formula_sum   'Li24 Cr8 P16 O64'
_cell_volume   1151.04475319
_cell_formula_units_Z   8
loop_
 _symmetry_equiv_pos_site_id
 _symmetry_equiv_pos_as_xyz
  1  'x, y, z'
loop_
 _atom_site_type_symbol
 _atom_site_label
 _atom_site_symmetry_multiplicity
 _atom_site_fract_x
 _atom_site_fract_y
 _atom_site_fract_z
 _atom_site_occupancy
  Li  Li0  1  0.09606892  0.35109967  0.24020346  1
  Li  Li1  1  0.09606892  0.14890033  0.74020346  1
  Li  Li2  1  0.09239551  0.46158322  0.05830325  1
  Li  Li3  1  0.09239551  0.03841678  0.55830325  1
  Li  Li4  1  0.03764771  0.71173758  0.42939799  1
  Li  Li5  1  0.03764771  0.78826242  0.92939799  1
  Li  Li6  1  0.47564349  0.03925233  0.80907490  1
  Li  Li7  1  0.47564349  0.46074767  0.30907490  1
  Li  Li8  1  0.38627015  0.70571542  0.67572498  1
  Li  Li9  1  0.38627015  0.79428458  0.17572498  1
  Li  Li10  1  0.42158609  0.60573024  0.49485362  1
  Li  Li11  1  0.42158609  0.89426976  0.99485362  1
  Li  Li12  1  0.57841391  0.10573024  0.49485362  1
  Li  Li13  1  0.57841391  0.39426976  0.99485362  1
  Li  Li14  1  0.61372985  0.29428458  0.17572498  1
  Li  Li15  1  0.61372985  0.20571542  0.67572498  1
  Li  Li16  1  0.52435651  0.53925233  0.80907490  1
  Li  Li17  1  0.52435651  0.96074767  0.30907490  1
  Li  Li18  1  0.96235229  0.28826242  0.92939799  1
  Li  Li19  1  0.96235229  0.21173758  0.42939799  1
  Li  Li20  1  0.90760449  0.96158322  0.05830325  1
  Li  Li21  1  0.90760449  0.53841678  0.55830325  1
  Li  Li22  1  0.90393108  0.85109967  0.24020346  1
  Li  Li23  1  0.90393108  0.64890033  0.74020346  1
  Cr  Cr24  1  0.05677427  0.08061861  0.24434012  1
  Cr  Cr25  1  0.05677427  0.41938139  0.74434012  1
  Cr  Cr26  1  0.46580238  0.16683691  0.98413250  1
  Cr  Cr27  1  0.46580238  0.33316309  0.48413250  1
  Cr  Cr28  1  0.53419762  0.66683691  0.98413250  1
  Cr  Cr29  1  0.53419762  0.83316309  0.48413250  1
  Cr  Cr30  1  0.94322573  0.58061861  0.24434012  1
  Cr  Cr31  1  0.94322573  0.91938139  0.74434012  1
  P  P32  1  0.99145965  0.71733589  0.07860261  1
  P  P33  1  0.99145965  0.78266411  0.57860261  1
  P  P34  1  0.03022048  0.95967954  0.40732290  1
  P  P35  1  0.03022048  0.54032046  0.90732290  1
  P  P36  1  0.45146322  0.71038991  0.32153758  1
  P  P37  1  0.45146322  0.78961009  0.82153758  1
  P  P38  1  0.48668984  0.53791395  0.15105223  1
  P  P39  1  0.48668984  0.96208605  0.65105223  1
  P  P40  1  0.51331016  0.03791395  0.15105223  1
  P  P41  1  0.51331016  0.46208605  0.65105223  1
  P  P42  1  0.54853678  0.21038991  0.32153758  1
  P  P43  1  0.54853678  0.28961009  0.82153758  1
  P  P44  1  0.96977952  0.04032046  0.90732290  1
  P  P45  1  0.96977952  0.45967954  0.40732290  1
  P  P46  1  0.00854035  0.21733589  0.07860261  1
  P  P47  1  0.00854035  0.28266411  0.57860261  1
  O  O48  1  0.02189141  0.47161597  0.32126370  1
  O  O49  1  0.02189141  0.02838403  0.82126370  1
  O  O50  1  0.01602141  0.76172139  0.15825066  1
  O  O51  1  0.01602141  0.73827861  0.65825066  1
  O  O52  1  0.04808253  0.09808153  0.07433695  1
  O  O53  1  0.04808253  0.40191847  0.57433695  1
  O  O54  1  0.06096709  0.55747103  0.45157177  1
  O  O55  1  0.06096709  0.94252897  0.95157177  1
  O  O56  1  0.13294210  0.35873166  0.42562110  1
  O  O57  1  0.13294210  0.14126834  0.92562110  1
  O  O58  1  0.15920793  0.69072906  0.30140353  1
  O  O59  1  0.15920793  0.80927094  0.80140353  1
  O  O60  1  0.23629050  0.27725735  0.03614367  1
  O  O61  1  0.23629050  0.22274265  0.53614367  1
  O  O62  1  0.23376231  0.49938224  0.19318534  1
  O  O63  1  0.23376231  0.00061776  0.69318534  1
  O  O64  1  0.24416950  0.75102783  0.03403513  1
  O  O65  1  0.24416950  0.74897217  0.53403513  1
  O  O66  1  0.28945102  0.52694343  0.69118690  1
  O  O67  1  0.28945102  0.97305657  0.19118690  1
  O  O68  1  0.32692492  0.56125193  0.91981878  1
  O  O69  1  0.32692492  0.93874807  0.41981878  1
  O  O70  1  0.37754805  0.11051766  0.30693353  1
  O  O71  1  0.37754805  0.38948234  0.80693353  1
  O  O72  1  0.44643150  0.19028649  0.78116769  1
  O  O73  1  0.44643150  0.30971351  0.28116769  1
  O  O74  1  0.46544847  0.99648057  0.56793507  1
  O  O75  1  0.46544847  0.50351943  0.06793507  1
  O  O76  1  0.45178147  0.72181553  0.40859486  1
  O  O77  1  0.45178147  0.77818447  0.90859486  1
  O  O78  1  0.46937912  0.15637748  0.16074521  1
  O  O79  1  0.46937912  0.34362252  0.66074521  1
  O  O80  1  0.53062088  0.65637748  0.16074521  1
  O  O81  1  0.53062088  0.84362252  0.66074521  1
  O  O82  1  0.54821853  0.27818447  0.90859486  1
  O  O83  1  0.54821853  0.22181553  0.40859486  1
  O  O84  1  0.53455153  0.49648057  0.56793507  1
  O  O85  1  0.53455153  0.00351943  0.06793507  1
  O  O86  1  0.55356850  0.69028649  0.78116769  1
  O  O87  1  0.55356850  0.80971351  0.28116769  1
  O  O88  1  0.62245195  0.61051766  0.30693353  1
  O  O89  1  0.62245195  0.88948234  0.80693353  1
  O  O90  1  0.67307508  0.06125193  0.91981878  1
  O  O91  1  0.67307508  0.43874807  0.41981878  1
  O  O92  1  0.71054898  0.47305657  0.19118690  1
  O  O93  1  0.71054898  0.02694343  0.69118690  1
  O  O94  1  0.75583050  0.24897217  0.53403513  1
  O  O95  1  0.75583050  0.25102783  0.03403513  1
  O  O96  1  0.76623769  0.50061776  0.69318534  1
  O  O97  1  0.76623769  0.99938224  0.19318534  1
  O  O98  1  0.76370950  0.77725735  0.03614367  1
  O  O99  1  0.76370950  0.72274265  0.53614367  1
  O  O100  1  0.84079207  0.19072906  0.30140353  1
  O  O101  1  0.84079207  0.30927094  0.80140353  1
  O  O102  1  0.86705790  0.64126834  0.92562110  1
  O  O103  1  0.86705790  0.85873166  0.42562110  1
  O  O104  1  0.93903291  0.44252897  0.95157177  1
  O  O105  1  0.93903291  0.05747103  0.45157177  1
  O  O106  1  0.95191747  0.59808153  0.07433695  1
  O  O107  1  0.95191747  0.90191847  0.57433695  1
  O  O108  1  0.98397859  0.26172139  0.15825066  1
  O  O109  1  0.98397859  0.23827861  0.65825066  1
  O  O110  1  0.97810859  0.52838403  0.82126370  1
  O  O111  1  0.97810859  0.97161597  0.32126370  1
