# generated using pymatgen
data_Bi3SbO7
_symmetry_space_group_name_H-M   'P 1'
_cell_length_a   6.69533367
_cell_length_b   7.03391445
_cell_length_c   7.70499889
_cell_angle_alpha   73.74948517
_cell_angle_beta   89.51127983
_cell_angle_gamma   76.86935368
_symmetry_Int_Tables_number   1
_chemical_formula_structural   Bi3SbO7
_chemical_formula_sum   'Bi6 Sb2 O14'
_cell_volume   338.66845617
_cell_formula_units_Z   2
loop_
 _symmetry_equiv_pos_site_id
 _symmetry_equiv_pos_as_xyz
  1  'x, y, z'
loop_
 _atom_site_type_symbol
 _atom_site_label
 _atom_site_symmetry_multiplicity
 _atom_site_fract_x
 _atom_site_fract_y
 _atom_site_fract_z
 _atom_site_occupancy
  O  O0  1  0.53597227  0.62779474  0.82087874  1
  O  O1  1  0.46402773  0.37220526  0.17912126  1
  O  O2  1  0.72390531  0.94448434  0.05378921  1
  O  O3  1  0.27609469  0.05551566  0.94621079  1
  O  O4  1  0.72362070  0.94173237  0.47983284  1
  O  O5  1  0.27637930  0.05826763  0.52016716  1
  O  O6  1  0.46655601  0.34320407  0.64177856  1
  O  O7  1  0.53344399  0.65679593  0.35822144  1
  O  O8  1  0.11038227  0.69863091  0.03857534  1
  O  O9  1  0.88961773  0.30136909  0.96142466  1
  O  O10  1  0.89262658  0.30156343  0.38504228  1
  O  O11  1  0.10737342  0.69843657  0.61495772  1
  O  O12  1  0.09521888  0.92777219  0.26848525  1
  O  O13  1  0.90478112  0.07222781  0.73151475  1
  Sb  Sb14  1  0.00000000  0.00000000  0.50000000  1
  Sb  Sb15  1  0.00000000  0.00000000  0.00000000  1
  Bi  Bi16  1  0.48315977  0.00779521  0.25537943  1
  Bi  Bi17  1  0.51684023  0.99220479  0.74462057  1
  Bi  Bi18  1  0.73314636  0.50800039  0.12311362  1
  Bi  Bi19  1  0.26685364  0.49199961  0.87688638  1
  Bi  Bi20  1  0.25844497  0.54052272  0.36726262  1
  Bi  Bi21  1  0.74155503  0.45947728  0.63273738  1
