# generated using pymatgen
data_Ga2Ir
_symmetry_space_group_name_H-M   'P 1'
_cell_length_a   3.93735931
_cell_length_b   6.85871658
_cell_length_c   11.00719018
_cell_angle_alpha   90.00000000
_cell_angle_beta   90.00000000
_cell_angle_gamma   106.68042368
_symmetry_Int_Tables_number   1
_chemical_formula_structural   Ga2Ir
_chemical_formula_sum   'Ga12 Ir6'
_cell_volume   284.74355228
_cell_formula_units_Z   6
loop_
 _symmetry_equiv_pos_site_id
 _symmetry_equiv_pos_as_xyz
  1  'x, y, z'
loop_
 _atom_site_type_symbol
 _atom_site_label
 _atom_site_symmetry_multiplicity
 _atom_site_fract_x
 _atom_site_fract_y
 _atom_site_fract_z
 _atom_site_occupancy
  Ga  Ga0  1  0.44123914  0.88247828  0.60585317  1
  Ga  Ga1  1  0.55876086  0.11752172  0.39414683  1
  Ga  Ga2  1  0.55876086  0.11752172  0.10585317  1
  Ga  Ga3  1  0.44123914  0.88247828  0.89414683  1
  Ga  Ga4  1  0.82151202  0.64302404  0.51764178  1
  Ga  Ga5  1  0.17848798  0.35697596  0.48235822  1
  Ga  Ga6  1  0.23374625  0.46749250  0.75000000  1
  Ga  Ga7  1  0.76625375  0.53250750  0.25000000  1
  Ga  Ga8  1  0.04040460  0.08080921  0.75000000  1
  Ga  Ga9  1  0.95959540  0.91919079  0.25000000  1
  Ga  Ga10  1  0.82151202  0.64302404  0.98235822  1
  Ga  Ga11  1  0.17848798  0.35697596  0.01764178  1
  Ir  Ir12  1  0.64029486  0.28058971  0.62281354  1
  Ir  Ir13  1  0.35970514  0.71941029  0.37718646  1
  Ir  Ir14  1  0.35970514  0.71941029  0.12281354  1
  Ir  Ir15  1  0.64029486  0.28058971  0.87718646  1
  Ir  Ir16  1  0.14868410  0.29736820  0.25000000  1
  Ir  Ir17  1  0.85131590  0.70263180  0.75000000  1
