# generated using pymatgen
data_K4P21I
_symmetry_space_group_name_H-M   'P 1'
_cell_length_a   9.88348171
_cell_length_b   12.85822198
_cell_length_c   12.85822198
_cell_angle_alpha   117.25610686
_cell_angle_beta   90.00000000
_cell_angle_gamma   90.00000000
_symmetry_Int_Tables_number   1
_chemical_formula_structural   K4P21I
_chemical_formula_sum   'K8 P42 I2'
_cell_volume   1452.64031231
_cell_formula_units_Z   2
loop_
 _symmetry_equiv_pos_site_id
 _symmetry_equiv_pos_as_xyz
  1  'x, y, z'
loop_
 _atom_site_type_symbol
 _atom_site_label
 _atom_site_symmetry_multiplicity
 _atom_site_fract_x
 _atom_site_fract_y
 _atom_site_fract_z
 _atom_site_occupancy
  P  P0  1  0.75000000  0.03962074  0.03962074  1
  P  P1  1  0.25000000  0.96037926  0.96037926  1
  P  P2  1  0.75000000  0.33705304  0.79116787  1
  P  P3  1  0.25000000  0.66294696  0.20883213  1
  P  P4  1  0.75000000  0.79116787  0.33705304  1
  P  P5  1  0.25000000  0.20883213  0.66294696  1
  P  P6  1  0.07571859  0.68951770  0.99198577  1
  P  P7  1  0.57571859  0.31048230  0.00801423  1
  P  P8  1  0.42428141  0.99198577  0.68951770  1
  P  P9  1  0.92428141  0.00801423  0.31048230  1
  P  P10  1  0.08430355  0.94079651  0.49872653  1
  P  P11  1  0.58430355  0.05920349  0.50127347  1
  P  P12  1  0.41569645  0.49872653  0.94079651  1
  P  P13  1  0.91569645  0.50127347  0.05920349  1
  P  P14  1  0.91569645  0.05920349  0.50127347  1
  P  P15  1  0.41569645  0.94079651  0.49872653  1
  P  P16  1  0.58430355  0.50127347  0.05920349  1
  P  P17  1  0.08430355  0.49872653  0.94079651  1
  P  P18  1  0.08644330  0.85423001  0.85423001  1
  P  P19  1  0.58644330  0.14576999  0.14576999  1
  P  P20  1  0.41355670  0.85423001  0.85423001  1
  P  P21  1  0.91355670  0.14576999  0.14576999  1
  P  P22  1  0.25000000  0.05642627  0.49415276  1
  P  P23  1  0.75000000  0.94357373  0.50584724  1
  P  P24  1  0.25000000  0.49415276  0.05642627  1
  P  P25  1  0.75000000  0.50584724  0.94357373  1
  P  P26  1  0.25000000  0.11795715  0.76801129  1
  P  P27  1  0.75000000  0.88204285  0.23198871  1
  P  P28  1  0.25000000  0.76801129  0.11795715  1
  P  P29  1  0.75000000  0.23198871  0.88204285  1
  P  P30  1  0.13510735  0.81955658  0.67122071  1
  P  P31  1  0.63510735  0.18044342  0.32877929  1
  P  P32  1  0.36489265  0.67122071  0.81955658  1
  P  P33  1  0.86489265  0.32877929  0.18044342  1
  P  P34  1  0.86489265  0.18044342  0.32877929  1
  P  P35  1  0.36489265  0.81955658  0.67122071  1
  P  P36  1  0.63510735  0.32877929  0.18044342  1
  P  P37  1  0.13510735  0.67122071  0.81955658  1
  P  P38  1  0.07571859  0.99198577  0.68951770  1
  P  P39  1  0.57571859  0.00801423  0.31048230  1
  P  P40  1  0.42428141  0.68951770  0.99198577  1
  P  P41  1  0.92428141  0.31048230  0.00801423  1
  K  K42  1  0.75000000  0.75382122  0.93160749  1
  K  K43  1  0.25000000  0.24617878  0.06839251  1
  K  K44  1  0.75000000  0.93160749  0.75382122  1
  K  K45  1  0.25000000  0.06839251  0.24617878  1
  K  K46  1  0.50000000  0.62089634  0.37910366  1
  K  K47  1  0.00000000  0.37910366  0.62089634  1
  K  K48  1  0.50000000  0.37910366  0.62089634  1
  K  K49  1  0.00000000  0.62089634  0.37910366  1
  I  I50  1  0.75000000  0.60087889  0.60087889  1
  I  I51  1  0.25000000  0.39912111  0.39912111  1
