# generated using pymatgen
data_La2I5
_symmetry_space_group_name_H-M   'P 1'
_cell_length_a   4.43713661
_cell_length_b   9.23968034
_cell_length_c   14.99629820
_cell_angle_alpha   86.86648435
_cell_angle_beta   90.00000000
_cell_angle_gamma   90.00000000
_symmetry_Int_Tables_number   1
_chemical_formula_structural   La2I5
_chemical_formula_sum   'La4 I10'
_cell_volume   613.89486314
_cell_formula_units_Z   2
loop_
 _symmetry_equiv_pos_site_id
 _symmetry_equiv_pos_as_xyz
  1  'x, y, z'
loop_
 _atom_site_type_symbol
 _atom_site_label
 _atom_site_symmetry_multiplicity
 _atom_site_fract_x
 _atom_site_fract_y
 _atom_site_fract_z
 _atom_site_occupancy
  I  I0  1  0.25000000  0.35891003  0.28090860  1
  I  I1  1  0.75000000  0.64108997  0.71909140  1
  I  I2  1  0.25000000  0.86034447  0.92906407  1
  I  I3  1  0.75000000  0.13965553  0.07093593  1
  I  I4  1  0.75000000  0.31446235  0.51276022  1
  I  I5  1  0.25000000  0.68553765  0.48723978  1
  I  I6  1  0.75000000  0.94108352  0.31253229  1
  I  I7  1  0.25000000  0.05891648  0.68746771  1
  I  I8  1  0.75000000  0.65299482  0.12526744  1
  I  I9  1  0.25000000  0.34700518  0.87473256  1
  La  La10  1  0.25000000  0.90512238  0.15396754  1
  La  La11  1  0.75000000  0.09487762  0.84603246  1
  La  La12  1  0.25000000  0.41715773  0.65647883  1
  La  La13  1  0.75000000  0.58284227  0.34352117  1
