# generated using pymatgen
data_Cs3As5O9
_symmetry_space_group_name_H-M   'P 1'
_cell_length_a   8.70441208
_cell_length_b   8.70441208
_cell_length_c   6.21080460
_cell_angle_alpha   90.00000000
_cell_angle_beta   90.00000000
_cell_angle_gamma   119.99999999
_symmetry_Int_Tables_number   1
_chemical_formula_structural   Cs3As5O9
_chemical_formula_sum   'Cs3 As5 O9'
_cell_volume   407.52793502
_cell_formula_units_Z   1
loop_
 _symmetry_equiv_pos_site_id
 _symmetry_equiv_pos_as_xyz
  1  'x, y, z'
loop_
 _atom_site_type_symbol
 _atom_site_label
 _atom_site_symmetry_multiplicity
 _atom_site_fract_x
 _atom_site_fract_y
 _atom_site_fract_z
 _atom_site_occupancy
  O  O0  1  0.71807002  0.18664089  0.62655592  1
  O  O1  1  0.81335911  0.53142913  0.62655592  1
  O  O2  1  0.46857087  0.28192998  0.62655592  1
  O  O3  1  0.18664089  0.71807002  0.62655592  1
  O  O4  1  0.53142913  0.81335911  0.62655592  1
  O  O5  1  0.28192998  0.46857087  0.62655592  1
  O  O6  1  0.31932592  0.31932592  0.23540707  1
  O  O7  1  0.00000000  0.68067408  0.23540707  1
  O  O8  1  0.68067408  0.00000000  0.23540707  1
  As  As9  1  0.66666667  0.33333333  0.47256957  1
  As  As10  1  0.33333333  0.66666667  0.47256957  1
  As  As11  1  0.26078330  0.26078330  0.49809031  1
  As  As12  1  0.00000000  0.73921670  0.49809031  1
  As  As13  1  0.73921670  0.00000000  0.49809031  1
  Cs  Cs14  1  0.62835995  0.62835995  0.99571107  1
  Cs  Cs15  1  0.00000000  0.37164005  0.99571107  1
  Cs  Cs16  1  0.37164005  0.00000000  0.99571107  1
