# generated using pymatgen
data_Ba(TeP2)2
_symmetry_space_group_name_H-M   'P 1'
_cell_length_a   6.53021670
_cell_length_b   7.24692867
_cell_length_c   16.68043279
_cell_angle_alpha   90.00000000
_cell_angle_beta   90.00000000
_cell_angle_gamma   90.00000000
_symmetry_Int_Tables_number   1
_chemical_formula_structural   Ba(TeP2)2
_chemical_formula_sum   'Ba4 Te8 P16'
_cell_volume   789.38504530
_cell_formula_units_Z   4
loop_
 _symmetry_equiv_pos_site_id
 _symmetry_equiv_pos_as_xyz
  1  'x, y, z'
loop_
 _atom_site_type_symbol
 _atom_site_label
 _atom_site_symmetry_multiplicity
 _atom_site_fract_x
 _atom_site_fract_y
 _atom_site_fract_z
 _atom_site_occupancy
  P  P0  1  0.25000000  0.83194154  0.59587340  1
  P  P1  1  0.75000000  0.16805846  0.40412660  1
  P  P2  1  0.75000000  0.33194154  0.90412660  1
  P  P3  1  0.25000000  0.66805846  0.09587340  1
  P  P4  1  0.50790591  0.96466488  0.43477989  1
  P  P5  1  0.00790591  0.03533512  0.56522011  1
  P  P6  1  0.49209409  0.46466488  0.06522011  1
  P  P7  1  0.99209409  0.53533512  0.93477989  1
  P  P8  1  0.49209409  0.03533512  0.56522011  1
  P  P9  1  0.99209409  0.96466488  0.43477989  1
  P  P10  1  0.50790591  0.53533512  0.93477989  1
  P  P11  1  0.00790591  0.46466488  0.06522011  1
  P  P12  1  0.25000000  0.12049302  0.37871580  1
  P  P13  1  0.75000000  0.87950698  0.62128420  1
  P  P14  1  0.75000000  0.62049302  0.12128420  1
  P  P15  1  0.25000000  0.37950698  0.87871580  1
  Te  Te16  1  0.75000000  0.56249137  0.56348020  1
  Te  Te17  1  0.25000000  0.43750863  0.43651980  1
  Te  Te18  1  0.25000000  0.06249137  0.93651980  1
  Te  Te19  1  0.75000000  0.93750863  0.06348020  1
  Te  Te20  1  0.25000000  0.90706292  0.74655827  1
  Te  Te21  1  0.75000000  0.09293708  0.25344173  1
  Te  Te22  1  0.75000000  0.40706292  0.75344173  1
  Te  Te23  1  0.25000000  0.59293708  0.24655827  1
  Ba  Ba24  1  0.25000000  0.39857134  0.66203062  1
  Ba  Ba25  1  0.75000000  0.60142866  0.33796938  1
  Ba  Ba26  1  0.75000000  0.89857134  0.83796938  1
  Ba  Ba27  1  0.25000000  0.10142866  0.16203062  1
