# generated using pymatgen
data_BaSi2O5
_symmetry_space_group_name_H-M   'P 1'
_cell_length_a   4.70813772
_cell_length_b   7.79185427
_cell_length_c   13.72438281
_cell_angle_alpha   90.00000000
_cell_angle_beta   90.00000000
_cell_angle_gamma   90.00000000
_symmetry_Int_Tables_number   1
_chemical_formula_structural   BaSi2O5
_chemical_formula_sum   'Ba4 Si8 O20'
_cell_volume   503.48067145
_cell_formula_units_Z   4
loop_
 _symmetry_equiv_pos_site_id
 _symmetry_equiv_pos_as_xyz
  1  'x, y, z'
loop_
 _atom_site_type_symbol
 _atom_site_label
 _atom_site_symmetry_multiplicity
 _atom_site_fract_x
 _atom_site_fract_y
 _atom_site_fract_z
 _atom_site_occupancy
  O  O0  1  0.85111622  0.05118723  0.21873993  1
  O  O1  1  0.35111622  0.94881277  0.28126007  1
  O  O2  1  0.14888378  0.55118723  0.78126007  1
  O  O3  1  0.64888378  0.44881277  0.71873993  1
  O  O4  1  0.14888378  0.94881277  0.78126007  1
  O  O5  1  0.64888378  0.05118723  0.71873993  1
  O  O6  1  0.85111622  0.44881277  0.21873993  1
  O  O7  1  0.35111622  0.55118723  0.28126007  1
  O  O8  1  0.76444067  0.96207110  0.41344279  1
  O  O9  1  0.26444067  0.03792890  0.08655721  1
  O  O10  1  0.23555933  0.46207110  0.58655721  1
  O  O11  1  0.73555933  0.53792890  0.91344279  1
  O  O12  1  0.05785605  0.75000000  0.16205721  1
  O  O13  1  0.55785605  0.25000000  0.33794279  1
  O  O14  1  0.94214395  0.25000000  0.83794279  1
  O  O15  1  0.44214395  0.75000000  0.66205721  1
  O  O16  1  0.26444067  0.46207110  0.08655721  1
  O  O17  1  0.76444067  0.53792890  0.41344279  1
  O  O18  1  0.73555933  0.96207110  0.91344279  1
  O  O19  1  0.23555933  0.03792890  0.58655721  1
  Si  Si20  1  0.64489165  0.04778316  0.31632585  1
  Si  Si21  1  0.14489165  0.95221684  0.18367415  1
  Si  Si22  1  0.35510835  0.54778316  0.68367415  1
  Si  Si23  1  0.85510835  0.45221684  0.81632585  1
  Si  Si24  1  0.35510835  0.95221684  0.68367415  1
  Si  Si25  1  0.85510835  0.04778316  0.81632585  1
  Si  Si26  1  0.64489165  0.45221684  0.31632585  1
  Si  Si27  1  0.14489165  0.54778316  0.18367415  1
  Ba  Ba28  1  0.28432524  0.75000000  0.95590481  1
  Ba  Ba29  1  0.78432524  0.25000000  0.54409519  1
  Ba  Ba30  1  0.71567476  0.25000000  0.04409519  1
  Ba  Ba31  1  0.21567476  0.75000000  0.45590481  1
