# generated using pymatgen
data_Li2Mn3O6
_symmetry_space_group_name_H-M   'P 1'
_cell_length_a   5.18898989
_cell_length_b   5.18179854
_cell_length_c   10.25068968
_cell_angle_alpha   90.00000000
_cell_angle_beta   90.00000000
_cell_angle_gamma   60.04583153
_symmetry_Int_Tables_number   1
_chemical_formula_structural   Li2Mn3O6
_chemical_formula_sum   'Li4 Mn6 O12'
_cell_volume   238.80721915
_cell_formula_units_Z   2
loop_
 _symmetry_equiv_pos_site_id
 _symmetry_equiv_pos_as_xyz
  1  'x, y, z'
loop_
 _atom_site_type_symbol
 _atom_site_label
 _atom_site_symmetry_multiplicity
 _atom_site_fract_x
 _atom_site_fract_y
 _atom_site_fract_z
 _atom_site_occupancy
  Li  Li0  1  0.50000000  0.15329723  0.75000000  1
  Li  Li1  1  0.50000000  0.34670277  0.25000000  1
  Li  Li2  1  0.50000000  0.65329723  0.75000000  1
  Li  Li3  1  0.50000000  0.84670277  0.25000000  1
  Mn  Mn4  1  0.00000000  0.00000000  0.00000000  1
  Mn  Mn5  1  0.00000000  0.50000000  0.50000000  1
  Mn  Mn6  1  0.32715047  0.33642427  0.00000000  1
  Mn  Mn7  1  0.32715047  0.83642427  0.50000000  1
  Mn  Mn8  1  0.67284953  0.16357573  0.50000000  1
  Mn  Mn9  1  0.67284953  0.66357573  0.00000000  1
  O  O10  1  1.00000000  0.17342249  0.59203850  1
  O  O11  1  0.00000000  0.32657751  0.09203850  1
  O  O12  1  1.00000000  0.67342249  0.90796150  1
  O  O13  1  0.36396470  0.97794402  0.89266050  1
  O  O14  1  0.00000000  0.82657751  0.40796150  1
  O  O15  1  0.36396470  0.15809128  0.39266050  1
  O  O16  1  0.36396470  0.47794402  0.60733950  1
  O  O17  1  0.36396470  0.65809128  0.10733950  1
  O  O18  1  0.63603530  0.02205598  0.10733950  1
  O  O19  1  0.63603530  0.34190872  0.89266050  1
  O  O20  1  0.63603530  0.52205598  0.39266050  1
  O  O21  1  0.63603530  0.84190872  0.60733950  1
