# generated using pymatgen
data_La2CuS4
_symmetry_space_group_name_H-M   'P 1'
_cell_length_a   7.57246168
_cell_length_b   7.76117955
_cell_length_c   10.89723019
_cell_angle_alpha   104.51401550
_cell_angle_beta   90.00000000
_cell_angle_gamma   90.00000000
_symmetry_Int_Tables_number   1
_chemical_formula_structural   La2CuS4
_chemical_formula_sum   'La8 Cu4 S16'
_cell_volume   620.00478704
_cell_formula_units_Z   4
loop_
 _symmetry_equiv_pos_site_id
 _symmetry_equiv_pos_as_xyz
  1  'x, y, z'
loop_
 _atom_site_type_symbol
 _atom_site_label
 _atom_site_symmetry_multiplicity
 _atom_site_fract_x
 _atom_site_fract_y
 _atom_site_fract_z
 _atom_site_occupancy
  S  S0  1  0.94513904  0.88950785  0.02615439  1
  S  S1  1  0.44513904  0.11049215  0.47384561  1
  S  S2  1  0.05486096  0.11049215  0.97384561  1
  S  S3  1  0.55486096  0.88950785  0.52615439  1
  S  S4  1  0.07037169  0.79263149  0.37409620  1
  S  S5  1  0.57037169  0.20736851  0.12590380  1
  S  S6  1  0.92962831  0.20736851  0.62590380  1
  S  S7  1  0.42962831  0.79263149  0.87409620  1
  S  S8  1  0.60449815  0.75259598  0.20800160  1
  S  S9  1  0.10449815  0.24740402  0.29199840  1
  S  S10  1  0.39550185  0.24740402  0.79199840  1
  S  S11  1  0.89550185  0.75259598  0.70800160  1
  S  S12  1  0.78804434  0.44517536  0.91258019  1
  S  S13  1  0.28804434  0.55482464  0.58741981  1
  S  S14  1  0.21195566  0.55482464  0.08741981  1
  S  S15  1  0.71195566  0.44517536  0.41258019  1
  Cu  Cu16  1  0.61488324  0.67791940  0.99495018  1
  Cu  Cu17  1  0.11488324  0.32208060  0.50504982  1
  Cu  Cu18  1  0.38511676  0.32208060  0.00504982  1
  Cu  Cu19  1  0.88511676  0.67791940  0.49495018  1
  La  La20  1  0.29781967  0.94042164  0.13894790  1
  La  La21  1  0.79781967  0.05957836  0.36105210  1
  La  La22  1  0.70218033  0.05957836  0.86105210  1
  La  La23  1  0.20218033  0.94042164  0.63894790  1
  La  La24  1  0.62630890  0.47099687  0.67467593  1
  La  La25  1  0.12630890  0.52900313  0.82532407  1
  La  La26  1  0.37369110  0.52900313  0.32532407  1
  La  La27  1  0.87369110  0.47099687  0.17467593  1
