# generated using pymatgen
data_Rb4P21I
_symmetry_space_group_name_H-M   'P 1'
_cell_length_a   9.94946580
_cell_length_b   13.07609425
_cell_length_c   13.07609425
_cell_angle_alpha   115.42298256
_cell_angle_beta   90.00000000
_cell_angle_gamma   90.00000000
_symmetry_Int_Tables_number   1
_chemical_formula_structural   Rb4P21I
_chemical_formula_sum   'Rb8 P42 I2'
_cell_volume   1536.46285350
_cell_formula_units_Z   2
loop_
 _symmetry_equiv_pos_site_id
 _symmetry_equiv_pos_as_xyz
  1  'x, y, z'
loop_
 _atom_site_type_symbol
 _atom_site_label
 _atom_site_symmetry_multiplicity
 _atom_site_fract_x
 _atom_site_fract_y
 _atom_site_fract_z
 _atom_site_occupancy
  P  P0  1  0.75000000  0.04958584  0.04958584  1
  P  P1  1  0.25000000  0.95041416  0.95041416  1
  P  P2  1  0.75000000  0.34001397  0.79945882  1
  P  P3  1  0.25000000  0.65998603  0.20054118  1
  P  P4  1  0.75000000  0.79945882  0.34001397  1
  P  P5  1  0.25000000  0.20054118  0.65998603  1
  P  P6  1  0.07699926  0.68465160  0.98628484  1
  P  P7  1  0.57699926  0.31534840  0.01371516  1
  P  P8  1  0.42300074  0.98628484  0.68465160  1
  P  P9  1  0.92300074  0.01371516  0.31534840  1
  P  P10  1  0.08504908  0.94258391  0.49959912  1
  P  P11  1  0.58504908  0.05741609  0.50040088  1
  P  P12  1  0.41495092  0.49959912  0.94258391  1
  P  P13  1  0.91495092  0.50040088  0.05741609  1
  P  P14  1  0.91495092  0.05741609  0.50040088  1
  P  P15  1  0.41495092  0.94258391  0.49959912  1
  P  P16  1  0.58504908  0.50040088  0.05741609  1
  P  P17  1  0.08504908  0.49959912  0.94258391  1
  P  P18  1  0.08790306  0.84879921  0.84879921  1
  P  P19  1  0.58790306  0.15120079  0.15120079  1
  P  P20  1  0.41209694  0.84879921  0.84879921  1
  P  P21  1  0.91209694  0.15120079  0.15120079  1
  P  P22  1  0.25000000  0.05715182  0.49616816  1
  P  P23  1  0.75000000  0.94284818  0.50383184  1
  P  P24  1  0.25000000  0.49616816  0.05715182  1
  P  P25  1  0.75000000  0.50383184  0.94284818  1
  P  P26  1  0.25000000  0.10709320  0.76072197  1
  P  P27  1  0.75000000  0.89290680  0.23927803  1
  P  P28  1  0.25000000  0.76072197  0.10709320  1
  P  P29  1  0.75000000  0.23927803  0.89290680  1
  P  P30  1  0.13593563  0.81831223  0.67034589  1
  P  P31  1  0.63593563  0.18168777  0.32965411  1
  P  P32  1  0.36406437  0.67034589  0.81831223  1
  P  P33  1  0.86406437  0.32965411  0.18168777  1
  P  P34  1  0.86406437  0.18168777  0.32965411  1
  P  P35  1  0.36406437  0.81831223  0.67034589  1
  P  P36  1  0.63593563  0.32965411  0.18168777  1
  P  P37  1  0.13593563  0.67034589  0.81831223  1
  P  P38  1  0.07699926  0.98628484  0.68465160  1
  P  P39  1  0.57699926  0.01371516  0.31534840  1
  P  P40  1  0.42300074  0.68465160  0.98628484  1
  P  P41  1  0.92300074  0.31534840  0.01371516  1
  Rb  Rb42  1  0.75000000  0.75973566  0.93536398  1
  Rb  Rb43  1  0.25000000  0.24026434  0.06463602  1
  Rb  Rb44  1  0.75000000  0.93536398  0.75973566  1
  Rb  Rb45  1  0.25000000  0.06463602  0.24026434  1
  Rb  Rb46  1  0.50000000  0.61982670  0.38017330  1
  Rb  Rb47  1  0.00000000  0.38017330  0.61982670  1
  Rb  Rb48  1  0.50000000  0.38017330  0.61982670  1
  Rb  Rb49  1  0.00000000  0.61982670  0.38017330  1
  I  I50  1  0.75000000  0.60202731  0.60202731  1
  I  I51  1  0.25000000  0.39797269  0.39797269  1
