# generated using pymatgen
data_Ba5P5I3
_symmetry_space_group_name_H-M   'P 1'
_cell_length_a   4.60730726
_cell_length_b   9.57214184
_cell_length_c   21.70147583
_cell_angle_alpha   92.40543636
_cell_angle_beta   96.09354071
_cell_angle_gamma   90.00000309
_symmetry_Int_Tables_number   1
_chemical_formula_structural   Ba5P5I3
_chemical_formula_sum   'Ba10 P10 I6'
_cell_volume   950.81844923
_cell_formula_units_Z   2
loop_
 _symmetry_equiv_pos_site_id
 _symmetry_equiv_pos_as_xyz
  1  'x, y, z'
loop_
 _atom_site_type_symbol
 _atom_site_label
 _atom_site_symmetry_multiplicity
 _atom_site_fract_x
 _atom_site_fract_y
 _atom_site_fract_z
 _atom_site_occupancy
  Ba  Ba0  1  0.94036715  0.20715355  0.88073429  1
  Ba  Ba1  1  0.05963285  0.79284645  0.11926571  1
  Ba  Ba2  1  0.95833794  0.64902835  0.91667588  1
  Ba  Ba3  1  0.04166206  0.35097165  0.08332412  1
  Ba  Ba4  1  0.36153333  0.41334634  0.72306666  1
  Ba  Ba5  1  0.63846667  0.58665366  0.27693334  1
  Ba  Ba6  1  0.34202861  0.95255990  0.68405722  1
  Ba  Ba7  1  0.65797139  0.04744010  0.31594278  1
  Ba  Ba8  1  0.26007964  0.22204888  0.52015928  1
  Ba  Ba9  1  0.73992036  0.77795112  0.47984072  1
  I  I10  1  0.87503107  0.70046212  0.75006215  1
  I  I11  1  0.12496893  0.29953788  0.24993785  1
  I  I12  1  0.28985172  0.60443609  0.57970344  1
  I  I13  1  0.71014828  0.39556391  0.42029656  1
  I  I14  1  0.44886097  0.93201892  0.89772193  1
  I  I15  1  0.55113903  0.06798108  0.10227807  1
  P  P16  1  0.79089231  0.02775056  0.58178462  1
  P  P17  1  0.20910769  0.97224944  0.41821538  1
  P  P18  1  0.82021570  0.21724926  0.64043140  1
  P  P19  1  0.17978430  0.78275074  0.35956860  1
  P  P20  1  0.86936267  0.17366239  0.73872534  1
  P  P21  1  0.13063733  0.82633761  0.26127466  1
  P  P22  1  0.43660018  0.44000752  0.87320036  1
  P  P23  1  0.56339982  0.55999248  0.12679964  1
  P  P24  1  0.48582076  0.39586771  0.97164152  1
  P  P25  1  0.51417924  0.60413229  0.02835848  1
