# generated using pymatgen
data_Pr2MoC2
_symmetry_space_group_name_H-M   'P 1'
_cell_length_a   5.86343762
_cell_length_b   5.86343762
_cell_length_c   10.50958348
_cell_angle_alpha   90.00000000
_cell_angle_beta   90.00000000
_cell_angle_gamma   90.00000000
_symmetry_Int_Tables_number   1
_chemical_formula_structural   Pr2MoC2
_chemical_formula_sum   'Pr8 Mo4 C8'
_cell_volume   361.31843669
_cell_formula_units_Z   4
loop_
 _symmetry_equiv_pos_site_id
 _symmetry_equiv_pos_as_xyz
  1  'x, y, z'
loop_
 _atom_site_type_symbol
 _atom_site_label
 _atom_site_symmetry_multiplicity
 _atom_site_fract_x
 _atom_site_fract_y
 _atom_site_fract_z
 _atom_site_occupancy
  C  C0  1  0.50000000  0.00000000  0.00000000  1
  C  C1  1  0.50000000  0.00000000  0.50000000  1
  C  C2  1  0.00000000  0.50000000  0.50000000  1
  C  C3  1  0.00000000  0.50000000  0.00000000  1
  C  C4  1  0.00000000  0.00000000  0.85799582  1
  C  C5  1  0.50000000  0.50000000  0.35799582  1
  C  C6  1  0.50000000  0.50000000  0.64200418  1
  C  C7  1  0.00000000  0.00000000  0.14200418  1
  Mo  Mo8  1  0.17542199  0.17542199  0.00000000  1
  Mo  Mo9  1  0.32457801  0.67542199  0.50000000  1
  Mo  Mo10  1  0.67542199  0.32457801  0.50000000  1
  Mo  Mo11  1  0.82457801  0.82457801  0.00000000  1
  Pr  Pr12  1  0.80254642  0.80254642  0.65531294  1
  Pr  Pr13  1  0.19745358  0.19745358  0.65531294  1
  Pr  Pr14  1  0.80254642  0.80254642  0.34468706  1
  Pr  Pr15  1  0.30254642  0.69745358  0.15531294  1
  Pr  Pr16  1  0.69745358  0.30254642  0.15531294  1
  Pr  Pr17  1  0.69745358  0.30254642  0.84468706  1
  Pr  Pr18  1  0.30254642  0.69745358  0.84468706  1
  Pr  Pr19  1  0.19745358  0.19745358  0.34468706  1
