# generated using pymatgen
data_KAsO2
_symmetry_space_group_name_H-M   'P 1'
_cell_length_a   5.51303435
_cell_length_b   7.45400481
_cell_length_c   7.55211108
_cell_angle_alpha   90.00000000
_cell_angle_beta   90.00000000
_cell_angle_gamma   90.00000000
_symmetry_Int_Tables_number   1
_chemical_formula_structural   KAsO2
_chemical_formula_sum   'K4 As4 O8'
_cell_volume   310.34784656
_cell_formula_units_Z   4
loop_
 _symmetry_equiv_pos_site_id
 _symmetry_equiv_pos_as_xyz
  1  'x, y, z'
loop_
 _atom_site_type_symbol
 _atom_site_label
 _atom_site_symmetry_multiplicity
 _atom_site_fract_x
 _atom_site_fract_y
 _atom_site_fract_z
 _atom_site_occupancy
  O  O0  1  0.50000000  0.26538818  0.75000000  1
  O  O1  1  0.00000000  0.73461182  0.25000000  1
  O  O2  1  0.50000000  0.73461182  0.25000000  1
  O  O3  1  0.00000000  0.26538818  0.75000000  1
  O  O4  1  0.25000000  0.70905599  0.55745506  1
  O  O5  1  0.25000000  0.29094401  0.05745506  1
  O  O6  1  0.75000000  0.70905599  0.94254494  1
  O  O7  1  0.75000000  0.29094401  0.44254494  1
  K  K8  1  0.25000000  0.36442981  0.40732716  1
  K  K9  1  0.75000000  0.36442981  0.09267284  1
  K  K10  1  0.75000000  0.63557019  0.59267284  1
  K  K11  1  0.25000000  0.63557019  0.90732716  1
  As  As12  1  0.25000000  0.84924863  0.37638240  1
  As  As13  1  0.75000000  0.15075137  0.62361760  1
  As  As14  1  0.75000000  0.84924863  0.12361760  1
  As  As15  1  0.25000000  0.15075137  0.87638240  1
