# generated using pymatgen
data_BaCdBi2
_symmetry_space_group_name_H-M   'P 1'
_cell_length_a   4.77248979
_cell_length_b   4.77248978
_cell_length_c   12.74273134
_cell_angle_alpha   100.79311170
_cell_angle_beta   100.79311167
_cell_angle_gamma   90.00000004
_symmetry_Int_Tables_number   1
_chemical_formula_structural   BaCdBi2
_chemical_formula_sum   'Ba2 Cd2 Bi4'
_cell_volume   279.87395617
_cell_formula_units_Z   2
loop_
 _symmetry_equiv_pos_site_id
 _symmetry_equiv_pos_as_xyz
  1  'x, y, z'
loop_
 _atom_site_type_symbol
 _atom_site_label
 _atom_site_symmetry_multiplicity
 _atom_site_fract_x
 _atom_site_fract_y
 _atom_site_fract_z
 _atom_site_occupancy
  Cd  Cd0  1  0.25000000  0.75000000  0.50000000  1
  Cd  Cd1  1  0.75000000  0.25000000  0.50000000  1
  Ba  Ba2  1  0.88432558  0.88432558  0.76865116  1
  Ba  Ba3  1  0.11567442  0.11567442  0.23134884  1
  Bi  Bi4  1  0.00000000  0.50000000  0.00000000  1
  Bi  Bi5  1  0.67086336  0.67086336  0.34172673  1
  Bi  Bi6  1  0.50000000  0.00000000  0.00000000  1
  Bi  Bi7  1  0.32913664  0.32913664  0.65827327  1
