# generated using pymatgen
data_Ca5Au2
_symmetry_space_group_name_H-M   'P 1'
_cell_length_a   6.87925016
_cell_length_b   7.83048303
_cell_length_c   9.10777312
_cell_angle_alpha   97.14910719
_cell_angle_beta   112.18870058
_cell_angle_gamma   90.00000000
_symmetry_Int_Tables_number   1
_chemical_formula_structural   Ca5Au2
_chemical_formula_sum   'Ca10 Au4'
_cell_volume   450.16166118
_cell_formula_units_Z   2
loop_
 _symmetry_equiv_pos_site_id
 _symmetry_equiv_pos_as_xyz
  1  'x, y, z'
loop_
 _atom_site_type_symbol
 _atom_site_label
 _atom_site_symmetry_multiplicity
 _atom_site_fract_x
 _atom_site_fract_y
 _atom_site_fract_z
 _atom_site_occupancy
  Ca  Ca0  1  0.20138758  0.18309740  0.56269872  1
  Ca  Ca1  1  0.63868885  0.31690260  0.43730128  1
  Ca  Ca2  1  0.79861242  0.81690260  0.43730128  1
  Ca  Ca3  1  0.36131115  0.68309740  0.56269872  1
  Ca  Ca4  1  0.58025863  0.75000000  0.00000000  1
  Ca  Ca5  1  0.41974137  0.25000000  0.00000000  1
  Ca  Ca6  1  0.01758064  0.57898731  0.81780457  1
  Ca  Ca7  1  0.19977607  0.92101269  0.18219543  1
  Ca  Ca8  1  0.98241936  0.42101269  0.18219543  1
  Ca  Ca9  1  0.80022393  0.07898731  0.81780457  1
  Au  Au10  1  0.59646595  0.41864510  0.77968999  1
  Au  Au11  1  0.81677596  0.08135490  0.22031001  1
  Au  Au12  1  0.40353405  0.58135490  0.22031001  1
  Au  Au13  1  0.18322404  0.91864510  0.77968999  1
