# generated using pymatgen
data_Cd5Au3
_symmetry_space_group_name_H-M   'P 1'
_cell_length_a   5.48836372
_cell_length_b   8.23446697
_cell_length_c   8.23446698
_cell_angle_alpha   83.62361889
_cell_angle_beta   70.53350607
_cell_angle_gamma   70.53350601
_symmetry_Int_Tables_number   1
_chemical_formula_structural   Cd5Au3
_chemical_formula_sum   'Cd10 Au6'
_cell_volume   330.81612983
_cell_formula_units_Z   2
loop_
 _symmetry_equiv_pos_site_id
 _symmetry_equiv_pos_as_xyz
  1  'x, y, z'
loop_
 _atom_site_type_symbol
 _atom_site_label
 _atom_site_symmetry_multiplicity
 _atom_site_fract_x
 _atom_site_fract_y
 _atom_site_fract_z
 _atom_site_occupancy
  Cd  Cd0  1  0.57936015  0.69589272  0.14538699  1
  Cd  Cd1  1  0.42063985  0.30410728  0.85461301  1
  Cd  Cd2  1  0.72474713  0.85461301  0.69589272  1
  Cd  Cd3  1  0.27525287  0.14538699  0.30410728  1
  Cd  Cd4  1  0.92063985  0.85461301  0.30410728  1
  Cd  Cd5  1  0.22474713  0.69589272  0.85461301  1
  Cd  Cd6  1  0.25000000  0.50000000  0.50000000  1
  Cd  Cd7  1  0.75000000  0.50000000  0.50000000  1
  Cd  Cd8  1  0.07936015  0.14538699  0.69589272  1
  Cd  Cd9  1  0.77525287  0.30410728  0.14538699  1
  Au  Au10  1  0.83462895  0.50000000  0.83074209  1
  Au  Au11  1  0.66537105  0.16925791  0.50000000  1
  Au  Au12  1  0.33462895  0.83074209  0.50000000  1
  Au  Au13  1  0.16537105  0.50000000  0.16925791  1
  Au  Au14  1  0.75000000  0.00000000  0.00000000  1
  Au  Au15  1  0.25000000  0.00000000  0.00000000  1
