# generated using pymatgen
data_Li4GeS4
_symmetry_space_group_name_H-M   'P 1'
_cell_length_a   6.19493945
_cell_length_b   7.81391091
_cell_length_c   14.16110812
_cell_angle_alpha   90.00000000
_cell_angle_beta   90.00000000
_cell_angle_gamma   90.00000000
_symmetry_Int_Tables_number   1
_chemical_formula_structural   Li4GeS4
_chemical_formula_sum   'Li16 Ge4 S16'
_cell_volume   685.49258260
_cell_formula_units_Z   4
loop_
 _symmetry_equiv_pos_site_id
 _symmetry_equiv_pos_as_xyz
  1  'x, y, z'
loop_
 _atom_site_type_symbol
 _atom_site_label
 _atom_site_symmetry_multiplicity
 _atom_site_fract_x
 _atom_site_fract_y
 _atom_site_fract_z
 _atom_site_occupancy
  Li  Li0  1  0.62964009  0.25000000  0.58676600  1
  Li  Li1  1  0.12964009  0.75000000  0.91323400  1
  Li  Li2  1  0.37035991  0.75000000  0.41323400  1
  Li  Li3  1  0.87035991  0.25000000  0.08676600  1
  Li  Li4  1  0.69258885  0.00028949  0.82295700  1
  Li  Li5  1  0.19258885  0.99971051  0.67704300  1
  Li  Li6  1  0.30741115  0.50028949  0.17704300  1
  Li  Li7  1  0.80741115  0.49971051  0.32295700  1
  Li  Li8  1  0.30741115  0.99971051  0.17704300  1
  Li  Li9  1  0.80741115  0.00028949  0.32295700  1
  Li  Li10  1  0.69258885  0.49971051  0.82295700  1
  Li  Li11  1  0.19258885  0.50028949  0.67704300  1
  Li  Li12  1  0.50000000  0.00000000  0.00000000  1
  Li  Li13  1  0.00000000  0.00000000  0.50000000  1
  Li  Li14  1  0.50000000  0.50000000  0.00000000  1
  Li  Li15  1  0.00000000  0.50000000  0.50000000  1
  S  S16  1  0.26937645  0.25000000  0.06223387  1
  S  S17  1  0.23062355  0.25000000  0.56223387  1
  S  S18  1  0.76937645  0.75000000  0.43776613  1
  S  S19  1  0.73062355  0.75000000  0.93776613  1
  S  S20  1  0.78352545  0.98625379  0.65623282  1
  S  S21  1  0.28352545  0.01374621  0.84376718  1
  S  S22  1  0.21647455  0.48625379  0.34376718  1
  S  S23  1  0.71647455  0.51374621  0.15623282  1
  S  S24  1  0.21647455  0.01374621  0.34376718  1
  S  S25  1  0.71647455  0.98625379  0.15623282  1
  S  S26  1  0.78352545  0.51374621  0.65623282  1
  S  S27  1  0.28352545  0.48625379  0.84376718  1
  S  S28  1  0.79025686  0.25000000  0.91419696  1
  S  S29  1  0.29025686  0.75000000  0.58580304  1
  S  S30  1  0.20974314  0.75000000  0.08580304  1
  S  S31  1  0.70974314  0.25000000  0.41419696  1
  Ge  Ge32  1  0.84978968  0.75000000  0.08913141  1
  Ge  Ge33  1  0.15021032  0.25000000  0.91086859  1
  Ge  Ge34  1  0.65021032  0.75000000  0.58913141  1
  Ge  Ge35  1  0.34978968  0.25000000  0.41086859  1
