# generated using pymatgen
data_V3Sb2(PO4)6
_symmetry_space_group_name_H-M   'P 1'
_cell_length_a   8.98041824
_cell_length_b   8.62670620
_cell_length_c   8.62670586
_cell_angle_alpha   60.00000530
_cell_angle_beta   61.29458562
_cell_angle_gamma   61.29457919
_symmetry_Int_Tables_number   1
_chemical_formula_structural   V3Sb2(PO4)6
_chemical_formula_sum   'V3 Sb2 P6 O24'
_cell_volume   481.61292773
_cell_formula_units_Z   1
loop_
 _symmetry_equiv_pos_site_id
 _symmetry_equiv_pos_as_xyz
  1  'x, y, z'
loop_
 _atom_site_type_symbol
 _atom_site_label
 _atom_site_symmetry_multiplicity
 _atom_site_fract_x
 _atom_site_fract_y
 _atom_site_fract_z
 _atom_site_occupancy
  V  V0  1  0.05214311  0.64928530  0.64928530  1
  V  V1  1  0.42431234  0.85856289  0.85856289  1
  V  V2  1  0.00270810  0.33243097  0.33243097  1
  Sb  Sb3  1  0.89575627  0.03474824  0.03474824  1
  Sb  Sb4  1  0.55347969  0.48217344  0.48217344  1
  P  P5  1  0.26985914  0.25643329  0.54980605  1
  P  P6  1  0.26985914  0.92390053  0.25643329  1
  P  P7  1  0.26985914  0.54980605  0.92390053  1
  P  P8  1  0.74035676  0.47810161  0.04167914  1
  P  P9  1  0.74035676  0.04167914  0.73986248  1
  P  P10  1  0.74035676  0.73986248  0.47810161  1
  O  O11  1  0.10925780  0.10927975  0.29336781  1
  O  O12  1  0.10925780  0.48809464  0.10927975  1
  O  O13  1  0.10925780  0.29336781  0.48809464  1
  O  O14  1  0.27170682  0.06234807  0.71257837  1
  O  O15  1  0.44145411  0.27396205  0.39538435  1
  O  O16  1  0.19518621  0.40095887  0.64796851  1
  O  O17  1  0.27170682  0.95336674  0.06234807  1
  O  O18  1  0.19518621  0.75588642  0.40095887  1
  O  O19  1  0.56553992  0.63488537  0.02102690  1
  O  O20  1  0.19518621  0.64796851  0.75588642  1
  O  O21  1  0.74414883  0.29742275  0.03887071  1
  O  O22  1  0.56553992  0.02102690  0.77854780  1
  O  O23  1  0.44145411  0.88919949  0.27396205  1
  O  O24  1  0.27170682  0.71257837  0.95336674  1
  O  O25  1  0.75596992  0.42752017  0.23863982  1
  O  O26  1  0.44145411  0.39538435  0.88919949  1
  O  O27  1  0.75596992  0.23863982  0.57787009  1
  O  O28  1  0.74414883  0.03887071  0.91955772  1
  O  O29  1  0.75596992  0.57787009  0.42752017  1
  O  O30  1  0.56553992  0.77854780  0.63488537  1
  O  O31  1  0.74414883  0.91955772  0.29742275  1
  O  O32  1  0.90633032  0.66151439  0.53386626  1
  O  O33  1  0.90633032  0.53386626  0.89828802  1
  O  O34  1  0.90633032  0.89828802  0.66151439  1
