# generated using pymatgen
data_Ce3Ga4Cl
_symmetry_space_group_name_H-M   'P 1'
_cell_length_a   7.94607353
_cell_length_b   7.94607353
_cell_length_c   7.94607354
_cell_angle_alpha   91.02679729
_cell_angle_beta   119.40895959
_cell_angle_gamma   119.40895960
_symmetry_Int_Tables_number   1
_chemical_formula_structural   Ce3Ga4Cl
_chemical_formula_sum   'Ce6 Ga8 Cl2'
_cell_volume   357.87373745
_cell_formula_units_Z   2
loop_
 _symmetry_equiv_pos_site_id
 _symmetry_equiv_pos_as_xyz
  1  'x, y, z'
loop_
 _atom_site_type_symbol
 _atom_site_label
 _atom_site_symmetry_multiplicity
 _atom_site_fract_x
 _atom_site_fract_y
 _atom_site_fract_z
 _atom_site_occupancy
  Cl  Cl0  1  0.00000000  0.50000000  0.50000000  1
  Cl  Cl1  1  0.00000000  0.00000000  0.00000000  1
  Ga  Ga2  1  0.50000000  0.66230512  0.44977902  1
  Ga  Ga3  1  0.50000000  0.94977902  0.16230512  1
  Ga  Ga4  1  0.50000000  0.05022098  0.83769488  1
  Ga  Ga5  1  0.21252609  0.16230512  0.66230512  1
  Ga  Ga6  1  0.50000000  0.33769488  0.55022098  1
  Ga  Ga7  1  0.21252609  0.55022098  0.05022098  1
  Ga  Ga8  1  0.78747391  0.83769488  0.33769488  1
  Ga  Ga9  1  0.78747391  0.44977902  0.94977902  1
  Ce  Ce10  1  0.50000000  0.34051102  0.15948898  1
  Ce  Ce11  1  0.81897795  0.15948898  0.65948898  1
  Ce  Ce12  1  0.18102205  0.84051102  0.34051102  1
  Ce  Ce13  1  0.50000000  0.65948898  0.84051102  1
  Ce  Ce14  1  0.00000000  0.75000000  0.75000000  1
  Ce  Ce15  1  0.00000000  0.25000000  0.25000000  1
