# generated using pymatgen
data_Y2Au5F21
_symmetry_space_group_name_H-M   'P 1'
_cell_length_a   8.12708527
_cell_length_b   9.20319144
_cell_length_c   12.14903751
_cell_angle_alpha   90.92384299
_cell_angle_beta   90.00000000
_cell_angle_gamma   90.00000000
_symmetry_Int_Tables_number   1
_chemical_formula_structural   Y2Au5F21
_chemical_formula_sum   'Y4 Au10 F42'
_cell_volume   908.57061614
_cell_formula_units_Z   2
loop_
 _symmetry_equiv_pos_site_id
 _symmetry_equiv_pos_as_xyz
  1  'x, y, z'
loop_
 _atom_site_type_symbol
 _atom_site_label
 _atom_site_symmetry_multiplicity
 _atom_site_fract_x
 _atom_site_fract_y
 _atom_site_fract_z
 _atom_site_occupancy
  F  F0  1  0.58314994  0.88271303  0.18937077  1
  F  F1  1  0.58314994  0.61728697  0.31062923  1
  F  F2  1  0.41685006  0.11728697  0.81062923  1
  F  F3  1  0.41685006  0.38271303  0.68937077  1
  F  F4  1  0.58990996  0.24527328  0.10254911  1
  F  F5  1  0.58990996  0.25472672  0.39745089  1
  F  F6  1  0.41009004  0.75472672  0.89745089  1
  F  F7  1  0.41009004  0.74527328  0.60254911  1
  F  F8  1  0.82507849  0.01998229  0.03512989  1
  F  F9  1  0.82507849  0.48001771  0.46487011  1
  F  F10  1  0.17492151  0.98001771  0.96487011  1
  F  F11  1  0.17492151  0.51998229  0.53512989  1
  F  F12  1  0.85072624  0.73463491  0.13084975  1
  F  F13  1  0.85072624  0.76536509  0.36915025  1
  F  F14  1  0.32590710  0.40266891  0.32106742  1
  F  F15  1  0.32590710  0.09733109  0.17893258  1
  F  F16  1  0.67409290  0.59733109  0.67893258  1
  F  F17  1  0.67409290  0.90266891  0.82106742  1
  F  F18  1  0.07330710  0.20962865  0.09002365  1
  F  F19  1  0.07330710  0.29037135  0.40997635  1
  F  F20  1  0.92669290  0.79037135  0.90997635  1
  F  F21  1  0.92669290  0.70962865  0.59002365  1
  F  F22  1  0.30023939  0.40463224  0.10034080  1
  F  F23  1  0.30023939  0.09536776  0.39965920  1
  F  F24  1  0.69976061  0.59536776  0.89965920  1
  F  F25  1  0.69976061  0.90463224  0.60034080  1
  F  F26  1  0.84621218  0.41506201  0.16202024  1
  F  F27  1  0.84621218  0.08493799  0.33797976  1
  F  F28  1  0.15378782  0.58493799  0.83797976  1
  F  F29  1  0.15378782  0.91506201  0.66202024  1
  F  F30  1  0.50000000  0.00000000  0.00000000  1
  F  F31  1  0.50000000  0.50000000  0.50000000  1
  F  F32  1  0.46360216  0.12182571  0.58449779  1
  F  F33  1  0.46360216  0.37817429  0.91550221  1
  F  F34  1  0.53639784  0.87817429  0.41550221  1
  F  F35  1  0.53639784  0.62182571  0.08449779  1
  F  F36  1  0.81046478  0.23829312  0.63899031  1
  F  F37  1  0.81046478  0.26170688  0.86100969  1
  F  F38  1  0.18953522  0.76170688  0.36100969  1
  F  F39  1  0.18953522  0.73829312  0.13899031  1
  F  F40  1  0.14927376  0.23463491  0.63084975  1
  F  F41  1  0.14927376  0.26536509  0.86915025  1
  Y  Y42  1  0.33205062  0.31729676  0.50203811  1
  Y  Y43  1  0.33205062  0.18270324  0.99796189  1
  Y  Y44  1  0.66794938  0.68270324  0.49796189  1
  Y  Y45  1  0.66794938  0.81729676  0.00203811  1
  Au  Au46  1  0.43984586  0.98783184  0.29363423  1
  Au  Au47  1  0.43984586  0.51216816  0.20636577  1
  Au  Au48  1  0.16819521  0.77698795  0.90486840  1
  Au  Au49  1  0.16819521  0.72301205  0.59513160  1
  Au  Au50  1  0.83180479  0.22301205  0.09513160  1
  Au  Au51  1  0.83180479  0.27698795  0.40486840  1
  Au  Au52  1  0.56015414  0.48783184  0.79363423  1
  Au  Au53  1  0.56015414  0.01216816  0.70636577  1
  Au  Au54  1  0.98199331  0.25000000  0.75000000  1
  Au  Au55  1  0.01800669  0.75000000  0.25000000  1
