# generated using pymatgen
data_RbHfF5
_symmetry_space_group_name_H-M   'P 1'
_cell_length_a   7.87200127
_cell_length_b   7.87258152
_cell_length_c   7.99580646
_cell_angle_alpha   90.00014705
_cell_angle_beta   89.99988430
_cell_angle_gamma   118.90241339
_symmetry_Int_Tables_number   1
_chemical_formula_structural   RbHfF5
_chemical_formula_sum   'Rb4 Hf4 F20'
_cell_volume   433.80349799
_cell_formula_units_Z   4
loop_
 _symmetry_equiv_pos_site_id
 _symmetry_equiv_pos_as_xyz
  1  'x, y, z'
loop_
 _atom_site_type_symbol
 _atom_site_label
 _atom_site_symmetry_multiplicity
 _atom_site_fract_x
 _atom_site_fract_y
 _atom_site_fract_z
 _atom_site_occupancy
  F  F0  1  0.91291809  0.58679694  0.49948176  1
  F  F1  1  0.58708220  0.91320330  0.99948033  1
  F  F2  1  0.08708191  0.41320306  0.50051824  1
  F  F3  1  0.41291780  0.08679670  0.00051967  1
  F  F4  1  0.28910833  0.78941253  0.56293589  1
  F  F5  1  0.21089184  0.71058704  0.06293575  1
  F  F6  1  0.71089167  0.21058747  0.43706411  1
  F  F7  1  0.78910816  0.28941296  0.93706425  1
  F  F8  1  0.85613818  0.07098188  0.20946488  1
  F  F9  1  0.64386186  0.42901815  0.70946664  1
  F  F10  1  0.14386182  0.92901812  0.79053512  1
  F  F11  1  0.35613814  0.57098185  0.29053336  1
  F  F12  1  0.57198326  0.35620641  0.20987760  1
  F  F13  1  0.92801723  0.14379407  0.70987606  1
  F  F14  1  0.42801674  0.64379359  0.79012240  1
  F  F15  1  0.07198277  0.85620593  0.29012394  1
  F  F16  1  0.43933539  0.93818052  0.28976514  1
  F  F17  1  0.06066455  0.56181929  0.78976528  1
  F  F18  1  0.56066461  0.06181948  0.71023486  1
  F  F19  1  0.93933545  0.43818071  0.21023472  1
  Rb  Rb20  1  0.20504876  0.29509607  -0.00003950  1
  Rb  Rb21  1  0.29495168  0.20490401  0.49996164  1
  Rb  Rb22  1  0.79495124  0.70490393  1.00003950  1
  Rb  Rb23  1  0.70504832  0.79509599  0.50003836  1
  Hf  Hf24  1  0.66176736  0.16143440  0.16089867  1
  Hf  Hf25  1  0.83823226  0.33856544  0.66089823  1
  Hf  Hf26  1  0.33823264  0.83856560  0.83910133  1
  Hf  Hf27  1  0.16176774  0.66143456  0.33910177  1
