# generated using pymatgen
data_Mg5(Si8Pt5)2
_symmetry_space_group_name_H-M   'P 1'
_cell_length_a   8.97566062
_cell_length_b   8.97566062
_cell_length_c   8.97566062
_cell_angle_alpha   60.00000001
_cell_angle_beta   59.99999999
_cell_angle_gamma   59.99999999
_symmetry_Int_Tables_number   1
_chemical_formula_structural   Mg5(Si8Pt5)2
_chemical_formula_sum   'Mg5 Si16 Pt10'
_cell_volume   511.30998203
_cell_formula_units_Z   1
loop_
 _symmetry_equiv_pos_site_id
 _symmetry_equiv_pos_as_xyz
  1  'x, y, z'
loop_
 _atom_site_type_symbol
 _atom_site_label
 _atom_site_symmetry_multiplicity
 _atom_site_fract_x
 _atom_site_fract_y
 _atom_site_fract_z
 _atom_site_occupancy
  Mg  Mg0  1  0.34419769  0.34419769  0.34419769  1
  Mg  Mg1  1  0.34419769  0.34419769  0.96740692  1
  Mg  Mg2  1  0.96740692  0.34419769  0.34419769  1
  Mg  Mg3  1  0.34419769  0.96740692  0.34419769  1
  Mg  Mg4  1  0.00000000  0.00000000  0.00000000  1
  Si  Si5  1  0.95566351  0.95566351  0.67708149  1
  Si  Si6  1  0.57263611  0.28209167  0.57263611  1
  Si  Si7  1  0.28209167  0.57263611  0.57263611  1
  Si  Si8  1  0.57263611  0.57263611  0.28209167  1
  Si  Si9  1  0.57263611  0.57263611  0.57263611  1
  Si  Si10  1  0.95566351  0.95566351  0.41159148  1
  Si  Si11  1  0.95566351  0.67708149  0.41159148  1
  Si  Si12  1  0.67708149  0.95566351  0.41159148  1
  Si  Si13  1  0.95566351  0.41159148  0.95566351  1
  Si  Si14  1  0.41159148  0.95566351  0.95566351  1
  Si  Si15  1  0.95566351  0.67708149  0.95566351  1
  Si  Si16  1  0.95566351  0.41159148  0.67708149  1
  Si  Si17  1  0.67708149  0.95566351  0.95566351  1
  Si  Si18  1  0.41159148  0.67708149  0.95566351  1
  Si  Si19  1  0.41159148  0.95566351  0.67708149  1
  Si  Si20  1  0.67708149  0.41159148  0.95566351  1
  Pt  Pt21  1  0.12671747  0.12671747  0.12671747  1
  Pt  Pt22  1  0.73212101  0.26787899  0.73212101  1
  Pt  Pt23  1  0.26787899  0.73212101  0.26787899  1
  Pt  Pt24  1  0.26787899  0.73212101  0.73212101  1
  Pt  Pt25  1  0.73212101  0.73212101  0.26787899  1
  Pt  Pt26  1  0.26787899  0.26787899  0.73212101  1
  Pt  Pt27  1  0.73212101  0.26787899  0.26787899  1
  Pt  Pt28  1  0.12671747  0.61984758  0.12671747  1
  Pt  Pt29  1  0.61984758  0.12671747  0.12671747  1
  Pt  Pt30  1  0.12671747  0.12671747  0.61984758  1
