# generated using pymatgen
data_TlAuF6
_symmetry_space_group_name_H-M   'P 1'
_cell_length_a   5.92577488
_cell_length_b   5.92577488
_cell_length_c   28.51239125
_cell_angle_alpha   90.00000000
_cell_angle_beta   90.00000000
_cell_angle_gamma   90.00000000
_symmetry_Int_Tables_number   1
_chemical_formula_structural   TlAuF6
_chemical_formula_sum   'Tl8 Au8 F48'
_cell_volume   1001.20714232
_cell_formula_units_Z   8
loop_
 _symmetry_equiv_pos_site_id
 _symmetry_equiv_pos_as_xyz
  1  'x, y, z'
loop_
 _atom_site_type_symbol
 _atom_site_label
 _atom_site_symmetry_multiplicity
 _atom_site_fract_x
 _atom_site_fract_y
 _atom_site_fract_z
 _atom_site_occupancy
  F  F0  1  0.43342673  0.43342673  0.50000000  1
  F  F1  1  0.06657327  0.93342673  0.75000000  1
  F  F2  1  0.93342673  0.06657327  0.25000000  1
  F  F3  1  0.56657327  0.56657327  0.00000000  1
  F  F4  1  0.95976072  0.36499029  0.49942087  1
  F  F5  1  0.04023928  0.63500971  0.99942087  1
  F  F6  1  0.36499029  0.95976072  0.50057913  1
  F  F7  1  0.86499029  0.54023928  0.24942087  1
  F  F8  1  0.13500971  0.45976072  0.74942087  1
  F  F9  1  0.54023928  0.86499029  0.75057913  1
  F  F10  1  0.45976072  0.13500971  0.25057913  1
  F  F11  1  0.63500971  0.04023928  0.00057913  1
  F  F12  1  0.08742761  0.96281124  0.42312054  1
  F  F13  1  0.91257239  0.03718876  0.92312054  1
  F  F14  1  0.96281124  0.08742761  0.57687946  1
  F  F15  1  0.53718876  0.58742761  0.67312054  1
  F  F16  1  0.46281124  0.41257239  0.17312054  1
  F  F17  1  0.16777265  0.65982794  0.56941751  1
  F  F18  1  0.83222735  0.34017206  0.06941751  1
  F  F19  1  0.65982794  0.16777265  0.43058249  1
  F  F20  1  0.34017206  0.83222735  0.93058249  1
  F  F21  1  0.84017206  0.66777265  0.81941751  1
  F  F22  1  0.33222735  0.15982794  0.68058249  1
  F  F23  1  0.66777265  0.84017206  0.18058249  1
  F  F24  1  0.17666668  0.03448260  0.16850441  1
  F  F25  1  0.46551740  0.67666668  0.41850441  1
  F  F26  1  0.53448260  0.32333332  0.91850441  1
  F  F27  1  0.67666668  0.46551740  0.58149559  1
  F  F28  1  0.32333332  0.53448260  0.08149559  1
  F  F29  1  0.82333332  0.96551740  0.66850441  1
  F  F30  1  0.03448260  0.17666668  0.83149559  1
  F  F31  1  0.96551740  0.82333332  0.33149559  1
  F  F32  1  0.06461489  0.48431114  0.41141761  1
  F  F33  1  0.01568886  0.56461489  0.66141761  1
  F  F34  1  0.98431114  0.43538511  0.16141761  1
  F  F35  1  0.56461489  0.01568886  0.33858239  1
  F  F36  1  0.43538511  0.98431114  0.83858239  1
  F  F37  1  0.93538511  0.51568886  0.91141761  1
  F  F38  1  0.48431114  0.06461489  0.58858239  1
  F  F39  1  0.51568886  0.93538511  0.08858239  1
  F  F40  1  0.16735724  0.16735724  0.00000000  1
  F  F41  1  0.33264276  0.66735724  0.25000000  1
  F  F42  1  0.66735724  0.33264276  0.75000000  1
  F  F43  1  0.83264276  0.83264276  0.50000000  1
  F  F44  1  0.03718876  0.91257239  0.07687946  1
  F  F45  1  0.58742761  0.53718876  0.32687946  1
  F  F46  1  0.41257239  0.46281124  0.82687946  1
  F  F47  1  0.15982794  0.33222735  0.31941751  1
  Au  Au48  1  0.82118684  0.99124229  0.38247238  1
  Au  Au49  1  0.17881316  0.00875771  0.88247238  1
  Au  Au50  1  0.99124229  0.82118684  0.61752762  1
  Au  Au51  1  0.49124229  0.67881316  0.13247238  1
  Au  Au52  1  0.50875771  0.32118684  0.63247238  1
  Au  Au53  1  0.67881316  0.49124229  0.86752762  1
  Au  Au54  1  0.32118684  0.50875771  0.36752762  1
  Au  Au55  1  0.00875771  0.17881316  0.11752762  1
  Tl  Tl56  1  0.66072789  0.82973245  0.26625412  1
  Tl  Tl57  1  0.33927211  0.17026755  0.76625412  1
  Tl  Tl58  1  0.82973245  0.66072789  0.73374588  1
  Tl  Tl59  1  0.32973245  0.83927211  0.01625412  1
  Tl  Tl60  1  0.67026755  0.16072789  0.51625412  1
  Tl  Tl61  1  0.83927211  0.32973245  0.98374588  1
  Tl  Tl62  1  0.16072789  0.67026755  0.48374588  1
  Tl  Tl63  1  0.17026755  0.33927211  0.23374588  1
