# generated using pymatgen
data_Sr11Bi10
_symmetry_space_group_name_H-M   'P 1'
_cell_length_a   13.00563016
_cell_length_b   13.00563016
_cell_length_c   13.06933547
_cell_angle_alpha   119.83888636
_cell_angle_beta   119.83888636
_cell_angle_gamma   90.00000000
_symmetry_Int_Tables_number   1
_chemical_formula_structural   Sr11Bi10
_chemical_formula_sum   'Sr22 Bi20'
_cell_volume   1570.73483526
_cell_formula_units_Z   2
loop_
 _symmetry_equiv_pos_site_id
 _symmetry_equiv_pos_as_xyz
  1  'x, y, z'
loop_
 _atom_site_type_symbol
 _atom_site_label
 _atom_site_symmetry_multiplicity
 _atom_site_fract_x
 _atom_site_fract_y
 _atom_site_fract_z
 _atom_site_occupancy
  Sr  Sr0  1  0.93976332  0.19034924  0.38069848  1
  Sr  Sr1  1  0.44093517  0.19034924  0.38069848  1
  Sr  Sr2  1  0.19034924  0.44093517  0.38069848  1
  Sr  Sr3  1  0.19034924  0.93976332  0.38069848  1
  Sr  Sr4  1  0.06023668  0.80965076  0.61930152  1
  Sr  Sr5  1  0.55906483  0.80965076  0.61930152  1
  Sr  Sr6  1  0.80965076  0.55906483  0.61930152  1
  Sr  Sr7  1  0.80965076  0.06023668  0.61930152  1
  Sr  Sr8  1  0.83465525  0.16534475  -0.00000000  1
  Sr  Sr9  1  0.16534475  0.83465525  -0.00000000  1
  Sr  Sr10  1  0.16534475  0.16534475  -0.00000000  1
  Sr  Sr11  1  0.83465525  0.83465525  -0.00000000  1
  Sr  Sr12  1  0.33855399  0.33855399  0.67710797  1
  Sr  Sr13  1  0.66144601  0.66144601  0.32289203  1
  Sr  Sr14  1  0.05726750  0.39612368  0.79224735  1
  Sr  Sr15  1  0.73497985  0.39612368  0.79224735  1
  Sr  Sr16  1  0.39612368  0.73497985  0.79224735  1
  Sr  Sr17  1  0.39612368  0.05726750  0.79224735  1
  Sr  Sr18  1  0.94273250  0.60387632  0.20775265  1
  Sr  Sr19  1  0.26502015  0.60387632  0.20775265  1
  Sr  Sr20  1  0.60387632  0.26502015  0.20775265  1
  Sr  Sr21  1  0.60387632  0.94273250  0.20775265  1
  Bi  Bi22  1  0.00000000  0.35040798  -0.00000000  1
  Bi  Bi23  1  0.00000000  0.64959202  -0.00000000  1
  Bi  Bi24  1  0.35040798  0.00000000  -0.00000000  1
  Bi  Bi25  1  0.64959202  0.00000000  -0.00000000  1
  Bi  Bi26  1  0.12567554  0.12567554  0.25135107  1
  Bi  Bi27  1  0.87432446  0.87432446  0.74864893  1
  Bi  Bi28  1  0.62779478  0.37220522  -0.00000000  1
  Bi  Bi29  1  0.37220522  0.62779478  -0.00000000  1
  Bi  Bi30  1  0.37220522  0.37220522  -0.00000000  1
  Bi  Bi31  1  0.62779478  0.62779478  -0.00000000  1
  Bi  Bi32  1  0.75000000  0.25000000  0.50000000  1
  Bi  Bi33  1  0.25000000  0.75000000  0.50000000  1
  Bi  Bi34  1  0.12024757  0.53277049  0.65301806  1
  Bi  Bi35  1  0.53277049  0.12024757  0.65301806  1
  Bi  Bi36  1  0.53277049  0.53277049  0.65301806  1
  Bi  Bi37  1  0.12024757  0.12024757  0.65301806  1
  Bi  Bi38  1  0.87975243  0.46722951  0.34698194  1
  Bi  Bi39  1  0.46722951  0.87975243  0.34698194  1
  Bi  Bi40  1  0.46722951  0.46722951  0.34698194  1
  Bi  Bi41  1  0.87975243  0.87975243  0.34698194  1
