# generated using pymatgen
data_Tl3PdBr5
_symmetry_space_group_name_H-M   'P 1'
_cell_length_a   8.14595991
_cell_length_b   17.33608800
_cell_length_c   17.45799567
_cell_angle_alpha   90.00000000
_cell_angle_beta   90.00000000
_cell_angle_gamma   90.00000000
_symmetry_Int_Tables_number   1
_chemical_formula_structural   Tl3PdBr5
_chemical_formula_sum   'Tl24 Pd8 Br40'
_cell_volume   2465.40204953
_cell_formula_units_Z   8
loop_
 _symmetry_equiv_pos_site_id
 _symmetry_equiv_pos_as_xyz
  1  'x, y, z'
loop_
 _atom_site_type_symbol
 _atom_site_label
 _atom_site_symmetry_multiplicity
 _atom_site_fract_x
 _atom_site_fract_y
 _atom_site_fract_z
 _atom_site_occupancy
  Br  Br0  1  0.57222066  0.19796680  0.47369205  1
  Br  Br1  1  0.07222066  0.30203320  0.52630795  1
  Br  Br2  1  0.42777934  0.69796680  0.02630795  1
  Br  Br3  1  0.92777934  0.80203320  0.97369205  1
  Br  Br4  1  0.42777934  0.80203320  0.52630795  1
  Br  Br5  1  0.92777934  0.69796680  0.47369205  1
  Br  Br6  1  0.57222066  0.30203320  0.97369205  1
  Br  Br7  1  0.07222066  0.19796680  0.02630795  1
  Br  Br8  1  0.29190625  0.05471555  0.53812831  1
  Br  Br9  1  0.79190625  0.44528445  0.46187169  1
  Br  Br10  1  0.70809375  0.55471555  0.96187169  1
  Br  Br11  1  0.20809375  0.94528445  0.03812831  1
  Br  Br12  1  0.70809375  0.94528445  0.46187169  1
  Br  Br13  1  0.20809375  0.55471555  0.53812831  1
  Br  Br14  1  0.29190625  0.44528445  0.03812831  1
  Br  Br15  1  0.79190625  0.05471555  0.96187169  1
  Br  Br16  1  0.31633842  0.23055341  0.31630880  1
  Br  Br17  1  0.81633842  0.26944659  0.68369120  1
  Br  Br18  1  0.68366158  0.73055341  0.18369120  1
  Br  Br19  1  0.18366158  0.76944659  0.81630880  1
  Br  Br20  1  0.68366158  0.76944659  0.68369120  1
  Br  Br21  1  0.18366158  0.73055341  0.31630880  1
  Br  Br22  1  0.31633842  0.26944659  0.81630880  1
  Br  Br23  1  0.81633842  0.23055341  0.18369120  1
  Br  Br24  1  0.03854409  0.09495999  0.38283251  1
  Br  Br25  1  0.53854409  0.40504001  0.61716749  1
  Br  Br26  1  0.96145591  0.59495999  0.11716749  1
  Br  Br27  1  0.46145591  0.90504001  0.88283251  1
  Br  Br28  1  0.96145591  0.90504001  0.61716749  1
  Br  Br29  1  0.46145591  0.59495999  0.38283251  1
  Br  Br30  1  0.03854409  0.40504001  0.88283251  1
  Br  Br31  1  0.53854409  0.09495999  0.11716749  1
  Br  Br32  1  0.36862990  0.93199736  0.26258138  1
  Br  Br33  1  0.86862990  0.56800264  0.73741862  1
  Br  Br34  1  0.63137010  0.43199736  0.23741862  1
  Br  Br35  1  0.13137010  0.06800264  0.76258138  1
  Br  Br36  1  0.63137010  0.06800264  0.73741862  1
  Br  Br37  1  0.13137010  0.43199736  0.26258138  1
  Br  Br38  1  0.36862990  0.56800264  0.76258138  1
  Br  Br39  1  0.86862990  0.93199736  0.23741862  1
  Pd  Pd40  1  0.30861264  0.14349769  0.42756479  1
  Pd  Pd41  1  0.80861264  0.35650231  0.57243521  1
  Pd  Pd42  1  0.69138736  0.64349769  0.07243521  1
  Pd  Pd43  1  0.19138736  0.85650231  0.92756479  1
  Pd  Pd44  1  0.69138736  0.85650231  0.57243521  1
  Pd  Pd45  1  0.19138736  0.64349769  0.42756479  1
  Pd  Pd46  1  0.30861264  0.35650231  0.92756479  1
  Pd  Pd47  1  0.80861264  0.14349769  0.07243521  1
  Tl  Tl48  1  0.61731600  0.06526702  0.30367299  1
  Tl  Tl49  1  0.11731600  0.43473298  0.69632701  1
  Tl  Tl50  1  0.38268400  0.56526702  0.19632701  1
  Tl  Tl51  1  0.88268400  0.93473298  0.80367299  1
  Tl  Tl52  1  0.38268400  0.93473298  0.69632701  1
  Tl  Tl53  1  0.88268400  0.56526702  0.30367299  1
  Tl  Tl54  1  0.61731600  0.43473298  0.80367299  1
  Tl  Tl55  1  0.11731600  0.06526702  0.19632701  1
  Tl  Tl56  1  0.41913334  0.20028219  0.64705266  1
  Tl  Tl57  1  0.91913334  0.29971781  0.35294734  1
  Tl  Tl58  1  0.58086666  0.70028219  0.85294734  1
  Tl  Tl59  1  0.08086666  0.79971781  0.14705266  1
  Tl  Tl60  1  0.58086666  0.79971781  0.35294734  1
  Tl  Tl61  1  0.08086666  0.70028219  0.64705266  1
  Tl  Tl62  1  0.41913334  0.29971781  0.14705266  1
  Tl  Tl63  1  0.91913334  0.20028219  0.85294734  1
  Tl  Tl64  1  0.89526128  0.09401940  0.58724443  1
  Tl  Tl65  1  0.39526128  0.40598060  0.41275557  1
  Tl  Tl66  1  0.10473872  0.59401940  0.91275557  1
  Tl  Tl67  1  0.60473872  0.90598060  0.08724443  1
  Tl  Tl68  1  0.10473872  0.90598060  0.41275557  1
  Tl  Tl69  1  0.60473872  0.59401940  0.58724443  1
  Tl  Tl70  1  0.89526128  0.40598060  0.08724443  1
  Tl  Tl71  1  0.39526128  0.09401940  0.91275557  1
