# generated using pymatgen
data_Tb4Se3N2
_symmetry_space_group_name_H-M   'P 1'
_cell_length_a   3.95288908
_cell_length_b   6.98603996
_cell_length_c   8.21473502
_cell_angle_alpha   85.63439027
_cell_angle_beta   76.07819318
_cell_angle_gamma   73.56583534
_symmetry_Int_Tables_number   1
_chemical_formula_structural   Tb4Se3N2
_chemical_formula_sum   'Tb4 Se3 N2'
_cell_volume   211.18299354
_cell_formula_units_Z   1
loop_
 _symmetry_equiv_pos_site_id
 _symmetry_equiv_pos_as_xyz
  1  'x, y, z'
loop_
 _atom_site_type_symbol
 _atom_site_label
 _atom_site_symmetry_multiplicity
 _atom_site_fract_x
 _atom_site_fract_y
 _atom_site_fract_z
 _atom_site_occupancy
  N  N0  1  0.35115346  0.93546057  0.36223250  1
  N  N1  1  0.64884654  0.06453943  0.63776750  1
  Se  Se2  1  0.83477348  0.55859117  0.77186186  1
  Se  Se3  1  0.00000000  0.00000000  0.00000000  1
  Se  Se4  1  0.16522652  0.44140883  0.22813814  1
  Tb  Tb5  1  0.44225255  0.26651207  0.84898284  1
  Tb  Tb6  1  0.55774745  0.73348793  0.15101716  1
  Tb  Tb7  1  0.75594871  0.12747258  0.36063001  1
  Tb  Tb8  1  0.24405129  0.87252742  0.63936999  1
