# generated using pymatgen
data_Ti2P
_symmetry_space_group_name_H-M   'P 1'
_cell_length_a   19.85338117
_cell_length_b   19.85338093
_cell_length_c   3.51260482
_cell_angle_alpha   90.00000000
_cell_angle_beta   90.00000000
_cell_angle_gamma   120.00000042
_symmetry_Int_Tables_number   1
_chemical_formula_structural   Ti2P
_chemical_formula_sum   'Ti54 P27'
_cell_volume   1199.02676883
_cell_formula_units_Z   27
loop_
 _symmetry_equiv_pos_site_id
 _symmetry_equiv_pos_as_xyz
  1  'x, y, z'
loop_
 _atom_site_type_symbol
 _atom_site_label
 _atom_site_symmetry_multiplicity
 _atom_site_fract_x
 _atom_site_fract_y
 _atom_site_fract_z
 _atom_site_occupancy
  P  P0  1  0.66666667  0.33333333  0.00000000  1
  P  P1  1  0.33333333  0.66666667  0.00000000  1
  P  P2  1  0.00000000  0.00000000  0.00000000  1
  P  P3  1  0.33327771  0.00000000  0.00000000  1
  P  P4  1  0.66672229  0.66672229  0.00000000  1
  P  P5  1  0.00000000  0.33327771  0.00000000  1
  P  P6  1  0.44451861  0.22251516  0.50000000  1
  P  P7  1  0.77799655  0.55548139  0.50000000  1
  P  P8  1  0.77748484  0.22200345  0.50000000  1
  P  P9  1  0.22200345  0.77748484  0.50000000  1
  P  P10  1  0.55548139  0.77799655  0.50000000  1
  P  P11  1  0.22251516  0.44451861  0.50000000  1
  P  P12  1  0.22204717  0.11101183  0.50000000  1
  P  P13  1  0.88896466  0.77795283  0.50000000  1
  P  P14  1  0.88898817  0.11103534  0.50000000  1
  P  P15  1  0.11103534  0.88898817  0.50000000  1
  P  P16  1  0.77795283  0.88896466  0.50000000  1
  P  P17  1  0.11101183  0.22204717  0.50000000  1
  P  P18  1  0.55520783  0.11083719  0.50000000  1
  P  P19  1  0.55562937  0.44479217  0.50000000  1
  P  P20  1  0.88916281  0.44437063  0.50000000  1
  P  P21  1  0.44437063  0.88916281  0.50000000  1
  P  P22  1  0.44479217  0.55562937  0.50000000  1
  P  P23  1  0.11083719  0.55520783  0.50000000  1
  P  P24  1  0.33300576  0.33300576  0.00000000  1
  P  P25  1  0.00000000  0.66699424  0.00000000  1
  P  P26  1  0.66699424  0.00000000  0.00000000  1
  Ti  Ti27  1  0.41769821  0.08474060  0.50000000  1
  Ti  Ti28  1  0.66704238  0.58230179  0.50000000  1
  Ti  Ti29  1  0.91525940  0.33295762  0.50000000  1
  Ti  Ti30  1  0.33295762  0.91525940  0.50000000  1
  Ti  Ti31  1  0.58230179  0.66704238  0.50000000  1
  Ti  Ti32  1  0.08474060  0.41769821  0.50000000  1
  Ti  Ti33  1  0.24871165  0.00000000  0.50000000  1
  Ti  Ti34  1  0.75128835  0.75128835  0.50000000  1
  Ti  Ti35  1  0.00000000  0.24871165  0.50000000  1
  Ti  Ti36  1  0.33326958  0.13653461  0.00000000  1
  Ti  Ti37  1  0.80326503  0.66673042  0.00000000  1
  Ti  Ti38  1  0.86346539  0.19673497  0.00000000  1
  Ti  Ti39  1  0.19673497  0.86346539  0.00000000  1
  Ti  Ti40  1  0.66673042  0.80326503  0.00000000  1
  Ti  Ti41  1  0.13653461  0.33326958  0.00000000  1
  Ti  Ti42  1  0.46945493  0.00000000  0.00000000  1
  Ti  Ti43  1  0.53054507  0.53054507  0.00000000  1
  Ti  Ti44  1  1.00000000  0.46945493  0.00000000  1
  Ti  Ti45  1  0.08445110  0.08445110  0.50000000  1
  Ti  Ti46  1  0.00000000  0.91554890  0.50000000  1
  Ti  Ti47  1  0.91554890  0.00000000  0.50000000  1
  Ti  Ti48  1  0.75140076  0.41780496  0.50000000  1
  Ti  Ti49  1  0.66640420  0.24859924  0.50000000  1
  Ti  Ti50  1  0.58219504  0.33359580  0.50000000  1
  Ti  Ti51  1  0.33359580  0.58219504  0.50000000  1
  Ti  Ti52  1  0.24859924  0.66640420  0.50000000  1
  Ti  Ti53  1  0.41780496  0.75140076  0.50000000  1
  Ti  Ti54  1  0.13637829  0.00000000  0.00000000  1
  Ti  Ti55  1  0.86362171  0.86362171  0.00000000  1
  Ti  Ti56  1  1.00000000  0.13637829  0.00000000  1
  Ti  Ti57  1  0.86386702  0.53016045  0.00000000  1
  Ti  Ti58  1  0.66629343  0.13613298  0.00000000  1
  Ti  Ti59  1  0.46983955  0.33370657  0.00000000  1
  Ti  Ti60  1  0.33370657  0.46983955  0.00000000  1
  Ti  Ti61  1  0.13613298  0.66629343  0.00000000  1
  Ti  Ti62  1  0.53016045  0.86386702  0.00000000  1
  Ti  Ti63  1  0.80297589  0.33309423  0.00000000  1
  Ti  Ti64  1  0.53011834  0.19702411  0.00000000  1
  Ti  Ti65  1  0.66690577  0.46988166  0.00000000  1
  Ti  Ti66  1  0.46988166  0.66690577  0.00000000  1
  Ti  Ti67  1  0.19702411  0.53011834  0.00000000  1
  Ti  Ti68  1  0.33309423  0.80297589  0.00000000  1
  Ti  Ti69  1  0.19665790  0.19665790  0.00000000  1
  Ti  Ti70  1  0.00000000  0.80334210  0.00000000  1
  Ti  Ti71  1  0.80334210  0.00000000  0.00000000  1
  Ti  Ti72  1  1.00000000  0.58231753  0.50000000  1
  Ti  Ti73  1  0.58231753  0.00000000  0.50000000  1
  Ti  Ti74  1  0.41768247  0.41768247  0.50000000  1
  Ti  Ti75  1  0.33317504  0.24861809  0.50000000  1
  Ti  Ti76  1  0.91544306  0.66682496  0.50000000  1
  Ti  Ti77  1  0.75138191  0.08455694  0.50000000  1
  Ti  Ti78  1  0.08455694  0.75138191  0.50000000  1
  Ti  Ti79  1  0.66682496  0.91544306  0.50000000  1
  Ti  Ti80  1  0.24861809  0.33317504  0.50000000  1
