# generated using pymatgen
data_HfGa2Ni
_symmetry_space_group_name_H-M   'P 1'
_cell_length_a   8.10627722
_cell_length_b   9.60076917
_cell_length_c   9.60076918
_cell_angle_alpha   79.73355853
_cell_angle_beta   65.02845455
_cell_angle_gamma   65.02845455
_symmetry_Int_Tables_number   1
_chemical_formula_structural   HfGa2Ni
_chemical_formula_sum   'Hf10 Ga20 Ni10'
_cell_volume   614.02485255
_cell_formula_units_Z   10
loop_
 _symmetry_equiv_pos_site_id
 _symmetry_equiv_pos_as_xyz
  1  'x, y, z'
loop_
 _atom_site_type_symbol
 _atom_site_label
 _atom_site_symmetry_multiplicity
 _atom_site_fract_x
 _atom_site_fract_y
 _atom_site_fract_z
 _atom_site_occupancy
  Ni  Ni0  1  0.81137072  0.00000000  0.32497603  1
  Ni  Ni1  1  0.90130291  0.50000000  0.50000000  1
  Ni  Ni2  1  0.40130291  0.50000000  0.50000000  1
  Ni  Ni3  1  0.13634675  0.00000000  0.67502397  1
  Ni  Ni4  1  0.81137072  0.32497603  0.00000000  1
  Ni  Ni5  1  0.13634675  0.67502397  0.00000000  1
  Ni  Ni6  1  0.26887881  0.21603041  0.21603041  1
  Ni  Ni7  1  0.48490922  0.78396959  0.21603041  1
  Ni  Ni8  1  0.48490922  0.21603041  0.78396959  1
  Ni  Ni9  1  0.70093963  0.78396959  0.78396959  1
  Ga  Ga10  1  0.79558731  0.84081565  0.15918435  1
  Ga  Ga11  1  0.63640297  0.15918435  0.15918435  1
  Ga  Ga12  1  0.03086535  0.61751635  0.61751635  1
  Ga  Ga13  1  0.64838170  0.38248365  0.61751635  1
  Ga  Ga14  1  0.41928157  0.00000000  0.73576553  1
  Ga  Ga15  1  0.64838170  0.61751635  0.38248365  1
  Ga  Ga16  1  0.26589805  0.38248365  0.38248365  1
  Ga  Ga17  1  0.15504710  0.00000000  0.26423447  1
  Ga  Ga18  1  0.41928157  0.73576553  0.00000000  1
  Ga  Ga19  1  0.15504710  0.26423447  0.00000000  1
  Ga  Ga20  1  0.73568596  0.50652276  0.79051901  1
  Ga  Ga21  1  0.52620496  0.20948099  0.50652276  1
  Ga  Ga22  1  0.24220872  0.79051901  0.49347724  1
  Ga  Ga23  1  0.03272772  0.49347724  0.20948099  1
  Ga  Ga24  1  0.24220872  0.49347724  0.79051901  1
  Ga  Ga25  1  0.52620496  0.50652276  0.20948099  1
  Ga  Ga26  1  0.73568596  0.79051901  0.50652276  1
  Ga  Ga27  1  0.03272772  0.20948099  0.49347724  1
  Ga  Ga28  1  0.95477166  0.84081565  0.84081565  1
  Ga  Ga29  1  0.79558731  0.15918435  0.84081565  1
  Hf  Hf30  1  0.50926826  0.00000000  0.00000000  1
  Hf  Hf31  1  0.06584692  0.00000000  0.00000000  1
  Hf  Hf32  1  0.83887333  0.00000000  0.59398067  1
  Hf  Hf33  1  0.43285400  0.40601933  0.00000000  1
  Hf  Hf34  1  0.83887333  0.59398067  0.00000000  1
  Hf  Hf35  1  0.43285400  0.00000000  0.40601933  1
  Hf  Hf36  1  0.84160690  0.28646671  0.28646671  1
  Hf  Hf37  1  0.12807361  0.71353329  0.28646671  1
  Hf  Hf38  1  0.12807361  0.28646671  0.71353329  1
  Hf  Hf39  1  0.41454032  0.71353329  0.71353329  1
