# generated using pymatgen
data_In2(Se2O5)3
_symmetry_space_group_name_H-M   'P 1'
_cell_length_a   10.06338135
_cell_length_b   11.51231370
_cell_length_c   13.59151071
_cell_angle_alpha   90.00000000
_cell_angle_beta   90.00000000
_cell_angle_gamma   105.37016031
_symmetry_Int_Tables_number   1
_chemical_formula_structural   In2(Se2O5)3
_chemical_formula_sum   'In8 Se24 O60'
_cell_volume   1518.29627708
_cell_formula_units_Z   4
loop_
 _symmetry_equiv_pos_site_id
 _symmetry_equiv_pos_as_xyz
  1  'x, y, z'
loop_
 _atom_site_type_symbol
 _atom_site_label
 _atom_site_symmetry_multiplicity
 _atom_site_fract_x
 _atom_site_fract_y
 _atom_site_fract_z
 _atom_site_occupancy
  O  O0  1  0.70499325  0.02742925  0.60786367  1
  O  O1  1  0.20499325  0.02742925  0.39213633  1
  O  O2  1  0.84747810  0.66878433  0.44487669  1
  O  O3  1  0.34747810  0.66878433  0.55512331  1
  O  O4  1  0.71635052  0.16219719  0.13786939  1
  O  O5  1  0.21635052  0.16219719  0.86213061  1
  O  O6  1  0.72890156  0.64495277  0.98181450  1
  O  O7  1  0.22890156  0.64495277  0.01818550  1
  O  O8  1  0.55498444  0.51216333  0.31631249  1
  O  O9  1  0.05498444  0.51216333  0.68368751  1
  O  O10  1  0.16515824  0.54311216  0.22845566  1
  O  O11  1  0.66515824  0.54311216  0.77154434  1
  O  O12  1  0.23731838  0.72783598  0.34828316  1
  O  O13  1  0.73731838  0.72783598  0.65171684  1
  O  O14  1  0.55362295  0.73705286  0.31545268  1
  O  O15  1  0.05362295  0.73705286  0.68454732  1
  O  O16  1  0.94001351  0.88645339  0.54778010  1
  O  O17  1  0.44001351  0.88645339  0.45221990  1
  O  O18  1  0.91984036  0.78998000  0.85729673  1
  O  O19  1  0.41984036  0.78998000  0.14270327  1
  O  O20  1  0.09889478  0.01926824  0.70629884  1
  O  O21  1  0.59889478  0.01926824  0.29370116  1
  O  O22  1  0.98060114  0.39198986  0.10598701  1
  O  O23  1  0.31068791  0.97810473  0.22498112  1
  O  O24  1  0.66803850  0.44349707  0.08771727  1
  O  O25  1  0.16803850  0.44349707  0.91228273  1
  O  O26  1  0.49645534  0.15264133  0.01804123  1
  O  O27  1  0.99645534  0.15264133  0.98195877  1
  O  O28  1  0.85839264  0.47396190  0.94005142  1
  O  O29  1  0.35839264  0.47396190  0.05994858  1
  O  O30  1  0.74814808  0.21858754  0.94547356  1
  O  O31  1  0.24814808  0.21858754  0.05452644  1
  O  O32  1  0.25338504  0.67473775  0.78702491  1
  O  O33  1  0.75338504  0.67473775  0.21297509  1
  O  O34  1  0.75938760  0.94050734  0.16543603  1
  O  O35  1  0.25938760  0.94050734  0.83456397  1
  O  O36  1  0.38967951  0.88334978  0.63909650  1
  O  O37  1  0.88967951  0.88334978  0.36090350  1
  O  O38  1  0.56000037  0.73526233  0.79445047  1
  O  O39  1  0.06000037  0.73526233  0.20554953  1
  O  O40  1  0.56352742  0.02069305  0.78894084  1
  O  O41  1  0.06352742  0.02069305  0.21105916  1
  O  O42  1  0.44104531  0.83252854  0.95519335  1
  O  O43  1  0.94104531  0.83252854  0.04480665  1
  O  O44  1  0.83354314  0.43864050  0.45215980  1
  O  O45  1  0.33354314  0.43864050  0.54784020  1
  O  O46  1  0.63514782  0.50828118  0.54168700  1
  O  O47  1  0.13514782  0.50828118  0.45831300  1
  O  O48  1  0.31229093  0.17088853  0.54768811  1
  O  O49  1  0.81229093  0.17088853  0.45231189  1
  O  O50  1  0.00466492  0.29127764  0.61014117  1
  O  O51  1  0.50466492  0.29127764  0.38985883  1
  O  O52  1  0.13626214  0.23632101  0.41700346  1
  O  O53  1  0.63626214  0.23632101  0.58299654  1
  O  O54  1  0.46151163  0.34705657  0.70629058  1
  O  O55  1  0.96151163  0.34705657  0.29370942  1
  O  O56  1  0.95039535  0.30793677  0.79477481  1
  O  O57  1  0.45039535  0.30793677  0.20522519  1
  O  O58  1  0.48060114  0.39198986  0.89401299  1
  O  O59  1  0.81068791  0.97810473  0.77501888  1
  Se  Se60  1  0.31115217  0.54344912  0.46587832  1
  Se  Se61  1  0.81115217  0.54344912  0.53412168  1
  Se  Se62  1  0.65765904  0.12041281  0.51030760  1
  Se  Se63  1  0.15765904  0.12041281  0.48969240  1
  Se  Se64  1  0.64467066  0.10867874  0.01440451  1
  Se  Se65  1  0.14467066  0.10867874  0.98559549  1
  Se  Se66  1  0.22340858  0.07801898  0.26099400  1
  Se  Se67  1  0.72340858  0.07801898  0.73900600  1
  Se  Se68  1  0.81598385  0.53935953  0.04393738  1
  Se  Se69  1  0.31598385  0.53935953  0.95606262  1
  Se  Se70  1  0.81374881  0.81962178  0.46619440  1
  Se  Se71  1  0.31374881  0.81962178  0.53380560  1
  Se  Se72  1  0.25260425  0.06278711  0.76531994  1
  Se  Se73  1  0.75260425  0.06278711  0.23468006  1
  Se  Se74  1  0.81757136  0.80187117  0.95512762  1
  Se  Se75  1  0.31757136  0.80187117  0.04487238  1
  Se  Se76  1  0.57867288  0.63944249  0.22751135  1
  Se  Se77  1  0.07867288  0.63944249  0.77248865  1
  Se  Se78  1  0.08311119  0.38295174  0.20400000  1
  Se  Se79  1  0.58311119  0.38295174  0.79600000  1
  Se  Se80  1  0.58100876  0.36252318  0.28666421  1
  Se  Se81  1  0.08100876  0.36252318  0.71333579  1
  Se  Se82  1  0.08504101  0.64506287  0.29937007  1
  Se  Se83  1  0.58504101  0.64506287  0.70062993  1
  In  In84  1  0.42264485  0.86115339  0.29260200  1
  In  In85  1  0.92264485  0.86115339  0.70739800  1
  In  In86  1  0.46357955  0.32903071  0.04643330  1
  In  In87  1  0.96357955  0.32903071  0.95356670  1
  In  In88  1  0.48334383  0.33316980  0.54481392  1
  In  In89  1  0.98334383  0.33316980  0.45518608  1
  In  In90  1  0.91297836  0.84449368  0.20432990  1
  In  In91  1  0.41297836  0.84449368  0.79567010  1
