# generated using pymatgen
data_Li4Mn3WO8
_symmetry_space_group_name_H-M   'P 1'
_cell_length_a   10.43124065
_cell_length_b   10.43124048
_cell_length_c   14.66590325
_cell_angle_alpha   20.39598790
_cell_angle_beta   20.39598726
_cell_angle_gamma   35.13334670
_symmetry_Int_Tables_number   1
_chemical_formula_structural   Li4Mn3WO8
_chemical_formula_sum   'Li4 Mn3 W1 O8'
_cell_volume   167.85446437
_cell_formula_units_Z   1
loop_
 _symmetry_equiv_pos_site_id
 _symmetry_equiv_pos_as_xyz
  1  'x, y, z'
loop_
 _atom_site_type_symbol
 _atom_site_label
 _atom_site_symmetry_multiplicity
 _atom_site_fract_x
 _atom_site_fract_y
 _atom_site_fract_z
 _atom_site_occupancy
  Li  Li0  1  0.00000000  0.00000000  0.50000000  1
  Li  Li1  1  0.00000000  0.50000000  0.50000000  1
  Li  Li2  1  0.50000000  0.00000000  0.50000000  1
  Li  Li3  1  0.50000000  0.50000000  0.50000000  1
  Mn  Mn4  1  0.00000000  0.50000000  0.00000000  1
  Mn  Mn5  1  0.50000000  0.00000000  0.00000000  1
  Mn  Mn6  1  0.50000000  0.50000000  0.00000000  1
  W  W7  1  0.00000000  0.00000000  0.00000000  1
  O  O8  1  1.00000000  1.00000000  0.26111742  1
  O  O9  1  0.00000000  0.55603475  0.21716382  1
  O  O10  1  0.55603475  0.00000000  0.21716382  1
  O  O11  1  0.00000000  0.00000000  0.73888258  1
  O  O12  1  0.44396525  0.44396525  0.32923432  1
  O  O13  1  1.00000000  0.44396525  0.78283618  1
  O  O14  1  0.44396525  1.00000000  0.78283618  1
  O  O15  1  0.55603475  0.55603475  0.67076568  1
