# generated using pymatgen
data_SmAu3
_symmetry_space_group_name_H-M   'P 1'
_cell_length_a   5.11589905
_cell_length_b   5.20109792
_cell_length_c   6.37635416
_cell_angle_alpha   90.00000000
_cell_angle_beta   90.00000000
_cell_angle_gamma   90.00000000
_symmetry_Int_Tables_number   1
_chemical_formula_structural   SmAu3
_chemical_formula_sum   'Sm2 Au6'
_cell_volume   169.66389280
_cell_formula_units_Z   2
loop_
 _symmetry_equiv_pos_site_id
 _symmetry_equiv_pos_as_xyz
  1  'x, y, z'
loop_
 _atom_site_type_symbol
 _atom_site_label
 _atom_site_symmetry_multiplicity
 _atom_site_fract_x
 _atom_site_fract_y
 _atom_site_fract_z
 _atom_site_occupancy
  Sm  Sm0  1  0.75000000  0.34288943  0.75000000  1
  Sm  Sm1  1  0.25000000  0.65711057  0.25000000  1
  Au  Au2  1  0.25000000  0.16141949  0.50963575  1
  Au  Au3  1  0.75000000  0.83858051  0.49036425  1
  Au  Au4  1  0.25000000  0.16141949  0.99036425  1
  Au  Au5  1  0.75000000  0.83858051  0.00963575  1
  Au  Au6  1  0.25000000  0.67264976  0.75000000  1
  Au  Au7  1  0.75000000  0.32735024  0.25000000  1
