# generated using pymatgen
data_BaUS3
_symmetry_space_group_name_H-M   'P 1'
_cell_length_a   7.26197928
_cell_length_b   7.49293331
_cell_length_c   10.39596009
_cell_angle_alpha   90.00000000
_cell_angle_beta   90.00000000
_cell_angle_gamma   90.00000000
_symmetry_Int_Tables_number   1
_chemical_formula_structural   BaUS3
_chemical_formula_sum   'Ba4 U4 S12'
_cell_volume   565.68084926
_cell_formula_units_Z   4
loop_
 _symmetry_equiv_pos_site_id
 _symmetry_equiv_pos_as_xyz
  1  'x, y, z'
loop_
 _atom_site_type_symbol
 _atom_site_label
 _atom_site_symmetry_multiplicity
 _atom_site_fract_x
 _atom_site_fract_y
 _atom_site_fract_z
 _atom_site_occupancy
  S  S0  1  0.70663523  0.29273099  0.45618649  1
  S  S1  1  0.20663523  0.20726901  0.54381351  1
  S  S2  1  0.79336477  0.79273099  0.04381351  1
  S  S3  1  0.29336477  0.70726901  0.95618649  1
  S  S4  1  0.29336477  0.70726901  0.54381351  1
  S  S5  1  0.79336477  0.79273099  0.45618649  1
  S  S6  1  0.20663523  0.20726901  0.95618649  1
  S  S7  1  0.70663523  0.29273099  0.04381351  1
  S  S8  1  0.08229981  0.47941139  0.25000000  1
  S  S9  1  0.58229981  0.02058861  0.75000000  1
  S  S10  1  0.41770019  0.97941139  0.25000000  1
  S  S11  1  0.91770019  0.52058861  0.75000000  1
  Ba  Ba12  1  0.98509101  0.05652784  0.25000000  1
  Ba  Ba13  1  0.48509101  0.44347216  0.75000000  1
  Ba  Ba14  1  0.51490899  0.55652784  0.25000000  1
  Ba  Ba15  1  0.01490899  0.94347216  0.75000000  1
  U  U16  1  0.50000000  0.00000000  0.00000000  1
  U  U17  1  0.00000000  0.50000000  0.00000000  1
  U  U18  1  0.00000000  0.50000000  0.50000000  1
  U  U19  1  0.50000000  0.00000000  0.50000000  1
