# generated using pymatgen
data_CeNiGe2
_symmetry_space_group_name_H-M   'P 1'
_cell_length_a   4.22605239
_cell_length_b   4.22345228
_cell_length_c   8.56986040
_cell_angle_alpha   104.26536071
_cell_angle_beta   90.00000000
_cell_angle_gamma   90.00000000
_symmetry_Int_Tables_number   1
_chemical_formula_structural   CeNiGe2
_chemical_formula_sum   'Ce2 Ni2 Ge4'
_cell_volume   148.24289409
_cell_formula_units_Z   2
loop_
 _symmetry_equiv_pos_site_id
 _symmetry_equiv_pos_as_xyz
  1  'x, y, z'
loop_
 _atom_site_type_symbol
 _atom_site_label
 _atom_site_symmetry_multiplicity
 _atom_site_fract_x
 _atom_site_fract_y
 _atom_site_fract_z
 _atom_site_occupancy
  Ni  Ni0  1  0.25000000  0.68134908  0.36269816  1
  Ni  Ni1  1  0.75000000  0.31865092  0.63730184  1
  Ge  Ge2  1  0.75000000  0.45812039  0.91624078  1
  Ge  Ge3  1  0.25000000  0.54187961  0.08375922  1
  Ge  Ge4  1  0.75000000  0.75023846  0.50047692  1
  Ge  Ge5  1  0.25000000  0.24976154  0.49952308  1
  Ce  Ce6  1  0.25000000  0.89177903  0.78355806  1
  Ce  Ce7  1  0.75000000  0.10822097  0.21644194  1
