# generated using pymatgen
data_K2Li14Pb3O14
_symmetry_space_group_name_H-M   'P 1'
_cell_length_a   7.36035077
_cell_length_b   8.10771062
_cell_length_c   8.49039429
_cell_angle_alpha   118.51988732
_cell_angle_beta   115.68680935
_cell_angle_gamma   90.00000092
_symmetry_Int_Tables_number   1
_chemical_formula_structural   K2Li14Pb3O14
_chemical_formula_sum   'K2 Li14 Pb3 O14'
_cell_volume   387.24522288
_cell_formula_units_Z   1
loop_
 _symmetry_equiv_pos_site_id
 _symmetry_equiv_pos_as_xyz
  1  'x, y, z'
loop_
 _atom_site_type_symbol
 _atom_site_label
 _atom_site_symmetry_multiplicity
 _atom_site_fract_x
 _atom_site_fract_y
 _atom_site_fract_z
 _atom_site_occupancy
  Pb  Pb0  1  0.72744526  0.72744526  0.45489052  1
  Pb  Pb1  1  0.27255474  0.27255474  0.54510948  1
  Pb  Pb2  1  0.00000000  0.00000000  0.00000000  1
  K  K3  1  0.24673442  0.50000000  0.00000000  1
  K  K4  1  0.75326558  0.50000000  1.00000000  1
  Li  Li5  1  0.50000000  0.84151570  0.00000000  1
  Li  Li6  1  0.50000000  0.15848430  1.00000000  1
  Li  Li7  1  0.77110152  0.41658111  0.54220304  1
  Li  Li8  1  0.22889848  0.58341889  0.45779696  1
  Li  Li9  1  0.22889848  0.87437806  0.45779696  1
  Li  Li10  1  0.77110152  0.12562194  0.54220304  1
  Li  Li11  1  0.59299909  0.70991337  0.73107616  1
  Li  Li12  1  0.86192294  0.29008663  0.26892384  1
  Li  Li13  1  0.40700091  0.97883722  0.26892384  1
  Li  Li14  1  0.13807706  0.02116278  0.73107616  1
  Li  Li15  1  0.40700091  0.29008663  0.26892384  1
  Li  Li16  1  0.13807706  0.70991337  0.73107616  1
  Li  Li17  1  0.59299909  0.02116278  0.73107616  1
  Li  Li18  1  0.86192294  0.97883722  0.26892384  1
  O  O19  1  0.04057076  0.74809032  0.49618065  1
  O  O20  1  0.54439011  0.25190968  0.50381935  1
  O  O21  1  0.95942924  0.25190968  0.50381935  1
  O  O22  1  0.45560989  0.74809032  0.49618065  1
  O  O23  1  0.70408988  0.00000000  1.00000000  1
  O  O24  1  0.29591012  1.00000000  0.00000000  1
  O  O25  1  0.87260903  0.68696355  0.74521806  1
  O  O26  1  0.12739097  0.31303645  0.25478194  1
  O  O27  1  0.12739097  0.94174550  0.25478194  1
  O  O28  1  0.87260903  0.05825450  0.74521806  1
  O  O29  1  0.62765045  0.41107467  0.25530089  1
  O  O30  1  0.37234955  0.58892533  0.74469911  1
  O  O31  1  0.37234955  0.15577378  0.74469911  1
  O  O32  1  0.62765045  0.84422622  0.25530089  1
