# generated using pymatgen
data_Bi5NO10
_symmetry_space_group_name_H-M   'P 1'
_cell_length_a   5.68721115
_cell_length_b   8.87215385
_cell_length_c   23.50622470
_cell_angle_alpha   90.00000000
_cell_angle_beta   90.00000000
_cell_angle_gamma   109.58262515
_symmetry_Int_Tables_number   1
_chemical_formula_structural   Bi5NO10
_chemical_formula_sum   'Bi20 N4 O40'
_cell_volume   1117.46920297
_cell_formula_units_Z   4
loop_
 _symmetry_equiv_pos_site_id
 _symmetry_equiv_pos_as_xyz
  1  'x, y, z'
loop_
 _atom_site_type_symbol
 _atom_site_label
 _atom_site_symmetry_multiplicity
 _atom_site_fract_x
 _atom_site_fract_y
 _atom_site_fract_z
 _atom_site_occupancy
  N  N0  1  0.19313156  0.00223111  0.57346025  1
  N  N1  1  0.69313156  0.00223111  0.92653975  1
  N  N2  1  0.80686844  0.99776889  0.42653975  1
  N  N3  1  0.30686844  0.99776889  0.07346025  1
  O  O4  1  0.72239126  0.48588150  0.25460969  1
  O  O5  1  0.16576803  0.85578945  0.08503422  1
  O  O6  1  0.66576803  0.85578945  0.41496578  1
  O  O7  1  0.83423197  0.14421055  0.91496578  1
  O  O8  1  0.02245599  0.92817219  0.60905138  1
  O  O9  1  0.47754401  0.07182781  0.10905138  1
  O  O10  1  0.97754401  0.07182781  0.39094862  1
  O  O11  1  0.52245599  0.92817219  0.89094862  1
  O  O12  1  0.21849054  0.93571024  0.52785403  1
  O  O13  1  0.71849054  0.93571024  0.97214597  1
  O  O14  1  0.78150946  0.06428976  0.47214597  1
  O  O15  1  0.28150946  0.06428976  0.02785403  1
  O  O16  1  0.09588356  0.15993248  0.73816990  1
  O  O17  1  0.40411644  0.84006752  0.23816990  1
  O  O18  1  0.90411644  0.84006752  0.26183010  1
  O  O19  1  0.59588356  0.15993248  0.76183010  1
  O  O20  1  0.77760874  0.51411850  0.75460969  1
  O  O21  1  0.33423197  0.14421055  0.58503422  1
  O  O22  1  0.22239126  0.48588150  0.24539031  1
  O  O23  1  0.27760874  0.51411850  0.74539031  1
  O  O24  1  0.71398739  0.51426558  0.60081162  1
  O  O25  1  0.78601261  0.48573442  0.10081162  1
  O  O26  1  0.28601261  0.48573442  0.39918838  1
  O  O27  1  0.21398739  0.51426558  0.89918838  1
  O  O28  1  0.84932784  0.84916732  0.75384702  1
  O  O29  1  0.65067216  0.15083268  0.25384702  1
  O  O30  1  0.15067216  0.15083268  0.24615298  1
  O  O31  1  0.34932784  0.84916732  0.74615298  1
  O  O32  1  0.73270707  0.53941318  0.97297348  1
  O  O33  1  0.92538218  0.60193943  0.35426166  1
  O  O34  1  0.42538218  0.60193943  0.14573834  1
  O  O35  1  0.07461782  0.39806057  0.64573834  1
  O  O36  1  0.47490723  0.75115070  0.64017044  1
  O  O37  1  0.02509277  0.24884930  0.14017044  1
  O  O38  1  0.52509277  0.24884930  0.35982956  1
  O  O39  1  0.97490723  0.75115070  0.85982956  1
  O  O40  1  0.23270707  0.53941318  0.52702652  1
  O  O41  1  0.26729293  0.46058682  0.02702652  1
  O  O42  1  0.76729293  0.46058682  0.47297348  1
  O  O43  1  0.57461782  0.39806057  0.85426166  1
  Bi  Bi44  1  0.20419805  -0.00507094  0.79847112  1
  Bi  Bi45  1  0.29580195  1.00507094  0.29847112  1
  Bi  Bi46  1  0.79580195  1.00507094  0.20152888  1
  Bi  Bi47  1  0.70419805  -0.00507094  0.70152888  1
  Bi  Bi48  1  0.10089179  0.64679836  0.68781240  1
  Bi  Bi49  1  0.39910821  0.35320164  0.18781240  1
  Bi  Bi50  1  0.89910821  0.35320164  0.31218760  1
  Bi  Bi51  1  0.60089179  0.64679836  0.81218760  1
  Bi  Bi52  1  0.37777273  0.34543988  0.69141223  1
  Bi  Bi53  1  0.12222727  0.65456012  0.19141223  1
  Bi  Bi54  1  0.62222727  0.65456012  0.30858777  1
  Bi  Bi55  1  0.87777273  0.34543988  0.80858777  1
  Bi  Bi56  1  0.09529009  0.69400760  0.93832805  1
  Bi  Bi57  1  0.40470991  0.30599240  0.43832805  1
  Bi  Bi58  1  0.90470991  0.30599240  0.06167195  1
  Bi  Bi59  1  0.59529009  0.69400760  0.56167195  1
  Bi  Bi60  1  0.39839380  0.36545274  0.93817579  1
  Bi  Bi61  1  0.10160620  0.63454726  0.43817579  1
  Bi  Bi62  1  0.60160620  0.63454726  0.06182421  1
  Bi  Bi63  1  0.89839380  0.36545274  0.56182421  1
