# generated using pymatgen
data_La3OsO7
_symmetry_space_group_name_H-M   'P 1'
_cell_length_a   6.76306881
_cell_length_b   6.76306881
_cell_length_c   7.70463494
_cell_angle_alpha   90.00000000
_cell_angle_beta   90.00000000
_cell_angle_gamma   111.93325214
_symmetry_Int_Tables_number   1
_chemical_formula_structural   La3OsO7
_chemical_formula_sum   'La6 Os2 O14'
_cell_volume   326.89600164
_cell_formula_units_Z   2
loop_
 _symmetry_equiv_pos_site_id
 _symmetry_equiv_pos_as_xyz
  1  'x, y, z'
loop_
 _atom_site_type_symbol
 _atom_site_label
 _atom_site_symmetry_multiplicity
 _atom_site_fract_x
 _atom_site_fract_y
 _atom_site_fract_z
 _atom_site_occupancy
  O  O0  1  0.34033485  0.60137343  0.75000000  1
  O  O1  1  0.65966515  0.39862657  0.25000000  1
  O  O2  1  0.60137343  0.34033485  0.75000000  1
  O  O3  1  0.39862657  0.65966515  0.25000000  1
  O  O4  1  0.05908820  0.30783173  0.03919800  1
  O  O5  1  0.94091180  0.69216827  0.53919800  1
  O  O6  1  0.30783173  0.05908820  0.46080200  1
  O  O7  1  0.69216827  0.94091180  0.96080200  1
  O  O8  1  0.92039771  0.92039771  0.25000000  1
  O  O9  1  0.07960229  0.07960229  0.75000000  1
  O  O10  1  0.30783173  0.05908820  0.03919800  1
  O  O11  1  0.69216827  0.94091180  0.53919800  1
  O  O12  1  0.05908820  0.30783173  0.46080200  1
  O  O13  1  0.94091180  0.69216827  0.96080200  1
  La  La14  1  0.50000000  0.50000000  0.00000000  1
  La  La15  1  0.50000000  0.50000000  0.50000000  1
  La  La16  1  0.96877432  0.41471185  0.75000000  1
  La  La17  1  0.03122568  0.58528815  0.25000000  1
  La  La18  1  0.41471185  0.96877432  0.75000000  1
  La  La19  1  0.58528815  0.03122568  0.25000000  1
  Os  Os20  1  0.00000000  0.00000000  0.00000000  1
  Os  Os21  1  0.00000000  0.00000000  0.50000000  1
