# generated using pymatgen
data_Rb2Pb4O7
_symmetry_space_group_name_H-M   'P 1'
_cell_length_a   6.79955021
_cell_length_b   7.47978127
_cell_length_c   10.64965158
_cell_angle_alpha   102.01456487
_cell_angle_beta   99.17554941
_cell_angle_gamma   90.01418040
_symmetry_Int_Tables_number   1
_chemical_formula_structural   Rb2Pb4O7
_chemical_formula_sum   'Rb4 Pb8 O14'
_cell_volume   522.67517114
_cell_formula_units_Z   2
loop_
 _symmetry_equiv_pos_site_id
 _symmetry_equiv_pos_as_xyz
  1  'x, y, z'
loop_
 _atom_site_type_symbol
 _atom_site_label
 _atom_site_symmetry_multiplicity
 _atom_site_fract_x
 _atom_site_fract_y
 _atom_site_fract_z
 _atom_site_occupancy
  Pb  Pb0  1  0.90440791  0.64986545  0.62387898  1
  Pb  Pb1  1  0.09559209  0.35013455  0.37612102  1
  Pb  Pb2  1  0.40808968  0.64966969  0.62488103  1
  Pb  Pb3  1  0.59191032  0.35033031  0.37511897  1
  Pb  Pb4  1  0.74267162  0.60799415  0.96575037  1
  Pb  Pb5  1  0.25732838  0.39200585  0.03424963  1
  Pb  Pb6  1  0.23405865  0.83749396  0.93631704  1
  Pb  Pb7  1  0.76594135  0.16250604  0.06368296  1
  Rb  Rb8  1  0.91805125  0.16940520  0.68517688  1
  Rb  Rb9  1  0.08194875  0.83059480  0.31482312  1
  Rb  Rb10  1  0.42482937  0.17064089  0.68599938  1
  Rb  Rb11  1  0.57517063  0.82935911  0.31400062  1
  O  O12  1  0.64971768  0.43651182  0.59577656  1
  O  O13  1  0.35028232  0.56348818  0.40422344  1
  O  O14  1  0.14808086  0.43668956  0.59542552  1
  O  O15  1  0.85191914  0.56331044  0.40457448  1
  O  O16  1  0.65480144  0.83830064  0.62055210  1
  O  O17  1  0.34519856  0.16169936  0.37944790  1
  O  O18  1  0.15973933  0.84108590  0.63615575  1
  O  O19  1  0.84026067  0.15891410  0.36384425  1
  O  O20  1  0.96146867  0.65707329  0.83260190  1
  O  O21  1  0.03853133  0.34292671  0.16739810  1
  O  O22  1  0.45499978  0.65526711  0.83323833  1
  O  O23  1  0.54500022  0.34473289  0.16676167  1
  O  O24  1  0.73000750  0.30975106  0.90451153  1
  O  O25  1  0.26999250  0.69024894  0.09548847  1
