# generated using pymatgen
data_Rb2PdSe16
_symmetry_space_group_name_H-M   'P 1'
_cell_length_a   7.07303429
_cell_length_b   12.96650431
_cell_length_c   12.96650431
_cell_angle_alpha   90.00000000
_cell_angle_beta   90.00000000
_cell_angle_gamma   90.00000000
_symmetry_Int_Tables_number   1
_chemical_formula_structural   Rb2PdSe16
_chemical_formula_sum   'Rb4 Pd2 Se32'
_cell_volume   1189.19091042
_cell_formula_units_Z   2
loop_
 _symmetry_equiv_pos_site_id
 _symmetry_equiv_pos_as_xyz
  1  'x, y, z'
loop_
 _atom_site_type_symbol
 _atom_site_label
 _atom_site_symmetry_multiplicity
 _atom_site_fract_x
 _atom_site_fract_y
 _atom_site_fract_z
 _atom_site_occupancy
  Se  Se0  1  0.58618334  0.19128195  0.57710465  1
  Se  Se1  1  0.58618334  0.80871805  0.42289535  1
  Se  Se2  1  0.41381666  0.57710465  0.80871805  1
  Se  Se3  1  0.41381666  0.42289535  0.19128195  1
  Se  Se4  1  0.58618334  0.30871805  0.07710465  1
  Se  Se5  1  0.41381666  0.07710465  0.69128195  1
  Se  Se6  1  0.96809031  0.81299793  0.03406108  1
  Se  Se7  1  0.03190969  0.03406108  0.18700207  1
  Se  Se8  1  0.03190969  0.96593892  0.81299793  1
  Se  Se9  1  0.96809031  0.18700207  0.96593892  1
  Se  Se10  1  0.03190969  0.53406108  0.31299793  1
  Se  Se11  1  0.03190969  0.46593892  0.68700207  1
  Se  Se12  1  0.96809031  0.68700207  0.53406108  1
  Se  Se13  1  0.96809031  0.31299793  0.46593892  1
  Se  Se14  1  0.12703645  0.78938096  0.79788148  1
  Se  Se15  1  0.87296355  0.79788148  0.21061904  1
  Se  Se16  1  0.87296355  0.20211852  0.78938096  1
  Se  Se17  1  0.12703645  0.21061904  0.20211852  1
  Se  Se18  1  0.87296355  0.29788148  0.28938096  1
  Se  Se19  1  0.87296355  0.70211852  0.71061904  1
  Se  Se20  1  0.12703645  0.71061904  0.29788148  1
  Se  Se21  1  0.12703645  0.28938096  0.70211852  1
  Se  Se22  1  0.58976300  0.91923255  0.69209343  1
  Se  Se23  1  0.41023700  0.69209343  0.08076745  1
  Se  Se24  1  0.41023700  0.30790657  0.91923255  1
  Se  Se25  1  0.58976300  0.08076745  0.30790657  1
  Se  Se26  1  0.41023700  0.19209343  0.41923255  1
  Se  Se27  1  0.41023700  0.80790657  0.58076745  1
  Se  Se28  1  0.58976300  0.58076745  0.19209343  1
  Se  Se29  1  0.58976300  0.41923255  0.80790657  1
  Se  Se30  1  0.58618334  0.69128195  0.92289535  1
  Se  Se31  1  0.41381666  0.92289535  0.30871805  1
  Rb  Rb32  1  0.00000000  0.50000000  0.00000000  1
  Rb  Rb33  1  0.00000000  0.00000000  0.50000000  1
  Rb  Rb34  1  0.50000000  0.50000000  0.50000000  1
  Rb  Rb35  1  0.50000000  0.00000000  0.00000000  1
  Pd  Pd36  1  0.00000000  0.00000000  0.00000000  1
  Pd  Pd37  1  0.00000000  0.50000000  0.50000000  1
