# generated using pymatgen
data_V7(WO5)6
_symmetry_space_group_name_H-M   'P 1'
_cell_length_a   5.22558043
_cell_length_b   5.22567484
_cell_length_c   23.27917251
_cell_angle_alpha   90.18353865
_cell_angle_beta   90.50681320
_cell_angle_gamma   59.81602710
_symmetry_Int_Tables_number   1
_chemical_formula_structural   V7(WO5)6
_chemical_formula_sum   'V7 W6 O30'
_cell_volume   549.47704090
_cell_formula_units_Z   1
loop_
 _symmetry_equiv_pos_site_id
 _symmetry_equiv_pos_as_xyz
  1  'x, y, z'
loop_
 _atom_site_type_symbol
 _atom_site_label
 _atom_site_symmetry_multiplicity
 _atom_site_fract_x
 _atom_site_fract_y
 _atom_site_fract_z
 _atom_site_occupancy
  V  V0  1  0.32442935  0.33624638  0.28652107  1
  V  V1  1  0.32142010  0.34376092  0.00947597  1
  V  V2  1  0.34227396  0.33814709  0.88909735  1
  V  V3  1  0.67969449  0.65845211  0.98385445  1
  V  V4  1  0.66879845  0.67418290  0.71664407  1
  V  V5  1  0.34117425  0.33119909  0.69996083  1
  V  V6  1  0.66498244  0.66467689  0.30354233  1
  W  W7  1  0.33184233  0.33599679  0.40576884  1
  W  W8  1  0.65861479  0.66927409  0.10804117  1
  W  W9  1  0.67236238  0.66267547  0.59787739  1
  W  W10  1  0.99327703  0.99696256  0.20376489  1
  W  W11  1  0.00142940  0.00046421  0.50186892  1
  W  W12  1  0.99487276  0.01303911  0.80461048  1
  O  O13  1  0.93487952  0.72966451  0.15187428  1
  O  O14  1  0.33164309  0.92215860  0.54916078  1
  O  O15  1  0.01660102  0.58039800  0.34916614  1
  O  O16  1  0.98920526  0.67506577  0.74553645  1
  O  O17  1  0.39940610  0.04158326  0.95359116  1
  O  O18  1  0.27105205  0.67627636  0.84231919  1
  O  O19  1  0.25356270  0.66599136  0.45252249  1
  O  O20  1  0.59545240  0.98098132  0.65209726  1
  O  O21  1  0.31302683  0.69265780  0.25051187  1
  O  O22  1  0.96732272  0.41594653  0.04961906  1
  O  O23  1  0.40580999  0.58973490  0.05458935  1
  O  O24  1  0.67473352  0.04904007  0.84456938  1
  O  O25  1  0.43158495  0.59765347  0.65151433  1
  O  O26  1  0.69770952  0.99139048  0.24941316  1
  O  O27  1  0.08249225  0.24854884  0.45097840  1
  O  O28  1  0.91693617  0.75293743  0.54902523  1
  O  O29  1  0.31888773  0.98783021  0.74659830  1
  O  O30  1  0.57198436  0.40239687  0.34862617  1
  O  O31  1  0.32949787  0.92710552  0.15297016  1
  O  O32  1  0.60173934  0.40182721  0.95140024  1
  O  O33  1  0.03490201  0.59160093  0.95112058  1
  O  O34  1  0.67964819  0.31606431  0.74627241  1
  O  O35  1  0.40352726  0.02448451  0.34693296  1
  O  O36  1  0.74504060  0.33740681  0.54765531  1
  O  O37  1  0.74215498  0.32134888  0.15285450  1
  O  O38  1  0.59538921  0.96886344  0.05254336  1
  O  O39  1  0.99661686  0.30533503  0.25109768  1
  O  O40  1  0.98846983  0.41944732  0.64984421  1
  O  O41  1  0.67015225  0.07800698  0.45103620  1
  O  O42  1  0.04509868  0.28347669  0.84353164  1
