# generated using pymatgen
data_Sr3Tl2O6
_symmetry_space_group_name_H-M   'P 1'
_cell_length_a   3.52859699
_cell_length_b   12.02279927
_cell_length_c   17.23286909
_cell_angle_alpha   90.00000000
_cell_angle_beta   90.00000000
_cell_angle_gamma   90.00000000
_symmetry_Int_Tables_number   1
_chemical_formula_structural   Sr3Tl2O6
_chemical_formula_sum   'Sr12 Tl8 O24'
_cell_volume   731.08057459
_cell_formula_units_Z   4
loop_
 _symmetry_equiv_pos_site_id
 _symmetry_equiv_pos_as_xyz
  1  'x, y, z'
loop_
 _atom_site_type_symbol
 _atom_site_label
 _atom_site_symmetry_multiplicity
 _atom_site_fract_x
 _atom_site_fract_y
 _atom_site_fract_z
 _atom_site_occupancy
  O  O0  1  0.00000000  0.18621362  0.76128417  1
  O  O1  1  0.00000000  0.81378638  0.23871583  1
  O  O2  1  0.00000000  0.68621362  0.73871583  1
  O  O3  1  0.00000000  0.31378638  0.26128417  1
  O  O4  1  0.50000000  0.47284510  0.83029880  1
  O  O5  1  0.50000000  0.52715490  0.16970120  1
  O  O6  1  0.50000000  0.97284510  0.66970120  1
  O  O7  1  0.50000000  0.02715490  0.33029880  1
  O  O8  1  0.50000000  0.21303957  0.59648115  1
  O  O9  1  0.50000000  0.78696043  0.40351885  1
  O  O10  1  0.50000000  0.71303957  0.90351885  1
  O  O11  1  0.50000000  0.28696043  0.09648115  1
  O  O12  1  0.50000000  0.50000000  0.50000000  1
  O  O13  1  0.50000000  0.00000000  0.00000000  1
  O  O14  1  0.00000000  0.21301904  0.93441966  1
  O  O15  1  0.00000000  0.78698096  0.06558034  1
  O  O16  1  0.00000000  0.71301904  0.56558034  1
  O  O17  1  0.00000000  0.28698096  0.43441966  1
  O  O18  1  0.00000000  0.00000000  0.50000000  1
  O  O19  1  0.00000000  0.50000000  0.00000000  1
  O  O20  1  0.00000000  0.06128707  0.15381247  1
  O  O21  1  0.00000000  0.93871293  0.84618753  1
  O  O22  1  0.00000000  0.56128707  0.34618753  1
  O  O23  1  0.00000000  0.43871293  0.65381247  1
  Sr  Sr24  1  0.50000000  0.09634728  0.85382760  1
  Sr  Sr25  1  0.50000000  0.90365272  0.14617240  1
  Sr  Sr26  1  0.50000000  0.59634728  0.64617240  1
  Sr  Sr27  1  0.50000000  0.40365272  0.35382760  1
  Sr  Sr28  1  0.50000000  0.36709849  0.95895490  1
  Sr  Sr29  1  0.50000000  0.63290151  0.04104510  1
  Sr  Sr30  1  0.50000000  0.86709849  0.54104510  1
  Sr  Sr31  1  0.50000000  0.13290151  0.45895490  1
  Sr  Sr32  1  0.50000000  0.32526125  0.72558109  1
  Sr  Sr33  1  0.50000000  0.67473875  0.27441891  1
  Sr  Sr34  1  0.50000000  0.82526125  0.77441891  1
  Sr  Sr35  1  0.50000000  0.17473875  0.22558109  1
  Tl  Tl36  1  0.00000000  0.40886014  0.14732233  1
  Tl  Tl37  1  0.00000000  0.59113986  0.85267767  1
  Tl  Tl38  1  0.00000000  0.90886014  0.35267767  1
  Tl  Tl39  1  0.00000000  0.09113986  0.64732233  1
  Tl  Tl40  1  0.00000000  0.36814632  0.54231579  1
  Tl  Tl41  1  0.00000000  0.63185368  0.45768421  1
  Tl  Tl42  1  0.00000000  0.86814632  0.95768421  1
  Tl  Tl43  1  0.00000000  0.13185368  0.04231579  1
