# generated using pymatgen
data_Hf2Bi2O7
_symmetry_space_group_name_H-M   'P 1'
_cell_length_a   7.72375795
_cell_length_b   7.70963684
_cell_length_c   7.70963719
_cell_angle_alpha   89.44845157
_cell_angle_beta   120.28485060
_cell_angle_gamma   120.28485212
_symmetry_Int_Tables_number   1
_chemical_formula_structural   Hf2Bi2O7
_chemical_formula_sum   'Hf4 Bi4 O14'
_cell_volume   323.37829175
_cell_formula_units_Z   2
loop_
 _symmetry_equiv_pos_site_id
 _symmetry_equiv_pos_as_xyz
  1  'x, y, z'
loop_
 _atom_site_type_symbol
 _atom_site_label
 _atom_site_symmetry_multiplicity
 _atom_site_fract_x
 _atom_site_fract_y
 _atom_site_fract_z
 _atom_site_occupancy
  Bi  Bi0  1  0.21015674  0.87598850  0.64623289  1
  Bi  Bi1  1  0.30308547  0.42767254  0.67444846  1
  Bi  Bi2  1  0.69691453  0.32555154  0.57232746  1
  Bi  Bi3  1  0.78984326  0.35376711  0.12401150  1
  Hf  Hf4  1  0.24788860  0.87140133  0.12754967  1
  Hf  Hf5  1  0.25191732  0.37338340  0.12738236  1
  Hf  Hf6  1  0.74808268  0.87261764  0.62661660  1
  Hf  Hf7  1  0.75211140  0.87245033  0.12859867  1
  O  O8  1  0.00000000  0.81352216  0.18647784  1
  O  O9  1  0.00000000  0.48896736  0.51103264  1
  O  O10  1  0.97928309  0.19524397  0.18240646  1
  O  O11  1  0.52827331  0.97045089  0.44777521  1
  O  O12  1  0.59082667  0.77914414  0.79498111  1
  O  O13  1  0.11205897  0.55529101  0.08344981  1
  O  O14  1  0.50000000  0.95997389  0.04002611  1
  O  O15  1  0.50000000  0.53881073  0.46118927  1
  O  O16  1  0.50000000  0.24044894  0.75955106  1
  O  O17  1  0.88794103  0.91655019  0.44470899  1
  O  O18  1  0.40917333  0.20501889  0.22085586  1
  O  O19  1  0.47172669  0.55222479  0.02954911  1
  O  O20  1  0.02071691  0.81759354  0.80475603  1
  O  O21  1  1.00000000  0.18692711  0.81307289  1
