# generated using pymatgen
data_Ga10GePb3O20
_symmetry_space_group_name_H-M   'P 1'
_cell_length_a   5.18017513
_cell_length_b   9.90595639
_cell_length_c   9.90595688
_cell_angle_alpha   73.56793953
_cell_angle_beta   74.70317082
_cell_angle_gamma   74.70316780
_symmetry_Int_Tables_number   1
_chemical_formula_structural   Ga10GePb3O20
_chemical_formula_sum   'Ga10 Ge1 Pb3 O20'
_cell_volume   460.34704019
_cell_formula_units_Z   1
loop_
 _symmetry_equiv_pos_site_id
 _symmetry_equiv_pos_as_xyz
  1  'x, y, z'
loop_
 _atom_site_type_symbol
 _atom_site_label
 _atom_site_symmetry_multiplicity
 _atom_site_fract_x
 _atom_site_fract_y
 _atom_site_fract_z
 _atom_site_occupancy
  Pb  Pb0  1  0.00000000  0.00000000  0.00000000  1
  Pb  Pb1  1  0.66319345  0.27760718  0.27760718  1
  Pb  Pb2  1  0.33680655  0.72239282  0.72239282  1
  Ge  Ge3  1  0.00000000  0.50000000  0.50000000  1
  Ga  Ga4  1  0.50000000  0.63397900  0.36602100  1
  Ga  Ga5  1  0.50000000  0.36602100  0.63397900  1
  Ga  Ga6  1  0.65921252  0.99259676  0.72015775  1
  Ga  Ga7  1  0.34078748  0.27984225  0.00740324  1
  Ga  Ga8  1  0.34078748  0.00740324  0.27984225  1
  Ga  Ga9  1  0.65921252  0.72015775  0.99259676  1
  Ga  Ga10  1  0.83612727  0.84948958  0.42196321  1
  Ga  Ga11  1  0.16387273  0.57803679  0.15051042  1
  Ga  Ga12  1  0.16387273  0.15051042  0.57803679  1
  Ga  Ga13  1  0.83612727  0.42196321  0.84948958  1
  O  O14  1  0.38440532  0.43356933  0.43356933  1
  O  O15  1  0.61559468  0.56643067  0.56643067  1
  O  O16  1  0.49882808  0.90281848  0.90281848  1
  O  O17  1  0.50117192  0.09718152  0.09718152  1
  O  O18  1  0.65224112  0.87594253  0.60384277  1
  O  O19  1  0.34775888  0.39615723  0.12405747  1
  O  O20  1  0.34775888  0.12405747  0.39615723  1
  O  O21  1  0.65224112  0.60384277  0.87594253  1
  O  O22  1  0.43494578  0.17192143  0.66123257  1
  O  O23  1  0.56505422  0.33876743  0.82807857  1
  O  O24  1  0.56505422  0.82807857  0.33876743  1
  O  O25  1  0.43494578  0.66123257  0.17192143  1
  O  O26  1  0.00838924  0.71807249  0.00820036  1
  O  O27  1  0.99161076  0.99179964  0.28192751  1
  O  O28  1  0.99161076  0.28192751  0.99179964  1
  O  O29  1  0.00838924  0.00820036  0.71807249  1
  O  O30  1  0.89614052  0.54529757  0.31617125  1
  O  O31  1  0.10385948  0.68382875  0.45470243  1
  O  O32  1  0.10385948  0.45470243  0.68382875  1
  O  O33  1  0.89614052  0.31617125  0.54529757  1
