# generated using pymatgen
data_Mn2FeO6
_symmetry_space_group_name_H-M   'P 1'
_cell_length_a   14.94355895
_cell_length_b   9.49498292
_cell_length_c   9.49498294
_cell_angle_alpha   17.87405061
_cell_angle_beta   17.30212400
_cell_angle_gamma   17.30212404
_symmetry_Int_Tables_number   1
_chemical_formula_structural   Mn2FeO6
_chemical_formula_sum   'Mn2 Fe1 O6'
_cell_volume   106.15782722
_cell_formula_units_Z   1
loop_
 _symmetry_equiv_pos_site_id
 _symmetry_equiv_pos_as_xyz
  1  'x, y, z'
loop_
 _atom_site_type_symbol
 _atom_site_label
 _atom_site_symmetry_multiplicity
 _atom_site_fract_x
 _atom_site_fract_y
 _atom_site_fract_z
 _atom_site_occupancy
  Mn  Mn0  1  0.99609235  0.00267636  0.00267636  1
  Mn  Mn1  1  0.33724065  0.99732364  0.99732364  1
  Fe  Fe2  1  0.66666700  0.00000000  0.00000000  1
  O  O3  1  0.23346991  0.27335346  0.27335346  1
  O  O4  1  0.58002396  0.26396826  0.26396826  1
  O  O5  1  0.09986309  0.72664654  0.72664654  1
  O  O6  1  0.92291601  0.25618032  0.25618032  1
  O  O7  1  0.41041699  0.74381968  0.74381968  1
  O  O8  1  0.75330904  0.73603174  0.73603174  1
