# generated using pymatgen
data_RbBO2
_symmetry_space_group_name_H-M   'P 1'
_cell_length_a   8.13289887
_cell_length_b   8.13289888
_cell_length_c   8.13289887
_cell_angle_alpha   109.78813553
_cell_angle_beta   109.78813558
_cell_angle_gamma   109.78813555
_symmetry_Int_Tables_number   1
_chemical_formula_structural   RbBO2
_chemical_formula_sum   'Rb6 B6 O12'
_cell_volume   409.17755052
_cell_formula_units_Z   6
loop_
 _symmetry_equiv_pos_site_id
 _symmetry_equiv_pos_as_xyz
  1  'x, y, z'
loop_
 _atom_site_type_symbol
 _atom_site_label
 _atom_site_symmetry_multiplicity
 _atom_site_fract_x
 _atom_site_fract_y
 _atom_site_fract_z
 _atom_site_occupancy
  B  B0  1  0.85950979  0.75000000  0.64049021  1
  B  B1  1  0.75000000  0.64049021  0.85950979  1
  B  B2  1  0.64049021  0.85950979  0.75000000  1
  B  B3  1  0.14049021  0.25000000  0.35950979  1
  B  B4  1  0.25000000  0.35950979  0.14049021  1
  B  B5  1  0.35950979  0.14049021  0.25000000  1
  O  O6  1  0.45917683  0.04082317  0.25000000  1
  O  O7  1  0.25000000  0.45917683  0.04082317  1
  O  O8  1  0.04082317  0.25000000  0.45917683  1
  O  O9  1  0.54082317  0.95917683  0.75000000  1
  O  O10  1  0.75000000  0.54082317  0.95917683  1
  O  O11  1  0.95917683  0.75000000  0.54082317  1
  O  O12  1  0.35471710  0.25000000  0.14528290  1
  O  O13  1  0.14528290  0.35471710  0.25000000  1
  O  O14  1  0.25000000  0.14528290  0.35471710  1
  O  O15  1  0.64528290  0.75000000  0.85471710  1
  O  O16  1  0.85471710  0.64528290  0.75000000  1
  O  O17  1  0.75000000  0.85471710  0.64528290  1
  Rb  Rb18  1  0.19013527  0.75000000  0.30986473  1
  Rb  Rb19  1  0.75000000  0.30986473  0.19013527  1
  Rb  Rb20  1  0.30986473  0.19013527  0.75000000  1
  Rb  Rb21  1  0.80986473  0.25000000  0.69013527  1
  Rb  Rb22  1  0.25000000  0.69013527  0.80986473  1
  Rb  Rb23  1  0.69013527  0.80986473  0.25000000  1
