# generated using pymatgen
data_La3(Sn3Pd2)2
_symmetry_space_group_name_H-M   'P 1'
_cell_length_a   4.68543587
_cell_length_b   15.84529322
_cell_length_c   17.11487211
_cell_angle_alpha   90.00000000
_cell_angle_beta   90.00000000
_cell_angle_gamma   90.00000000
_symmetry_Int_Tables_number   1
_chemical_formula_structural   La3(Sn3Pd2)2
_chemical_formula_sum   'La12 Sn24 Pd16'
_cell_volume   1270.64413608
_cell_formula_units_Z   4
loop_
 _symmetry_equiv_pos_site_id
 _symmetry_equiv_pos_as_xyz
  1  'x, y, z'
loop_
 _atom_site_type_symbol
 _atom_site_label
 _atom_site_symmetry_multiplicity
 _atom_site_fract_x
 _atom_site_fract_y
 _atom_site_fract_z
 _atom_site_occupancy
  Pd  Pd0  1  0.25000000  0.12130081  0.01129413  1
  Pd  Pd1  1  0.75000000  0.87869919  0.98870587  1
  Pd  Pd2  1  0.75000000  0.62130081  0.48870587  1
  Pd  Pd3  1  0.25000000  0.37869919  0.51129413  1
  Pd  Pd4  1  0.25000000  0.40028496  0.04781079  1
  Pd  Pd5  1  0.75000000  0.59971504  0.95218921  1
  Pd  Pd6  1  0.75000000  0.90028496  0.45218921  1
  Pd  Pd7  1  0.25000000  0.09971504  0.54781079  1
  Pd  Pd8  1  0.25000000  0.23354685  0.28257946  1
  Pd  Pd9  1  0.75000000  0.76645315  0.71742054  1
  Pd  Pd10  1  0.75000000  0.73354685  0.21742054  1
  Pd  Pd11  1  0.25000000  0.26645315  0.78257946  1
  Pd  Pd12  1  0.25000000  0.52535104  0.29071767  1
  Pd  Pd13  1  0.75000000  0.47464896  0.70928233  1
  Pd  Pd14  1  0.75000000  0.02535104  0.20928233  1
  Pd  Pd15  1  0.25000000  0.97464896  0.79071767  1
  Sn  Sn16  1  0.25000000  0.58228786  0.02582101  1
  Sn  Sn17  1  0.75000000  0.41771214  0.97417899  1
  Sn  Sn18  1  0.75000000  0.08228786  0.47417899  1
  Sn  Sn19  1  0.25000000  0.91771214  0.52582101  1
  Sn  Sn20  1  0.25000000  0.10570861  0.17118022  1
  Sn  Sn21  1  0.75000000  0.89429139  0.82881978  1
  Sn  Sn22  1  0.75000000  0.60570861  0.32881978  1
  Sn  Sn23  1  0.25000000  0.39429139  0.67118022  1
  Sn  Sn24  1  0.25000000  0.66334837  0.18909242  1
  Sn  Sn25  1  0.75000000  0.33665163  0.81090758  1
  Sn  Sn26  1  0.75000000  0.16334837  0.31090758  1
  Sn  Sn27  1  0.25000000  0.83665163  0.68909242  1
  Sn  Sn28  1  0.25000000  0.37959261  0.20630991  1
  Sn  Sn29  1  0.75000000  0.62040739  0.79369009  1
  Sn  Sn30  1  0.75000000  0.87959261  0.29369009  1
  Sn  Sn31  1  0.25000000  0.12040739  0.70630991  1
  Sn  Sn32  1  0.25000000  0.22986155  0.44294591  1
  Sn  Sn33  1  0.75000000  0.77013845  0.55705409  1
  Sn  Sn34  1  0.75000000  0.72986155  0.05705409  1
  Sn  Sn35  1  0.25000000  0.27013845  0.94294591  1
  Sn  Sn36  1  0.25000000  0.53833358  0.44760299  1
  Sn  Sn37  1  0.75000000  0.46166642  0.55239701  1
  Sn  Sn38  1  0.75000000  0.03833358  0.05239701  1
  Sn  Sn39  1  0.25000000  0.96166642  0.94760299  1
  La  La40  1  0.25000000  0.88196646  0.14163308  1
  La  La41  1  0.75000000  0.11803354  0.85836692  1
  La  La42  1  0.75000000  0.38196646  0.35836692  1
  La  La43  1  0.25000000  0.61803354  0.64163308  1
  La  La44  1  0.25000000  0.01721084  0.35066058  1
  La  La45  1  0.75000000  0.98278916  0.64933942  1
  La  La46  1  0.75000000  0.51721084  0.14933942  1
  La  La47  1  0.25000000  0.48278916  0.85066058  1
  La  La48  1  0.25000000  0.75137035  0.38405927  1
  La  La49  1  0.75000000  0.24862965  0.61594073  1
  La  La50  1  0.75000000  0.25137035  0.11594073  1
  La  La51  1  0.25000000  0.74862965  0.88405927  1
