# generated using pymatgen
data_Nd(C2N3)3
_symmetry_space_group_name_H-M   'P 1'
_cell_length_a   7.11742429
_cell_length_b   7.11742428
_cell_length_c   10.55986421
_cell_angle_alpha   90.00000000
_cell_angle_beta   90.00000000
_cell_angle_gamma   113.06152593
_symmetry_Int_Tables_number   1
_chemical_formula_structural   Nd(C2N3)3
_chemical_formula_sum   'Nd2 C12 N18'
_cell_volume   492.18896808
_cell_formula_units_Z   2
loop_
 _symmetry_equiv_pos_site_id
 _symmetry_equiv_pos_as_xyz
  1  'x, y, z'
loop_
 _atom_site_type_symbol
 _atom_site_label
 _atom_site_symmetry_multiplicity
 _atom_site_fract_x
 _atom_site_fract_y
 _atom_site_fract_z
 _atom_site_occupancy
  C  C0  1  0.73059602  0.55658400  0.75000000  1
  C  C1  1  0.99902307  0.29010189  0.94708744  1
  C  C2  1  0.00097693  0.70989811  0.44708744  1
  C  C3  1  0.26940398  0.44341600  0.25000000  1
  C  C4  1  0.55658400  0.73059602  0.25000000  1
  C  C5  1  0.44341600  0.26940398  0.75000000  1
  C  C6  1  0.29010189  0.99902307  0.44708744  1
  C  C7  1  0.70989811  0.00097693  0.94708744  1
  C  C8  1  0.99902307  0.29010189  0.55291256  1
  C  C9  1  0.00097693  0.70989811  0.05291256  1
  C  C10  1  0.70989811  0.00097693  0.55291256  1
  C  C11  1  0.29010189  0.99902307  0.05291256  1
  N  N12  1  0.14129705  0.42018769  0.90091268  1
  N  N13  1  0.85870295  0.57981231  0.40091268  1
  N  N14  1  0.53199689  0.46800311  0.75000000  1
  N  N15  1  0.46800311  0.53199689  0.25000000  1
  N  N16  1  0.90920615  0.64520093  0.75000000  1
  N  N17  1  0.09079385  0.35479907  0.25000000  1
  N  N18  1  0.64520093  0.90920615  0.25000000  1
  N  N19  1  0.35479907  0.09079385  0.75000000  1
  N  N20  1  0.15569521  0.84430479  0.50627011  1
  N  N21  1  0.84430479  0.15569521  0.00627011  1
  N  N22  1  0.84430479  0.15569521  0.49372989  1
  N  N23  1  0.15569521  0.84430479  0.99372989  1
  N  N24  1  0.42018769  0.14129705  0.40091268  1
  N  N25  1  0.57981231  0.85870295  0.90091268  1
  N  N26  1  0.14129705  0.42018769  0.59908732  1
  N  N27  1  0.85870295  0.57981231  0.09908732  1
  N  N28  1  0.57981231  0.85870295  0.59908732  1
  N  N29  1  0.42018769  0.14129705  0.09908732  1
  Nd  Nd30  1  0.71506627  0.28493373  0.25000000  1
  Nd  Nd31  1  0.28493373  0.71506627  0.75000000  1
