# generated using pymatgen
data_Sr3CuIrO6
_symmetry_space_group_name_H-M   'P 1'
_cell_length_a   6.76741242
_cell_length_b   6.80374991
_cell_length_c   6.80375001
_cell_angle_alpha   91.90865975
_cell_angle_beta   90.73008403
_cell_angle_gamma   90.73008330
_symmetry_Int_Tables_number   1
_chemical_formula_structural   Sr3CuIrO6
_chemical_formula_sum   'Sr6 Cu2 Ir2 O12'
_cell_volume   313.04398524
_cell_formula_units_Z   2
loop_
 _symmetry_equiv_pos_site_id
 _symmetry_equiv_pos_as_xyz
  1  'x, y, z'
loop_
 _atom_site_type_symbol
 _atom_site_label
 _atom_site_symmetry_multiplicity
 _atom_site_fract_x
 _atom_site_fract_y
 _atom_site_fract_z
 _atom_site_occupancy
  Sr  Sr0  1  0.75000000  0.60122464  0.39877536  1
  Sr  Sr1  1  0.25000000  0.39877536  0.60122464  1
  Sr  Sr2  1  0.62030978  0.74178316  0.89193374  1
  Sr  Sr3  1  0.87969022  0.10806626  0.25821684  1
  Sr  Sr4  1  0.37969022  0.25821684  0.10806626  1
  Sr  Sr5  1  0.12030978  0.89193374  0.74178316  1
  Ir  Ir6  1  0.00000000  0.50000000  0.00000000  1
  Ir  Ir7  1  0.50000000  0.00000000  0.50000000  1
  Cu  Cu8  1  0.25000000  0.80840977  0.19159023  1
  Cu  Cu9  1  0.75000000  0.19159023  0.80840977  1
  O  O10  1  0.53679547  0.89809910  0.21713866  1
  O  O11  1  0.96320453  0.78286134  0.10190090  1
  O  O12  1  0.46320453  0.10190090  0.78286134  1
  O  O13  1  0.03679547  0.21713866  0.89809910  1
  O  O14  1  0.21714842  0.02955038  0.39533077  1
  O  O15  1  0.28285158  0.60466923  0.97044962  1
  O  O16  1  0.78285158  0.97044962  0.60466923  1
  O  O17  1  0.71714842  0.39533077  0.02955038  1
  O  O18  1  0.42991028  0.72183432  0.57153956  1
  O  O19  1  0.07008972  0.42846044  0.27816568  1
  O  O20  1  0.57008972  0.27816568  0.42846044  1
  O  O21  1  0.92991028  0.57153956  0.72183432  1
