# generated using pymatgen
data_Cs2KZrOF5
_symmetry_space_group_name_H-M   'P 1'
_cell_length_a   6.70809316
_cell_length_b   6.67858521
_cell_length_c   6.70809340
_cell_angle_alpha   60.14540979
_cell_angle_beta   59.70917571
_cell_angle_gamma   60.14540900
_symmetry_Int_Tables_number   1
_chemical_formula_structural   Cs2KZrOF5
_chemical_formula_sum   'Cs2 K1 Zr1 O1 F5'
_cell_volume   212.49607208
_cell_formula_units_Z   1
loop_
 _symmetry_equiv_pos_site_id
 _symmetry_equiv_pos_as_xyz
  1  'x, y, z'
loop_
 _atom_site_type_symbol
 _atom_site_label
 _atom_site_symmetry_multiplicity
 _atom_site_fract_x
 _atom_site_fract_y
 _atom_site_fract_z
 _atom_site_occupancy
  Cs  Cs0  1  0.25189496  0.24810504  0.25189496  1
  Cs  Cs1  1  0.75189496  0.74810504  0.75189496  1
  F  F2  1  0.21735954  0.22534896  0.77465104  1
  F  F3  1  0.77465104  0.22534896  0.21735954  1
  F  F4  1  0.21735954  0.78264046  0.77465104  1
  F  F5  1  0.78019092  0.21980908  0.78019092  1
  F  F6  1  0.77465104  0.78264046  0.21735954  1
  K  K7  1  0.49732692  0.50267308  0.49732692  1
  O  O8  1  0.21675809  0.78324191  0.21675809  1
  Zr  Zr9  1  0.01791300  0.98208700  0.01791300  1
