# generated using pymatgen
data_Cs2Li2SiO4
_symmetry_space_group_name_H-M   'P 1'
_cell_length_a   5.63707072
_cell_length_b   5.83237314
_cell_length_c   9.38084126
_cell_angle_alpha   83.79823600
_cell_angle_beta   76.53570324
_cell_angle_gamma   87.24595600
_symmetry_Int_Tables_number   1
_chemical_formula_structural   Cs2Li2SiO4
_chemical_formula_sum   'Cs4 Li4 Si2 O8'
_cell_volume   298.10279671
_cell_formula_units_Z   2
loop_
 _symmetry_equiv_pos_site_id
 _symmetry_equiv_pos_as_xyz
  1  'x, y, z'
loop_
 _atom_site_type_symbol
 _atom_site_label
 _atom_site_symmetry_multiplicity
 _atom_site_fract_x
 _atom_site_fract_y
 _atom_site_fract_z
 _atom_site_occupancy
  Cs  Cs0  1  0.47830488  0.84816041  0.71705036  1
  Cs  Cs1  1  0.21048223  0.26716017  0.98386604  1
  Cs  Cs2  1  0.52169512  0.15183959  0.28294964  1
  Cs  Cs3  1  0.78951777  0.73283983  0.01613396  1
  Li  Li4  1  0.29920782  0.40991540  0.57971220  1
  Li  Li5  1  0.06163719  0.81316393  0.56151363  1
  Li  Li6  1  0.70079218  0.59008460  0.42028780  1
  Li  Li7  1  0.93836281  0.18683607  0.43848637  1
  Si  Si8  1  0.14564575  0.68520664  0.29430458  1
  Si  Si9  1  0.85435425  0.31479336  0.70569542  1
  O  O10  1  0.07009509  0.13809843  0.61470529  1
  O  O11  1  0.35395860  0.64170396  0.39806711  1
  O  O12  1  0.73205796  0.20593967  0.87380163  1
  O  O13  1  0.92990491  0.86190157  0.38529471  1
  O  O14  1  0.64604140  0.35829604  0.60193289  1
  O  O15  1  0.26794204  0.79406033  0.12619837  1
  O  O16  1  0.99938144  0.44470316  0.29194715  1
  O  O17  1  0.00061856  0.55529684  0.70805285  1
