# generated using pymatgen
data_BaSc2O4
_symmetry_space_group_name_H-M   'P 1'
_cell_length_a   5.76805068
_cell_length_b   5.76805067
_cell_length_c   20.74012879
_cell_angle_alpha   89.96878716
_cell_angle_beta   89.96878717
_cell_angle_gamma   61.25756532
_symmetry_Int_Tables_number   1
_chemical_formula_structural   BaSc2O4
_chemical_formula_sum   'Ba6 Sc12 O24'
_cell_volume   605.01370463
_cell_formula_units_Z   6
loop_
 _symmetry_equiv_pos_site_id
 _symmetry_equiv_pos_as_xyz
  1  'x, y, z'
loop_
 _atom_site_type_symbol
 _atom_site_label
 _atom_site_symmetry_multiplicity
 _atom_site_fract_x
 _atom_site_fract_y
 _atom_site_fract_z
 _atom_site_occupancy
  O  O0  1  0.52222158  0.81741133  0.37537089  1
  O  O1  1  0.18258867  0.47777842  0.12462911  1
  O  O2  1  0.47777842  0.18258867  0.62462911  1
  O  O3  1  0.81741133  0.52222158  0.87537089  1
  O  O4  1  0.92684862  0.07315138  0.25000000  1
  O  O5  1  0.07315138  0.92684862  0.75000000  1
  O  O6  1  0.00000000  0.00000000  0.50000000  1
  O  O7  1  0.00000000  0.00000000  0.00000000  1
  O  O8  1  0.39688846  0.13029777  0.24853701  1
  O  O9  1  0.86970223  0.60311154  0.25146299  1
  O  O10  1  0.60311154  0.86970223  0.75146299  1
  O  O11  1  0.13029777  0.39688846  0.74853701  1
  O  O12  1  0.59426092  0.27043786  0.37639551  1
  O  O13  1  0.72956214  0.40573908  0.12360449  1
  O  O14  1  0.40573908  0.72956214  0.62360449  1
  O  O15  1  0.27043786  0.59426092  0.87639551  1
  O  O16  1  0.40254417  0.29263796  0.49665339  1
  O  O17  1  0.70736204  0.59745583  0.00334661  1
  O  O18  1  0.96411652  0.25014238  0.61893896  1
  O  O19  1  0.74985762  0.03588348  0.88106104  1
  O  O20  1  0.03588348  0.74985762  0.38106104  1
  O  O21  1  0.25014238  0.96411652  0.11893896  1
  O  O22  1  0.29263796  0.40254417  0.99665339  1
  O  O23  1  0.59745583  0.70736204  0.50334661  1
  Sc  Sc24  1  0.71584534  0.95817573  0.44730355  1
  Sc  Sc25  1  0.04182427  0.28415466  0.05269645  1
  Sc  Sc26  1  0.28415466  0.04182427  0.55269645  1
  Sc  Sc27  1  0.95817573  0.71584534  0.94730355  1
  Sc  Sc28  1  0.38696461  0.61659731  0.07059632  1
  Sc  Sc29  1  0.38340269  0.61303539  0.42940368  1
  Sc  Sc30  1  0.61303539  0.38340269  0.92940368  1
  Sc  Sc31  1  0.61659731  0.38696461  0.57059632  1
  Sc  Sc32  1  0.72331124  0.93972023  0.30469575  1
  Sc  Sc33  1  0.06027977  0.27668876  0.19530425  1
  Sc  Sc34  1  0.27668876  0.06027977  0.69530425  1
  Sc  Sc35  1  0.93972023  0.72331124  0.80469575  1
  Ba  Ba36  1  0.72657553  0.94226575  0.13761665  1
  Ba  Ba37  1  0.05773425  0.27342447  0.36238335  1
  Ba  Ba38  1  0.27342447  0.05773425  0.86238335  1
  Ba  Ba39  1  0.94226575  0.72657553  0.63761665  1
  Ba  Ba40  1  0.39261823  0.60738177  0.25000000  1
  Ba  Ba41  1  0.60738177  0.39261823  0.75000000  1
