# generated using pymatgen
data_K3PSe4
_symmetry_space_group_name_H-M   'P 1'
_cell_length_a   9.53779741
_cell_length_b   9.86840029
_cell_length_c   11.04716399
_cell_angle_alpha   90.00000000
_cell_angle_beta   90.00000000
_cell_angle_gamma   90.00000000
_symmetry_Int_Tables_number   1
_chemical_formula_structural   K3PSe4
_chemical_formula_sum   'K12 P4 Se16'
_cell_volume   1039.79003692
_cell_formula_units_Z   4
loop_
 _symmetry_equiv_pos_site_id
 _symmetry_equiv_pos_as_xyz
  1  'x, y, z'
loop_
 _atom_site_type_symbol
 _atom_site_label
 _atom_site_symmetry_multiplicity
 _atom_site_fract_x
 _atom_site_fract_y
 _atom_site_fract_z
 _atom_site_occupancy
  P  P0  1  0.27565705  0.52205857  0.25000000  1
  P  P1  1  0.72434295  0.47794143  0.75000000  1
  P  P2  1  0.22434295  0.02205857  0.75000000  1
  P  P3  1  0.77565705  0.97794143  0.25000000  1
  K  K4  1  0.44063080  0.30293590  0.95413669  1
  K  K5  1  0.05936920  0.80293590  0.45413669  1
  K  K6  1  0.94063080  0.19706410  0.95413669  1
  K  K7  1  0.55936920  0.69706410  0.04586331  1
  K  K8  1  0.44063080  0.30293590  0.54586331  1
  K  K9  1  0.55936920  0.69706410  0.45413669  1
  K  K10  1  0.05936920  0.80293590  0.04586331  1
  K  K11  1  0.94063080  0.19706410  0.54586331  1
  K  K12  1  0.86148324  0.41755733  0.25000000  1
  K  K13  1  0.36148324  0.08244267  0.25000000  1
  K  K14  1  0.63851676  0.91755733  0.75000000  1
  K  K15  1  0.13851676  0.58244267  0.75000000  1
  Se  Se16  1  0.31240805  0.74521000  0.25000000  1
  Se  Se17  1  0.81240805  0.75479000  0.25000000  1
  Se  Se18  1  0.18759195  0.24521000  0.75000000  1
  Se  Se19  1  0.68759195  0.25479000  0.75000000  1
  Se  Se20  1  0.48235666  0.41276532  0.25000000  1
  Se  Se21  1  0.98235666  0.08723468  0.25000000  1
  Se  Se22  1  0.01764334  0.91276532  0.75000000  1
  Se  Se23  1  0.51764334  0.58723468  0.75000000  1
  Se  Se24  1  0.84328642  0.53245341  0.91726181  1
  Se  Se25  1  0.34328642  0.96754659  0.58273819  1
  Se  Se26  1  0.65671358  0.03245341  0.08273819  1
  Se  Se27  1  0.15671358  0.46754659  0.41726181  1
  Se  Se28  1  0.15671358  0.46754659  0.08273819  1
  Se  Se29  1  0.65671358  0.03245341  0.41726181  1
  Se  Se30  1  0.34328642  0.96754659  0.91726181  1
  Se  Se31  1  0.84328642  0.53245341  0.58273819  1
