# generated using pymatgen
data_UGeSe
_symmetry_space_group_name_H-M   'P 1'
_cell_length_a   3.95930312
_cell_length_b   3.95930312
_cell_length_c   8.73575342
_cell_angle_alpha   103.09785611
_cell_angle_beta   103.09785613
_cell_angle_gamma   89.99999997
_symmetry_Int_Tables_number   1
_chemical_formula_structural   UGeSe
_chemical_formula_sum   'U2 Ge2 Se2'
_cell_volume   129.71930893
_cell_formula_units_Z   2
loop_
 _symmetry_equiv_pos_site_id
 _symmetry_equiv_pos_as_xyz
  1  'x, y, z'
loop_
 _atom_site_type_symbol
 _atom_site_label
 _atom_site_symmetry_multiplicity
 _atom_site_fract_x
 _atom_site_fract_y
 _atom_site_fract_z
 _atom_site_occupancy
  Ge  Ge0  1  0.00000000  0.50000000  0.00000000  1
  Ge  Ge1  1  0.50000000  0.00000000  0.00000000  1
  Se  Se2  1  0.31748271  0.31748271  0.63496543  1
  Se  Se3  1  0.68251729  0.68251729  0.36503457  1
  U  U4  1  0.86350354  0.86350354  0.72700708  1
  U  U5  1  0.13649646  0.13649646  0.27299292  1
