# generated using pymatgen
data_Mn3SbO8
_symmetry_space_group_name_H-M   'P 1'
_cell_length_a   8.41070399
_cell_length_b   8.41077793
_cell_length_c   8.71104937
_cell_angle_alpha   90.00336554
_cell_angle_beta   89.99588827
_cell_angle_gamma   90.00233800
_symmetry_Int_Tables_number   1
_chemical_formula_structural   Mn3SbO8
_chemical_formula_sum   'Mn12 Sb4 O32'
_cell_volume   616.22453809
_cell_formula_units_Z   4
loop_
 _symmetry_equiv_pos_site_id
 _symmetry_equiv_pos_as_xyz
  1  'x, y, z'
loop_
 _atom_site_type_symbol
 _atom_site_label
 _atom_site_symmetry_multiplicity
 _atom_site_fract_x
 _atom_site_fract_y
 _atom_site_fract_z
 _atom_site_occupancy
  Mn  Mn0  1  0.11402821  0.13611644  0.62500651  1
  Mn  Mn1  1  0.12940394  0.38211130  0.87646737  1
  Mn  Mn2  1  0.13203639  0.62072123  0.12645007  1
  Mn  Mn3  1  0.36801161  0.37927415  0.62641983  1
  Mn  Mn4  1  0.37056499  0.61790439  0.37653041  1
  Mn  Mn5  1  0.38590541  0.86396842  0.12506590  1
  Mn  Mn6  1  0.61413191  0.36380651  0.37506335  1
  Mn  Mn7  1  0.62931366  0.11799821  0.12347835  1
  Mn  Mn8  1  0.63205442  0.87939015  0.87351611  1
  Mn  Mn9  1  0.86793348  0.12065298  0.37347163  1
  Mn  Mn10  1  0.87063785  0.88197765  0.62350155  1
  Mn  Mn11  1  0.88592754  0.63625828  0.87515062  1
  Sb  Sb12  1  0.12468092  0.87486608  0.37503408  1
  Sb  Sb13  1  0.37526268  0.12514914  0.87495982  1
  Sb  Sb14  1  0.62478091  0.62500452  0.62502857  1
  Sb  Sb15  1  0.87523013  0.37495395  0.12493702  1
  O  O16  1  0.09764507  0.11021898  0.37131294  1
  O  O17  1  0.10184435  0.89670778  0.60800708  1
  O  O18  1  0.11816227  0.61390129  0.90370128  1
  O  O19  1  0.13981918  0.15233493  0.87860859  1
  O  O20  1  0.11905075  0.38922145  0.10533383  1
  O  O21  1  0.13628011  0.36820011  0.65368651  1
  O  O22  1  0.13906094  0.63086270  0.35533400  1
  O  O23  1  0.14668201  0.85193381  0.14200640  1
  O  O24  1  0.35329508  0.14805968  0.64196501  1
  O  O25  1  0.36092055  0.36910130  0.85531780  1
  O  O26  1  0.36374840  0.63184365  0.15373123  1
  O  O27  1  0.38094131  0.61075420  0.60539194  1
  O  O28  1  0.36016271  0.84765670  0.37868507  1
  O  O29  1  0.38190561  0.38608712  0.40370869  1
  O  O30  1  0.39812199  0.10332903  0.10797951  1
  O  O31  1  0.40238733  0.88975114  0.87134658  1
  O  O32  1  0.59772130  0.38962999  0.62862948  1
  O  O33  1  0.60181526  0.60325465  0.39206826  1
  O  O34  1  0.61810486  0.88623776  0.09630921  1
  O  O35  1  0.63974046  0.34777464  0.12140712  1
  O  O36  1  0.61913226  0.11092038  0.89464335  1
  O  O37  1  0.63618537  0.13179828  0.34630347  1
  O  O38  1  0.63920657  0.86900161  0.64465503  1
  O  O39  1  0.64668478  0.64813475  0.85806738  1
  O  O40  1  0.85336661  0.35189705  0.35797838  1
  O  O41  1  0.86080518  0.13096162  0.14460592  1
  O  O42  1  0.86383737  0.86825190  0.84631629  1
  O  O43  1  0.88086433  0.88906686  0.39465551  1
  O  O44  1  0.86026267  0.65221231  0.62146136  1
  O  O45  1  0.88183768  0.11379007  0.59626157  1
  O  O46  1  0.89820282  0.39674389  0.89198696  1
  O  O47  1  0.90229974  0.61034598  0.12859007  1
