# generated using pymatgen
data_KTaS5
_symmetry_space_group_name_H-M   'P 1'
_cell_length_a   6.49719027
_cell_length_b   15.59276376
_cell_length_c   15.68418515
_cell_angle_alpha   118.75202770
_cell_angle_beta   90.00000000
_cell_angle_gamma   90.00000000
_symmetry_Int_Tables_number   1
_chemical_formula_structural   KTaS5
_chemical_formula_sum   'K8 Ta8 S40'
_cell_volume   1393.04925640
_cell_formula_units_Z   8
loop_
 _symmetry_equiv_pos_site_id
 _symmetry_equiv_pos_as_xyz
  1  'x, y, z'
loop_
 _atom_site_type_symbol
 _atom_site_label
 _atom_site_symmetry_multiplicity
 _atom_site_fract_x
 _atom_site_fract_y
 _atom_site_fract_z
 _atom_site_occupancy
  S  S0  1  0.79700980  0.39310693  0.69071298  1
  S  S1  1  0.29700980  0.10689307  0.80928702  1
  S  S2  1  0.20299020  0.60689307  0.30928702  1
  S  S3  1  0.70299020  0.89310693  0.19071298  1
  S  S4  1  0.91745162  0.39040542  0.44138397  1
  S  S5  1  0.41745162  0.10959458  0.05861603  1
  S  S6  1  0.08254838  0.60959458  0.55861603  1
  S  S7  1  0.58254838  0.89040542  0.94138397  1
  S  S8  1  0.10713816  0.44270736  0.89104019  1
  S  S9  1  0.60713816  0.05729264  0.60895981  1
  S  S10  1  0.89286184  0.55729264  0.10895981  1
  S  S11  1  0.39286184  0.94270736  0.39104019  1
  S  S12  1  0.23704459  0.19119788  0.39219828  1
  S  S13  1  0.73704459  0.30880212  0.10780172  1
  S  S14  1  0.76295541  0.80880212  0.60780172  1
  S  S15  1  0.26295541  0.69119788  0.89219828  1
  S  S16  1  0.75344378  0.76276335  0.87148238  1
  S  S17  1  0.25344378  0.73723665  0.62851762  1
  S  S18  1  0.24655622  0.23723665  0.12851762  1
  S  S19  1  0.74655622  0.26276335  0.37148238  1
  S  S20  1  0.13427313  0.87641870  0.83547290  1
  S  S21  1  0.63427313  0.62358130  0.66452710  1
  S  S22  1  0.86572687  0.12358130  0.16452710  1
  S  S23  1  0.36572687  0.37641870  0.33547290  1
  S  S24  1  0.33644674  0.66575282  0.12418250  1
  S  S25  1  0.83644674  0.83424718  0.37581750  1
  S  S26  1  0.66355326  0.33424718  0.87581750  1
  S  S27  1  0.16355326  0.16575282  0.62418250  1
  S  S28  1  0.71774167  0.62704557  0.23473079  1
  S  S29  1  0.21774167  0.87295443  0.26526921  1
  S  S30  1  0.28225833  0.37295443  0.76526921  1
  S  S31  1  0.78225833  0.12704557  0.73473079  1
  S  S32  1  0.64672082  0.87281914  0.74929630  1
  S  S33  1  0.14672082  0.62718086  0.75070370  1
  S  S34  1  0.35327918  0.12718086  0.25070370  1
  S  S35  1  0.85327918  0.37281914  0.24929630  1
  S  S36  1  0.82554075  0.75155339  0.12820502  1
  S  S37  1  0.32554075  0.74844661  0.37179498  1
  S  S38  1  0.17445925  0.24844661  0.87179498  1
  S  S39  1  0.67445925  0.25155339  0.62820502  1
  K  K40  1  0.35798720  0.41554472  0.56742687  1
  K  K41  1  0.85798720  0.08445528  0.93257313  1
  K  K42  1  0.64201280  0.58445528  0.43257313  1
  K  K43  1  0.14201280  0.91554472  0.06742687  1
  K  K44  1  0.85408281  0.06436765  0.41448120  1
  K  K45  1  0.35408281  0.43563235  0.08551880  1
  K  K46  1  0.14591719  0.93563235  0.58551880  1
  K  K47  1  0.64591719  0.56436765  0.91448120  1
  Ta  Ta48  1  0.94612507  0.29126432  0.75592798  1
  Ta  Ta49  1  0.44612507  0.20873568  0.74407202  1
  Ta  Ta50  1  0.05387493  0.70873568  0.24407202  1
  Ta  Ta51  1  0.55387493  0.79126432  0.25592798  1
  Ta  Ta52  1  0.08183808  0.25623805  0.29061732  1
  Ta  Ta53  1  0.58183808  0.24376195  0.20938268  1
  Ta  Ta54  1  0.91816192  0.74376195  0.70938268  1
  Ta  Ta55  1  0.41816192  0.75623805  0.79061732  1
