# generated using pymatgen
data_Li2Mn2CrO6
_symmetry_space_group_name_H-M   'P 1'
_cell_length_a   5.11252666
_cell_length_b   5.11252716
_cell_length_c   10.20918055
_cell_angle_alpha   90.00000000
_cell_angle_beta   90.00000000
_cell_angle_gamma   118.55015494
_symmetry_Int_Tables_number   1
_chemical_formula_structural   Li2Mn2CrO6
_chemical_formula_sum   'Li4 Mn4 Cr2 O12'
_cell_volume   234.39803866
_cell_formula_units_Z   2
loop_
 _symmetry_equiv_pos_site_id
 _symmetry_equiv_pos_as_xyz
  1  'x, y, z'
loop_
 _atom_site_type_symbol
 _atom_site_label
 _atom_site_symmetry_multiplicity
 _atom_site_fract_x
 _atom_site_fract_y
 _atom_site_fract_z
 _atom_site_occupancy
  Li  Li0  1  0.14739395  0.64739395  0.75000000  1
  Li  Li1  1  0.35260605  0.85260605  0.25000000  1
  Li  Li2  1  0.64739395  0.14739395  0.75000000  1
  Li  Li3  1  0.85260605  0.35260605  0.25000000  1
  Mn  Mn4  1  0.16282289  0.83717711  0.50000000  1
  Mn  Mn5  1  0.33717711  0.66282289  0.00000000  1
  Mn  Mn6  1  0.66282289  0.33717711  0.00000000  1
  Mn  Mn7  1  0.83717711  0.16282289  0.50000000  1
  Cr  Cr8  1  0.00000000  0.00000000  0.00000000  1
  Cr  Cr9  1  0.50000000  0.50000000  0.50000000  1
  O  O10  1  0.02091292  0.67072712  0.10610682  1
  O  O11  1  0.97908708  0.32927288  0.89389318  1
  O  O12  1  0.17072712  0.52091292  0.39389318  1
  O  O13  1  0.47908708  0.82927288  0.60610682  1
  O  O14  1  0.16540437  0.16540437  0.59605746  1
  O  O15  1  0.33459563  0.33459563  0.09605746  1
  O  O16  1  0.66540437  0.66540437  0.90394254  1
  O  O17  1  0.32927288  0.97908708  0.89389318  1
  O  O18  1  0.83459563  0.83459563  0.40394254  1
  O  O19  1  0.52091292  0.17072712  0.39389318  1
  O  O20  1  0.82927288  0.47908708  0.60610682  1
  O  O21  1  0.67072712  0.02091292  0.10610682  1
