# generated using pymatgen
data_CoSeO4
_symmetry_space_group_name_H-M   'P 1'
_cell_length_a   4.98916051
_cell_length_b   6.85235190
_cell_length_c   9.12475912
_cell_angle_alpha   90.00000000
_cell_angle_beta   90.00000000
_cell_angle_gamma   90.00000000
_symmetry_Int_Tables_number   1
_chemical_formula_structural   CoSeO4
_chemical_formula_sum   'Co4 Se4 O16'
_cell_volume   311.95255186
_cell_formula_units_Z   4
loop_
 _symmetry_equiv_pos_site_id
 _symmetry_equiv_pos_as_xyz
  1  'x, y, z'
loop_
 _atom_site_type_symbol
 _atom_site_label
 _atom_site_symmetry_multiplicity
 _atom_site_fract_x
 _atom_site_fract_y
 _atom_site_fract_z
 _atom_site_occupancy
  O  O0  1  0.17663042  0.45636835  0.62343117  1
  O  O1  1  0.67662942  0.54363165  0.87656883  1
  O  O2  1  0.82336958  0.95636935  0.37656983  1
  O  O3  1  0.32336958  0.04363065  0.12343017  1
  O  O4  1  0.82336958  0.54363165  0.37656983  1
  O  O5  1  0.32336958  0.45636835  0.12343017  1
  O  O6  1  0.17663042  0.04363065  0.62343117  1
  O  O7  1  0.67662942  0.95636935  0.87656883  1
  O  O8  1  0.21016370  0.75000000  0.88087904  1
  O  O9  1  0.71016570  0.25000000  0.61912096  1
  O  O10  1  0.78983530  0.25000000  0.11912096  1
  O  O11  1  0.28983630  0.75000000  0.38087904  1
  O  O12  1  0.93603192  0.75000000  0.13462741  1
  O  O13  1  0.06396708  0.25000000  0.86537259  1
  O  O14  1  0.43603292  0.25000000  0.36537359  1
  O  O15  1  0.56396708  0.75000000  0.63462741  1
  Co  Co16  1  0.00000000  0.00000000  0.00000000  1
  Co  Co17  1  0.50000000  0.00000000  0.50000000  1
  Co  Co18  1  0.00000000  0.50000100  0.00000000  1
  Co  Co19  1  0.50000000  0.50000100  0.50000000  1
  Se  Se20  1  0.53043637  0.75000000  0.82115377  1
  Se  Se21  1  0.03043637  0.25000000  0.67884723  1
  Se  Se22  1  0.46956263  0.25000000  0.17884723  1
  Se  Se23  1  0.96956263  0.75000000  0.32115377  1
