# generated using pymatgen
data_U2Ni12P7
_symmetry_space_group_name_H-M   'P 1'
_cell_length_a   9.06861251
_cell_length_b   9.06861285
_cell_length_c   3.67033567
_cell_angle_alpha   90.00000000
_cell_angle_beta   90.00000000
_cell_angle_gamma   119.99999871
_symmetry_Int_Tables_number   1
_chemical_formula_structural   U2Ni12P7
_chemical_formula_sum   'U2 Ni12 P7'
_cell_volume   261.40755140
_cell_formula_units_Z   1
loop_
 _symmetry_equiv_pos_site_id
 _symmetry_equiv_pos_as_xyz
  1  'x, y, z'
loop_
 _atom_site_type_symbol
 _atom_site_label
 _atom_site_symmetry_multiplicity
 _atom_site_fract_x
 _atom_site_fract_y
 _atom_site_fract_z
 _atom_site_occupancy
  U  U0  1  0.33333300  0.66666700  0.00000000  1
  U  U1  1  0.66666700  0.33333300  0.50000000  1
  Ni  Ni2  1  0.43297652  0.05634789  0.00000000  1
  Ni  Ni3  1  0.62337137  0.56702348  0.00000000  1
  Ni  Ni4  1  0.94365211  0.37662863  0.00000000  1
  Ni  Ni5  1  0.15369735  0.27429524  0.00000000  1
  Ni  Ni6  1  0.12059789  0.84630265  0.00000000  1
  Ni  Ni7  1  0.72570476  0.87940211  0.00000000  1
  Ni  Ni8  1  0.38695606  0.43076670  0.50000000  1
  Ni  Ni9  1  0.04381063  0.61304394  0.50000000  1
  Ni  Ni10  1  0.56923330  0.95618937  0.50000000  1
  Ni  Ni11  1  0.21594427  0.09218673  0.50000000  1
  Ni  Ni12  1  0.87624246  0.78405573  0.50000000  1
  Ni  Ni13  1  0.90781327  0.12375754  0.50000000  1
  P  P14  1  0.40700590  0.29185570  0.00000000  1
  P  P15  1  0.88484980  0.59299410  0.00000000  1
  P  P16  1  0.70814430  0.11515020  0.00000000  1
  P  P17  1  0.11448193  0.40562013  0.50000000  1
  P  P18  1  0.29113821  0.88551807  0.50000000  1
  P  P19  1  0.59437987  0.70886179  0.50000000  1
  P  P20  1  0.00000000  0.00000000  0.00000000  1
