# generated using pymatgen
data_Ta4MnS8
_symmetry_space_group_name_H-M   'P 1'
_cell_length_a   6.68725256
_cell_length_b   6.68725255
_cell_length_c   12.49730106
_cell_angle_alpha   90.00000000
_cell_angle_beta   90.00000000
_cell_angle_gamma   120.00000004
_symmetry_Int_Tables_number   1
_chemical_formula_structural   Ta4MnS8
_chemical_formula_sum   'Ta8 Mn2 S16'
_cell_volume   483.99660413
_cell_formula_units_Z   2
loop_
 _symmetry_equiv_pos_site_id
 _symmetry_equiv_pos_as_xyz
  1  'x, y, z'
loop_
 _atom_site_type_symbol
 _atom_site_label
 _atom_site_symmetry_multiplicity
 _atom_site_fract_x
 _atom_site_fract_y
 _atom_site_fract_z
 _atom_site_occupancy
  S  S0  1  0.83159885  0.16840115  0.37454372  1
  S  S1  1  0.83159885  0.66319771  0.37454372  1
  S  S2  1  0.33680229  0.16840115  0.37454372  1
  S  S3  1  0.66319771  0.83159885  0.87454372  1
  S  S4  1  0.16840115  0.33680229  0.62545628  1
  S  S5  1  0.16840115  0.83159885  0.87454372  1
  S  S6  1  0.16840115  0.33680229  0.87454372  1
  S  S7  1  0.83159885  0.16840115  0.12545628  1
  S  S8  1  0.33680229  0.16840115  0.12545628  1
  S  S9  1  0.66319771  0.83159885  0.62545628  1
  S  S10  1  0.33333333  0.66666667  0.12153549  1
  S  S11  1  0.66666667  0.33333333  0.62153549  1
  S  S12  1  0.66666667  0.33333333  0.87846451  1
  S  S13  1  0.33333333  0.66666667  0.37846451  1
  S  S14  1  0.83159885  0.66319771  0.12545628  1
  S  S15  1  0.16840115  0.83159885  0.62545628  1
  Mn  Mn16  1  0.00000000  0.00000000  0.50000000  1
  Mn  Mn17  1  0.00000000  0.00000000  0.00000000  1
  Ta  Ta18  1  0.50589965  0.49410035  0.75000000  1
  Ta  Ta19  1  0.01179930  0.50589965  0.25000000  1
  Ta  Ta20  1  0.49410035  0.98820070  0.25000000  1
  Ta  Ta21  1  0.50589965  0.01179930  0.75000000  1
  Ta  Ta22  1  0.98820070  0.49410035  0.75000000  1
  Ta  Ta23  1  0.49410035  0.50589965  0.25000000  1
  Ta  Ta24  1  0.00000000  0.00000000  0.75000000  1
  Ta  Ta25  1  0.00000000  0.00000000  0.25000000  1
