# generated using pymatgen
data_Li4Mn3Cu2Sb3O16
_symmetry_space_group_name_H-M   'P 1'
_cell_length_a   6.17240663
_cell_length_b   6.10985769
_cell_length_c   9.91239980
_cell_angle_alpha   90.83033090
_cell_angle_beta   88.54950543
_cell_angle_gamma   120.66309661
_symmetry_Int_Tables_number   1
_chemical_formula_structural   Li4Mn3Cu2Sb3O16
_chemical_formula_sum   'Li4 Mn3 Cu2 Sb3 O16'
_cell_volume   321.45066165
_cell_formula_units_Z   1
loop_
 _symmetry_equiv_pos_site_id
 _symmetry_equiv_pos_as_xyz
  1  'x, y, z'
loop_
 _atom_site_type_symbol
 _atom_site_label
 _atom_site_symmetry_multiplicity
 _atom_site_fract_x
 _atom_site_fract_y
 _atom_site_fract_z
 _atom_site_occupancy
  Li  Li0  1  0.31894940  0.66358852  0.87570949  1
  Li  Li1  1  0.98332028  0.98455828  0.99472476  1
  Li  Li2  1  0.99877023  0.99856542  0.50579903  1
  Li  Li3  1  0.65166079  0.33000076  0.39391414  1
  Mn  Mn4  1  0.66651544  0.83195019  0.21761461  1
  Mn  Mn5  1  0.83064874  0.66481796  0.71380432  1
  Mn  Mn6  1  0.83149459  0.16871351  0.71707755  1
  Cu  Cu7  1  0.35812116  0.67889764  0.52130708  1
  Cu  Cu8  1  0.68615656  0.34436123  0.98323783  1
  Sb  Sb9  1  0.17159974  0.83013059  0.21442846  1
  Sb  Sb10  1  0.17086442  0.33860580  0.21445333  1
  Sb  Sb11  1  0.34197460  0.17338274  0.71637970  1
  O  O12  1  0.16247711  0.84382588  0.60465834  1
  O  O13  1  0.01815975  0.50815387  0.32628598  1
  O  O14  1  0.31061062  0.65339668  0.09475660  1
  O  O15  1  0.02644098  0.01212038  0.32369344  1
  O  O16  1  0.00691341  0.98363791  0.81580776  1
  O  O17  1  0.16215955  0.31390658  0.60937614  1
  O  O18  1  0.47867148  0.96654769  0.32343165  1
  O  O19  1  0.47729181  0.51434682  0.32360920  1
  O  O20  1  0.31671742  0.15656969  0.09914152  1
  O  O21  1  0.69629981  0.84595365  0.61165654  1
  O  O22  1  0.51053293  0.48821542  0.82970265  1
  O  O23  1  0.51077462  0.03392916  0.82898596  1
  O  O24  1  0.65967306  0.35127074  0.60052894  1
  O  O25  1  0.85197964  0.68981563  0.10993255  1
  O  O26  1  0.94726147  0.47969504  0.82807069  1
  O  O27  1  0.85395837  0.15133921  0.10975276  1
