# generated using pymatgen
data_YAl4Ni
_symmetry_space_group_name_H-M   'P 1'
_cell_length_a   4.05987622
_cell_length_b   6.62757740
_cell_length_c   7.98330546
_cell_angle_alpha   90.00000000
_cell_angle_beta   104.73050439
_cell_angle_gamma   90.00000000
_symmetry_Int_Tables_number   1
_chemical_formula_structural   YAl4Ni
_chemical_formula_sum   'Y2 Al8 Ni2'
_cell_volume   207.74775172
_cell_formula_units_Z   2
loop_
 _symmetry_equiv_pos_site_id
 _symmetry_equiv_pos_as_xyz
  1  'x, y, z'
loop_
 _atom_site_type_symbol
 _atom_site_label
 _atom_site_symmetry_multiplicity
 _atom_site_fract_x
 _atom_site_fract_y
 _atom_site_fract_z
 _atom_site_occupancy
  Al  Al0  1  0.81121078  0.05294051  0.62242157  1
  Al  Al1  1  0.18878922  0.94705949  0.37757843  1
  Al  Al2  1  0.18878922  0.55294051  0.37757843  1
  Al  Al3  1  0.81121078  0.44705949  0.62242157  1
  Al  Al4  1  0.00000000  0.50000000  0.00000000  1
  Al  Al5  1  0.00000000  0.00000000  0.00000000  1
  Al  Al6  1  0.42355888  0.25000000  0.84711776  1
  Al  Al7  1  0.57644112  0.75000000  0.15288224  1
  Ni  Ni8  1  0.27356987  0.25000000  0.54713973  1
  Ni  Ni9  1  0.72643013  0.75000000  0.45286027  1
  Y  Y10  1  0.38289897  0.75000000  0.76579795  1
  Y  Y11  1  0.61710103  0.25000000  0.23420205  1
