# generated using pymatgen
data_Li4Cr2Ni3Te3O16
_symmetry_space_group_name_H-M   'P 1'
_cell_length_a   6.10967694
_cell_length_b   6.22599074
_cell_length_c   9.64499527
_cell_angle_alpha   89.22724566
_cell_angle_beta   91.32431446
_cell_angle_gamma   120.48602646
_symmetry_Int_Tables_number   1
_chemical_formula_structural   Li4Cr2Ni3Te3O16
_chemical_formula_sum   'Li4 Cr2 Ni3 Te3 O16'
_cell_volume   316.07821979
_cell_formula_units_Z   1
loop_
 _symmetry_equiv_pos_site_id
 _symmetry_equiv_pos_as_xyz
  1  'x, y, z'
loop_
 _atom_site_type_symbol
 _atom_site_label
 _atom_site_symmetry_multiplicity
 _atom_site_fract_x
 _atom_site_fract_y
 _atom_site_fract_z
 _atom_site_occupancy
  Li  Li0  1  0.32031513  0.66287115  0.87233765  1
  Li  Li1  1  0.95094525  0.97589850  0.98452119  1
  Li  Li2  1  0.96897805  0.97871983  0.50651770  1
  Li  Li3  1  0.65135294  0.33619103  0.40593921  1
  Cr  Cr4  1  0.35946868  0.68041754  0.49740956  1
  Cr  Cr5  1  0.68970414  0.33130302  0.97287980  1
  Ni  Ni6  1  0.66401838  0.83384557  0.21645094  1
  Ni  Ni7  1  0.83611396  0.66347391  0.71489782  1
  Ni  Ni8  1  0.83624411  0.17325581  0.71300736  1
  Te  Te9  1  0.17119519  0.83036479  0.21426155  1
  Te  Te10  1  0.17532740  0.33970837  0.21225690  1
  Te  Te11  1  0.34456388  0.17310199  0.71233966  1
  O  O12  1  0.18828798  0.86298516  0.60058331  1
  O  O13  1  0.03356949  0.53811656  0.34209014  1
  O  O14  1  0.33120307  0.69423120  0.09858497  1
  O  O15  1  0.00932378  0.98024855  0.31764140  1
  O  O16  1  0.02430824  0.01148977  0.80583390  1
  O  O17  1  0.18588580  0.32794421  0.59722087  1
  O  O18  1  0.46777468  0.96292758  0.33893495  1
  O  O19  1  0.48654726  0.53271550  0.35058503  1
  O  O20  1  0.32534643  0.13366108  0.10103738  1
  O  O21  1  0.66782871  0.83741290  0.60190912  1
  O  O22  1  0.50359063  0.45891198  0.84409139  1
  O  O23  1  0.50652412  0.04133918  0.84084432  1
  O  O24  1  0.65159917  0.32836172  0.60563856  1
  O  O25  1  0.85842616  0.67778131  0.10265316  1
  O  O26  1  0.95980622  0.47740938  0.84364067  1
  O  O27  1  0.83175217  0.15561139  0.09372850  1
