# generated using pymatgen
data_Ba2SnSe5
_symmetry_space_group_name_H-M   'P 1'
_cell_length_a   12.57113456
_cell_length_b   17.59336573
_cell_length_c   18.44793090
_cell_angle_alpha   90.00000000
_cell_angle_beta   90.00000000
_cell_angle_gamma   90.00000000
_symmetry_Int_Tables_number   1
_chemical_formula_structural   Ba2SnSe5
_chemical_formula_sum   'Ba32 Sn16 Se80'
_cell_volume   4080.10245889
_cell_formula_units_Z   16
loop_
 _symmetry_equiv_pos_site_id
 _symmetry_equiv_pos_as_xyz
  1  'x, y, z'
loop_
 _atom_site_type_symbol
 _atom_site_label
 _atom_site_symmetry_multiplicity
 _atom_site_fract_x
 _atom_site_fract_y
 _atom_site_fract_z
 _atom_site_occupancy
  Se  Se0  1  0.35757044  0.32519913  0.36983119  1
  Se  Se1  1  0.85757044  0.17480087  0.63016881  1
  Se  Se2  1  0.64242956  0.82519913  0.13016881  1
  Se  Se3  1  0.14242956  0.67480087  0.86983119  1
  Se  Se4  1  0.36214782  0.32456992  0.12362312  1
  Se  Se5  1  0.86214782  0.17543008  0.87637688  1
  Se  Se6  1  0.63785218  0.82456992  0.37637688  1
  Se  Se7  1  0.13785218  0.67543008  0.62362312  1
  Se  Se8  1  0.01391843  0.42258990  0.36851334  1
  Se  Se9  1  0.51391843  0.07741010  0.63148666  1
  Se  Se10  1  0.98608157  0.92258990  0.13148666  1
  Se  Se11  1  0.48608157  0.57741010  0.86851334  1
  Se  Se12  1  0.50810176  0.07498720  0.87940825  1
  Se  Se13  1  0.00810176  0.42501280  0.12059175  1
  Se  Se14  1  0.49189824  0.57498720  0.62059175  1
  Se  Se15  1  0.99189824  0.92501280  0.37940825  1
  Se  Se16  1  0.37988886  0.31595069  0.87287734  1
  Se  Se17  1  0.87988886  0.18404931  0.12712266  1
  Se  Se18  1  0.62011114  0.81595069  0.62712266  1
  Se  Se19  1  0.12011114  0.68404931  0.37287734  1
  Se  Se20  1  0.85748586  0.17399768  0.38101360  1
  Se  Se21  1  0.35748586  0.32600232  0.61898640  1
  Se  Se22  1  0.14251414  0.67399768  0.11898640  1
  Se  Se23  1  0.64251414  0.82600232  0.88101360  1
  Se  Se24  1  0.48984211  0.07524815  0.13149190  1
  Se  Se25  1  0.98984211  0.42475185  0.86850810  1
  Se  Se26  1  0.51015789  0.57524815  0.36850810  1
  Se  Se27  1  0.01015789  0.92475185  0.63149190  1
  Se  Se28  1  0.62111773  0.23842929  0.24186052  1
  Se  Se29  1  0.12111773  0.26157071  0.75813948  1
  Se  Se30  1  0.37888227  0.73842929  0.25813948  1
  Se  Se31  1  0.87888227  0.76157071  0.74186052  1
  Se  Se32  1  0.18824732  0.10128161  0.12832365  1
  Se  Se33  1  0.68824732  0.39871839  0.87167635  1
  Se  Se34  1  0.81175268  0.60128161  0.37167635  1
  Se  Se35  1  0.31175268  0.89871839  0.62832365  1
  Se  Se36  1  0.50826784  0.07662462  0.38309766  1
  Se  Se37  1  0.00826784  0.42337538  0.61690234  1
  Se  Se38  1  0.49173216  0.57662462  0.11690234  1
  Se  Se39  1  0.99173216  0.92337538  0.88309766  1
  Se  Se40  1  0.23902756  0.47441079  0.76179877  1
  Se  Se41  1  0.73902756  0.02558921  0.23820123  1
  Se  Se42  1  0.76097244  0.97441079  0.73820123  1
  Se  Se43  1  0.26097244  0.52558921  0.26179877  1
  Se  Se44  1  0.62139211  0.23712940  0.01986628  1
  Se  Se45  1  0.12139211  0.26287060  0.98013372  1
  Se  Se46  1  0.37860789  0.73712940  0.48013372  1
  Se  Se47  1  0.87860789  0.76287060  0.51986628  1
  Se  Se48  1  0.18874141  0.10370891  0.38740116  1
  Se  Se49  1  0.68874141  0.39629109  0.61259884  1
  Se  Se50  1  0.81125859  0.60370891  0.11259884  1
  Se  Se51  1  0.31125859  0.89629109  0.88740116  1
  Se  Se52  1  0.18761027  0.10740096  0.88037375  1
  Se  Se53  1  0.68761027  0.39259904  0.11962625  1
  Se  Se54  1  0.81238973  0.60740096  0.61962625  1
  Se  Se55  1  0.31238973  0.89259904  0.38037375  1
  Se  Se56  1  0.23938596  0.47269137  0.98123933  1
  Se  Se57  1  0.73938596  0.02730863  0.01876067  1
  Se  Se58  1  0.76061404  0.97269137  0.51876067  1
  Se  Se59  1  0.26061404  0.52730863  0.48123933  1
  Se  Se60  1  0.81106840  0.60840180  0.87358486  1
  Se  Se61  1  0.31106840  0.89159820  0.12641514  1
  Se  Se62  1  0.18893160  0.10840180  0.62641514  1
  Se  Se63  1  0.68893160  0.39159820  0.37358486  1
  Se  Se64  1  0.24874288  0.99605944  0.05322940  1
  Se  Se65  1  0.74874288  0.50394056  0.94677060  1
  Se  Se66  1  0.75125712  0.49605944  0.44677060  1
  Se  Se67  1  0.25125712  0.00394056  0.55322940  1
  Se  Se68  1  0.25038102  0.99728331  0.30670051  1
  Se  Se69  1  0.75038102  0.50271669  0.69329949  1
  Se  Se70  1  0.74961898  0.49728331  0.19329949  1
  Se  Se71  1  0.24961898  0.00271669  0.80670051  1
  Se  Se72  1  0.11245148  0.23409909  0.47407679  1
  Se  Se73  1  0.61245148  0.26590091  0.52592321  1
  Se  Se74  1  0.88754852  0.73409909  0.02592321  1
  Se  Se75  1  0.38754852  0.76590091  0.97407679  1
  Se  Se76  1  0.11035697  0.24844765  0.23867445  1
  Se  Se77  1  0.61035697  0.25155235  0.76132555  1
  Se  Se78  1  0.88964303  0.74844765  0.26132555  1
  Se  Se79  1  0.38964303  0.75155235  0.73867445  1
  Sn  Sn80  1  0.18473633  0.37120594  0.87138274  1
  Sn  Sn81  1  0.68473633  0.12879406  0.12861726  1
  Sn  Sn82  1  0.81526367  0.87120594  0.62861726  1
  Sn  Sn83  1  0.31526367  0.62879406  0.37138274  1
  Sn  Sn84  1  0.18147915  0.36735248  0.07281427  1
  Sn  Sn85  1  0.68147915  0.13264752  0.92718573  1
  Sn  Sn86  1  0.81852085  0.86735248  0.42718573  1
  Sn  Sn87  1  0.31852085  0.63264752  0.57281427  1
  Sn  Sn88  1  0.67937086  0.13033765  0.32868593  1
  Sn  Sn89  1  0.17937086  0.36966235  0.67131407  1
  Sn  Sn90  1  0.32062914  0.63033765  0.17131407  1
  Sn  Sn91  1  0.82062914  0.86966235  0.82868593  1
  Sn  Sn92  1  0.15151921  0.31415703  0.36004383  1
  Sn  Sn93  1  0.65151921  0.18584297  0.63995617  1
  Sn  Sn94  1  0.84848079  0.81415703  0.13995617  1
  Sn  Sn95  1  0.34848079  0.68584297  0.86004383  1
  Ba  Ba96  1  0.36336690  0.17744930  0.00320789  1
  Ba  Ba97  1  0.86336690  0.32255070  0.99679211  1
  Ba  Ba98  1  0.63663310  0.67744930  0.49679211  1
  Ba  Ba99  1  0.13663310  0.82255070  0.50320789  1
  Ba  Ba100  1  0.35842456  0.17745026  0.25382940  1
  Ba  Ba101  1  0.85842456  0.32254974  0.74617060  1
  Ba  Ba102  1  0.64157544  0.67745026  0.24617060  1
  Ba  Ba103  1  0.14157544  0.82254974  0.75382940  1
  Ba  Ba104  1  0.49546363  0.42738130  0.74345124  1
  Ba  Ba105  1  0.99546363  0.07261870  0.25654876  1
  Ba  Ba106  1  0.50453637  0.92738130  0.75654876  1
  Ba  Ba107  1  0.00453637  0.57261870  0.24345124  1
  Ba  Ba108  1  0.48902252  0.43448418  0.49418444  1
  Ba  Ba109  1  0.98902252  0.06551582  0.50581556  1
  Ba  Ba110  1  0.51097748  0.93448418  0.00581556  1
  Ba  Ba111  1  0.01097748  0.56551582  0.99418444  1
  Ba  Ba112  1  0.36631426  0.17681113  0.75348161  1
  Ba  Ba113  1  0.86631426  0.32318887  0.24651839  1
  Ba  Ba114  1  0.63368574  0.67681113  0.74651839  1
  Ba  Ba115  1  0.13368574  0.82318887  0.25348161  1
  Ba  Ba116  1  0.86717988  0.31743669  0.49648754  1
  Ba  Ba117  1  0.36717988  0.18256331  0.50351246  1
  Ba  Ba118  1  0.13282012  0.81743669  0.00351246  1
  Ba  Ba119  1  0.63282012  0.68256331  0.99648754  1
  Ba  Ba120  1  0.00559096  0.56650487  0.74613604  1
  Ba  Ba121  1  0.50559096  0.93349513  0.25386396  1
  Ba  Ba122  1  0.99440904  0.06650487  0.75386396  1
  Ba  Ba123  1  0.49440904  0.43349513  0.24613604  1
  Ba  Ba124  1  0.00694643  0.56875932  0.49384893  1
  Ba  Ba125  1  0.50694643  0.93124068  0.50615107  1
  Ba  Ba126  1  0.99305357  0.06875932  0.00615107  1
  Ba  Ba127  1  0.49305357  0.43124068  0.99384893  1
