# generated using pymatgen
data_K2PSe3
_symmetry_space_group_name_H-M   'P 1'
_cell_length_a   8.95022772
_cell_length_b   12.61524133
_cell_length_c   14.05898689
_cell_angle_alpha   90.00000000
_cell_angle_beta   91.24541287
_cell_angle_gamma   90.00000000
_symmetry_Int_Tables_number   1
_chemical_formula_structural   K2PSe3
_chemical_formula_sum   'K16 P8 Se24'
_cell_volume   1587.01513664
_cell_formula_units_Z   8
loop_
 _symmetry_equiv_pos_site_id
 _symmetry_equiv_pos_as_xyz
  1  'x, y, z'
loop_
 _atom_site_type_symbol
 _atom_site_label
 _atom_site_symmetry_multiplicity
 _atom_site_fract_x
 _atom_site_fract_y
 _atom_site_fract_z
 _atom_site_occupancy
  P  P0  1  0.07113278  0.99235170  0.43214760  1
  P  P1  1  0.92886722  0.00764830  0.56785240  1
  P  P2  1  0.57113278  0.50764830  0.43214760  1
  P  P3  1  0.06258852  0.52853764  0.06869712  1
  P  P4  1  0.43741148  0.02853764  0.93130288  1
  P  P5  1  0.93741148  0.47146236  0.93130288  1
  P  P6  1  0.56258852  0.97146236  0.06869712  1
  P  P7  1  0.42886722  0.49235170  0.56785240  1
  K  K8  1  0.27467936  0.26476994  0.07824762  1
  K  K9  1  0.67811591  0.56488015  0.18702958  1
  K  K10  1  0.17811591  0.93511985  0.18702958  1
  K  K11  1  0.33171369  0.78954748  0.56127410  1
  K  K12  1  0.82188409  0.06488015  0.81297042  1
  K  K13  1  0.22532064  0.76476994  0.92175238  1
  K  K14  1  0.72532064  0.73523006  0.92175238  1
  K  K15  1  0.77467936  0.23523006  0.07824762  1
  K  K16  1  0.16828631  0.28954748  0.43872590  1
  K  K17  1  0.66828631  0.21045252  0.43872590  1
  K  K18  1  0.83171369  0.71045252  0.56127410  1
  K  K19  1  0.71566826  0.89715848  0.29438358  1
  K  K20  1  0.78433174  0.39715848  0.70561642  1
  K  K21  1  0.28433174  0.10284152  0.70561642  1
  K  K22  1  0.32188409  0.43511985  0.81297042  1
  K  K23  1  0.21566826  0.60284152  0.29438358  1
  Se  Se24  1  0.54708522  0.67603117  0.38965729  1
  Se  Se25  1  0.95291478  0.17603117  0.61034271  1
  Se  Se26  1  0.45291478  0.32396883  0.61034271  1
  Se  Se27  1  0.04708522  0.82396883  0.38965729  1
  Se  Se28  1  0.80349451  0.46516117  0.46867589  1
  Se  Se29  1  0.69650549  0.96516117  0.53132411  1
  Se  Se30  1  0.19650549  0.53483883  0.53132411  1
  Se  Se31  1  0.30349451  0.03483883  0.46867589  1
  Se  Se32  1  0.46865353  0.40087689  0.32404096  1
  Se  Se33  1  0.03134647  0.90087689  0.67595904  1
  Se  Se34  1  0.53134647  0.59912311  0.67595904  1
  Se  Se35  1  0.96865353  0.09912311  0.32404096  1
  Se  Se36  1  0.50253347  0.08393177  0.18250744  1
  Se  Se37  1  0.99746653  0.58393177  0.81749256  1
  Se  Se38  1  0.49746653  0.91606823  0.81749256  1
  Se  Se39  1  0.00253347  0.41606823  0.18250744  1
  Se  Se40  1  0.80458874  0.97063347  0.03991077  1
  Se  Se41  1  0.69541126  0.47063347  0.96008923  1
  Se  Se42  1  0.19541126  0.02936653  0.96008923  1
  Se  Se43  1  0.30458874  0.52936653  0.03991077  1
  Se  Se44  1  0.48026436  0.80940716  0.09786103  1
  Se  Se45  1  0.01973564  0.30940716  0.90213897  1
  Se  Se46  1  0.51973564  0.19059284  0.90213897  1
  Se  Se47  1  0.98026436  0.69059284  0.09786103  1
