# generated using pymatgen
data_NdPO4
_symmetry_space_group_name_H-M   'P 1'
_cell_length_a   6.45372029
_cell_length_b   6.85125175
_cell_length_c   7.04245201
_cell_angle_alpha   90.00000000
_cell_angle_beta   90.00000000
_cell_angle_gamma   103.95763283
_symmetry_Int_Tables_number   1
_chemical_formula_structural   NdPO4
_chemical_formula_sum   'Nd4 P4 O16'
_cell_volume   302.19552031
_cell_formula_units_Z   4
loop_
 _symmetry_equiv_pos_site_id
 _symmetry_equiv_pos_as_xyz
  1  'x, y, z'
loop_
 _atom_site_type_symbol
 _atom_site_label
 _atom_site_symmetry_multiplicity
 _atom_site_fract_x
 _atom_site_fract_y
 _atom_site_fract_z
 _atom_site_occupancy
  O  O0  1  0.20951625  0.62470728  0.28948109  1
  O  O1  1  0.29048375  0.87529272  0.78948109  1
  O  O2  1  0.79048375  0.37529272  0.71051891  1
  O  O3  1  0.70951625  0.12470728  0.21051891  1
  O  O4  1  0.30869851  0.97003878  0.39872121  1
  O  O5  1  0.19130149  0.52996122  0.89872121  1
  O  O6  1  0.69130149  0.02996122  0.60127879  1
  O  O7  1  0.80869851  0.47003878  0.10127879  1
  O  O8  1  0.43748370  0.24964443  0.00416737  1
  O  O9  1  0.06251630  0.25035557  0.50416737  1
  O  O10  1  0.56251630  0.75035557  0.99583263  1
  O  O11  1  0.93748370  0.74964443  0.49583263  1
  O  O12  1  0.49894319  0.38163907  0.33128884  1
  O  O13  1  0.00105681  0.11836093  0.83128884  1
  O  O14  1  0.50105681  0.61836093  0.66871116  1
  O  O15  1  0.99894319  0.88163907  0.16871116  1
  P  P16  1  0.11099294  0.80262269  0.33929778  1
  P  P17  1  0.38900706  0.69737731  0.83929778  1
  P  P18  1  0.88900706  0.19737731  0.66070222  1
  P  P19  1  0.61099294  0.30262269  0.16070222  1
  Nd  Nd20  1  0.59716525  0.78443899  0.34336988  1
  Nd  Nd21  1  0.90283475  0.71556101  0.84336988  1
  Nd  Nd22  1  0.40283475  0.21556101  0.65663012  1
  Nd  Nd23  1  0.09716525  0.28443899  0.15663012  1
