# generated using pymatgen
data_CeMgSi2
_symmetry_space_group_name_H-M   'P 1'
_cell_length_a   4.19044368
_cell_length_b   4.19044368
_cell_length_c   18.77045956
_cell_angle_alpha   96.40890392
_cell_angle_beta   96.40890388
_cell_angle_gamma   89.99999997
_symmetry_Int_Tables_number   1
_chemical_formula_structural   CeMgSi2
_chemical_formula_sum   'Ce4 Mg4 Si8'
_cell_volume   325.47313404
_cell_formula_units_Z   4
loop_
 _symmetry_equiv_pos_site_id
 _symmetry_equiv_pos_as_xyz
  1  'x, y, z'
loop_
 _atom_site_type_symbol
 _atom_site_label
 _atom_site_symmetry_multiplicity
 _atom_site_fract_x
 _atom_site_fract_y
 _atom_site_fract_z
 _atom_site_occupancy
  Mg  Mg0  1  0.62492100  0.37492100  0.74984200  1
  Mg  Mg1  1  0.37507900  0.62507900  0.25015800  1
  Mg  Mg2  1  0.12507900  0.87507900  0.75015800  1
  Mg  Mg3  1  0.87492100  0.12492100  0.24984200  1
  Si  Si4  1  0.07669663  0.32669663  0.65339327  1
  Si  Si5  1  0.17330337  0.42330337  0.84660673  1
  Si  Si6  1  0.82669663  0.57669663  0.15339327  1
  Si  Si7  1  0.92330337  0.67330337  0.34660673  1
  Si  Si8  1  0.01425259  0.26425259  0.52850517  1
  Si  Si9  1  0.76425259  0.51425259  0.02850517  1
  Si  Si10  1  0.98574741  0.73574741  0.47149483  1
  Si  Si11  1  0.23574741  0.48574741  0.97149483  1
  Ce  Ce12  1  0.70314785  0.95314785  0.90629570  1
  Ce  Ce13  1  0.45314785  0.20314785  0.40629570  1
  Ce  Ce14  1  0.29685215  0.04685215  0.09370430  1
  Ce  Ce15  1  0.54685215  0.79685215  0.59370430  1
