# generated using pymatgen
data_MnNb(PO4)2
_symmetry_space_group_name_H-M   'P 1'
_cell_length_a   10.22907683
_cell_length_b   6.15612387
_cell_length_c   5.03046918
_cell_angle_alpha   90.00000000
_cell_angle_beta   91.87178242
_cell_angle_gamma   90.00000000
_symmetry_Int_Tables_number   1
_chemical_formula_structural   MnNb(PO4)2
_chemical_formula_sum   'Mn2 Nb2 P4 O16'
_cell_volume   316.60698484
_cell_formula_units_Z   2
loop_
 _symmetry_equiv_pos_site_id
 _symmetry_equiv_pos_as_xyz
  1  'x, y, z'
loop_
 _atom_site_type_symbol
 _atom_site_label
 _atom_site_symmetry_multiplicity
 _atom_site_fract_x
 _atom_site_fract_y
 _atom_site_fract_z
 _atom_site_occupancy
  Mn  Mn0  1  0.27804026  0.25000000  0.95062384  1
  Mn  Mn1  1  0.72195974  0.75000000  0.04937616  1
  Nb  Nb2  1  0.21904202  0.75000000  0.45018893  1
  Nb  Nb3  1  0.78095798  0.25000000  0.54981107  1
  P  P4  1  0.09213627  0.25000000  0.42305746  1
  P  P5  1  0.40071739  0.75000000  0.89488732  1
  P  P6  1  0.59928261  0.25000000  0.10511268  1
  P  P7  1  0.90786373  0.75000000  0.57694254  1
  O  O8  1  0.05159041  0.75000000  0.67939787  1
  O  O9  1  0.10505383  0.25000000  0.72252221  1
  O  O10  1  0.16639676  0.04905507  0.29668708  1
  O  O11  1  0.16639676  0.45094493  0.29668708  1
  O  O12  1  0.32469434  0.94240902  0.74815932  1
  O  O13  1  0.32469434  0.55759098  0.74815932  1
  O  O14  1  0.37401358  0.75000000  0.19649563  1
  O  O15  1  0.45513051  0.25000000  0.15472235  1
  O  O16  1  0.54486949  0.75000000  0.84527765  1
  O  O17  1  0.62598642  0.25000000  0.80350437  1
  O  O18  1  0.67530566  0.05759098  0.25184068  1
  O  O19  1  0.67530566  0.44240902  0.25184068  1
  O  O20  1  0.83360324  0.54905507  0.70331292  1
  O  O21  1  0.83360324  0.95094493  0.70331292  1
  O  O22  1  0.89494617  0.75000000  0.27747779  1
  O  O23  1  0.94840959  0.25000000  0.32060213  1
