# generated using pymatgen
data_Na2SiO3
_symmetry_space_group_name_H-M   'P 1'
_cell_length_a   4.87626349
_cell_length_b   6.15757767
_cell_length_c   6.14211163
_cell_angle_alpha   120.08333096
_cell_angle_beta   90.00000000
_cell_angle_gamma   90.00000000
_symmetry_Int_Tables_number   1
_chemical_formula_structural   Na2SiO3
_chemical_formula_sum   'Na4 Si2 O6'
_cell_volume   159.58060661
_cell_formula_units_Z   2
loop_
 _symmetry_equiv_pos_site_id
 _symmetry_equiv_pos_as_xyz
  1  'x, y, z'
loop_
 _atom_site_type_symbol
 _atom_site_label
 _atom_site_symmetry_multiplicity
 _atom_site_fract_x
 _atom_site_fract_y
 _atom_site_fract_z
 _atom_site_occupancy
  O  O0  1  0.37456291  0.08396354  0.00000000  1
  O  O1  1  0.87456291  0.91603646  0.00000000  1
  O  O2  1  0.48372450  0.58216058  0.74062100  1
  O  O3  1  0.98372450  0.41783942  0.25937900  1
  O  O4  1  0.48372450  0.84153958  0.25937900  1
  O  O5  1  0.98372450  0.15846042  0.74062100  1
  Na  Na6  1  0.50306018  0.50399866  0.33022634  1
  Na  Na7  1  0.50306018  0.17377232  0.66977366  1
  Na  Na8  1  0.00306018  0.49600134  0.66977366  1
  Na  Na9  1  0.00306018  0.82622768  0.33022634  1
  Si  Si10  1  0.53846772  0.84222417  0.00000000  1
  Si  Si11  1  0.03846772  0.15777583  0.00000000  1
