# generated using pymatgen
data_Ba5Nb4O15
_symmetry_space_group_name_H-M   'P 1'
_cell_length_a   5.88872032
_cell_length_b   5.88872032
_cell_length_c   12.00272268
_cell_angle_alpha   90.00000000
_cell_angle_beta   90.00000000
_cell_angle_gamma   120.00000001
_symmetry_Int_Tables_number   1
_chemical_formula_structural   Ba5Nb4O15
_chemical_formula_sum   'Ba5 Nb4 O15'
_cell_volume   360.45600090
_cell_formula_units_Z   1
loop_
 _symmetry_equiv_pos_site_id
 _symmetry_equiv_pos_as_xyz
  1  'x, y, z'
loop_
 _atom_site_type_symbol
 _atom_site_label
 _atom_site_symmetry_multiplicity
 _atom_site_fract_x
 _atom_site_fract_y
 _atom_site_fract_z
 _atom_site_occupancy
  O  O0  1  0.83623125  0.16376875  0.38727539  1
  O  O1  1  0.83623125  0.67246249  0.38727539  1
  O  O2  1  0.32753751  0.16376875  0.38727539  1
  O  O3  1  0.67246249  0.83623125  0.61272461  1
  O  O4  1  0.16376875  0.32753751  0.61272461  1
  O  O5  1  0.16376875  0.83623125  0.61272461  1
  O  O6  1  0.83067998  0.16932002  0.80823327  1
  O  O7  1  0.83067998  0.66135996  0.80823327  1
  O  O8  1  0.33864004  0.16932002  0.80823327  1
  O  O9  1  0.50000000  0.00000000  0.00000000  1
  O  O10  1  0.00000000  0.50000000  0.00000000  1
  O  O11  1  0.50000000  0.50000000  0.00000000  1
  O  O12  1  0.16932002  0.83067998  0.19176673  1
  O  O13  1  0.16932002  0.33864004  0.19176673  1
  O  O14  1  0.66135996  0.83067998  0.19176673  1
  Nb  Nb15  1  0.66666667  0.33333333  0.89509403  1
  Nb  Nb16  1  0.33333333  0.66666667  0.10490597  1
  Nb  Nb17  1  0.00000000  0.00000000  0.31661071  1
  Nb  Nb18  1  0.00000000  0.00000000  0.68338929  1
  Ba  Ba19  1  0.66666667  0.33333333  0.57092662  1
  Ba  Ba20  1  0.33333333  0.66666667  0.42907338  1
  Ba  Ba21  1  0.66666667  0.33333333  0.20825072  1
  Ba  Ba22  1  0.33333333  0.66666667  0.79174928  1
  Ba  Ba23  1  0.00000000  0.00000000  0.00000000  1
