# generated using pymatgen
data_Co2SnO4
_symmetry_space_group_name_H-M   'P 1'
_cell_length_a   6.20421568
_cell_length_b   6.20421606
_cell_length_c   6.08723852
_cell_angle_alpha   60.62176377
_cell_angle_beta   60.62175930
_cell_angle_gamma   61.07910168
_symmetry_Int_Tables_number   1
_chemical_formula_structural   Co2SnO4
_chemical_formula_sum   'Co4 Sn2 O8'
_cell_volume   168.57015793
_cell_formula_units_Z   2
loop_
 _symmetry_equiv_pos_site_id
 _symmetry_equiv_pos_as_xyz
  1  'x, y, z'
loop_
 _atom_site_type_symbol
 _atom_site_label
 _atom_site_symmetry_multiplicity
 _atom_site_fract_x
 _atom_site_fract_y
 _atom_site_fract_z
 _atom_site_occupancy
  Co  Co0  1  0.01319401  0.01319401  0.98680599  1
  Co  Co1  1  0.23680599  0.23680599  0.26319401  1
  Co  Co2  1  0.62500000  0.62500000  0.12500000  1
  Co  Co3  1  0.62500000  0.62500000  0.62500000  1
  O  O4  1  0.37674198  0.37674198  0.39002650  1
  O  O5  1  0.37674198  0.37674198  0.85648955  1
  O  O6  1  0.37836415  0.84215430  0.38974078  1
  O  O7  1  0.84215430  0.37836415  0.38974078  1
  O  O8  1  0.40784570  0.87163585  0.86025922  1
  O  O9  1  0.87163585  0.40784570  0.86025922  1
  O  O10  1  0.87325802  0.87325802  0.39351045  1
  O  O11  1  0.87325802  0.87325802  0.85997350  1
  Sn  Sn12  1  0.12500000  0.62500000  0.62500000  1
  Sn  Sn13  1  0.62500000  0.12500000  0.62500000  1
