# generated using pymatgen
data_Tm(CoSi)2
_symmetry_space_group_name_H-M   'P 1'
_cell_length_a   3.85425801
_cell_length_b   3.85425801
_cell_length_c   5.55817448
_cell_angle_alpha   110.28681258
_cell_angle_beta   110.28681259
_cell_angle_gamma   90.00000006
_symmetry_Int_Tables_number   1
_chemical_formula_structural   Tm(CoSi)2
_chemical_formula_sum   'Tm1 Co2 Si2'
_cell_volume   71.96111312
_cell_formula_units_Z   1
loop_
 _symmetry_equiv_pos_site_id
 _symmetry_equiv_pos_as_xyz
  1  'x, y, z'
loop_
 _atom_site_type_symbol
 _atom_site_label
 _atom_site_symmetry_multiplicity
 _atom_site_fract_x
 _atom_site_fract_y
 _atom_site_fract_z
 _atom_site_occupancy
  Si  Si0  1  0.62688701  0.62688701  0.25377401  1
  Si  Si1  1  0.37311299  0.37311299  0.74622599  1
  Co  Co2  1  0.75000000  0.25000000  0.50000000  1
  Co  Co3  1  0.25000000  0.75000000  0.50000000  1
  Tm  Tm4  1  0.00000000  0.00000000  0.00000000  1
