# generated using pymatgen
data_Ba4Nd3F17
_symmetry_space_group_name_H-M   'P 1'
_cell_length_a   9.59189239
_cell_length_b   9.65578428
_cell_length_c   9.57483358
_cell_angle_alpha   72.87304345
_cell_angle_beta   73.07709036
_cell_angle_gamma   73.01971263
_symmetry_Int_Tables_number   1
_chemical_formula_structural   Ba4Nd3F17
_chemical_formula_sum   'Ba8 Nd6 F34'
_cell_volume   789.85738515
_cell_formula_units_Z   2
loop_
 _symmetry_equiv_pos_site_id
 _symmetry_equiv_pos_as_xyz
  1  'x, y, z'
loop_
 _atom_site_type_symbol
 _atom_site_label
 _atom_site_symmetry_multiplicity
 _atom_site_fract_x
 _atom_site_fract_y
 _atom_site_fract_z
 _atom_site_occupancy
  Ba  Ba0  1  0.04622221  0.31202304  0.89178191  1
  Ba  Ba1  1  0.26193876  0.26595489  0.26794866  1
  Ba  Ba2  1  0.31046968  0.89316915  0.04950782  1
  Ba  Ba3  1  0.10285676  0.95650199  0.69225007  1
  Ba  Ba4  1  0.89239150  0.05098294  0.30973482  1
  Ba  Ba5  1  0.68841423  0.11251957  0.94767081  1
  Ba  Ba6  1  0.73171892  0.73385635  0.73803800  1
  Ba  Ba7  1  0.94440445  0.68670285  0.11035533  1
  F  F8  1  0.00113196  0.00605328  0.99355586  1
  F  F9  1  0.01818801  0.17784285  0.45236030  1
  F  F10  1  0.13964006  0.13723799  0.13712524  1
  F  F11  1  0.04115094  0.49087813  0.35889553  1
  F  F12  1  0.17604271  0.45264073  0.02010637  1
  F  F13  1  0.08148188  0.78885161  0.25772142  1
  F  F14  1  0.26125232  0.08971885  0.78435185  1
  F  F15  1  0.35483995  0.04256462  0.49347837  1
  F  F16  1  0.45034940  0.02039115  0.17741712  1
  F  F17  1  0.26075286  0.35023053  0.54379353  1
  F  F18  1  0.20567836  0.58202051  0.70361584  1
  F  F19  1  0.34520002  0.54486328  0.26236442  1
  F  F20  1  0.48871347  0.35870120  0.04895646  1
  F  F21  1  0.29817971  0.79397352  0.41178060  1
  F  F22  1  0.21065506  0.74192599  0.91658841  1
  F  F23  1  0.54782159  0.23782466  0.33882461  1
  F  F24  1  0.41976193  0.29644120  0.79911317  1
  F  F25  1  0.59145855  0.70789776  0.19918367  1
  F  F26  1  0.57179424  0.44735734  0.46225926  1
  F  F27  1  0.45708338  0.73608560  0.65167724  1
  F  F28  1  0.78554540  0.26054565  0.08484523  1
  F  F29  1  0.71993989  0.17556134  0.59306487  1
  F  F30  1  0.50771281  0.64230254  0.96383811  1
  F  F31  1  0.65046731  0.45439951  0.74482836  1
  F  F32  1  0.83440690  0.40650441  0.27107180  1
  F  F33  1  0.74580768  0.65814356  0.44862938  1
  F  F34  1  0.54544929  0.98170612  0.82296373  1
  F  F35  1  0.64214805  0.95462928  0.51121400  1
  F  F36  1  0.74124280  0.91899646  0.20988415  1
  F  F37  1  0.91219998  0.21915956  0.73722464  1
  F  F38  1  0.81820165  0.54876025  0.98143838  1
  F  F39  1  0.95119703  0.51112202  0.64292524  1
  F  F40  1  0.86001931  0.86221867  0.86361201  1
  F  F41  1  0.98016109  0.82277381  0.54945128  1
  Nd  Nd42  1  0.15657225  0.61127466  0.46904675  1
  Nd  Nd43  1  0.47300589  0.16967465  0.60625887  1
  Nd  Nd44  1  0.38904290  0.53222423  0.84375078  1
  Nd  Nd45  1  0.61094754  0.46385411  0.18229249  1
  Nd  Nd46  1  0.53214279  0.84046802  0.38855327  1
  Nd  Nd47  1  0.82119653  0.39146954  0.52565000  1
