# generated using pymatgen
data_Sr4Lu3F17
_symmetry_space_group_name_H-M   'P 1'
_cell_length_a   9.01718761
_cell_length_b   8.98430728
_cell_length_c   8.96774363
_cell_angle_alpha   73.02493232
_cell_angle_beta   73.06843415
_cell_angle_gamma   72.80858022
_symmetry_Int_Tables_number   1
_chemical_formula_structural   Sr4Lu3F17
_chemical_formula_sum   'Sr8 Lu6 F34'
_cell_volume   646.89599513
_cell_formula_units_Z   2
loop_
 _symmetry_equiv_pos_site_id
 _symmetry_equiv_pos_as_xyz
  1  'x, y, z'
loop_
 _atom_site_type_symbol
 _atom_site_label
 _atom_site_symmetry_multiplicity
 _atom_site_fract_x
 _atom_site_fract_y
 _atom_site_fract_z
 _atom_site_occupancy
  F  F0  1  -0.00415022  1.00518213  0.99800865  1
  F  F1  1  0.01819373  0.17304835  0.45527221  1
  F  F2  1  0.13719435  0.13616546  0.13806374  1
  F  F3  1  0.04442632  0.48646750  0.35743760  1
  F  F4  1  0.17436695  0.45262040  0.01761402  1
  F  F5  1  0.08051140  0.78720713  0.25818249  1
  F  F6  1  0.45135486  0.01782064  0.17761057  1
  F  F7  1  0.25764934  0.08427967  0.78668357  1
  F  F8  1  0.35618656  0.03773869  0.48973856  1
  F  F9  1  0.26294324  0.34941252  0.54266112  1
  F  F10  1  0.21085548  0.59595314  0.69450724  1
  F  F11  1  0.34476537  0.54840584  0.25666067  1
  F  F12  1  0.48391917  0.35530812  0.04696574  1
  F  F13  1  0.30071572  0.79508084  0.39992000  1
  F  F14  1  0.21319040  0.74231762  0.91822154  1
  F  F15  1  0.54596024  0.25227536  0.35022989  1
  F  F16  1  0.41001795  0.30346809  0.79052742  1
  F  F17  1  0.55379236  0.51747662  0.44367183  1
  F  F18  1  0.60556143  0.71659437  0.17801127  1
  F  F19  1  0.45701152  0.73867568  0.65349368  1
  F  F20  1  0.77855102  0.26273275  0.08590318  1
  F  F21  1  0.69921083  0.20084779  0.59147450  1
  F  F22  1  0.51117180  0.64194178  0.96072960  1
  F  F23  1  0.64955380  0.45728260  0.74175767  1
  F  F24  1  0.82368390  0.39605767  0.28480544  1
  F  F25  1  0.75909685  0.66018094  0.45206144  1
  F  F26  1  0.64265085  0.95308001  0.51548769  1
  F  F27  1  0.73908562  0.91879594  0.21658828  1
  F  F28  1  0.54551129  0.98101953  0.82714122  1
  F  F29  1  0.91062068  0.21909429  0.73858229  1
  F  F30  1  0.82640548  0.54694047  0.98110720  1
  F  F31  1  0.95789557  0.51127287  0.64625015  1
  F  F32  1  0.86228843  0.86409097  0.86146502  1
  F  F33  1  0.98142687  0.82491228  0.54822620  1
  Lu  Lu34  1  0.15985479  0.61138474  0.46660720  1
  Lu  Lu35  1  0.46621827  0.15897589  0.61177115  1
  Lu  Lu36  1  0.38855930  0.53294056  0.84216304  1
  Lu  Lu37  1  0.60903056  0.47021715  0.18426787  1
  Lu  Lu38  1  0.53682967  0.82047901  0.39010737  1
  Lu  Lu39  1  0.82435742  0.39408809  0.52853422  1
  Sr  Sr40  1  0.04363938  0.30868575  0.89540691  1
  Sr  Sr41  1  0.26389238  0.26188107  0.26698393  1
  Sr  Sr42  1  0.31142425  0.88974166  0.05506286  1
  Sr  Sr43  1  0.10559289  0.95183071  0.69075895  1
  Sr  Sr44  1  0.88833910  0.05320125  0.31040997  1
  Sr  Sr45  1  0.68817264  0.10992145  0.95233525  1
  Sr  Sr46  1  0.73464455  0.73283071  0.73927983  1
  Sr  Sr47  1  0.94682568  0.69107390  0.10824976  1
