# generated using pymatgen
data_Li2NiF4
_symmetry_space_group_name_H-M   'P 1'
_cell_length_a   5.93917299
_cell_length_b   5.93917322
_cell_length_c   5.91856707
_cell_angle_alpha   60.11470721
_cell_angle_beta   60.11471100
_cell_angle_gamma   60.82044904
_symmetry_Int_Tables_number   1
_chemical_formula_structural   Li2NiF4
_chemical_formula_sum   'Li4 Ni2 F8'
_cell_volume   148.77655481
_cell_formula_units_Z   2
loop_
 _symmetry_equiv_pos_site_id
 _symmetry_equiv_pos_as_xyz
  1  'x, y, z'
loop_
 _atom_site_type_symbol
 _atom_site_label
 _atom_site_symmetry_multiplicity
 _atom_site_fract_x
 _atom_site_fract_y
 _atom_site_fract_z
 _atom_site_occupancy
  F  F0  1  0.25463181  0.25463181  0.26210499  1
  F  F1  1  0.25463181  0.25463181  0.72863139  1
  F  F2  1  0.25293854  0.72452804  0.26126671  1
  F  F3  1  0.72452804  0.25293854  0.26126671  1
  F  F4  1  0.27547196  0.74706146  0.73873329  1
  F  F5  1  0.74536819  0.74536819  0.27136861  1
  F  F6  1  0.74706146  0.27547196  0.73873329  1
  F  F7  1  0.74536819  0.74536819  0.73789501  1
  Li  Li8  1  0.11816906  0.11816906  0.13183094  1
  Li  Li9  1  0.50000000  0.50000000  0.00000000  1
  Li  Li10  1  0.50000000  0.50000000  0.50000000  1
  Li  Li11  1  0.88183094  0.88183094  0.86816906  1
  Ni  Ni12  1  0.50000000  0.00000000  0.50000000  1
  Ni  Ni13  1  0.00000000  0.50000000  0.50000000  1
