# generated using pymatgen
data_Gd2O3
_symmetry_space_group_name_H-M   'P 1'
_cell_length_a   9.40700988
_cell_length_b   9.40700966
_cell_length_c   9.40701037
_cell_angle_alpha   109.47122001
_cell_angle_beta   109.47121953
_cell_angle_gamma   109.47122218
_symmetry_Int_Tables_number   1
_chemical_formula_structural   Gd2O3
_chemical_formula_sum   'Gd16 O24'
_cell_volume   640.81537509
_cell_formula_units_Z   8
loop_
 _symmetry_equiv_pos_site_id
 _symmetry_equiv_pos_as_xyz
  1  'x, y, z'
loop_
 _atom_site_type_symbol
 _atom_site_label
 _atom_site_symmetry_multiplicity
 _atom_site_fract_x
 _atom_site_fract_y
 _atom_site_fract_z
 _atom_site_occupancy
  Gd  Gd0  1  0.49935134  0.49935134  0.49935134  1
  Gd  Gd1  1  0.00000000  0.00064866  0.50000000  1
  Gd  Gd2  1  0.50000000  1.00000000  0.00064866  1
  Gd  Gd3  1  0.00064866  0.50000000  0.00000000  1
  Gd  Gd4  1  0.25000000  0.21861483  0.96861483  1
  Gd  Gd5  1  0.28138517  0.53138517  0.75000000  1
  Gd  Gd6  1  0.53138517  0.75000000  0.28138517  1
  Gd  Gd7  1  0.21861483  0.96861483  0.25000000  1
  Gd  Gd8  1  0.96861483  0.25000000  0.21861483  1
  Gd  Gd9  1  0.75000000  0.28138517  0.53138517  1
  Gd  Gd10  1  0.25000000  0.71898981  0.46898981  1
  Gd  Gd11  1  0.78101019  0.03101019  0.75000000  1
  Gd  Gd12  1  0.03101019  0.75000000  0.78101019  1
  Gd  Gd13  1  0.71898981  0.46898981  0.25000000  1
  Gd  Gd14  1  0.46898981  0.25000000  0.71898981  1
  Gd  Gd15  1  0.75000000  0.78101019  0.03101019  1
  O  O16  1  0.45847754  0.47034440  0.22953562  1
  O  O17  1  0.22894192  0.27046438  0.74080878  1
  O  O18  1  0.48813314  0.75919122  0.02965560  1
  O  O19  1  0.27105808  0.01186686  0.04152246  1
  O  O20  1  0.27046438  0.74080878  0.22894192  1
  O  O21  1  0.02965560  0.48813314  0.75919122  1
  O  O22  1  0.01186686  0.04152246  0.27105808  1
  O  O23  1  0.22953562  0.45847754  0.47034440  1
  O  O24  1  0.47034440  0.22953562  0.45847754  1
  O  O25  1  0.74080878  0.22894192  0.27046438  1
  O  O26  1  0.75919122  0.02965560  0.48813314  1
  O  O27  1  0.04152246  0.27105808  0.01186686  1
  O  O28  1  0.76970135  0.54149947  0.52944699  1
  O  O29  1  0.24025436  0.97055301  0.51205248  1
  O  O30  1  0.72820188  0.98794752  0.95850053  1
  O  O31  1  0.25974564  0.77179812  0.73029865  1
  O  O32  1  0.97055301  0.51205248  0.24025436  1
  O  O33  1  0.95850053  0.72820188  0.98794752  1
  O  O34  1  0.77179812  0.73029865  0.25974564  1
  O  O35  1  0.52944699  0.76970135  0.54149947  1
  O  O36  1  0.54149947  0.52944699  0.76970135  1
  O  O37  1  0.51205248  0.24025436  0.97055301  1
  O  O38  1  0.98794752  0.95850053  0.72820188  1
  O  O39  1  0.73029865  0.25974564  0.77179812  1
