# generated using pymatgen
data_Tb(Al2Fe)4
_symmetry_space_group_name_H-M   'P 1'
_cell_length_a   5.02416111
_cell_length_b   6.65010206
_cell_length_c   6.65010205
_cell_angle_alpha   81.79614233
_cell_angle_beta   67.80557605
_cell_angle_gamma   67.80557613
_symmetry_Int_Tables_number   1
_chemical_formula_structural   Tb(Al2Fe)4
_chemical_formula_sum   'Tb1 Al8 Fe4'
_cell_volume   190.48257053
_cell_formula_units_Z   1
loop_
 _symmetry_equiv_pos_site_id
 _symmetry_equiv_pos_as_xyz
  1  'x, y, z'
loop_
 _atom_site_type_symbol
 _atom_site_label
 _atom_site_symmetry_multiplicity
 _atom_site_fract_x
 _atom_site_fract_y
 _atom_site_fract_z
 _atom_site_occupancy
  Al  Al0  1  0.34058417  0.65941583  0.65941583  1
  Al  Al1  1  0.00000000  0.34058417  0.65941583  1
  Al  Al2  1  0.00000000  0.65941583  0.34058417  1
  Al  Al3  1  0.65941583  0.34058417  0.34058417  1
  Al  Al4  1  0.27882165  0.22117835  0.22117835  1
  Al  Al5  1  0.50000000  0.77882165  0.22117835  1
  Al  Al6  1  0.50000000  0.22117835  0.77882165  1
  Al  Al7  1  0.72117835  0.77882165  0.77882165  1
  Fe  Fe8  1  0.50000000  0.00000000  0.50000000  1
  Fe  Fe9  1  0.00000000  0.50000000  0.00000000  1
  Fe  Fe10  1  0.50000000  0.50000000  0.00000000  1
  Fe  Fe11  1  0.00000000  0.00000000  0.50000000  1
  Tb  Tb12  1  0.00000000  0.00000000  0.00000000  1
