# generated using pymatgen
data_Nd2Co17
_symmetry_space_group_name_H-M   'P 1'
_cell_length_a   6.32029156
_cell_length_b   6.32029156
_cell_length_c   6.32029156
_cell_angle_alpha   83.10366414
_cell_angle_beta   83.10366419
_cell_angle_gamma   83.10366419
_symmetry_Int_Tables_number   1
_chemical_formula_structural   Nd2Co17
_chemical_formula_sum   'Nd2 Co17'
_cell_volume   247.39695055
_cell_formula_units_Z   1
loop_
 _symmetry_equiv_pos_site_id
 _symmetry_equiv_pos_as_xyz
  1  'x, y, z'
loop_
 _atom_site_type_symbol
 _atom_site_label
 _atom_site_symmetry_multiplicity
 _atom_site_fract_x
 _atom_site_fract_y
 _atom_site_fract_z
 _atom_site_occupancy
  Co  Co0  1  0.09578006  0.09578006  0.09578006  1
  Co  Co1  1  0.90421994  0.90421994  0.90421994  1
  Co  Co2  1  0.00000000  0.00000000  0.50000000  1
  Co  Co3  1  0.50000000  0.00000000  0.00000000  1
  Co  Co4  1  0.00000000  0.50000000  0.00000000  1
  Co  Co5  1  0.28496865  0.71503135  0.00000000  1
  Co  Co6  1  0.00000000  0.28496865  0.71503135  1
  Co  Co7  1  0.71503135  1.00000000  0.28496865  1
  Co  Co8  1  0.71503135  0.28496865  0.00000000  1
  Co  Co9  1  1.00000000  0.71503135  0.28496865  1
  Co  Co10  1  0.28496865  0.00000000  0.71503135  1
  Co  Co11  1  0.65700986  0.14842410  0.65700986  1
  Co  Co12  1  0.65700986  0.65700986  0.14842410  1
  Co  Co13  1  0.14842410  0.65700986  0.65700986  1
  Co  Co14  1  0.85157590  0.34299014  0.34299014  1
  Co  Co15  1  0.34299014  0.85157590  0.34299014  1
  Co  Co16  1  0.34299014  0.34299014  0.85157590  1
  Nd  Nd17  1  0.34463747  0.34463747  0.34463747  1
  Nd  Nd18  1  0.65536253  0.65536253  0.65536253  1
