# generated using pymatgen
data_K3VS4
_symmetry_space_group_name_H-M   'P 1'
_cell_length_a   9.31987476
_cell_length_b   9.22006054
_cell_length_c   10.73988288
_cell_angle_alpha   90.00000000
_cell_angle_beta   90.00000000
_cell_angle_gamma   90.00000000
_symmetry_Int_Tables_number   1
_chemical_formula_structural   K3VS4
_chemical_formula_sum   'K12 V4 S16'
_cell_volume   922.87609006
_cell_formula_units_Z   4
loop_
 _symmetry_equiv_pos_site_id
 _symmetry_equiv_pos_as_xyz
  1  'x, y, z'
loop_
 _atom_site_type_symbol
 _atom_site_label
 _atom_site_symmetry_multiplicity
 _atom_site_fract_x
 _atom_site_fract_y
 _atom_site_fract_z
 _atom_site_occupancy
  S  S0  1  0.94921853  0.66873391  0.91606944  1
  S  S1  1  0.24546432  0.80310270  0.75000000  1
  S  S2  1  0.74546432  0.69689730  0.25000000  1
  S  S3  1  0.25453568  0.30310270  0.75000000  1
  S  S4  1  0.75453568  0.19689730  0.25000000  1
  S  S5  1  0.91993380  0.99897501  0.75000000  1
  S  S6  1  0.41993380  0.50102499  0.25000000  1
  S  S7  1  0.58006620  0.49897501  0.75000000  1
  S  S8  1  0.08006620  0.00102499  0.25000000  1
  S  S9  1  0.05078147  0.33126609  0.41606944  1
  S  S10  1  0.55078147  0.16873391  0.58393056  1
  S  S11  1  0.44921853  0.83126609  0.08393056  1
  S  S12  1  0.05078147  0.33126609  0.08393056  1
  S  S13  1  0.94921853  0.66873391  0.58393056  1
  S  S14  1  0.44921853  0.83126609  0.41606944  1
  S  S15  1  0.55078147  0.16873391  0.91606944  1
  K  K16  1  0.79178052  0.94601038  0.04582486  1
  K  K17  1  0.58073305  0.86345659  0.75000000  1
  K  K18  1  0.08073305  0.63654341  0.25000000  1
  K  K19  1  0.91926695  0.36345659  0.75000000  1
  K  K20  1  0.41926695  0.13654341  0.25000000  1
  K  K21  1  0.20821948  0.05398962  0.54582486  1
  K  K22  1  0.70821948  0.44601038  0.45417514  1
  K  K23  1  0.29178052  0.55398962  0.95417514  1
  K  K24  1  0.70821948  0.44601038  0.04582486  1
  K  K25  1  0.79178052  0.94601038  0.45417514  1
  K  K26  1  0.29178052  0.55398962  0.54582486  1
  K  K27  1  0.20821948  0.05398962  0.95417514  1
  V  V28  1  0.98618466  0.21645351  0.25000000  1
  V  V29  1  0.48618466  0.28354649  0.75000000  1
  V  V30  1  0.51381534  0.71645351  0.25000000  1
  V  V31  1  0.01381534  0.78354649  0.75000000  1
