# generated using pymatgen
data_LaSiIr
_symmetry_space_group_name_H-M   'P 1'
_cell_length_a   6.43190592
_cell_length_b   6.43190592
_cell_length_c   6.43190592
_cell_angle_alpha   90.00000000
_cell_angle_beta   90.00000000
_cell_angle_gamma   90.00000000
_symmetry_Int_Tables_number   1
_chemical_formula_structural   LaSiIr
_chemical_formula_sum   'La4 Si4 Ir4'
_cell_volume   266.08417729
_cell_formula_units_Z   4
loop_
 _symmetry_equiv_pos_site_id
 _symmetry_equiv_pos_as_xyz
  1  'x, y, z'
loop_
 _atom_site_type_symbol
 _atom_site_label
 _atom_site_symmetry_multiplicity
 _atom_site_fract_x
 _atom_site_fract_y
 _atom_site_fract_z
 _atom_site_occupancy
  Si  Si0  1  0.65961854  0.84038146  0.15961854  1
  Si  Si1  1  0.15961854  0.65961854  0.84038146  1
  Si  Si2  1  0.84038146  0.15961854  0.65961854  1
  Si  Si3  1  0.34038146  0.34038146  0.34038146  1
  La  La4  1  0.13475861  0.86524139  0.36524139  1
  La  La5  1  0.86524139  0.36524139  0.13475861  1
  La  La6  1  0.63475861  0.63475861  0.63475861  1
  La  La7  1  0.36524139  0.13475861  0.86524139  1
  Ir  Ir8  1  0.07336009  0.42663991  0.57336009  1
  Ir  Ir9  1  0.57336009  0.07336009  0.42663991  1
  Ir  Ir10  1  0.92663991  0.92663991  0.92663991  1
  Ir  Ir11  1  0.42663991  0.57336009  0.07336009  1
