# generated using pymatgen
data_HgPbF6
_symmetry_space_group_name_H-M   'P 1'
_cell_length_a   6.19626991
_cell_length_b   6.19626946
_cell_length_c   6.19626964
_cell_angle_alpha   54.10160909
_cell_angle_beta   54.10161168
_cell_angle_gamma   54.10161025
_symmetry_Int_Tables_number   1
_chemical_formula_structural   HgPbF6
_chemical_formula_sum   'Hg1 Pb1 F6'
_cell_volume   145.05215703
_cell_formula_units_Z   1
loop_
 _symmetry_equiv_pos_site_id
 _symmetry_equiv_pos_as_xyz
  1  'x, y, z'
loop_
 _atom_site_type_symbol
 _atom_site_label
 _atom_site_symmetry_multiplicity
 _atom_site_fract_x
 _atom_site_fract_y
 _atom_site_fract_z
 _atom_site_occupancy
  F  F0  1  0.10813696  0.36679960  0.75644911  1
  F  F1  1  0.36679960  0.75644911  0.10813696  1
  F  F2  1  0.75644911  0.10813696  0.36679960  1
  F  F3  1  0.24355089  0.89186304  0.63320040  1
  F  F4  1  0.63320040  0.24355089  0.89186304  1
  F  F5  1  0.89186304  0.63320040  0.24355089  1
  Hg  Hg6  1  0.50000000  0.50000000  0.50000000  1
  Pb  Pb7  1  0.00000000  0.00000000  0.00000000  1
