# generated using pymatgen
data_HoB7Mo3
_symmetry_space_group_name_H-M   'P 1'
_cell_length_a   3.10600244
_cell_length_b   11.02109969
_cell_length_c   12.85352046
_cell_angle_alpha   90.00000000
_cell_angle_beta   90.00000000
_cell_angle_gamma   90.00000000
_symmetry_Int_Tables_number   1
_chemical_formula_structural   HoB7Mo3
_chemical_formula_sum   'Ho4 B28 Mo12'
_cell_volume   439.99608934
_cell_formula_units_Z   4
loop_
 _symmetry_equiv_pos_site_id
 _symmetry_equiv_pos_as_xyz
  1  'x, y, z'
loop_
 _atom_site_type_symbol
 _atom_site_label
 _atom_site_symmetry_multiplicity
 _atom_site_fract_x
 _atom_site_fract_y
 _atom_site_fract_z
 _atom_site_occupancy
  Ho  Ho0  1  0.25000000  0.55168437  0.80747404  1
  Ho  Ho1  1  0.75000000  0.44831563  0.19252596  1
  Ho  Ho2  1  0.25000000  0.05168437  0.69252596  1
  Ho  Ho3  1  0.75000000  0.94831563  0.30747404  1
  B  B4  1  0.25000000  0.76851389  0.91570769  1
  B  B5  1  0.75000000  0.23148611  0.08429231  1
  B  B6  1  0.25000000  0.26851389  0.58429231  1
  B  B7  1  0.75000000  0.73148611  0.41570769  1
  B  B8  1  0.25000000  0.74938120  0.67190997  1
  B  B9  1  0.75000000  0.25061880  0.32809003  1
  B  B10  1  0.25000000  0.24938120  0.82809003  1
  B  B11  1  0.75000000  0.75061880  0.17190997  1
  B  B12  1  0.25000000  0.96240494  0.48154934  1
  B  B13  1  0.75000000  0.03759506  0.51845066  1
  B  B14  1  0.25000000  0.46240494  0.01845066  1
  B  B15  1  0.75000000  0.53759506  0.98154934  1
  B  B16  1  0.25000000  0.93193507  0.88340621  1
  B  B17  1  0.75000000  0.06806493  0.11659379  1
  B  B18  1  0.25000000  0.43193507  0.61659379  1
  B  B19  1  0.75000000  0.56806493  0.38340621  1
  B  B20  1  0.75000000  0.51030787  0.63568822  1
  B  B21  1  0.25000000  0.48969213  0.36431178  1
  B  B22  1  0.75000000  0.01030787  0.86431178  1
  B  B23  1  0.25000000  0.98969213  0.13568822  1
  B  B24  1  0.75000000  0.66665130  0.66627864  1
  B  B25  1  0.25000000  0.33334870  0.33372136  1
  B  B26  1  0.75000000  0.16665130  0.83372136  1
  B  B27  1  0.25000000  0.83334870  0.16627864  1
  B  B28  1  0.75000000  0.68632227  0.93193080  1
  B  B29  1  0.25000000  0.31367773  0.06806920  1
  B  B30  1  0.75000000  0.18632227  0.56806920  1
  B  B31  1  0.25000000  0.81367773  0.43193080  1
  Mo  Mo32  1  0.25000000  0.61818073  0.52380470  1
  Mo  Mo33  1  0.75000000  0.38181927  0.47619530  1
  Mo  Mo34  1  0.25000000  0.11818073  0.97619530  1
  Mo  Mo35  1  0.75000000  0.88181927  0.02380470  1
  Mo  Mo36  1  0.25000000  0.66005521  0.06290500  1
  Mo  Mo37  1  0.75000000  0.33994479  0.93709500  1
  Mo  Mo38  1  0.25000000  0.16005521  0.43709500  1
  Mo  Mo39  1  0.75000000  0.83994479  0.56290500  1
  Mo  Mo40  1  0.25000000  0.68460261  0.29671070  1
  Mo  Mo41  1  0.75000000  0.31539739  0.70328930  1
  Mo  Mo42  1  0.25000000  0.18460261  0.20328930  1
  Mo  Mo43  1  0.75000000  0.81539739  0.79671070  1
