# generated using pymatgen
data_Y2SiO5
_symmetry_space_group_name_H-M   'P 1'
_cell_length_a   6.83176895
_cell_length_b   8.03982748
_cell_length_c   9.71000163
_cell_angle_alpha   72.25346976
_cell_angle_beta   69.40314244
_cell_angle_gamma   64.85754153
_symmetry_Int_Tables_number   1
_chemical_formula_structural   Y2SiO5
_chemical_formula_sum   'Y8 Si4 O20'
_cell_volume   444.28273742
_cell_formula_units_Z   4
loop_
 _symmetry_equiv_pos_site_id
 _symmetry_equiv_pos_as_xyz
  1  'x, y, z'
loop_
 _atom_site_type_symbol
 _atom_site_label
 _atom_site_symmetry_multiplicity
 _atom_site_fract_x
 _atom_site_fract_y
 _atom_site_fract_z
 _atom_site_occupancy
  O  O0  1  0.38953774  0.13755395  0.89577471  1
  O  O1  1  0.42286640  0.36244605  0.60422529  1
  O  O2  1  0.61046226  0.86244605  0.10422529  1
  O  O3  1  0.57713360  0.63755395  0.39577471  1
  O  O4  1  0.27420555  0.02961538  0.56801956  1
  O  O5  1  0.87184048  0.47038462  0.93198044  1
  O  O6  1  0.72579445  0.97038462  0.43198044  1
  O  O7  1  0.12815952  0.52961538  0.06801956  1
  O  O8  1  0.14901447  0.72961570  0.67630238  1
  O  O9  1  0.55493255  0.77038430  0.82369762  1
  O  O10  1  0.85098553  0.27038430  0.32369762  1
  O  O11  1  0.44506745  0.22961570  0.17630238  1
  O  O12  1  0.40416382  0.58304106  0.17576764  1
  O  O13  1  0.16297253  0.91695894  0.32423236  1
  O  O14  1  0.59583618  0.41695894  0.82423236  1
  O  O15  1  0.83702747  0.08304106  0.67576764  1
  O  O16  1  0.09982849  0.45616963  0.36245484  1
  O  O17  1  0.91845296  0.04383037  0.13754516  1
  O  O18  1  0.90017151  0.54383037  0.63754516  1
  O  O19  1  0.08154704  0.95616963  0.86245484  1
  Si  Si20  1  0.09165665  0.94212441  0.69432582  1
  Si  Si21  1  0.72810687  0.55787559  0.80567418  1
  Si  Si22  1  0.90834335  0.05787559  0.30567418  1
  Si  Si23  1  0.27189313  0.44212441  0.19432582  1
  Y  Y24  1  0.70735352  0.10633828  0.96758381  1
  Y  Y25  1  0.78127561  0.39366172  0.53241619  1
  Y  Y26  1  0.29264648  0.89366172  0.03241619  1
  Y  Y27  1  0.21872439  0.60633828  0.46758381  1
  Y  Y28  1  0.52459857  0.05218468  0.66250873  1
  Y  Y29  1  0.23929198  0.44781532  0.83749127  1
  Y  Y30  1  0.47540143  0.94781532  0.33749127  1
  Y  Y31  1  0.76070802  0.55218468  0.16250873  1
