# generated using pymatgen
data_La(C2N3)3
_symmetry_space_group_name_H-M   'P 1'
_cell_length_a   7.19465265
_cell_length_b   7.19465266
_cell_length_c   10.65835366
_cell_angle_alpha   90.00000000
_cell_angle_beta   90.00000000
_cell_angle_gamma   112.81984334
_symmetry_Int_Tables_number   1
_chemical_formula_structural   La(C2N3)3
_chemical_formula_sum   'La2 C12 N18'
_cell_volume   508.52579731
_cell_formula_units_Z   2
loop_
 _symmetry_equiv_pos_site_id
 _symmetry_equiv_pos_as_xyz
  1  'x, y, z'
loop_
 _atom_site_type_symbol
 _atom_site_label
 _atom_site_symmetry_multiplicity
 _atom_site_fract_x
 _atom_site_fract_y
 _atom_site_fract_z
 _atom_site_occupancy
  C  C0  1  0.72883317  0.55493736  0.75000000  1
  C  C1  1  0.99667222  0.28894531  0.94656792  1
  C  C2  1  0.00332778  0.71105469  0.44656792  1
  C  C3  1  0.27116683  0.44506264  0.25000000  1
  C  C4  1  0.55493736  0.72883317  0.25000000  1
  C  C5  1  0.44506264  0.27116683  0.75000000  1
  C  C6  1  0.28894531  0.99667222  0.44656792  1
  C  C7  1  0.71105469  0.00332778  0.94656792  1
  C  C8  1  0.99667222  0.28894531  0.55343208  1
  C  C9  1  0.00332778  0.71105469  0.05343208  1
  C  C10  1  0.71105469  0.00332778  0.55343208  1
  C  C11  1  0.28894531  0.99667222  0.05343208  1
  N  N12  1  0.13906273  0.41603640  0.90169607  1
  N  N13  1  0.86093727  0.58396360  0.40169607  1
  N  N14  1  0.53284121  0.46715879  0.75000000  1
  N  N15  1  0.46715879  0.53284121  0.25000000  1
  N  N16  1  0.90512524  0.64336483  0.75000000  1
  N  N17  1  0.09487476  0.35663517  0.25000000  1
  N  N18  1  0.64336483  0.90512524  0.25000000  1
  N  N19  1  0.35663517  0.09487476  0.75000000  1
  N  N20  1  0.15792945  0.84207055  0.50444566  1
  N  N21  1  0.84207055  0.15792945  0.00444566  1
  N  N22  1  0.84207055  0.15792945  0.49555434  1
  N  N23  1  0.15792945  0.84207055  0.99555434  1
  N  N24  1  0.41603640  0.13906273  0.40169607  1
  N  N25  1  0.58396360  0.86093727  0.90169607  1
  N  N26  1  0.13906273  0.41603640  0.59830393  1
  N  N27  1  0.86093727  0.58396360  0.09830393  1
  N  N28  1  0.58396360  0.86093727  0.59830393  1
  N  N29  1  0.41603640  0.13906273  0.09830393  1
  La  La30  1  0.71476806  0.28523194  0.25000000  1
  La  La31  1  0.28523194  0.71476806  0.75000000  1
