# generated using pymatgen
data_NbNiAs2
_symmetry_space_group_name_H-M   'P 1'
_cell_length_a   3.53981811
_cell_length_b   5.64043296
_cell_length_c   12.59803997
_cell_angle_alpha   90.00000000
_cell_angle_beta   90.00000000
_cell_angle_gamma   90.00000000
_symmetry_Int_Tables_number   1
_chemical_formula_structural   NbNiAs2
_chemical_formula_sum   'Nb4 Ni4 As8'
_cell_volume   251.53381076
_cell_formula_units_Z   4
loop_
 _symmetry_equiv_pos_site_id
 _symmetry_equiv_pos_as_xyz
  1  'x, y, z'
loop_
 _atom_site_type_symbol
 _atom_site_label
 _atom_site_symmetry_multiplicity
 _atom_site_fract_x
 _atom_site_fract_y
 _atom_site_fract_z
 _atom_site_occupancy
  Ni  Ni0  1  0.75000000  0.97914574  0.58742388  1
  Ni  Ni1  1  0.25000000  0.02085426  0.41257612  1
  Ni  Ni2  1  0.75000000  0.47914574  0.91257612  1
  Ni  Ni3  1  0.25000000  0.52085426  0.08742388  1
  Nb  Nb4  1  0.75000000  0.99047860  0.82836158  1
  Nb  Nb5  1  0.25000000  0.00952140  0.17163842  1
  Nb  Nb6  1  0.75000000  0.49047860  0.67163842  1
  Nb  Nb7  1  0.25000000  0.50952140  0.32836158  1
  As  As8  1  0.75000000  0.85446327  0.30981480  1
  As  As9  1  0.25000000  0.14553673  0.69018520  1
  As  As10  1  0.75000000  0.35446327  0.19018520  1
  As  As11  1  0.25000000  0.64553673  0.80981480  1
  As  As12  1  0.75000000  0.80390448  0.03701385  1
  As  As13  1  0.25000000  0.19609552  0.96298615  1
  As  As14  1  0.75000000  0.30390448  0.46298615  1
  As  As15  1  0.25000000  0.69609552  0.53701385  1
