# generated using pymatgen
data_YInRh
_symmetry_space_group_name_H-M   'P 1'
_cell_length_a   7.53550687
_cell_length_b   7.53550687
_cell_length_c   3.96200205
_cell_angle_alpha   90.00000000
_cell_angle_beta   90.00000000
_cell_angle_gamma   119.99999997
_symmetry_Int_Tables_number   1
_chemical_formula_structural   YInRh
_chemical_formula_sum   'Y3 In3 Rh3'
_cell_volume   194.83647687
_cell_formula_units_Z   3
loop_
 _symmetry_equiv_pos_site_id
 _symmetry_equiv_pos_as_xyz
  1  'x, y, z'
loop_
 _atom_site_type_symbol
 _atom_site_label
 _atom_site_symmetry_multiplicity
 _atom_site_fract_x
 _atom_site_fract_y
 _atom_site_fract_z
 _atom_site_occupancy
  Y  Y0  1  0.00000000  0.59287837  0.50000000  1
  Y  Y1  1  0.40712163  0.40712163  0.50000000  1
  Y  Y2  1  0.59287837  0.00000000  0.50000000  1
  Rh  Rh3  1  0.33333333  0.66666667  0.00000000  1
  Rh  Rh4  1  0.00000000  0.00000000  0.50000000  1
  Rh  Rh5  1  0.66666667  0.33333333  0.00000000  1
  In  In6  1  0.00000000  0.25608811  0.00000000  1
  In  In7  1  0.25608811  0.00000000  0.00000000  1
  In  In8  1  0.74391189  0.74391189  0.00000000  1
