# generated using pymatgen
data_Ga2NiO4
_symmetry_space_group_name_H-M   'P 1'
_cell_length_a   5.90791914
_cell_length_b   5.90791936
_cell_length_c   5.97914407
_cell_angle_alpha   59.60039327
_cell_angle_beta   59.60039040
_cell_angle_gamma   59.51322046
_symmetry_Int_Tables_number   1
_chemical_formula_structural   Ga2NiO4
_chemical_formula_sum   'Ga4 Ni2 O8'
_cell_volume   146.13006856
_cell_formula_units_Z   2
loop_
 _symmetry_equiv_pos_site_id
 _symmetry_equiv_pos_as_xyz
  1  'x, y, z'
loop_
 _atom_site_type_symbol
 _atom_site_label
 _atom_site_symmetry_multiplicity
 _atom_site_fract_x
 _atom_site_fract_y
 _atom_site_fract_z
 _atom_site_occupancy
  Ga  Ga0  1  0.99243708  0.99243708  0.00756292  1
  Ga  Ga1  1  0.25756292  0.25756292  0.24243708  1
  Ga  Ga2  1  0.62500000  0.62500000  0.12500000  1
  Ga  Ga3  1  0.62500000  0.62500000  0.62500000  1
  Ni  Ni4  1  0.12500000  0.62500000  0.62500000  1
  Ni  Ni5  1  0.62500000  0.12500000  0.62500000  1
  O  O6  1  0.38685170  0.38685170  0.37106196  1
  O  O7  1  0.38685170  0.38685170  0.85523465  1
  O  O8  1  0.38869294  0.85883847  0.37623430  1
  O  O9  1  0.85883847  0.38869294  0.37623430  1
  O  O10  1  0.39116153  0.86130706  0.87376570  1
  O  O11  1  0.86130706  0.39116153  0.87376570  1
  O  O12  1  0.86314830  0.86314830  0.39476535  1
  O  O13  1  0.86314830  0.86314830  0.87893804  1
