# generated using pymatgen
data_Cs2Na3InO4
_symmetry_space_group_name_H-M   'P 1'
_cell_length_a   6.44599231
_cell_length_b   10.35980878
_cell_length_c   11.92993358
_cell_angle_alpha   90.00000000
_cell_angle_beta   99.15271160
_cell_angle_gamma   90.00000000
_symmetry_Int_Tables_number   1
_chemical_formula_structural   Cs2Na3InO4
_chemical_formula_sum   'Cs8 Na12 In4 O16'
_cell_volume   786.52866984
_cell_formula_units_Z   4
loop_
 _symmetry_equiv_pos_site_id
 _symmetry_equiv_pos_as_xyz
  1  'x, y, z'
loop_
 _atom_site_type_symbol
 _atom_site_label
 _atom_site_symmetry_multiplicity
 _atom_site_fract_x
 _atom_site_fract_y
 _atom_site_fract_z
 _atom_site_occupancy
  In  In0  1  0.33315215  0.21588978  0.43592373  1
  In  In1  1  0.16684785  0.71588978  0.06407627  1
  In  In2  1  0.66684785  0.78411022  0.56407627  1
  In  In3  1  0.83315215  0.28411022  0.93592373  1
  Cs  Cs4  1  0.10767413  0.72655514  0.39167327  1
  Cs  Cs5  1  0.39232587  0.22655514  0.10832673  1
  Cs  Cs6  1  0.89232587  0.27344486  0.60832673  1
  Cs  Cs7  1  0.60767413  0.77344486  0.89167327  1
  Cs  Cs8  1  0.36081767  0.50227384  0.63470427  1
  Cs  Cs9  1  0.13918233  0.00227384  0.86529573  1
  Cs  Cs10  1  0.63918233  0.49772616  0.36529573  1
  Cs  Cs11  1  0.86081767  0.99772616  0.13470427  1
  Na  Na12  1  0.40856572  0.25504142  0.79870362  1
  Na  Na13  1  0.09143428  0.75504142  0.70129638  1
  Na  Na14  1  0.59143428  0.74495858  0.20129638  1
  Na  Na15  1  0.90856572  0.24495858  0.29870362  1
  Na  Na16  1  0.61684644  0.02949117  0.70469736  1
  Na  Na17  1  0.88315356  0.52949117  0.79530264  1
  Na  Na18  1  0.38315356  0.97050883  0.29530264  1
  Na  Na19  1  0.11684644  0.47050883  0.20469736  1
  Na  Na20  1  0.29337742  0.48858825  0.93190205  1
  Na  Na21  1  0.20662258  0.98858825  0.56809795  1
  Na  Na22  1  0.70662258  0.51141175  0.06809795  1
  Na  Na23  1  0.79337742  0.01141175  0.43190205  1
  O  O24  1  0.08947140  0.31814781  0.85065277  1
  O  O25  1  0.41052860  0.81814781  0.64934723  1
  O  O26  1  0.91052860  0.68185219  0.14934723  1
  O  O27  1  0.58947140  0.18185219  0.35065277  1
  O  O28  1  0.39187727  0.19005567  0.61319109  1
  O  O29  1  0.10812273  0.69005567  0.88680891  1
  O  O30  1  0.60812273  0.80994433  0.38680891  1
  O  O31  1  0.89187727  0.30994433  0.11319109  1
  O  O32  1  0.67816516  0.10730189  0.89171872  1
  O  O33  1  0.82183484  0.60730189  0.60828128  1
  O  O34  1  0.32183484  0.89269811  0.10828128  1
  O  O35  1  0.17816516  0.39269811  0.39171872  1
  O  O36  1  0.11506355  0.06533677  0.37689649  1
  O  O37  1  0.38493645  0.56533677  0.12310351  1
  O  O38  1  0.88493645  0.93466323  0.62310351  1
  O  O39  1  0.61506355  0.43466323  0.87689649  1
