# generated using pymatgen
data_Li2MoO3
_symmetry_space_group_name_H-M   'P 1'
_cell_length_a   5.27737734
_cell_length_b   15.83075157
_cell_length_c   10.10783145
_cell_angle_alpha   16.71624489
_cell_angle_beta   29.38559931
_cell_angle_gamma   33.43462581
_symmetry_Int_Tables_number   1
_chemical_formula_structural   Li2MoO3
_chemical_formula_sum   'Li4 Mo2 O6'
_cell_volume   119.18389273
_cell_formula_units_Z   2
loop_
 _symmetry_equiv_pos_site_id
 _symmetry_equiv_pos_as_xyz
  1  'x, y, z'
loop_
 _atom_site_type_symbol
 _atom_site_label
 _atom_site_symmetry_multiplicity
 _atom_site_fract_x
 _atom_site_fract_y
 _atom_site_fract_z
 _atom_site_occupancy
  Li  Li0  1  0.99999579  0.98268418  0.02597603  1
  Li  Li1  1  0.00000389  0.35065372  0.97401715  1
  Li  Li2  1  0.00000021  0.66666221  0.00000657  1
  Li  Li3  1  0.49999932  0.66666360  0.50000520  1
  Mo  Mo4  1  0.49999385  0.00090793  0.49864164  1
  Mo  Mo5  1  0.50000651  0.33242726  0.50135573  1
  O  O6  1  0.23103589  0.31959607  0.27357399  1
  O  O7  1  0.76896723  0.01373847  0.72642409  1
  O  O8  1  0.27459406  0.66666411  0.23242617  1
  O  O9  1  0.76896692  0.31959669  0.76763491  1
  O  O10  1  0.23102986  0.01373748  0.23236382  1
  O  O11  1  0.72540646  0.66666826  0.76757470  1
