# generated using pymatgen
data_Nd5Si4
_symmetry_space_group_name_H-M   'P 1'
_cell_length_a   7.89445420
_cell_length_b   7.89445420
_cell_length_c   15.13741246
_cell_angle_alpha   90.00000000
_cell_angle_beta   90.00000000
_cell_angle_gamma   90.00000000
_symmetry_Int_Tables_number   1
_chemical_formula_structural   Nd5Si4
_chemical_formula_sum   'Nd20 Si16'
_cell_volume   943.39998201
_cell_formula_units_Z   4
loop_
 _symmetry_equiv_pos_site_id
 _symmetry_equiv_pos_as_xyz
  1  'x, y, z'
loop_
 _atom_site_type_symbol
 _atom_site_label
 _atom_site_symmetry_multiplicity
 _atom_site_fract_x
 _atom_site_fract_y
 _atom_site_fract_z
 _atom_site_occupancy
  Si  Si0  1  0.28782684  0.92257379  0.55972455  1
  Si  Si1  1  0.71217316  0.07742621  0.05972455  1
  Si  Si2  1  0.92257379  0.28782684  0.44027545  1
  Si  Si3  1  0.42257379  0.21217316  0.30972455  1
  Si  Si4  1  0.57742621  0.78782684  0.80972455  1
  Si  Si5  1  0.21217316  0.42257379  0.69027545  1
  Si  Si6  1  0.78782684  0.57742621  0.19027545  1
  Si  Si7  1  0.07742621  0.71217316  0.94027545  1
  Si  Si8  1  0.80565404  0.83056898  0.70124244  1
  Si  Si9  1  0.19434596  0.16943102  0.20124244  1
  Si  Si10  1  0.83056898  0.80565404  0.29875756  1
  Si  Si11  1  0.33056898  0.69434596  0.45124244  1
  Si  Si12  1  0.66943102  0.30565404  0.95124244  1
  Si  Si13  1  0.69434596  0.33056898  0.54875756  1
  Si  Si14  1  0.30565404  0.66943102  0.04875756  1
  Si  Si15  1  0.16943102  0.19434596  0.79875756  1
  Nd  Nd16  1  0.48123140  0.37276875  0.12596740  1
  Nd  Nd17  1  0.98123140  0.12723125  0.62403260  1
  Nd  Nd18  1  0.87276875  0.01876860  0.87596740  1
  Nd  Nd19  1  0.12723125  0.98123140  0.37596740  1
  Nd  Nd20  1  0.51876860  0.62723125  0.62596740  1
  Nd  Nd21  1  0.37276875  0.48123140  0.87403260  1
  Nd  Nd22  1  0.62723125  0.51876860  0.37403260  1
  Nd  Nd23  1  0.01876860  0.87276875  0.12403260  1
  Nd  Nd24  1  0.62274742  0.98858752  0.44820955  1
  Nd  Nd25  1  0.37725258  0.01141248  0.94820955  1
  Nd  Nd26  1  0.98858752  0.62274742  0.55179045  1
  Nd  Nd27  1  0.48858752  0.87725258  0.19820955  1
  Nd  Nd28  1  0.51141248  0.12274742  0.69820955  1
  Nd  Nd29  1  0.87725258  0.48858752  0.80179045  1
  Nd  Nd30  1  0.12274742  0.51141248  0.30179045  1
  Nd  Nd31  1  0.01141248  0.37725258  0.05179045  1
  Nd  Nd32  1  0.30860236  0.30860236  0.50000000  1
  Nd  Nd33  1  0.19139764  0.80860236  0.75000000  1
  Nd  Nd34  1  0.80860236  0.19139764  0.25000000  1
  Nd  Nd35  1  0.69139764  0.69139764  0.00000000  1
