# generated using pymatgen
data_Eu2Sn5Au2
_symmetry_space_group_name_H-M   'P 1'
_cell_length_a   4.65688216
_cell_length_b   9.58714879
_cell_length_c   10.52450647
_cell_angle_alpha   91.46803151
_cell_angle_beta   90.00000000
_cell_angle_gamma   90.00000000
_symmetry_Int_Tables_number   1
_chemical_formula_structural   Eu2Sn5Au2
_chemical_formula_sum   'Eu4 Sn10 Au4'
_cell_volume   469.72522782
_cell_formula_units_Z   2
loop_
 _symmetry_equiv_pos_site_id
 _symmetry_equiv_pos_as_xyz
  1  'x, y, z'
loop_
 _atom_site_type_symbol
 _atom_site_label
 _atom_site_symmetry_multiplicity
 _atom_site_fract_x
 _atom_site_fract_y
 _atom_site_fract_z
 _atom_site_occupancy
  Sn  Sn0  1  0.25000000  0.86439128  0.47681605  1
  Sn  Sn1  1  0.75000000  0.13560872  0.52318395  1
  Sn  Sn2  1  0.25000000  0.62884347  0.24263745  1
  Sn  Sn3  1  0.75000000  0.37115653  0.75736255  1
  Sn  Sn4  1  0.25000000  0.39455826  0.52088618  1
  Sn  Sn5  1  0.75000000  0.60544174  0.47911382  1
  Sn  Sn6  1  0.25000000  0.38599928  0.98352209  1
  Sn  Sn7  1  0.75000000  0.61400072  0.01647791  1
  Sn  Sn8  1  0.75000000  0.89378539  0.88694373  1
  Sn  Sn9  1  0.25000000  0.10621461  0.11305627  1
  Eu  Eu10  1  0.75000000  0.36017070  0.24707810  1
  Eu  Eu11  1  0.25000000  0.63982930  0.75292190  1
  Eu  Eu12  1  0.75000000  0.90099899  0.24713898  1
  Eu  Eu13  1  0.25000000  0.09900101  0.75286102  1
  Au  Au14  1  0.75000000  0.85444369  0.62739988  1
  Au  Au15  1  0.25000000  0.14555631  0.37260012  1
  Au  Au16  1  0.75000000  0.17935533  0.97182842  1
  Au  Au17  1  0.25000000  0.82064467  0.02817158  1
