# generated using pymatgen
data_Mn3Cr2Sb3O16
_symmetry_space_group_name_H-M   'P 1'
_cell_length_a   6.08698414
_cell_length_b   6.03199946
_cell_length_c   9.04669066
_cell_angle_alpha   89.99836382
_cell_angle_beta   89.80614703
_cell_angle_gamma   119.70269210
_symmetry_Int_Tables_number   1
_chemical_formula_structural   Mn3Cr2Sb3O16
_chemical_formula_sum   'Mn3 Cr2 Sb3 O16'
_cell_volume   288.51860540
_cell_formula_units_Z   1
loop_
 _symmetry_equiv_pos_site_id
 _symmetry_equiv_pos_as_xyz
  1  'x, y, z'
loop_
 _atom_site_type_symbol
 _atom_site_label
 _atom_site_symmetry_multiplicity
 _atom_site_fract_x
 _atom_site_fract_y
 _atom_site_fract_z
 _atom_site_occupancy
  Mn  Mn0  1  0.66159970  0.83080326  0.21470557  1
  Mn  Mn1  1  0.82713890  0.66242300  0.71012486  1
  Mn  Mn2  1  0.82712793  0.16473728  0.71012990  1
  Cr  Cr3  1  0.34017865  0.67008226  0.49284483  1
  Cr  Cr4  1  0.68215337  0.34109556  0.98407062  1
  Sb  Sb5  1  0.16414747  0.83066280  0.20982823  1
  Sb  Sb6  1  0.16414035  0.33350515  0.20982041  1
  Sb  Sb7  1  0.32918912  0.16459827  0.70947342  1
  O  O8  1  0.16290023  0.83214074  0.60417717  1
  O  O9  1  0.04362799  0.52180962  0.34710733  1
  O  O10  1  0.30625876  0.65315600  0.08616073  1
  O  O11  1  0.02303017  0.01151609  0.32678916  1
  O  O12  1  0.98888659  0.99446633  0.81573910  1
  O  O13  1  0.16287250  0.33076683  0.60418797  1
  O  O14  1  0.47512881  0.95228019  0.33739101  1
  O  O15  1  0.47510188  0.52282953  0.33740026  1
  O  O16  1  0.33459431  0.16731764  0.09666067  1
  O  O17  1  0.67521258  0.83761886  0.60330491  1
  O  O18  1  0.53113773  0.48308545  0.83765367  1
  O  O19  1  0.53115833  0.04806272  0.83766087  1
  O  O20  1  0.67213625  0.33605554  0.59993715  1
  O  O21  1  0.83546885  0.67067098  0.10516802  1
  O  O22  1  0.95132828  0.47568620  0.83023204  1
  O  O23  1  0.83548125  0.16482869  0.10515311  1
