# generated using pymatgen
data_P2PbO6
_symmetry_space_group_name_H-M   'P 1'
_cell_length_a   7.41968916
_cell_length_b   8.13880730
_cell_length_c   17.72509861
_cell_angle_alpha   90.00000000
_cell_angle_beta   91.06224924
_cell_angle_gamma   90.00000000
_symmetry_Int_Tables_number   1
_chemical_formula_structural   P2PbO6
_chemical_formula_sum   'P16 Pb8 O48'
_cell_volume   1070.18903001
_cell_formula_units_Z   8
loop_
 _symmetry_equiv_pos_site_id
 _symmetry_equiv_pos_as_xyz
  1  'x, y, z'
loop_
 _atom_site_type_symbol
 _atom_site_label
 _atom_site_symmetry_multiplicity
 _atom_site_fract_x
 _atom_site_fract_y
 _atom_site_fract_z
 _atom_site_occupancy
  O  O0  1  0.20179851  0.41020203  0.76347132  1
  O  O1  1  0.79820149  0.91020203  0.73652868  1
  O  O2  1  0.79820149  0.58979797  0.23652868  1
  O  O3  1  0.20179851  0.08979797  0.26347132  1
  O  O4  1  0.15248227  0.66677861  0.67924568  1
  O  O5  1  0.84751773  0.16677861  0.82075432  1
  O  O6  1  0.84751773  0.33322139  0.32075432  1
  O  O7  1  0.15248227  0.83322139  0.17924568  1
  O  O8  1  0.92040943  0.06964277  0.18689076  1
  O  O9  1  0.07959057  0.56964277  0.31310924  1
  O  O10  1  0.07959057  0.93035723  0.81310924  1
  O  O11  1  0.92040943  0.43035723  0.68689076  1
  O  O12  1  0.21197150  0.39863969  0.61782857  1
  O  O13  1  0.78802850  0.89863969  0.88217143  1
  O  O14  1  0.78802850  0.60136031  0.38217143  1
  O  O15  1  0.21197150  0.10136031  0.11782857  1
  O  O16  1  0.74800209  0.84372299  0.11465639  1
  O  O17  1  0.25199791  0.34372299  0.38534361  1
  O  O18  1  0.71702698  0.59995097  0.84469485  1
  O  O19  1  0.74800209  0.65627701  0.61465639  1
  O  O20  1  0.58206801  0.05979850  0.19324153  1
  O  O21  1  0.41793199  0.55979850  0.30675847  1
  O  O22  1  0.41793199  0.94020150  0.80675847  1
  O  O23  1  0.58206801  0.44020150  0.69324153  1
  O  O24  1  0.73724106  0.13515495  0.07005160  1
  O  O25  1  0.26275894  0.63515495  0.42994840  1
  O  O26  1  0.26275894  0.86484505  0.92994840  1
  O  O27  1  0.73724106  0.36484505  0.57005160  1
  O  O28  1  0.28297302  0.09995097  0.65530515  1
  O  O29  1  0.09923461  0.33423041  0.03555880  1
  O  O30  1  0.71702698  0.90004903  0.34469485  1
  O  O31  1  0.28297302  0.40004903  0.15530515  1
  O  O32  1  0.68960862  0.32303691  0.96096753  1
  O  O33  1  0.31039138  0.82303691  0.53903247  1
  O  O34  1  0.31039138  0.67696309  0.03903247  1
  O  O35  1  0.68960862  0.17696309  0.46096753  1
  O  O36  1  0.67272353  0.44038131  0.09656405  1
  O  O37  1  0.32727647  0.94038131  0.40343595  1
  O  O38  1  0.32727647  0.55961869  0.90343595  1
  O  O39  1  0.67272353  0.05961869  0.59656405  1
  O  O40  1  0.42737026  0.25163835  0.04168970  1
  O  O41  1  0.57262974  0.75163835  0.45831030  1
  O  O42  1  0.57262974  0.74836165  0.95831030  1
  O  O43  1  0.42737026  0.24836165  0.54168970  1
  O  O44  1  0.09923461  0.16576959  0.53555880  1
  O  O45  1  0.90076539  0.66576959  0.96444120  1
  O  O46  1  0.90076539  0.83423041  0.46444120  1
  O  O47  1  0.25199791  0.15627701  0.88534361  1
  P  P48  1  0.24966053  0.21448231  0.58955605  1
  P  P49  1  0.75033947  0.71448231  0.91044395  1
  P  P50  1  0.75033947  0.78551769  0.41044395  1
  P  P51  1  0.24966053  0.28551769  0.08955605  1
  P  P52  1  0.63779223  0.19906816  0.54172418  1
  P  P53  1  0.36220777  0.69906816  0.95827582  1
  P  P54  1  0.36220777  0.80093184  0.45827582  1
  P  P55  1  0.63779223  0.30093184  0.04172418  1
  P  P56  1  0.73649250  0.48208583  0.64348120  1
  P  P57  1  0.26350750  0.98208583  0.85651880  1
  P  P58  1  0.26350750  0.51791417  0.35651880  1
  P  P59  1  0.73649250  0.01791417  0.14348120  1
  P  P60  1  0.13020333  0.01489787  0.19149166  1
  P  P61  1  0.86979667  0.51489787  0.30850834  1
  P  P62  1  0.86979667  0.98510213  0.80850834  1
  P  P63  1  0.13020333  0.48510213  0.69149166  1
  Pb  Pb64  1  0.48279680  0.85830551  0.67428483  1
  Pb  Pb65  1  0.51720320  0.35830551  0.82571517  1
  Pb  Pb66  1  0.51720320  0.14169449  0.32571517  1
  Pb  Pb67  1  0.48279680  0.64169449  0.17428483  1
  Pb  Pb68  1  0.97528612  0.87534350  0.60191462  1
  Pb  Pb69  1  0.02471388  0.37534350  0.89808538  1
  Pb  Pb70  1  0.02471388  0.12465650  0.39808538  1
  Pb  Pb71  1  0.97528612  0.62465650  0.10191462  1
