# generated using pymatgen
data_RbCeS2
_symmetry_space_group_name_H-M   'P 1'
_cell_length_a   8.06683677
_cell_length_b   8.06683677
_cell_length_c   8.06683676
_cell_angle_alpha   30.55897908
_cell_angle_beta   30.55897909
_cell_angle_gamma   30.55897908
_symmetry_Int_Tables_number   1
_chemical_formula_structural   RbCeS2
_chemical_formula_sum   'Rb1 Ce1 S2'
_cell_volume   120.29664320
_cell_formula_units_Z   1
loop_
 _symmetry_equiv_pos_site_id
 _symmetry_equiv_pos_as_xyz
  1  'x, y, z'
loop_
 _atom_site_type_symbol
 _atom_site_label
 _atom_site_symmetry_multiplicity
 _atom_site_fract_x
 _atom_site_fract_y
 _atom_site_fract_z
 _atom_site_occupancy
  S  S0  1  0.76809505  0.76809505  0.76809505  1
  S  S1  1  0.23190495  0.23190495  0.23190495  1
  Rb  Rb2  1  0.00000000  0.00000000  0.00000000  1
  Ce  Ce3  1  0.50000000  0.50000000  0.50000000  1
