# generated using pymatgen
data_Li2SnO3
_symmetry_space_group_name_H-M   'P 1'
_cell_length_a   5.35794603
_cell_length_b   5.37038543
_cell_length_c   10.15341340
_cell_angle_alpha   84.85715270
_cell_angle_beta   79.64803424
_cell_angle_gamma   60.07659286
_symmetry_Int_Tables_number   1
_chemical_formula_structural   Li2SnO3
_chemical_formula_sum   'Li8 Sn4 O12'
_cell_volume   249.08854280
_cell_formula_units_Z   4
loop_
 _symmetry_equiv_pos_site_id
 _symmetry_equiv_pos_as_xyz
  1  'x, y, z'
loop_
 _atom_site_type_symbol
 _atom_site_label
 _atom_site_symmetry_multiplicity
 _atom_site_fract_x
 _atom_site_fract_y
 _atom_site_fract_z
 _atom_site_occupancy
  Li  Li0  1  0.84115536  0.84319847  0.99909944  1
  Li  Li1  1  0.31564617  0.84319847  0.50090056  1
  Li  Li2  1  0.15884464  0.15680153  0.00090056  1
  Li  Li3  1  0.68435383  0.15680153  0.49909944  1
  Li  Li4  1  0.00000000  0.50000000  0.50000000  1
  Li  Li5  1  0.50000000  0.50000000  0.00000000  1
  Li  Li6  1  0.08486458  0.83027085  0.25000000  1
  Li  Li7  1  0.91513542  0.16972915  0.75000000  1
  O  O8  1  0.95812784  0.81479110  0.63030216  1
  O  O9  1  0.12365740  0.48041774  0.13299070  1
  O  O10  1  0.22708107  0.81479110  0.86969784  1
  O  O11  1  0.04187216  0.18520890  0.36969784  1
  O  O12  1  0.47304880  0.83371948  0.13294939  1
  O  O13  1  0.39592486  0.48041774  0.36700930  1
  O  O14  1  0.87634260  0.51958226  0.86700930  1
  O  O15  1  0.60407514  0.51958226  0.63299070  1
  O  O16  1  0.30676828  0.16628052  0.63294939  1
  O  O17  1  0.69323172  0.83371948  0.36705061  1
  O  O18  1  0.52695120  0.16628052  0.86705061  1
  O  O19  1  0.77291893  0.18520890  0.13030216  1
  Sn  Sn20  1  0.58281560  0.83436880  0.75000000  1
  Sn  Sn21  1  0.25025357  0.49949285  0.75000000  1
  Sn  Sn22  1  0.74974643  0.50050715  0.25000000  1
  Sn  Sn23  1  0.41718440  0.16563120  0.25000000  1
