# generated using pymatgen
data_Ca3(BO3)2
_symmetry_space_group_name_H-M   'P 1'
_cell_length_a   6.42706807
_cell_length_b   6.42706807
_cell_length_c   6.42706807
_cell_angle_alpha   85.10738729
_cell_angle_beta   85.10738727
_cell_angle_gamma   85.10738725
_symmetry_Int_Tables_number   1
_chemical_formula_structural   Ca3(BO3)2
_chemical_formula_sum   'Ca6 B4 O12'
_cell_volume   262.73796673
_cell_formula_units_Z   2
loop_
 _symmetry_equiv_pos_site_id
 _symmetry_equiv_pos_as_xyz
  1  'x, y, z'
loop_
 _atom_site_type_symbol
 _atom_site_label
 _atom_site_symmetry_multiplicity
 _atom_site_fract_x
 _atom_site_fract_y
 _atom_site_fract_z
 _atom_site_occupancy
  B  B0  1  0.38235421  0.38235421  0.38235421  1
  B  B1  1  0.61764579  0.61764579  0.61764579  1
  B  B2  1  0.88235421  0.88235421  0.88235421  1
  B  B3  1  0.11764579  0.11764579  0.11764579  1
  O  O4  1  0.89641901  0.71868785  0.03829121  1
  O  O5  1  0.71868785  0.03829121  0.89641901  1
  O  O6  1  0.03829121  0.89641901  0.71868785  1
  O  O7  1  0.78131215  0.60358099  0.46170879  1
  O  O8  1  0.46170879  0.78131215  0.60358099  1
  O  O9  1  0.60358099  0.46170879  0.78131215  1
  O  O10  1  0.28131215  0.96170879  0.10358099  1
  O  O11  1  0.10358099  0.28131215  0.96170879  1
  O  O12  1  0.96170879  0.10358099  0.28131215  1
  O  O13  1  0.53829121  0.21868785  0.39641901  1
  O  O14  1  0.39641901  0.53829121  0.21868785  1
  O  O15  1  0.21868785  0.39641901  0.53829121  1
  Ca  Ca16  1  0.10650248  0.75000000  0.39349752  1
  Ca  Ca17  1  0.75000000  0.39349752  0.10650248  1
  Ca  Ca18  1  0.39349752  0.10650248  0.75000000  1
  Ca  Ca19  1  0.89349752  0.25000000  0.60650248  1
  Ca  Ca20  1  0.25000000  0.60650248  0.89349752  1
  Ca  Ca21  1  0.60650248  0.89349752  0.25000000  1
