# generated using pymatgen
data_Rb2Li14Pb3O14
_symmetry_space_group_name_H-M   'P 1'
_cell_length_a   7.38409266
_cell_length_b   8.09903947
_cell_length_c   8.52000328
_cell_angle_alpha   118.37859634
_cell_angle_beta   115.67962615
_cell_angle_gamma   90.00000222
_symmetry_Int_Tables_number   1
_chemical_formula_structural   Rb2Li14Pb3O14
_chemical_formula_sum   'Rb2 Li14 Pb3 O14'
_cell_volume   390.15277987
_cell_formula_units_Z   1
loop_
 _symmetry_equiv_pos_site_id
 _symmetry_equiv_pos_as_xyz
  1  'x, y, z'
loop_
 _atom_site_type_symbol
 _atom_site_label
 _atom_site_symmetry_multiplicity
 _atom_site_fract_x
 _atom_site_fract_y
 _atom_site_fract_z
 _atom_site_occupancy
  Pb  Pb0  1  0.72836985  0.72836985  0.45673971  1
  Pb  Pb1  1  0.27163015  0.27163015  0.54326029  1
  Pb  Pb2  1  0.00000000  0.00000000  0.00000000  1
  Rb  Rb3  1  0.23457949  0.50000000  0.00000000  1
  Rb  Rb4  1  0.76542051  0.50000000  1.00000000  1
  Li  Li5  1  0.50000000  0.84203895  0.00000000  1
  Li  Li6  1  0.50000000  0.15796105  1.00000000  1
  Li  Li7  1  0.76958293  0.41523446  0.53916586  1
  Li  Li8  1  0.23041707  0.58476554  0.46083414  1
  Li  Li9  1  0.23041707  0.87606860  0.46083414  1
  Li  Li10  1  0.76958293  0.12393140  0.53916586  1
  Li  Li11  1  0.59338602  0.70863629  0.73016478  1
  Li  Li12  1  0.86322124  0.29136371  0.26983522  1
  Li  Li13  1  0.40661398  0.97847151  0.26983522  1
  Li  Li14  1  0.13677876  0.02152849  0.73016478  1
  Li  Li15  1  0.40661398  0.29136371  0.26983522  1
  Li  Li16  1  0.13677876  0.70863629  0.73016478  1
  Li  Li17  1  0.59338602  0.02152849  0.73016478  1
  Li  Li18  1  0.86322124  0.97847151  0.26983522  1
  O  O19  1  0.04078372  0.74911525  0.49823049  1
  O  O20  1  0.54255323  0.25088475  0.50176951  1
  O  O21  1  0.95921628  0.25088475  0.50176951  1
  O  O22  1  0.45744677  0.74911525  0.49823049  1
  O  O23  1  0.70510456  0.00000000  0.00000000  1
  O  O24  1  0.29489544  1.00000000  1.00000000  1
  O  O25  1  0.87291037  0.68624255  0.74582074  1
  O  O26  1  0.12708963  0.31375745  0.25417926  1
  O  O27  1  0.12708963  0.94042181  0.25417926  1
  O  O28  1  0.87291037  0.05957819  0.74582074  1
  O  O29  1  0.62925763  0.41116450  0.25851526  1
  O  O30  1  0.37074237  0.58883550  0.74148474  1
  O  O31  1  0.37074237  0.15264924  0.74148474  1
  O  O32  1  0.62925763  0.84735076  0.25851526  1
