# generated using pymatgen
data_Pr4Se3N2
_symmetry_space_group_name_H-M   'P 1'
_cell_length_a   6.55680963
_cell_length_b   8.40745897
_cell_length_c   8.40745898
_cell_angle_alpha   75.65858979
_cell_angle_beta   90.17804909
_cell_angle_gamma   90.17804907
_symmetry_Int_Tables_number   1
_chemical_formula_structural   Pr4Se3N2
_chemical_formula_sum   'Pr8 Se6 N4'
_cell_volume   449.02386729
_cell_formula_units_Z   2
loop_
 _symmetry_equiv_pos_site_id
 _symmetry_equiv_pos_as_xyz
  1  'x, y, z'
loop_
 _atom_site_type_symbol
 _atom_site_label
 _atom_site_symmetry_multiplicity
 _atom_site_fract_x
 _atom_site_fract_y
 _atom_site_fract_z
 _atom_site_occupancy
  N  N0  1  0.58521486  0.82954009  0.58140106  1
  N  N1  1  0.08521486  0.58140106  0.82954009  1
  N  N2  1  0.41478514  0.17045991  0.41859894  1
  N  N3  1  0.91478514  0.41859894  0.17045991  1
  Se  Se4  1  0.96486611  0.98431164  0.24706322  1
  Se  Se5  1  0.75000000  0.40273413  0.59726587  1
  Se  Se6  1  0.53513389  0.75293678  0.01568836  1
  Se  Se7  1  0.03513389  0.01568836  0.75293678  1
  Se  Se8  1  0.25000000  0.59726587  0.40273413  1
  Se  Se9  1  0.46486611  0.24706322  0.98431164  1
  Pr  Pr10  1  0.42784224  0.58525906  0.74430774  1
  Pr  Pr11  1  0.07215776  0.25569226  0.41474094  1
  Pr  Pr12  1  0.57215776  0.41474094  0.25569226  1
  Pr  Pr13  1  0.92784224  0.74430774  0.58525906  1
  Pr  Pr14  1  0.46990331  0.94312942  0.30986131  1
  Pr  Pr15  1  0.03009669  0.69013869  0.05687058  1
  Pr  Pr16  1  0.53009669  0.05687058  0.69013869  1
  Pr  Pr17  1  0.96990331  0.30986131  0.94312942  1
