# generated using pymatgen
data_LaCuO3
_symmetry_space_group_name_H-M   'P 1'
_cell_length_a   5.44777047
_cell_length_b   5.44777046
_cell_length_c   5.44777046
_cell_angle_alpha   61.42310471
_cell_angle_beta   61.42310473
_cell_angle_gamma   61.42310470
_symmetry_Int_Tables_number   1
_chemical_formula_structural   LaCuO3
_chemical_formula_sum   'La2 Cu2 O6'
_cell_volume   117.97913407
_cell_formula_units_Z   2
loop_
 _symmetry_equiv_pos_site_id
 _symmetry_equiv_pos_as_xyz
  1  'x, y, z'
loop_
 _atom_site_type_symbol
 _atom_site_label
 _atom_site_symmetry_multiplicity
 _atom_site_fract_x
 _atom_site_fract_y
 _atom_site_fract_z
 _atom_site_occupancy
  O  O0  1  0.18906909  0.75000000  0.31093091  1
  O  O1  1  0.75000000  0.31093091  0.18906909  1
  O  O2  1  0.31093091  0.18906909  0.75000000  1
  O  O3  1  0.81093091  0.25000000  0.68906909  1
  O  O4  1  0.68906909  0.81093091  0.25000000  1
  O  O5  1  0.25000000  0.68906909  0.81093091  1
  Cu  Cu6  1  0.50000000  0.50000000  0.50000000  1
  Cu  Cu7  1  0.00000000  0.00000000  0.00000000  1
  La  La8  1  0.75000000  0.75000000  0.75000000  1
  La  La9  1  0.25000000  0.25000000  0.25000000  1
