# generated using pymatgen
data_Li10Mn3Cr3(NiO8)2
_symmetry_space_group_name_H-M   'P 1'
_cell_length_a   5.98685463
_cell_length_b   5.91735958
_cell_length_c   9.80622587
_cell_angle_alpha   89.09537892
_cell_angle_beta   89.12116040
_cell_angle_gamma   119.08517166
_symmetry_Int_Tables_number   1
_chemical_formula_structural   Li10Mn3Cr3(NiO8)2
_chemical_formula_sum   'Li10 Mn3 Cr3 Ni2 O16'
_cell_volume   303.44818016
_cell_formula_units_Z   1
loop_
 _symmetry_equiv_pos_site_id
 _symmetry_equiv_pos_as_xyz
  1  'x, y, z'
loop_
 _atom_site_type_symbol
 _atom_site_label
 _atom_site_symmetry_multiplicity
 _atom_site_fract_x
 _atom_site_fract_y
 _atom_site_fract_z
 _atom_site_occupancy
  Li  Li0  1  0.99422825  0.01577598  0.51752898  1
  Li  Li1  1  0.39774262  0.19658717  0.93748947  1
  Li  Li2  1  0.67734918  0.35520703  0.71671828  1
  Li  Li3  1  0.33600208  0.68706267  0.21672795  1
  Li  Li4  1  0.18613839  0.81708665  0.43686076  1
  Li  Li5  1  0.18157472  0.40009802  0.43508669  1
  Li  Li6  1  0.81316745  0.21554089  0.94594238  1
  Li  Li7  1  0.79656421  0.61788400  0.94236589  1
  Li  Li8  1  0.59830659  0.80262305  0.44536996  1
  Li  Li9  1  0.01134649  0.01765241  0.01651810  1
  Mn  Mn10  1  0.17619588  0.84920098  0.71380667  1
  Mn  Mn11  1  0.83056759  0.67882679  0.21559359  1
  Mn  Mn12  1  0.66565543  0.84647524  0.71538981  1
  Cr  Cr13  1  0.33733795  0.18539653  0.21333879  1
  Cr  Cr14  1  0.17159769  0.35240820  0.71413144  1
  Cr  Cr15  1  0.83085761  0.18399554  0.21465454  1
  Ni  Ni16  1  0.65423538  0.34321368  0.46962378  1
  Ni  Ni17  1  0.33599259  0.67877204  0.97047632  1
  O  O18  1  0.16099308  0.34124136  0.09599642  1
  O  O19  1  0.31901529  0.16855413  0.59666297  1
  O  O20  1  0.02538984  0.53179168  0.83278956  1
  O  O21  1  0.50763430  0.03095145  0.33357414  1
  O  O22  1  0.84132510  0.18108166  0.60517194  1
  O  O23  1  0.16419461  0.85272505  0.10357556  1
  O  O24  1  0.50462059  0.50587807  0.32770689  1
  O  O25  1  0.49299600  0.52146731  0.82882513  1
  O  O26  1  0.65696541  0.32870435  0.09120810  1
  O  O27  1  0.30389963  0.67379866  0.59134759  1
  O  O28  1  0.97001122  0.50528521  0.33011950  1
  O  O29  1  0.52166855  0.99940053  0.83840424  1
  O  O30  1  0.80089640  0.68519234  0.58858636  1
  O  O31  1  0.68771030  0.85279806  0.10062748  1
  O  O32  1  0.01406303  0.04280894  0.33129731  1
  O  O33  1  0.03612354  0.02117834  0.82955940  1
