# generated using pymatgen
data_Sr(GdSe2)2
_symmetry_space_group_name_H-M   'P 1'
_cell_length_a   7.76076775
_cell_length_b   7.76076752
_cell_length_c   7.76076798
_cell_angle_alpha   109.36277641
_cell_angle_beta   109.68833356
_cell_angle_gamma   109.36276963
_symmetry_Int_Tables_number   1
_chemical_formula_structural   Sr(GdSe2)2
_chemical_formula_sum   'Sr2 Gd4 Se8'
_cell_volume   359.82181881
_cell_formula_units_Z   2
loop_
 _symmetry_equiv_pos_site_id
 _symmetry_equiv_pos_as_xyz
  1  'x, y, z'
loop_
 _atom_site_type_symbol
 _atom_site_label
 _atom_site_symmetry_multiplicity
 _atom_site_fract_x
 _atom_site_fract_y
 _atom_site_fract_z
 _atom_site_occupancy
  Gd  Gd0  1  0.25000000  0.62403218  0.37403218  1
  Gd  Gd1  1  0.75000000  0.87596782  0.12596782  1
  Gd  Gd2  1  0.62596782  0.37596782  0.25000000  1
  Gd  Gd3  1  0.87403218  0.12403218  0.75000000  1
  Se  Se4  1  0.98559059  0.84877988  0.48832185  1
  Se  Se5  1  0.98832185  0.34877988  0.48559059  1
  Se  Se6  1  0.51440941  0.00273126  0.86318928  1
  Se  Se7  1  0.51167815  0.99726874  0.36045803  1
  Se  Se8  1  0.13681072  0.15122012  0.13954197  1
  Se  Se9  1  0.36318928  0.50273126  0.01440941  1
  Se  Se10  1  0.63954197  0.65122012  0.63681072  1
  Se  Se11  1  0.86045803  0.49726874  0.01167815  1
  Sr  Sr12  1  0.12500000  0.75000000  0.87500000  1
  Sr  Sr13  1  0.37500000  0.25000000  0.62500000  1
