# generated using pymatgen
data_Li5Mn2CoO8
_symmetry_space_group_name_H-M   'P 1'
_cell_length_a   2.89456270
_cell_length_b   9.72983492
_cell_length_c   5.23402650
_cell_angle_alpha   83.80678074
_cell_angle_beta   90.00000031
_cell_angle_gamma   81.44569078
_symmetry_Int_Tables_number   1
_chemical_formula_structural   Li5Mn2CoO8
_chemical_formula_sum   'Li5 Mn2 Co1 O8'
_cell_volume   144.89918432
_cell_formula_units_Z   1
loop_
 _symmetry_equiv_pos_site_id
 _symmetry_equiv_pos_as_xyz
  1  'x, y, z'
loop_
 _atom_site_type_symbol
 _atom_site_label
 _atom_site_symmetry_multiplicity
 _atom_site_fract_x
 _atom_site_fract_y
 _atom_site_fract_z
 _atom_site_occupancy
  Li  Li0  1  0.36960006  0.26079988  0.13006328  1
  Li  Li1  1  0.13039994  0.73920012  0.36993672  1
  Li  Li2  1  0.86812674  0.26374653  0.63027533  1
  Li  Li3  1  0.63187326  0.73625347  0.86972467  1
  Li  Li4  1  0.75000000  0.50000000  0.25000000  1
  Mn  Mn5  1  0.00150586  0.99698827  0.00104248  1
  Mn  Mn6  1  0.49849414  0.00301173  0.49895752  1
  Co  Co7  1  0.25000000  0.50000000  0.75000000  1
  O  O8  1  0.44254522  0.11490955  0.84531431  1
  O  O9  1  0.19687346  0.60625308  0.01394125  1
  O  O10  1  0.93954975  0.12090049  0.33972169  1
  O  O11  1  0.69429156  0.61141689  0.58303778  1
  O  O12  1  0.30312654  0.39374692  0.48605875  1
  O  O13  1  0.05745478  0.88509045  0.65468569  1
  O  O14  1  0.80570844  0.38858311  0.91696222  1
  O  O15  1  0.56045025  0.87909951  0.16027831  1
