# generated using pymatgen
data_Ti2NiP5
_symmetry_space_group_name_H-M   'P 1'
_cell_length_a   3.33742955
_cell_length_b   11.12896626
_cell_length_c   12.44361582
_cell_angle_alpha   90.00000000
_cell_angle_beta   90.00000000
_cell_angle_gamma   90.00000000
_symmetry_Int_Tables_number   1
_chemical_formula_structural   Ti2NiP5
_chemical_formula_sum   'Ti8 Ni4 P20'
_cell_volume   462.18253156
_cell_formula_units_Z   4
loop_
 _symmetry_equiv_pos_site_id
 _symmetry_equiv_pos_as_xyz
  1  'x, y, z'
loop_
 _atom_site_type_symbol
 _atom_site_label
 _atom_site_symmetry_multiplicity
 _atom_site_fract_x
 _atom_site_fract_y
 _atom_site_fract_z
 _atom_site_occupancy
  Ti  Ti0  1  0.75000000  0.90323620  0.76557039  1
  Ti  Ti1  1  0.25000000  0.09676380  0.23442961  1
  Ti  Ti2  1  0.75000000  0.40323620  0.73442961  1
  Ti  Ti3  1  0.25000000  0.59676380  0.26557039  1
  Ti  Ti4  1  0.75000000  0.65609972  0.59842639  1
  Ti  Ti5  1  0.25000000  0.34390028  0.40157361  1
  Ti  Ti6  1  0.75000000  0.15609972  0.90157361  1
  Ti  Ti7  1  0.25000000  0.84390028  0.09842639  1
  Ni  Ni8  1  0.75000000  0.65421171  0.82772359  1
  Ni  Ni9  1  0.25000000  0.34578829  0.17227641  1
  Ni  Ni10  1  0.75000000  0.15421171  0.67227641  1
  Ni  Ni11  1  0.25000000  0.84578829  0.32772359  1
  P  P12  1  0.75000000  0.93273915  0.96435073  1
  P  P13  1  0.25000000  0.06726085  0.03564927  1
  P  P14  1  0.75000000  0.43273915  0.53564927  1
  P  P15  1  0.25000000  0.56726085  0.46435073  1
  P  P16  1  0.75000000  0.92726557  0.22947488  1
  P  P17  1  0.25000000  0.07273443  0.77052512  1
  P  P18  1  0.75000000  0.42726557  0.27052512  1
  P  P19  1  0.25000000  0.57273443  0.72947488  1
  P  P20  1  0.75000000  0.71787010  0.38733620  1
  P  P21  1  0.25000000  0.28212990  0.61266380  1
  P  P22  1  0.75000000  0.21787010  0.11266380  1
  P  P23  1  0.25000000  0.78212990  0.88733620  1
  P  P24  1  0.75000000  0.67617172  0.12609863  1
  P  P25  1  0.25000000  0.32382828  0.87390137  1
  P  P26  1  0.75000000  0.17617172  0.37390137  1
  P  P27  1  0.25000000  0.82382828  0.62609863  1
  P  P28  1  0.75000000  0.56247339  0.98176873  1
  P  P29  1  0.25000000  0.43752661  0.01823127  1
  P  P30  1  0.75000000  0.06247339  0.51823127  1
  P  P31  1  0.25000000  0.93752661  0.48176873  1
