# generated using pymatgen
data_Li4Cr2Cu3Sb3O16
_symmetry_space_group_name_H-M   'P 1'
_cell_length_a   6.10457137
_cell_length_b   6.01675791
_cell_length_c   9.63337785
_cell_angle_alpha   89.99010376
_cell_angle_beta   88.29468728
_cell_angle_gamma   119.56661980
_symmetry_Int_Tables_number   1
_chemical_formula_structural   Li4Cr2Cu3Sb3O16
_chemical_formula_sum   'Li4 Cr2 Cu3 Sb3 O16'
_cell_volume   307.57511027
_cell_formula_units_Z   1
loop_
 _symmetry_equiv_pos_site_id
 _symmetry_equiv_pos_as_xyz
  1  'x, y, z'
loop_
 _atom_site_type_symbol
 _atom_site_label
 _atom_site_symmetry_multiplicity
 _atom_site_fract_x
 _atom_site_fract_y
 _atom_site_fract_z
 _atom_site_occupancy
  Li  Li0  1  0.33927571  0.66963061  0.90448576  1
  Li  Li1  1  0.01127251  0.00545549  0.00515790  1
  Li  Li2  1  0.06548469  0.03286852  0.48048388  1
  Li  Li3  1  0.67983552  0.33985780  0.38488098  1
  Cr  Cr4  1  0.31601537  0.65805478  0.47797063  1
  Cr  Cr5  1  0.64333738  0.32179813  0.99553129  1
  Cu  Cu6  1  0.16611472  0.82968965  0.21150867  1
  Cu  Cu7  1  0.16620189  0.33657151  0.21153754  1
  Cu  Cu8  1  0.33700264  0.16842070  0.71977049  1
  Sb  Sb9  1  0.65267040  0.82634602  0.21551771  1
  Sb  Sb10  1  0.83059649  0.66288718  0.71302432  1
  Sb  Sb11  1  0.83047838  0.16767116  0.71301738  1
  O  O12  1  0.15388227  0.83294081  0.60170672  1
  O  O13  1  0.04859635  0.52464159  0.34389683  1
  O  O14  1  0.33556704  0.66783999  0.10852289  1
  O  O15  1  0.98796043  0.99400388  0.30185287  1
  O  O16  1  0.97070725  0.98534002  0.82096879  1
  O  O17  1  0.15364772  0.32094209  0.60165754  1
  O  O18  1  0.49350601  0.96571927  0.35201940  1
  O  O19  1  0.49200694  0.52651444  0.35162359  1
  O  O20  1  0.32004793  0.15994115  0.09144134  1
  O  O21  1  0.68288642  0.84140411  0.59998224  1
  O  O22  1  0.52485191  0.48723571  0.83881047  1
  O  O23  1  0.52497176  0.03763766  0.83890295  1
  O  O24  1  0.69702851  0.34861859  0.59621159  1
  O  O25  1  0.80651002  0.66074668  0.09353812  1
  O  O26  1  0.96224067  0.48112033  0.84010383  1
  O  O27  1  0.80730307  0.14640413  0.09371626  1
