# generated using pymatgen
data_V3Cr3(WO8)2
_symmetry_space_group_name_H-M   'P 1'
_cell_length_a   6.02658869
_cell_length_b   6.00752449
_cell_length_c   9.25542479
_cell_angle_alpha   89.96616416
_cell_angle_beta   91.07077486
_cell_angle_gamma   120.40610449
_symmetry_Int_Tables_number   1
_chemical_formula_structural   V3Cr3(WO8)2
_chemical_formula_sum   'V3 Cr3 W2 O16'
_cell_volume   288.93721587
_cell_formula_units_Z   1
loop_
 _symmetry_equiv_pos_site_id
 _symmetry_equiv_pos_as_xyz
  1  'x, y, z'
loop_
 _atom_site_type_symbol
 _atom_site_label
 _atom_site_symmetry_multiplicity
 _atom_site_fract_x
 _atom_site_fract_y
 _atom_site_fract_z
 _atom_site_occupancy
  V  V0  1  0.66009918  0.83063559  0.22375012  1
  V  V1  1  0.82869309  0.65595170  0.71799084  1
  V  V2  1  0.83500559  0.17022580  0.71482469  1
  Cr  Cr3  1  0.17087210  0.83225738  0.20812714  1
  Cr  Cr4  1  0.17202700  0.33974152  0.20836492  1
  Cr  Cr5  1  0.33922586  0.16778627  0.70687640  1
  W  W6  1  0.32507612  0.66221897  0.49164818  1
  W  W7  1  0.65906127  0.32752345  0.99337134  1
  O  O8  1  0.17039305  0.82057511  0.59390425  1
  O  O9  1  0.05183684  0.52529266  0.33725443  1
  O  O10  1  0.35496433  0.67817735  0.10919952  1
  O  O11  1  0.98993383  0.99457973  0.30075600  1
  O  O12  1  0.99829154  0.98506643  0.79947772  1
  O  O13  1  0.17425571  0.34757619  0.59468921  1
  O  O14  1  0.48060572  0.95452709  0.34526531  1
  O  O15  1  0.47926235  0.52672878  0.34523267  1
  O  O16  1  0.34527220  0.17495968  0.09496740  1
  O  O17  1  0.64392406  0.82136183  0.59754491  1
  O  O18  1  0.52808771  0.47967234  0.83977276  1
  O  O19  1  0.52138371  0.05087736  0.84314584  1
  O  O20  1  0.67607472  0.34859555  0.60834241  1
  O  O21  1  0.82074891  0.64775998  0.09682203  1
  O  O22  1  0.95271484  0.48202545  0.84735567  1
  O  O23  1  0.82219026  0.17608177  0.09703523  1
