# generated using pymatgen
data_Dy3Se4O12F
_symmetry_space_group_name_H-M   'P 1'
_cell_length_a   10.46302513
_cell_length_b   10.46302533
_cell_length_c   6.88621050
_cell_angle_alpha   90.00000000
_cell_angle_beta   90.00000000
_cell_angle_gamma   119.99999933
_symmetry_Int_Tables_number   1
_chemical_formula_structural   Dy3Se4O12F
_chemical_formula_sum   'Dy6 Se8 O24 F2'
_cell_volume   652.86813785
_cell_formula_units_Z   2
loop_
 _symmetry_equiv_pos_site_id
 _symmetry_equiv_pos_as_xyz
  1  'x, y, z'
loop_
 _atom_site_type_symbol
 _atom_site_label
 _atom_site_symmetry_multiplicity
 _atom_site_fract_x
 _atom_site_fract_y
 _atom_site_fract_z
 _atom_site_occupancy
  Dy  Dy0  1  0.46217871  0.92435743  0.31736547  1
  Dy  Dy1  1  0.07564257  0.53782129  0.31736547  1
  Dy  Dy2  1  0.53782129  0.46217871  0.81736547  1
  Dy  Dy3  1  0.46217871  0.53782129  0.31736547  1
  Dy  Dy4  1  0.53782129  0.07564257  0.81736547  1
  Dy  Dy5  1  0.92435743  0.46217871  0.81736547  1
  Se  Se6  1  0.69004074  0.84502037  0.08430908  1
  Se  Se7  1  0.15497963  0.84502037  0.08430908  1
  Se  Se8  1  0.84502037  0.69004074  0.58430908  1
  Se  Se9  1  0.84502037  0.15497963  0.58430908  1
  Se  Se10  1  0.33333300  0.66666700  0.75134566  1
  Se  Se11  1  0.30995926  0.15497963  0.58430908  1
  Se  Se12  1  0.66666700  0.33333300  0.25134566  1
  Se  Se13  1  0.15497963  0.30995926  0.08430908  1
  O  O14  1  0.41686332  0.08057051  0.51436278  1
  O  O15  1  0.18224898  0.36449797  0.32395048  1
  O  O16  1  0.81775102  0.18224898  0.82395048  1
  O  O17  1  0.66370720  0.08057051  0.51436278  1
  O  O18  1  0.58313668  0.91942949  0.01436278  1
  O  O19  1  0.66370720  0.58313668  0.51436278  1
  O  O20  1  0.81775102  0.63550203  0.82395048  1
  O  O21  1  0.08057051  0.41686332  0.01436278  1
  O  O22  1  0.41919776  0.58080224  0.63865024  1
  O  O23  1  0.41686332  0.33629280  0.51436278  1
  O  O24  1  0.58080224  0.16160448  0.13865024  1
  O  O25  1  0.41919776  0.83839552  0.63865024  1
  O  O26  1  0.33629280  0.41686332  0.01436278  1
  O  O27  1  0.58080224  0.41919776  0.13865024  1
  O  O28  1  0.83839552  0.41919776  0.13865024  1
  O  O29  1  0.58313668  0.66370720  0.01436278  1
  O  O30  1  0.63550203  0.81775102  0.32395048  1
  O  O31  1  0.91942949  0.58313668  0.51436278  1
  O  O32  1  0.18224898  0.81775102  0.32395048  1
  O  O33  1  0.33629280  0.91942949  0.01436278  1
  O  O34  1  0.91942949  0.33629280  0.51436278  1
  O  O35  1  0.36449797  0.18224898  0.82395048  1
  O  O36  1  0.08057051  0.66370720  0.01436278  1
  O  O37  1  0.16160448  0.58080224  0.63865024  1
  F  F38  1  0.66666700  0.33333300  0.77194189  1
  F  F39  1  0.33333300  0.66666700  0.27194189  1
