# generated using pymatgen
data_Zr2N2O
_symmetry_space_group_name_H-M   'P 1'
_cell_length_a   5.54073395
_cell_length_b   5.78298951
_cell_length_c   16.18152605
_cell_angle_alpha   90.04521331
_cell_angle_beta   90.00002928
_cell_angle_gamma   89.74950433
_symmetry_Int_Tables_number   1
_chemical_formula_structural   Zr2N2O
_chemical_formula_sum   'Zr16 N16 O8'
_cell_volume   518.48344289
_cell_formula_units_Z   8
loop_
 _symmetry_equiv_pos_site_id
 _symmetry_equiv_pos_as_xyz
  1  'x, y, z'
loop_
 _atom_site_type_symbol
 _atom_site_label
 _atom_site_symmetry_multiplicity
 _atom_site_fract_x
 _atom_site_fract_y
 _atom_site_fract_z
 _atom_site_occupancy
  Zr  Zr0  1  0.99639038  0.20410866  0.07557433  1
  Zr  Zr1  1  0.98725380  0.74855158  0.18767430  1
  Zr  Zr2  1  0.99069928  0.29530196  0.57182705  1
  Zr  Zr3  1  0.99436989  0.74965211  0.68521862  1
  Zr  Zr4  1  0.50784664  0.25113380  0.18626797  1
  Zr  Zr5  1  0.50497556  0.25033015  0.68579053  1
  Zr  Zr6  1  0.50314133  0.79423993  0.57841295  1
  Zr  Zr7  1  0.50490033  0.70628791  0.07446261  1
  Zr  Zr8  1  0.50934280  0.20593989  0.42828209  1
  Zr  Zr9  1  0.52526333  0.29606484  0.93040870  1
  Zr  Zr10  1  0.48176204  0.76566321  0.30963969  1
  Zr  Zr11  1  0.49905430  0.73690676  0.81364795  1
  Zr  Zr12  1  0.98690910  0.70754791  0.42614698  1
  Zr  Zr13  1  0.00218943  0.24808834  0.31631418  1
  Zr  Zr14  1  0.00474559  0.24098017  0.81382176  1
  Zr  Zr15  1  0.97521645  0.79801851  0.93028039  1
  N  N16  1  0.15803439  0.10688245  0.20139810  1
  N  N17  1  0.15340846  0.39083142  0.70239272  1
  N  N18  1  0.20620137  0.97461666  0.37917173  1
  N  N19  1  0.34421638  0.60895262  0.20126620  1
  N  N20  1  0.34939320  0.88952401  0.70056381  1
  N  N21  1  0.65073045  0.11845532  0.29987365  1
  N  N22  1  0.64592835  0.37479756  0.80033317  1
  N  N23  1  0.63281546  0.66359715  0.94768391  1
  N  N24  1  0.70434801  0.97714547  0.12123314  1
  N  N25  1  0.70425116  0.52278986  0.62202572  1
  N  N26  1  0.79584786  0.47818611  0.12070932  1
  N  N27  1  0.79633676  0.02024167  0.61948641  1
  N  N28  1  0.85841088  0.33724392  0.44864046  1
  N  N29  1  0.86795316  0.16318120  0.94839810  1
  N  N30  1  0.85420422  0.87546195  0.79937409  1
  N  N31  1  0.84717113  0.62198032  0.30085678  1
  O  O32  1  0.15064333  0.83196040  0.04674053  1
  O  O33  1  0.15251996  0.66556702  0.54685617  1
  O  O34  1  0.19630812  0.52552803  0.87662772  1
  O  O35  1  0.30704370  0.48361844  0.37915542  1
  O  O36  1  0.30472443  0.02603058  0.87526612  1
  O  O37  1  0.35142811  0.17082920  0.54835033  1
  O  O38  1  0.35047895  0.33194573  0.04780340  1
  O  O39  1  0.64354291  0.84181820  0.45202391  1
