# generated using pymatgen
data_Li4Ni5Te(PO4)6
_symmetry_space_group_name_H-M   'P 1'
_cell_length_a   8.30417010
_cell_length_b   8.92811660
_cell_length_c   8.93789287
_cell_angle_alpha   60.00401832
_cell_angle_beta   58.14660649
_cell_angle_gamma   58.20565340
_symmetry_Int_Tables_number   1
_chemical_formula_structural   Li4Ni5Te(PO4)6
_chemical_formula_sum   'Li4 Ni5 Te1 P6 O24'
_cell_volume   455.24879228
_cell_formula_units_Z   1
loop_
 _symmetry_equiv_pos_site_id
 _symmetry_equiv_pos_as_xyz
  1  'x, y, z'
loop_
 _atom_site_type_symbol
 _atom_site_label
 _atom_site_symmetry_multiplicity
 _atom_site_fract_x
 _atom_site_fract_y
 _atom_site_fract_z
 _atom_site_occupancy
  Li  Li0  1  0.24247410  0.85624707  0.64294595  1
  Li  Li1  1  0.77243474  0.15947992  0.36258831  1
  Li  Li2  1  0.77049611  0.70358430  0.15642605  1
  Li  Li3  1  0.77827853  0.36765682  0.69898050  1
  Ni  Ni4  1  0.01087069  0.99890204  0.99932963  1
  Ni  Ni5  1  0.05615865  0.64740072  0.65011330  1
  Ni  Ni6  1  0.48645828  0.50101645  0.50190960  1
  Ni  Ni7  1  0.43080789  0.85405172  0.85624725  1
  Ni  Ni8  1  0.95299182  0.34747519  0.34851694  1
  Te  Te9  1  0.53502945  0.15776591  0.15453498  1
  P  P10  1  0.25097069  0.25385131  0.56798581  1
  P  P11  1  0.25034701  0.93117529  0.24813931  1
  P  P12  1  0.24861522  0.56524761  0.93465858  1
  P  P13  1  0.74226296  0.45746640  0.05154228  1
  P  P14  1  0.75365925  0.05079823  0.74794936  1
  P  P15  1  0.72935355  0.75224390  0.45687997  1
  O  O16  1  0.07372168  0.10121042  0.30676556  1
  O  O17  1  0.07273565  0.51363056  0.10424041  1
  O  O18  1  0.07313001  0.31331515  0.51375704  1
  O  O19  1  0.21930214  0.09698858  0.75480231  1
  O  O20  1  0.46383841  0.18340763  0.41879261  1
  O  O21  1  0.26515412  0.41142456  0.58071391  1
  O  O22  1  0.21829502  0.91705764  0.10195277  1
  O  O23  1  0.26663066  0.75218376  0.41495622  1
  O  O24  1  0.55098273  0.60351106  0.01831963  1
  O  O25  1  0.26996035  0.58340502  0.74367154  1
  O  O26  1  0.76834981  0.24614062  0.08308092  1
  O  O27  1  0.57877382  0.99775370  0.81384636  1
  O  O28  1  0.46385001  0.94361616  0.17164625  1
  O  O29  1  0.21274042  0.76228543  0.91679978  1
  O  O30  1  0.72340543  0.43396559  0.24748206  1
  O  O31  1  0.46125038  0.41701192  0.94275129  1
  O  O32  1  0.72790711  0.24541245  0.59307305  1
  O  O33  1  0.76547947  0.08970493  0.90442236  1
  O  O34  1  0.72565233  0.59261282  0.42925586  1
  O  O35  1  0.52216235  0.82506042  0.59599144  1
  O  O36  1  0.76544249  0.90486777  0.24814235  1
  O  O37  1  0.90454887  0.69702009  0.50495473  1
  O  O38  1  0.93557190  0.48280430  0.89985126  1
  O  O39  1  0.95990890  0.90424453  0.68898148  1
