# generated using pymatgen
data_YCo5P3
_symmetry_space_group_name_H-M   'P 1'
_cell_length_a   3.64991286
_cell_length_b   10.27513136
_cell_length_c   11.74068661
_cell_angle_alpha   90.00000000
_cell_angle_beta   90.00000000
_cell_angle_gamma   90.00000000
_symmetry_Int_Tables_number   1
_chemical_formula_structural   YCo5P3
_chemical_formula_sum   'Y4 Co20 P12'
_cell_volume   440.31489237
_cell_formula_units_Z   4
loop_
 _symmetry_equiv_pos_site_id
 _symmetry_equiv_pos_as_xyz
  1  'x, y, z'
loop_
 _atom_site_type_symbol
 _atom_site_label
 _atom_site_symmetry_multiplicity
 _atom_site_fract_x
 _atom_site_fract_y
 _atom_site_fract_z
 _atom_site_occupancy
  Y  Y0  1  0.25000000  0.91700116  0.20283003  1
  Y  Y1  1  0.75000000  0.08299884  0.79716997  1
  Y  Y2  1  0.75000000  0.41700116  0.29716997  1
  Y  Y3  1  0.25000000  0.58299884  0.70283003  1
  Co  Co4  1  0.25000000  0.78432389  0.49082524  1
  Co  Co5  1  0.75000000  0.21567611  0.50917476  1
  Co  Co6  1  0.75000000  0.28432389  0.00917476  1
  Co  Co7  1  0.25000000  0.71567611  0.99082524  1
  Co  Co8  1  0.25000000  0.09333019  0.98817055  1
  Co  Co9  1  0.75000000  0.90666981  0.01182945  1
  Co  Co10  1  0.75000000  0.59333019  0.51182945  1
  Co  Co11  1  0.25000000  0.40666981  0.48817055  1
  Co  Co12  1  0.25000000  0.27885009  0.67660382  1
  Co  Co13  1  0.75000000  0.72114991  0.32339618  1
  Co  Co14  1  0.75000000  0.77885009  0.82339618  1
  Co  Co15  1  0.25000000  0.22114991  0.17660382  1
  Co  Co16  1  0.25000000  0.61754832  0.19838571  1
  Co  Co17  1  0.75000000  0.38245168  0.80161429  1
  Co  Co18  1  0.75000000  0.11754832  0.30161429  1
  Co  Co19  1  0.25000000  0.88245168  0.69838571  1
  Co  Co20  1  0.25000000  0.03237855  0.43192859  1
  Co  Co21  1  0.75000000  0.96762145  0.56807141  1
  Co  Co22  1  0.75000000  0.53237855  0.06807141  1
  Co  Co23  1  0.25000000  0.46762145  0.93192859  1
  P  P24  1  0.25000000  0.08153018  0.61176455  1
  P  P25  1  0.75000000  0.91846982  0.38823545  1
  P  P26  1  0.75000000  0.58153018  0.88823545  1
  P  P27  1  0.25000000  0.41846982  0.11176455  1
  P  P28  1  0.25000000  0.22913177  0.37031896  1
  P  P29  1  0.75000000  0.77086823  0.62968104  1
  P  P30  1  0.75000000  0.72913177  0.12968104  1
  P  P31  1  0.25000000  0.27086823  0.87031896  1
  P  P32  1  0.25000000  0.89773565  0.89144940  1
  P  P33  1  0.75000000  0.10226435  0.10855060  1
  P  P34  1  0.75000000  0.39773565  0.60855060  1
  P  P35  1  0.25000000  0.60226435  0.39144940  1
