# generated using pymatgen
data_NiP4O11
_symmetry_space_group_name_H-M   'P 1'
_cell_length_a   8.16229247
_cell_length_b   9.54506249
_cell_length_c   11.33563613
_cell_angle_alpha   101.12290734
_cell_angle_beta   90.00000000
_cell_angle_gamma   90.00000000
_symmetry_Int_Tables_number   1
_chemical_formula_structural   NiP4O11
_chemical_formula_sum   'Ni4 P16 O44'
_cell_volume   866.56526165
_cell_formula_units_Z   4
loop_
 _symmetry_equiv_pos_site_id
 _symmetry_equiv_pos_as_xyz
  1  'x, y, z'
loop_
 _atom_site_type_symbol
 _atom_site_label
 _atom_site_symmetry_multiplicity
 _atom_site_fract_x
 _atom_site_fract_y
 _atom_site_fract_z
 _atom_site_occupancy
  O  O0  1  0.45772934  0.30334829  0.57368858  1
  O  O1  1  0.95772834  0.19665171  0.92631142  1
  O  O2  1  0.54227166  0.69665171  0.42631142  1
  O  O3  1  0.04227066  0.80334829  0.07368858  1
  O  O4  1  0.98849065  0.63091304  0.66188511  1
  O  O5  1  0.48849065  0.86908696  0.83811489  1
  O  O6  1  0.01151035  0.36908696  0.33811589  1
  O  O7  1  0.51151035  0.13091304  0.16188411  1
  O  O8  1  0.31987953  0.75657439  0.97834929  1
  O  O9  1  0.81987953  0.74342561  0.52165071  1
  O  O10  1  0.68012047  0.24342461  0.02164971  1
  O  O11  1  0.18012147  0.25657539  0.47835029  1
  O  O12  1  0.61683379  0.60299951  0.62180517  1
  O  O13  1  0.11683379  0.89700049  0.87819483  1
  O  O14  1  0.38316621  0.39699949  0.37819483  1
  O  O15  1  0.54960251  0.09641769  0.76852781  1
  O  O16  1  0.06841699  0.63157468  0.87818609  1
  O  O17  1  0.56841699  0.86842532  0.62181391  1
  O  O18  1  0.93158201  0.36842632  0.12181491  1
  O  O19  1  0.43158301  0.13157468  0.37818509  1
  O  O20  1  0.07892872  0.84135534  0.32970299  1
  O  O21  1  0.57892872  0.65864466  0.17029701  1
  O  O22  1  0.92107128  0.15864466  0.67029701  1
  O  O23  1  0.42107028  0.34135534  0.82970299  1
  O  O24  1  0.10337057  0.65943665  0.46467616  1
  O  O25  1  0.60336957  0.84056335  0.03532284  1
  O  O26  1  0.89663043  0.34056235  0.53532384  1
  O  O27  1  0.39662943  0.15943765  0.96467616  1
  O  O28  1  0.75971094  0.88581543  0.23300675  1
  O  O29  1  0.25971194  0.61418457  0.26699225  1
  O  O30  1  0.24028806  0.11418457  0.76699325  1
  O  O31  1  0.74028806  0.38581543  0.73300675  1
  O  O32  1  0.21471054  0.07239037  0.20964176  1
  O  O33  1  0.71470954  0.42760963  0.29035824  1
  O  O34  1  0.78529046  0.92760963  0.79035824  1
  O  O35  1  0.28528946  0.57239037  0.70964176  1
  O  O36  1  0.93300531  0.11726053  0.37185200  1
  O  O37  1  0.43300631  0.38273947  0.12814700  1
  O  O38  1  0.06699469  0.88273947  0.62814800  1
  O  O39  1  0.56699469  0.61726053  0.87185200  1
  O  O40  1  0.95039849  0.59641669  0.26852681  1
  O  O41  1  0.45039749  0.90358331  0.23147319  1
  O  O42  1  0.04960251  0.40358231  0.73147219  1
  O  O43  1  0.88316721  0.10299951  0.12180617  1
  P  P44  1  0.50172283  0.24314372  0.07316320  1
  P  P45  1  0.00172283  0.25685628  0.42683580  1
  P  P46  1  0.49827617  0.75685628  0.92683580  1
  P  P47  1  0.99827617  0.74314372  0.57316420  1
  P  P48  1  0.11185295  0.56068461  0.74416321  1
  P  P49  1  0.61185295  0.93931539  0.75583679  1
  P  P50  1  0.88814605  0.43931439  0.25583679  1
  P  P51  1  0.38814705  0.06068561  0.24416221  1
  P  P52  1  0.38638115  0.18779423  0.82530689  1
  P  P53  1  0.88638115  0.31220477  0.67469311  1
  P  P54  1  0.37463435  0.28915989  0.45573236  1
  P  P55  1  0.11361785  0.68779523  0.32530689  1
  P  P56  1  0.12536665  0.78915889  0.95573136  1
  P  P57  1  0.62536565  0.71084111  0.54426864  1
  P  P58  1  0.87463435  0.21084111  0.04426764  1
  P  P59  1  0.61361785  0.81220477  0.17469211  1
  Ni  Ni60  1  0.51379501  0.46559823  0.71812904  1
  Ni  Ni61  1  0.01379601  0.03440077  0.78187096  1
  Ni  Ni62  1  0.48620499  0.53440177  0.28187096  1
  Ni  Ni63  1  0.98620499  0.96559823  0.21812904  1
