# generated using pymatgen
data_NbTe4I
_symmetry_space_group_name_H-M   'P 1'
_cell_length_a   8.16976959
_cell_length_b   13.47251365
_cell_length_c   16.13728936
_cell_angle_alpha   90.00000000
_cell_angle_beta   90.00000000
_cell_angle_gamma   98.98721943
_symmetry_Int_Tables_number   1
_chemical_formula_structural   NbTe4I
_chemical_formula_sum   'Nb8 Te32 I8'
_cell_volume   1754.38250006
_cell_formula_units_Z   8
loop_
 _symmetry_equiv_pos_site_id
 _symmetry_equiv_pos_as_xyz
  1  'x, y, z'
loop_
 _atom_site_type_symbol
 _atom_site_label
 _atom_site_symmetry_multiplicity
 _atom_site_fract_x
 _atom_site_fract_y
 _atom_site_fract_z
 _atom_site_occupancy
  Nb  Nb0  1  0.75375968  0.50446528  0.74926874  1
  Nb  Nb1  1  0.24512828  0.24437219  0.24415105  1
  Nb  Nb2  1  0.75487172  0.75562781  0.75584895  1
  Nb  Nb3  1  0.75375968  0.00446528  0.75073126  1
  Nb  Nb4  1  0.24624032  0.99553472  0.24926874  1
  Nb  Nb5  1  0.24624032  0.49553472  0.25073126  1
  Nb  Nb6  1  0.24512828  0.74437219  0.25584895  1
  Nb  Nb7  1  0.75487172  0.25562781  0.74415105  1
  Te  Te8  1  0.52597082  0.64720697  0.21925155  1
  Te  Te9  1  0.47402918  0.35279303  0.78074845  1
  Te  Te10  1  0.01047193  0.83490422  0.16763335  1
  Te  Te11  1  0.74323345  0.37546903  0.89092137  1
  Te  Te12  1  0.98952807  0.66509578  0.66763335  1
  Te  Te13  1  0.25676655  0.62453097  0.10907863  1
  Te  Te14  1  0.52266486  0.60311964  0.66451825  1
  Te  Te15  1  0.47402918  0.85279303  0.71925155  1
  Te  Te16  1  0.03285483  0.90874294  0.79056698  1
  Te  Te17  1  0.47707208  0.88595187  0.34004434  1
  Te  Te18  1  0.01740760  0.86008694  0.34272030  1
  Te  Te19  1  0.52266486  0.10311964  0.83548175  1
  Te  Te20  1  0.74323345  0.87546903  0.60907863  1
  Te  Te21  1  0.03285483  0.40874294  0.70943302  1
  Te  Te22  1  0.96714517  0.59125706  0.29056698  1
  Te  Te23  1  0.47733514  0.89688036  0.16451825  1
  Te  Te24  1  0.47733514  0.39688036  0.33548175  1
  Te  Te25  1  0.52292792  0.61404813  0.84004434  1
  Te  Te26  1  0.01740760  0.36008694  0.15727970  1
  Te  Te27  1  0.75998329  0.88535308  0.89916000  1
  Te  Te28  1  0.25676655  0.12453097  0.39092137  1
  Te  Te29  1  0.98259240  0.63991306  0.84272030  1
  Te  Te30  1  0.98259240  0.13991306  0.65727970  1
  Te  Te31  1  0.96714517  0.09125706  0.20943302  1
  Te  Te32  1  0.01047193  0.33490422  0.33236665  1
  Te  Te33  1  0.47707208  0.38595187  0.15995566  1
  Te  Te34  1  0.24001671  0.11464692  0.10084000  1
  Te  Te35  1  0.52597082  0.14720697  0.28074845  1
  Te  Te36  1  0.24001671  0.61464692  0.39916000  1
  Te  Te37  1  0.75998329  0.38535308  0.60084000  1
  Te  Te38  1  0.98952807  0.16509578  0.83236665  1
  Te  Te39  1  0.52292792  0.11404813  0.65995566  1
  I  I40  1  0.37996346  0.85622368  0.96942959  1
  I  I41  1  0.87455945  0.61732408  0.03466163  1
  I  I42  1  0.37996346  0.35622368  0.53057041  1
  I  I43  1  0.87455945  0.11732408  0.46533837  1
  I  I44  1  0.62003654  0.64377632  0.46942959  1
  I  I45  1  0.12544055  0.88267592  0.53466163  1
  I  I46  1  0.62003654  0.14377632  0.03057041  1
  I  I47  1  0.12544055  0.38267592  0.96533837  1
