# generated using pymatgen
data_Nb2P
_symmetry_space_group_name_H-M   'P 1'
_cell_length_a   3.46452065
_cell_length_b   13.93145624
_cell_length_c   18.11292553
_cell_angle_alpha   90.00000000
_cell_angle_beta   90.00000000
_cell_angle_gamma   90.00000000
_symmetry_Int_Tables_number   1
_chemical_formula_structural   Nb2P
_chemical_formula_sum   'Nb36 P18'
_cell_volume   874.23516396
_cell_formula_units_Z   18
loop_
 _symmetry_equiv_pos_site_id
 _symmetry_equiv_pos_as_xyz
  1  'x, y, z'
loop_
 _atom_site_type_symbol
 _atom_site_label
 _atom_site_symmetry_multiplicity
 _atom_site_fract_x
 _atom_site_fract_y
 _atom_site_fract_z
 _atom_site_occupancy
  Nb  Nb0  1  0.00000000  0.34348484  0.06219968  1
  Nb  Nb1  1  0.00000000  0.65651516  0.93780032  1
  Nb  Nb2  1  0.00000000  0.34348484  0.43780032  1
  Nb  Nb3  1  0.00000000  0.65651516  0.56219968  1
  Nb  Nb4  1  0.00000000  0.56978372  0.12069510  1
  Nb  Nb5  1  0.00000000  0.43021628  0.87930490  1
  Nb  Nb6  1  0.00000000  0.56978372  0.37930490  1
  Nb  Nb7  1  0.00000000  0.43021628  0.62069510  1
  Nb  Nb8  1  0.50000000  0.16187899  0.00107421  1
  Nb  Nb9  1  0.50000000  0.83812101  0.99892579  1
  Nb  Nb10  1  0.50000000  0.16187899  0.49892579  1
  Nb  Nb11  1  0.50000000  0.83812101  0.50107421  1
  Nb  Nb12  1  0.50000000  0.00335728  0.14162924  1
  Nb  Nb13  1  0.50000000  0.99664272  0.85837076  1
  Nb  Nb14  1  0.50000000  0.00335728  0.35837076  1
  Nb  Nb15  1  0.50000000  0.99664272  0.64162924  1
  Nb  Nb16  1  0.50000000  0.24000359  0.16534918  1
  Nb  Nb17  1  0.50000000  0.75999641  0.83465082  1
  Nb  Nb18  1  0.50000000  0.24000359  0.33465082  1
  Nb  Nb19  1  0.50000000  0.75999641  0.66534918  1
  Nb  Nb20  1  0.50000000  0.23851452  0.66235507  1
  Nb  Nb21  1  0.50000000  0.76148548  0.33764493  1
  Nb  Nb22  1  0.50000000  0.23851452  0.83764493  1
  Nb  Nb23  1  0.50000000  0.76148548  0.16235507  1
  Nb  Nb24  1  0.00000000  0.11650062  0.25000000  1
  Nb  Nb25  1  0.00000000  0.88349938  0.75000000  1
  Nb  Nb26  1  0.00000000  0.38600498  0.25000000  1
  Nb  Nb27  1  0.00000000  0.61399502  0.75000000  1
  Nb  Nb28  1  0.00000000  0.88853345  0.25000000  1
  Nb  Nb29  1  0.00000000  0.11146655  0.75000000  1
  Nb  Nb30  1  0.50000000  0.56094027  0.25000000  1
  Nb  Nb31  1  0.50000000  0.43905973  0.75000000  1
  Nb  Nb32  1  0.50000000  0.50000000  0.00000000  1
  Nb  Nb33  1  0.50000000  0.50000000  0.50000000  1
  Nb  Nb34  1  0.00000000  0.00000000  0.00000000  1
  Nb  Nb35  1  0.00000000  0.00000000  0.50000000  1
  P  P36  1  0.00000000  0.13651493  0.10376066  1
  P  P37  1  0.00000000  0.86348507  0.89623934  1
  P  P38  1  0.00000000  0.13651493  0.39623934  1
  P  P39  1  0.00000000  0.86348507  0.60376066  1
  P  P40  1  0.00000000  0.12794051  0.60422320  1
  P  P41  1  0.00000000  0.87205949  0.39577680  1
  P  P42  1  0.00000000  0.12794051  0.89577680  1
  P  P43  1  0.00000000  0.87205949  0.10422320  1
  P  P44  1  0.50000000  0.43153212  0.14393801  1
  P  P45  1  0.50000000  0.56846788  0.85606199  1
  P  P46  1  0.50000000  0.43153212  0.35606199  1
  P  P47  1  0.50000000  0.56846788  0.64393801  1
  P  P48  1  0.50000000  0.32951298  0.54526689  1
  P  P49  1  0.50000000  0.67048702  0.45473311  1
  P  P50  1  0.50000000  0.32951298  0.95473311  1
  P  P51  1  0.50000000  0.67048702  0.04526689  1
  P  P52  1  0.00000000  0.69029924  0.25000000  1
  P  P53  1  0.00000000  0.30970076  0.75000000  1
