# generated using pymatgen
data_Na3B5Pt9
_symmetry_space_group_name_H-M   'P 1'
_cell_length_a   5.61667726
_cell_length_b   6.40957280
_cell_length_c   15.27784964
_cell_angle_alpha   90.00000000
_cell_angle_beta   90.00000000
_cell_angle_gamma   115.98574728
_symmetry_Int_Tables_number   1
_chemical_formula_structural   Na3B5Pt9
_chemical_formula_sum   'Na6 B10 Pt18'
_cell_volume   494.40590292
_cell_formula_units_Z   2
loop_
 _symmetry_equiv_pos_site_id
 _symmetry_equiv_pos_as_xyz
  1  'x, y, z'
loop_
 _atom_site_type_symbol
 _atom_site_label
 _atom_site_symmetry_multiplicity
 _atom_site_fract_x
 _atom_site_fract_y
 _atom_site_fract_z
 _atom_site_occupancy
  Pt  Pt0  1  0.00000000  0.00000000  0.00000000  1
  Pt  Pt1  1  0.00000000  0.00000000  0.50000000  1
  Pt  Pt2  1  0.83334619  0.17394744  0.25000000  1
  Pt  Pt3  1  0.65939875  0.82605256  0.75000000  1
  Pt  Pt4  1  0.16665381  0.82605256  0.75000000  1
  Pt  Pt5  1  0.34060125  0.17394744  0.25000000  1
  Pt  Pt6  1  0.87221378  0.74442755  0.15697667  1
  Pt  Pt7  1  0.12778622  0.25557245  0.84302333  1
  Pt  Pt8  1  0.12778622  0.25557245  0.65697667  1
  Pt  Pt9  1  0.87221378  0.74442755  0.34302333  1
  Pt  Pt10  1  0.93634469  0.36793216  0.07897143  1
  Pt  Pt11  1  0.56841253  0.63206784  0.92102857  1
  Pt  Pt12  1  0.06365531  0.63206784  0.57897143  1
  Pt  Pt13  1  0.43158747  0.36793216  0.42102857  1
  Pt  Pt14  1  0.06365531  0.63206784  0.92102857  1
  Pt  Pt15  1  0.43158747  0.36793216  0.07897143  1
  Pt  Pt16  1  0.93634469  0.36793216  0.42102857  1
  Pt  Pt17  1  0.56841253  0.63206784  0.57897143  1
  Na  Na18  1  0.68595178  0.37190356  0.75000000  1
  Na  Na19  1  0.31404822  0.62809644  0.25000000  1
  Na  Na20  1  0.44104636  0.88209271  0.08673021  1
  Na  Na21  1  0.55895364  0.11790729  0.91326979  1
  Na  Na22  1  0.55895364  0.11790729  0.58673021  1
  Na  Na23  1  0.44104636  0.88209271  0.41326979  1
  B  B24  1  0.05584273  0.11168545  0.14654257  1
  B  B25  1  0.94415727  0.88831455  0.85345743  1
  B  B26  1  0.94415727  0.88831455  0.64654257  1
  B  B27  1  0.05584273  0.11168545  0.35345743  1
  B  B28  1  0.81041943  0.62083886  0.02777860  1
  B  B29  1  0.18958057  0.37916114  0.97222140  1
  B  B30  1  0.18958057  0.37916114  0.52777860  1
  B  B31  1  0.81041943  0.62083886  0.47222140  1
  B  B32  1  0.27249780  0.54499559  0.75000000  1
  B  B33  1  0.72750220  0.45500441  0.25000000  1
