# generated using pymatgen
data_InSeI
_symmetry_space_group_name_H-M   'P 1'
_cell_length_a   10.39795316
_cell_length_b   14.63792611
_cell_length_c   14.63621535
_cell_angle_alpha   82.74017184
_cell_angle_beta   69.17144400
_cell_angle_gamma   69.17563015
_symmetry_Int_Tables_number   1
_chemical_formula_structural   InSeI
_chemical_formula_sum   'In16 Se16 I16'
_cell_volume   1946.09916030
_cell_formula_units_Z   16
loop_
 _symmetry_equiv_pos_site_id
 _symmetry_equiv_pos_as_xyz
  1  'x, y, z'
loop_
 _atom_site_type_symbol
 _atom_site_label
 _atom_site_symmetry_multiplicity
 _atom_site_fract_x
 _atom_site_fract_y
 _atom_site_fract_z
 _atom_site_occupancy
  In  In0  1  0.85112490  0.17433028  0.10938207  1
  In  In1  1  0.96055595  0.39042147  0.17445790  1
  In  In2  1  0.52536954  0.10951272  0.32514686  1
  In  In3  1  0.13462794  0.32576911  0.39070299  1
  In  In4  1  0.14887510  0.82566972  0.89061793  1
  In  In5  1  0.03944405  0.60957853  0.82554210  1
  In  In6  1  0.47463046  0.89048728  0.67485314  1
  In  In7  1  0.86537206  0.67423089  0.60929701  1
  In  In8  1  0.42292333  0.29725974  0.10099665  1
  In  In9  1  0.52391172  0.39888884  0.29693161  1
  In  In10  1  0.22020453  0.10135584  0.20285496  1
  In  In11  1  0.82116849  0.20260486  0.39866721  1
  In  In12  1  0.57707667  0.70274026  0.89900335  1
  In  In13  1  0.47608828  0.60111116  0.70306839  1
  In  In14  1  0.77979547  0.89864416  0.79714504  1
  In  In15  1  0.17883151  0.79739514  0.60133279  1
  Se  Se16  1  0.61588972  0.12784931  0.13193277  1
  Se  Se17  1  0.74839113  0.36768779  0.12768913  1
  Se  Se18  1  0.24349940  0.13243327  0.37228567  1
  Se  Se19  1  0.87584014  0.37196618  0.36783681  1
  Se  Se20  1  0.38411028  0.87215069  0.86806723  1
  Se  Se21  1  0.25160887  0.63231221  0.87231087  1
  Se  Se22  1  0.75650060  0.86756673  0.62771433  1
  Se  Se23  1  0.12415986  0.62803382  0.63216319  1
  Se  Se24  1  0.96013345  0.07820225  0.25000094  1
  Se  Se25  1  0.21015938  0.24981253  0.07808222  1
  Se  Se26  1  0.53798139  0.25012321  0.42138434  1
  Se  Se27  1  0.28806261  0.42171776  0.24970808  1
  Se  Se28  1  0.03986655  0.92179775  0.74999906  1
  Se  Se29  1  0.78984062  0.75018747  0.92191778  1
  Se  Se30  1  0.46201861  0.74987679  0.57861566  1
  Se  Se31  1  0.71193739  0.57828224  0.75029192  1
  I  I32  1  0.04346767  0.13317403  0.92478307  1
  I  I33  1  0.96827482  0.57500244  0.13336629  1
  I  I34  1  0.67641614  0.92495301  0.36663727  1
  I  I35  1  0.10149061  0.36680153  0.57526507  1
  I  I36  1  0.95653233  0.86682597  0.07521693  1
  I  I37  1  0.03172518  0.42499756  0.86663371  1
  I  I38  1  0.32358386  0.07504699  0.63336273  1
  I  I39  1  0.89850939  0.63319847  0.42473493  1
  I  I40  1  0.55885842  0.36319957  0.92458476  1
  I  I41  1  0.48319614  0.57520709  0.36316920  1
  I  I42  1  0.42175073  0.92479207  0.13696016  1
  I  I43  1  0.84630145  0.13686861  0.57523493  1
  I  I44  1  0.44114158  0.63680043  0.07541524  1
  I  I45  1  0.51680386  0.42479291  0.63683080  1
  I  I46  1  0.57824927  0.07520793  0.86303984  1
  I  I47  1  0.15369855  0.86313139  0.42476507  1
