# generated using pymatgen
data_Ta3Te14Pd3
_symmetry_space_group_name_H-M   'P 1'
_cell_length_a   3.79574000
_cell_length_b   14.82459064
_cell_length_c   21.26101747
_cell_angle_alpha   106.12753626
_cell_angle_beta   90.00000000
_cell_angle_gamma   90.00000000
_symmetry_Int_Tables_number   1
_chemical_formula_structural   Ta3Te14Pd3
_chemical_formula_sum   'Ta6 Te28 Pd6'
_cell_volume   1149.28167986
_cell_formula_units_Z   2
loop_
 _symmetry_equiv_pos_site_id
 _symmetry_equiv_pos_as_xyz
  1  'x, y, z'
loop_
 _atom_site_type_symbol
 _atom_site_label
 _atom_site_symmetry_multiplicity
 _atom_site_fract_x
 _atom_site_fract_y
 _atom_site_fract_z
 _atom_site_occupancy
  Ta  Ta0  1  0.75000000  0.69982555  0.45600024  1
  Ta  Ta1  1  0.25000000  0.30017445  0.54399976  1
  Ta  Ta2  1  0.75000000  0.05393379  0.81041297  1
  Ta  Ta3  1  0.25000000  0.94606621  0.18958703  1
  Ta  Ta4  1  0.75000000  0.42401683  0.15543554  1
  Ta  Ta5  1  0.25000000  0.57598317  0.84456446  1
  Pd  Pd6  1  0.25000000  0.25114542  0.98113145  1
  Pd  Pd7  1  0.75000000  0.74885458  0.01886855  1
  Pd  Pd8  1  0.25000000  0.87104934  0.63467762  1
  Pd  Pd9  1  0.75000000  0.12895066  0.36532238  1
  Pd  Pd10  1  0.25000000  0.51887347  0.27261674  1
  Pd  Pd11  1  0.75000000  0.48112653  0.72738326  1
  Te  Te12  1  0.25000000  0.68658638  0.55342358  1
  Te  Te13  1  0.75000000  0.31341362  0.44657642  1
  Te  Te14  1  0.75000000  0.86031725  0.72356142  1
  Te  Te15  1  0.25000000  0.13968275  0.27643858  1
  Te  Te16  1  0.75000000  0.38817537  0.01291686  1
  Te  Te17  1  0.25000000  0.61182463  0.98708314  1
  Te  Te18  1  0.25000000  0.27708134  0.11285554  1
  Te  Te19  1  0.75000000  0.72291866  0.88714446  1
  Te  Te20  1  0.25000000  0.55056004  0.41258145  1
  Te  Te21  1  0.75000000  0.44943996  0.58741855  1
  Te  Te22  1  0.25000000  0.81310594  0.41009508  1
  Te  Te23  1  0.75000000  0.18689406  0.58990492  1
  Te  Te24  1  0.75000000  0.11358930  0.95311056  1
  Te  Te25  1  0.25000000  0.88641070  0.04688944  1
  Te  Te26  1  0.25000000  0.20482089  0.84623231  1
  Te  Te27  1  0.75000000  0.79517911  0.15376769  1
  Te  Te28  1  0.75000000  0.65820942  0.31383050  1
  Te  Te29  1  0.25000000  0.34179058  0.68616950  1
  Te  Te30  1  0.25000000  0.05392518  0.70936331  1
  Te  Te31  1  0.75000000  0.94607482  0.29063669  1
  Te  Te32  1  0.75000000  0.38305303  0.27019319  1
  Te  Te33  1  0.25000000  0.61694697  0.72980681  1
  Te  Te34  1  0.25000000  0.94555948  0.86048910  1
  Te  Te35  1  0.75000000  0.05444052  0.13951090  1
  Te  Te36  1  0.25000000  0.55966893  0.15254850  1
  Te  Te37  1  0.75000000  0.44033107  0.84745150  1
  Te  Te38  1  0.75000000  0.88912232  0.54710777  1
  Te  Te39  1  0.25000000  0.11087768  0.45289223  1
