# generated using pymatgen
data_Cu(BiO2)2
_symmetry_space_group_name_H-M   'P 1'
_cell_length_a   6.04207199
_cell_length_b   8.49117366
_cell_length_c   8.49117366
_cell_angle_alpha   90.00000000
_cell_angle_beta   90.00000000
_cell_angle_gamma   90.00000000
_symmetry_Int_Tables_number   1
_chemical_formula_structural   Cu(BiO2)2
_chemical_formula_sum   'Cu4 Bi8 O16'
_cell_volume   435.63357249
_cell_formula_units_Z   4
loop_
 _symmetry_equiv_pos_site_id
 _symmetry_equiv_pos_as_xyz
  1  'x, y, z'
loop_
 _atom_site_type_symbol
 _atom_site_label
 _atom_site_symmetry_multiplicity
 _atom_site_fract_x
 _atom_site_fract_y
 _atom_site_fract_z
 _atom_site_occupancy
  Bi  Bi0  1  0.25000000  0.42020539  0.92020539  1
  Bi  Bi1  1  0.25000000  0.57979461  0.42020539  1
  Bi  Bi2  1  0.25000000  0.92020539  0.07979461  1
  Bi  Bi3  1  0.25000000  0.07979461  0.57979461  1
  Bi  Bi4  1  0.75000000  0.57979461  0.07979461  1
  Bi  Bi5  1  0.75000000  0.42020539  0.57979461  1
  Bi  Bi6  1  0.75000000  0.07979461  0.92020539  1
  Bi  Bi7  1  0.75000000  0.92020539  0.42020539  1
  Cu  Cu8  1  0.07543706  0.25000000  0.25000000  1
  Cu  Cu9  1  0.42456294  0.75000000  0.75000000  1
  Cu  Cu10  1  0.92456294  0.75000000  0.75000000  1
  Cu  Cu11  1  0.57543706  0.25000000  0.25000000  1
  O  O12  1  0.91137593  0.54210948  0.84937969  1
  O  O13  1  0.91137593  0.65062031  0.54210948  1
  O  O14  1  0.91137593  0.84937969  0.95789052  1
  O  O15  1  0.91137593  0.95789052  0.65062031  1
  O  O16  1  0.58862407  0.04210948  0.15062031  1
  O  O17  1  0.58862407  0.45789052  0.34937969  1
  O  O18  1  0.58862407  0.34937969  0.04210948  1
  O  O19  1  0.58862407  0.15062031  0.45789052  1
  O  O20  1  0.08862407  0.45789052  0.15062031  1
  O  O21  1  0.08862407  0.34937969  0.45789052  1
  O  O22  1  0.08862407  0.15062031  0.04210948  1
  O  O23  1  0.08862407  0.04210948  0.34937969  1
  O  O24  1  0.41137593  0.95789052  0.84937969  1
  O  O25  1  0.41137593  0.54210948  0.65062031  1
  O  O26  1  0.41137593  0.65062031  0.95789052  1
  O  O27  1  0.41137593  0.84937969  0.54210948  1
