# generated using pymatgen
data_BaPuO3
_symmetry_space_group_name_H-M   'P 1'
_cell_length_a   6.20219593
_cell_length_b   6.23904291
_cell_length_c   8.76187339
_cell_angle_alpha   90.00000000
_cell_angle_beta   90.00000000
_cell_angle_gamma   90.00000000
_symmetry_Int_Tables_number   1
_chemical_formula_structural   BaPuO3
_chemical_formula_sum   'Ba4 Pu4 O12'
_cell_volume   339.04740718
_cell_formula_units_Z   4
loop_
 _symmetry_equiv_pos_site_id
 _symmetry_equiv_pos_as_xyz
  1  'x, y, z'
loop_
 _atom_site_type_symbol
 _atom_site_label
 _atom_site_symmetry_multiplicity
 _atom_site_fract_x
 _atom_site_fract_y
 _atom_site_fract_z
 _atom_site_occupancy
  Ba  Ba0  1  0.98505090  0.00460354  0.75000000  1
  Ba  Ba1  1  0.48505090  0.49539646  0.75000000  1
  Ba  Ba2  1  0.51494910  0.50460354  0.25000000  1
  Ba  Ba3  1  0.01494910  0.99539646  0.25000000  1
  Pu  Pu4  1  0.50000000  0.00000000  0.00000000  1
  Pu  Pu5  1  0.00000000  0.50000000  0.50000000  1
  Pu  Pu6  1  0.00000000  0.50000000  0.00000000  1
  Pu  Pu7  1  0.50000000  0.00000000  0.50000000  1
  O  O8  1  0.51072835  0.93160753  0.75000000  1
  O  O9  1  0.01072835  0.56839247  0.75000000  1
  O  O10  1  0.98927165  0.43160753  0.25000000  1
  O  O11  1  0.48927165  0.06839247  0.25000000  1
  O  O12  1  0.72837850  0.27129826  0.96358083  1
  O  O13  1  0.22837850  0.22870174  0.53641917  1
  O  O14  1  0.77162150  0.77129826  0.03641917  1
  O  O15  1  0.27162150  0.72870174  0.46358083  1
  O  O16  1  0.27162150  0.72870174  0.03641917  1
  O  O17  1  0.77162150  0.77129826  0.46358083  1
  O  O18  1  0.22837850  0.22870174  0.96358083  1
  O  O19  1  0.72837850  0.27129826  0.53641917  1
