# generated using pymatgen
data_Gd3Sb5O12
_symmetry_space_group_name_H-M   'P 1'
_cell_length_a   9.52504118
_cell_length_b   9.52504071
_cell_length_c   9.52504133
_cell_angle_alpha   109.47122414
_cell_angle_beta   109.47122314
_cell_angle_gamma   109.47121603
_symmetry_Int_Tables_number   1
_chemical_formula_structural   Gd3Sb5O12
_chemical_formula_sum   'Gd6 Sb10 O24'
_cell_volume   665.24048763
_cell_formula_units_Z   2
loop_
 _symmetry_equiv_pos_site_id
 _symmetry_equiv_pos_as_xyz
  1  'x, y, z'
loop_
 _atom_site_type_symbol
 _atom_site_label
 _atom_site_symmetry_multiplicity
 _atom_site_fract_x
 _atom_site_fract_y
 _atom_site_fract_z
 _atom_site_occupancy
  Gd  Gd0  1  0.50000000  0.25000000  0.75000000  1
  Gd  Gd1  1  0.75000000  0.50000000  0.25000000  1
  Gd  Gd2  1  0.25000000  0.50000000  0.75000000  1
  Gd  Gd3  1  0.75000000  0.25000000  0.50000000  1
  Gd  Gd4  1  0.25000000  0.75000000  0.50000000  1
  Gd  Gd5  1  0.50000000  0.75000000  0.25000000  1
  Sb  Sb6  1  0.28250348  0.28250348  0.00000000  1
  Sb  Sb7  1  0.71749652  0.71749652  1.00000000  1
  Sb  Sb8  1  1.00000000  0.71749652  0.71749652  1
  Sb  Sb9  1  0.00000000  0.28250348  0.28250348  1
  Sb  Sb10  1  0.28250348  1.00000000  0.28250348  1
  Sb  Sb11  1  0.71749652  0.00000000  0.71749652  1
  Sb  Sb12  1  0.48950422  0.48950422  0.48950422  1
  Sb  Sb13  1  0.51049578  0.00000000  1.00000000  1
  Sb  Sb14  1  0.00000000  0.51049578  1.00000000  1
  Sb  Sb15  1  1.00000000  1.00000000  0.51049578  1
  O  O16  1  0.20051908  0.49511398  0.49511398  1
  O  O17  1  0.50488602  0.00000000  0.70540510  1
  O  O18  1  0.29459490  0.79948092  0.29459490  1
  O  O19  1  0.29459490  0.29459490  0.79948092  1
  O  O20  1  0.50488602  0.70540510  0.00000000  1
  O  O21  1  0.00000000  0.50488602  0.70540510  1
  O  O22  1  1.00000000  0.70540510  0.50488602  1
  O  O23  1  0.70540510  0.50488602  1.00000000  1
  O  O24  1  0.70540510  1.00000000  0.50488602  1
  O  O25  1  0.49511398  0.20051908  0.49511398  1
  O  O26  1  0.49511398  0.49511398  0.20051908  1
  O  O27  1  0.79948092  0.29459490  0.29459490  1
  O  O28  1  0.72390710  0.52416563  0.52416563  1
  O  O29  1  0.47583437  1.00000000  0.19974148  1
  O  O30  1  0.80025852  0.27609290  0.80025852  1
  O  O31  1  0.80025852  0.80025852  0.27609290  1
  O  O32  1  0.47583437  0.19974148  1.00000000  1
  O  O33  1  1.00000000  0.47583437  0.19974148  1
  O  O34  1  0.00000000  0.19974148  0.47583437  1
  O  O35  1  0.19974148  0.47583437  0.00000000  1
  O  O36  1  0.19974148  0.00000000  0.47583437  1
  O  O37  1  0.52416563  0.72390710  0.52416563  1
  O  O38  1  0.52416563  0.52416563  0.72390710  1
  O  O39  1  0.27609290  0.80025852  0.80025852  1
