# generated using pymatgen
data_Na(CuO)2
_symmetry_space_group_name_H-M   'P 1'
_cell_length_a   2.98108134
_cell_length_b   6.20003417
_cell_length_c   13.29617444
_cell_angle_alpha   90.00000000
_cell_angle_beta   90.00000000
_cell_angle_gamma   90.00000000
_symmetry_Int_Tables_number   1
_chemical_formula_structural   Na(CuO)2
_chemical_formula_sum   'Na4 Cu8 O8'
_cell_volume   245.75061500
_cell_formula_units_Z   4
loop_
 _symmetry_equiv_pos_site_id
 _symmetry_equiv_pos_as_xyz
  1  'x, y, z'
loop_
 _atom_site_type_symbol
 _atom_site_label
 _atom_site_symmetry_multiplicity
 _atom_site_fract_x
 _atom_site_fract_y
 _atom_site_fract_z
 _atom_site_occupancy
  Cu  Cu0  1  0.75000000  0.86633426  0.38708299  1
  Cu  Cu1  1  0.25000000  0.13366574  0.61291701  1
  Cu  Cu2  1  0.75000000  0.36633426  0.11291701  1
  Cu  Cu3  1  0.25000000  0.63366574  0.88708299  1
  Cu  Cu4  1  0.75000000  0.38647327  0.74203979  1
  Cu  Cu5  1  0.25000000  0.61352673  0.25796021  1
  Cu  Cu6  1  0.75000000  0.88647327  0.75796021  1
  Cu  Cu7  1  0.25000000  0.11352673  0.24203979  1
  Na  Na8  1  0.75000000  0.35129451  0.42248779  1
  Na  Na9  1  0.25000000  0.64870549  0.57751221  1
  Na  Na10  1  0.75000000  0.85129451  0.07751221  1
  Na  Na11  1  0.25000000  0.14870549  0.92248779  1
  O  O12  1  0.75000000  0.35167880  0.60260870  1
  O  O13  1  0.25000000  0.64832120  0.39739130  1
  O  O14  1  0.75000000  0.85167880  0.89739130  1
  O  O15  1  0.25000000  0.14832120  0.10260870  1
  O  O16  1  0.75000000  0.92093397  0.62001988  1
  O  O17  1  0.25000000  0.07906603  0.37998012  1
  O  O18  1  0.75000000  0.42093397  0.87998012  1
  O  O19  1  0.25000000  0.57906603  0.12001988  1
