# generated using pymatgen
data_UPO5
_symmetry_space_group_name_H-M   'P 1'
_cell_length_a   5.52418269
_cell_length_b   8.91110472
_cell_length_c   9.35239843
_cell_angle_alpha   101.89727867
_cell_angle_beta   103.11591057
_cell_angle_gamma   97.85309629
_symmetry_Int_Tables_number   1
_chemical_formula_structural   UPO5
_chemical_formula_sum   'U4 P4 O20'
_cell_volume   430.54208733
_cell_formula_units_Z   4
loop_
 _symmetry_equiv_pos_site_id
 _symmetry_equiv_pos_as_xyz
  1  'x, y, z'
loop_
 _atom_site_type_symbol
 _atom_site_label
 _atom_site_symmetry_multiplicity
 _atom_site_fract_x
 _atom_site_fract_y
 _atom_site_fract_z
 _atom_site_occupancy
  U  U0  1  0.35290631  0.29718157  0.04869367  1
  U  U1  1  0.64709369  0.70281843  0.95130633  1
  U  U2  1  0.33807405  0.80327532  0.55281159  1
  U  U3  1  0.66192595  0.19672468  0.44718841  1
  P  P4  1  0.09217792  0.51526529  0.76340869  1
  P  P5  1  0.90782208  0.48473471  0.23659131  1
  P  P6  1  0.28031203  0.92180997  0.17849491  1
  P  P7  1  0.71968797  0.07819003  0.82150509  1
  O  O8  1  0.00315705  0.14229011  0.89572335  1
  O  O9  1  0.99684295  0.85770989  0.10427665  1
  O  O10  1  0.97564134  0.37702803  0.62959832  1
  O  O11  1  0.02435866  0.62297197  0.37040168  1
  O  O12  1  0.72330297  0.35555057  0.26969603  1
  O  O13  1  0.27669703  0.64444943  0.73030397  1
  O  O14  1  0.43164976  0.81557267  0.09404703  1
  O  O15  1  0.56835024  0.18442733  0.90595297  1
  O  O16  1  0.42957604  0.30614904  0.49571787  1
  O  O17  1  0.57042396  0.69385096  0.50428213  1
  O  O18  1  0.88298838  0.58751346  0.82475307  1
  O  O19  1  0.11701162  0.41248654  0.17524693  1
  O  O20  1  0.27713785  0.47126710  0.89637816  1
  O  O21  1  0.72286215  0.52873290  0.10362184  1
  O  O22  1  0.88655431  0.08851805  0.38583483  1
  O  O23  1  0.11344569  0.91148195  0.61416517  1
  O  O24  1  0.35611213  0.93096889  0.34979002  1
  O  O25  1  0.64388787  0.06903111  0.65020998  1
  O  O26  1  0.36153404  0.09362453  0.16979742  1
  O  O27  1  0.63846596  0.90637547  0.83020258  1
