# generated using pymatgen
data_Sr(BrO3)2
_symmetry_space_group_name_H-M   'P 1'
_cell_length_a   7.53503767
_cell_length_b   7.18664548
_cell_length_c   7.18664536
_cell_angle_alpha   114.68458869
_cell_angle_beta   74.60718646
_cell_angle_gamma   74.60718825
_symmetry_Int_Tables_number   1
_chemical_formula_structural   Sr(BrO3)2
_chemical_formula_sum   'Sr2 Br4 O12'
_cell_volume   307.86948631
_cell_formula_units_Z   2
loop_
 _symmetry_equiv_pos_site_id
 _symmetry_equiv_pos_as_xyz
  1  'x, y, z'
loop_
 _atom_site_type_symbol
 _atom_site_label
 _atom_site_symmetry_multiplicity
 _atom_site_fract_x
 _atom_site_fract_y
 _atom_site_fract_z
 _atom_site_occupancy
  Sr  Sr0  1  0.99150655  0.38609011  0.62750023  1
  Sr  Sr1  1  0.49150655  0.62750023  0.38609011  1
  Br  Br2  1  0.95459881  0.77762903  0.40787232  1
  Br  Br3  1  0.45459881  0.40787232  0.77762903  1
  Br  Br4  1  0.02853167  0.11145290  0.97322524  1
  Br  Br5  1  0.52853167  0.97322524  0.11145290  1
  O  O6  1  0.12335240  0.63473013  0.47095178  1
  O  O7  1  0.62335240  0.47095178  0.63473013  1
  O  O8  1  0.24750683  0.52420381  0.74769179  1
  O  O9  1  0.74750683  0.74769179  0.52420381  1
  O  O10  1  0.89842899  0.04989860  0.58202274  1
  O  O11  1  0.39842899  0.58202274  0.04989860  1
  O  O12  1  0.89361456  0.36877084  0.01796131  1
  O  O13  1  0.39361456  0.01796131  0.36877084  1
  O  O14  1  0.75843320  0.76873982  0.02099611  1
  O  O15  1  0.25843320  0.02099611  0.76873982  1
  O  O16  1  0.07032700  0.16819754  0.20466570  1
  O  O17  1  0.57032700  0.20466570  0.16819754  1
