# generated using pymatgen
data_Np(SiPt)2
_symmetry_space_group_name_H-M   'P 1'
_cell_length_a   4.21553400
_cell_length_b   4.21553400
_cell_length_c   9.89866010
_cell_angle_alpha   90.00000000
_cell_angle_beta   90.00000000
_cell_angle_gamma   90.00000000
_symmetry_Int_Tables_number   1
_chemical_formula_structural   Np(SiPt)2
_chemical_formula_sum   'Np2 Si4 Pt4'
_cell_volume   175.90638536
_cell_formula_units_Z   2
loop_
 _symmetry_equiv_pos_site_id
 _symmetry_equiv_pos_as_xyz
  1  'x, y, z'
loop_
 _atom_site_type_symbol
 _atom_site_label
 _atom_site_symmetry_multiplicity
 _atom_site_fract_x
 _atom_site_fract_y
 _atom_site_fract_z
 _atom_site_occupancy
  Np  Np0  1  0.25000000  0.25000000  0.74597272  1
  Np  Np1  1  0.75000000  0.75000000  0.25402728  1
  Pt  Pt2  1  0.25000000  0.25000000  0.37780338  1
  Pt  Pt3  1  0.75000000  0.75000000  0.62219662  1
  Pt  Pt4  1  0.25000000  0.75000000  0.00000000  1
  Pt  Pt5  1  0.75000000  0.25000000  0.00000000  1
  Si  Si6  1  0.25000000  0.25000000  0.13543578  1
  Si  Si7  1  0.75000000  0.75000000  0.86456422  1
  Si  Si8  1  0.25000000  0.75000000  0.50000000  1
  Si  Si9  1  0.75000000  0.25000000  0.50000000  1
