# generated using pymatgen
data_Li5Sn5(PO4)6
_symmetry_space_group_name_H-M   'P 1'
_cell_length_a   9.27718041
_cell_length_b   9.41733328
_cell_length_c   9.44487709
_cell_angle_alpha   58.16334479
_cell_angle_beta   58.54914812
_cell_angle_gamma   58.63943116
_symmetry_Int_Tables_number   1
_chemical_formula_structural   Li5Sn5(PO4)6
_chemical_formula_sum   'Li5 Sn5 P6 O24'
_cell_volume   562.77018849
_cell_formula_units_Z   1
loop_
 _symmetry_equiv_pos_site_id
 _symmetry_equiv_pos_as_xyz
  1  'x, y, z'
loop_
 _atom_site_type_symbol
 _atom_site_label
 _atom_site_symmetry_multiplicity
 _atom_site_fract_x
 _atom_site_fract_y
 _atom_site_fract_z
 _atom_site_occupancy
  Li  Li0  1  0.73693839  0.13432524  0.35057182  1
  Li  Li1  1  0.15459211  0.81965292  0.68226329  1
  Li  Li2  1  0.68329882  0.13819714  0.82744057  1
  Li  Li3  1  0.81787516  0.69199662  0.14906005  1
  Li  Li4  1  0.82723324  0.80291379  0.81322576  1
  Sn  Sn5  1  0.00462350  0.98838531  0.96682567  1
  Sn  Sn6  1  0.48690842  0.49850008  0.49894102  1
  Sn  Sn7  1  0.15912823  0.15425498  0.15550709  1
  Sn  Sn8  1  0.34128087  0.35348868  0.34679459  1
  Sn  Sn9  1  0.64916960  0.65727963  0.66811449  1
  P  P10  1  0.07196010  0.75596709  0.43734862  1
  P  P11  1  0.44185388  0.06528734  0.76094034  1
  P  P12  1  0.23135703  0.56094201  0.97016766  1
  P  P13  1  0.57091882  0.97286814  0.23877456  1
  P  P14  1  0.95604329  0.23302489  0.55463900  1
  P  P15  1  0.75876049  0.43987501  0.07033375  1
  O  O16  1  0.07846061  0.32088837  0.51806485  1
  O  O17  1  0.31136902  0.54078796  0.08995568  1
  O  O18  1  0.11574962  0.91926575  0.26679545  1
  O  O19  1  0.57759677  0.08019257  0.31437354  1
  O  O20  1  0.03766990  0.77622278  0.60452428  1
  O  O21  1  0.24908769  0.58742627  0.41384567  1
  O  O22  1  0.27494163  0.12423837  0.91581932  1
  O  O23  1  0.44017584  0.23903458  0.58547714  1
  O  O24  1  0.18917027  0.39666558  0.02780626  1
  O  O25  1  0.59997363  0.40761694  0.25755709  1
  O  O26  1  0.04949609  0.72401255  0.97763715  1
  O  O27  1  0.38326881  0.05165048  0.22237715  1
  O  O28  1  0.61843832  0.00636834  0.78623562  1
  O  O29  1  0.91558584  0.25803367  0.11665073  1
  O  O30  1  0.35246683  0.61012278  0.77212772  1
  O  O31  1  0.79173504  0.60256260  0.02851391  1
  O  O32  1  0.61506032  0.77237968  0.35069289  1
  O  O33  1  0.72123367  0.98692297  0.04998022  1
  O  O34  1  0.75471944  0.34328226  0.62245239  1
  O  O35  1  0.98931896  0.20188162  0.39244147  1
  O  O36  1  0.42277059  0.92677115  0.73896007  1
  O  O37  1  0.98459689  0.04726665  0.71066007  1
  O  O38  1  0.71946704  0.44801936  0.92793421  1
  O  O39  1  0.91570624  0.73842580  0.44117085  1
