# generated using pymatgen
data_UCr5P3
_symmetry_space_group_name_H-M   'P 1'
_cell_length_a   3.72974654
_cell_length_b   6.78048000
_cell_length_c   9.49823701
_cell_angle_alpha   98.40425807
_cell_angle_beta   90.00000000
_cell_angle_gamma   90.00000000
_symmetry_Int_Tables_number   1
_chemical_formula_structural   UCr5P3
_chemical_formula_sum   'U2 Cr10 P6'
_cell_volume   237.62594529
_cell_formula_units_Z   2
loop_
 _symmetry_equiv_pos_site_id
 _symmetry_equiv_pos_as_xyz
  1  'x, y, z'
loop_
 _atom_site_type_symbol
 _atom_site_label
 _atom_site_symmetry_multiplicity
 _atom_site_fract_x
 _atom_site_fract_y
 _atom_site_fract_z
 _atom_site_occupancy
  U  U0  1  0.25000000  0.81999978  0.21713471  1
  U  U1  1  0.75000000  0.18000022  0.78286529  1
  Cr  Cr2  1  0.25000000  0.32163813  0.27805184  1
  Cr  Cr3  1  0.75000000  0.67836187  0.72194816  1
  Cr  Cr4  1  0.25000000  0.15797311  0.50841044  1
  Cr  Cr5  1  0.75000000  0.84202689  0.49158956  1
  Cr  Cr6  1  0.25000000  0.54110534  0.92867701  1
  Cr  Cr7  1  0.75000000  0.45889466  0.07132299  1
  Cr  Cr8  1  0.25000000  0.91520910  0.89898528  1
  Cr  Cr9  1  0.75000000  0.08479090  0.10101472  1
  Cr  Cr10  1  0.25000000  0.60512126  0.48755834  1
  Cr  Cr11  1  0.75000000  0.39487874  0.51244166  1
  P  P12  1  0.25000000  0.44134158  0.68604156  1
  P  P13  1  0.75000000  0.55865842  0.31395844  1
  P  P14  1  0.25000000  0.23802002  0.01963988  1
  P  P15  1  0.75000000  0.76197998  0.98036012  1
  P  P16  1  0.25000000  0.89856670  0.65286644  1
  P  P17  1  0.75000000  0.10143330  0.34713356  1
