# generated using pymatgen
data_CsTa(CuTe2)2
_symmetry_space_group_name_H-M   'P 1'
_cell_length_a   6.05544098
_cell_length_b   8.36367438
_cell_length_c   21.13015497
_cell_angle_alpha   90.00000000
_cell_angle_beta   90.00000000
_cell_angle_gamma   90.00000000
_symmetry_Int_Tables_number   1
_chemical_formula_structural   CsTa(CuTe2)2
_chemical_formula_sum   'Cs4 Ta4 Cu8 Te16'
_cell_volume   1070.15226259
_cell_formula_units_Z   4
loop_
 _symmetry_equiv_pos_site_id
 _symmetry_equiv_pos_as_xyz
  1  'x, y, z'
loop_
 _atom_site_type_symbol
 _atom_site_label
 _atom_site_symmetry_multiplicity
 _atom_site_fract_x
 _atom_site_fract_y
 _atom_site_fract_z
 _atom_site_occupancy
  Cs  Cs0  1  0.01564272  0.70581776  0.43836872  1
  Cs  Cs1  1  0.51564272  0.29418224  0.56163128  1
  Cs  Cs2  1  0.51564272  0.79418224  0.93836872  1
  Cs  Cs3  1  0.01564272  0.20581776  0.06163128  1
  Ta  Ta4  1  0.25918088  0.70522837  0.14818954  1
  Ta  Ta5  1  0.75918088  0.29477163  0.85181046  1
  Ta  Ta6  1  0.75918088  0.79477163  0.64818954  1
  Ta  Ta7  1  0.25918088  0.20522837  0.35181046  1
  Cu  Cu8  1  0.26667051  0.96267991  0.24711930  1
  Cu  Cu9  1  0.76667051  0.03732009  0.75288070  1
  Cu  Cu10  1  0.76667051  0.53732009  0.74711930  1
  Cu  Cu11  1  0.26667051  0.46267991  0.25288070  1
  Cu  Cu12  1  0.25931814  0.79381016  0.64757194  1
  Cu  Cu13  1  0.75931814  0.20618984  0.35242806  1
  Cu  Cu14  1  0.75931814  0.70618984  0.14757194  1
  Cu  Cu15  1  0.25931814  0.29381016  0.85242806  1
  Te  Te16  1  0.51060458  0.96400905  0.14399063  1
  Te  Te17  1  0.01060458  0.03599095  0.85600937  1
  Te  Te18  1  0.01060458  0.53599095  0.64399063  1
  Te  Te19  1  0.51060458  0.46400905  0.35600937  1
  Te  Te20  1  0.51216914  0.94858628  0.34912313  1
  Te  Te21  1  0.01216914  0.05141372  0.65087687  1
  Te  Te22  1  0.01216914  0.55141372  0.84912313  1
  Te  Te23  1  0.51216914  0.44858628  0.15087687  1
  Te  Te24  1  0.00225363  0.71249343  0.25071455  1
  Te  Te25  1  0.50225363  0.28750657  0.74928545  1
  Te  Te26  1  0.50225363  0.78750657  0.75071455  1
  Te  Te27  1  0.00225363  0.21249343  0.24928545  1
  Te  Te28  1  0.00956039  0.69308851  0.04638221  1
  Te  Te29  1  0.50956039  0.30691149  0.95361779  1
  Te  Te30  1  0.50956039  0.80691149  0.54638221  1
  Te  Te31  1  0.00956039  0.19308851  0.45361779  1
