# generated using pymatgen
data_Cs2MnS2
_symmetry_space_group_name_H-M   'P 1'
_cell_length_a   6.52926255
_cell_length_b   7.45929825
_cell_length_c   8.54353977
_cell_angle_alpha   115.89269740
_cell_angle_beta   112.46528715
_cell_angle_gamma   89.99561974
_symmetry_Int_Tables_number   1
_chemical_formula_structural   Cs2MnS2
_chemical_formula_sum   'Cs4 Mn2 S4'
_cell_volume   338.88994050
_cell_formula_units_Z   2
loop_
 _symmetry_equiv_pos_site_id
 _symmetry_equiv_pos_as_xyz
  1  'x, y, z'
loop_
 _atom_site_type_symbol
 _atom_site_label
 _atom_site_symmetry_multiplicity
 _atom_site_fract_x
 _atom_site_fract_y
 _atom_site_fract_z
 _atom_site_occupancy
  Cs  Cs0  1  0.64869811  0.80932882  0.29741503  1
  Cs  Cs1  1  0.35130189  0.19067118  0.70258497  1
  Cs  Cs2  1  0.14870886  0.48814057  0.29744098  1
  Cs  Cs3  1  0.85129114  0.51185943  0.70255902  1
  Mn  Mn4  1  0.24999278  0.00000633  0.00000203  1
  Mn  Mn5  1  0.75000722  0.99999367  0.99999797  1
  S  S6  1  0.90653408  0.08015995  0.81315805  1
  S  S7  1  0.09346592  0.91984005  0.18684195  1
  S  S8  1  0.40657706  0.73297064  0.81313324  1
  S  S9  1  0.59342294  0.26702936  0.18686676  1
