# generated using pymatgen
data_Ta4Co2PdSe12
_symmetry_space_group_name_H-M   'P 1'
_cell_length_a   3.44049449
_cell_length_b   7.21617353
_cell_length_c   18.37682502
_cell_angle_alpha   87.83000034
_cell_angle_beta   84.62869856
_cell_angle_gamma   76.20859757
_symmetry_Int_Tables_number   1
_chemical_formula_structural   Ta4Co2PdSe12
_chemical_formula_sum   'Ta4 Co2 Pd1 Se12'
_cell_volume   441.08901420
_cell_formula_units_Z   1
loop_
 _symmetry_equiv_pos_site_id
 _symmetry_equiv_pos_as_xyz
  1  'x, y, z'
loop_
 _atom_site_type_symbol
 _atom_site_label
 _atom_site_symmetry_multiplicity
 _atom_site_fract_x
 _atom_site_fract_y
 _atom_site_fract_z
 _atom_site_occupancy
  Co  Co0  1  0.22940183  0.82542111  0.71577523  1
  Co  Co1  1  0.77059817  0.17457889  0.28422477  1
  Ta  Ta2  1  0.62412359  0.90262883  0.84912398  1
  Ta  Ta3  1  0.37587641  0.09737117  0.15087602  1
  Ta  Ta4  1  0.74623138  0.91359761  0.59393963  1
  Ta  Ta5  1  0.25376862  0.08640239  0.40606037  1
  Pd  Pd6  1  0.00000000  0.00000000  0.00000000  1
  Se  Se7  1  0.97438680  0.17064353  0.88058288  1
  Se  Se8  1  0.02561320  0.82935647  0.11941712  1
  Se  Se9  1  0.62538432  0.35496812  0.39426323  1
  Se  Se10  1  0.37461568  0.64503188  0.60573677  1
  Se  Se11  1  0.13726306  0.17511105  0.55036284  1
  Se  Se12  1  0.86273694  0.82488895  0.44963716  1
  Se  Se13  1  0.80683278  0.62245842  0.76387603  1
  Se  Se14  1  0.19316722  0.37754158  0.23612397  1
  Se  Se15  1  0.18473636  0.70413490  0.92639239  1
  Se  Se16  1  0.81526364  0.29586510  0.07360761  1
  Se  Se17  1  0.60607169  0.06897912  0.71887751  1
  Se  Se18  1  0.39392831  0.93102088  0.28112249  1
