# generated using pymatgen
data_Sc2V3Si4
_symmetry_space_group_name_H-M   'P 1'
_cell_length_a   6.63056319
_cell_length_b   6.63056319
_cell_length_c   12.27286268
_cell_angle_alpha   90.00000000
_cell_angle_beta   90.00000000
_cell_angle_gamma   90.00000000
_symmetry_Int_Tables_number   1
_chemical_formula_structural   Sc2V3Si4
_chemical_formula_sum   'Sc8 V12 Si16'
_cell_volume   539.56865394
_cell_formula_units_Z   4
loop_
 _symmetry_equiv_pos_site_id
 _symmetry_equiv_pos_as_xyz
  1  'x, y, z'
loop_
 _atom_site_type_symbol
 _atom_site_label
 _atom_site_symmetry_multiplicity
 _atom_site_fract_x
 _atom_site_fract_y
 _atom_site_fract_z
 _atom_site_occupancy
  Sc  Sc0  1  0.00170504  0.66227645  0.03034604  1
  Sc  Sc1  1  0.83772355  0.50170504  0.28034604  1
  Sc  Sc2  1  0.16227645  0.49829496  0.78034604  1
  Sc  Sc3  1  0.50170504  0.83772355  0.71965396  1
  Sc  Sc4  1  0.49829496  0.16227645  0.21965396  1
  Sc  Sc5  1  0.99829496  0.33772355  0.53034604  1
  Sc  Sc6  1  0.66227645  0.00170504  0.96965396  1
  Sc  Sc7  1  0.33772355  0.99829496  0.46965396  1
  V  V8  1  0.33162777  0.33162777  0.00000000  1
  V  V9  1  0.16837223  0.83162777  0.25000000  1
  V  V10  1  0.83162777  0.16837223  0.75000000  1
  V  V11  1  0.66837223  0.66837223  0.50000000  1
  V  V12  1  0.00758347  0.15647324  0.12685027  1
  V  V13  1  0.34352676  0.50758347  0.37685027  1
  V  V14  1  0.65647324  0.49241653  0.87685027  1
  V  V15  1  0.50758347  0.34352676  0.62314973  1
  V  V16  1  0.49241653  0.65647324  0.12314973  1
  V  V17  1  0.99241653  0.84352676  0.62685027  1
  V  V18  1  0.15647324  0.00758347  0.87314973  1
  V  V19  1  0.84352676  0.99241653  0.37314973  1
  Si  Si20  1  0.29419600  0.95984715  0.06435445  1
  Si  Si21  1  0.54015285  0.79419600  0.31435445  1
  Si  Si22  1  0.45984715  0.20580400  0.81435445  1
  Si  Si23  1  0.79419600  0.54015285  0.68564555  1
  Si  Si24  1  0.20580400  0.45984715  0.18564555  1
  Si  Si25  1  0.70580400  0.04015285  0.56435445  1
  Si  Si26  1  0.95984715  0.29419600  0.93564555  1
  Si  Si27  1  0.04015285  0.70580400  0.43564555  1
  Si  Si28  1  0.70357615  0.36937678  0.07008443  1
  Si  Si29  1  0.13062322  0.20357615  0.32008443  1
  Si  Si30  1  0.86937678  0.79642385  0.82008443  1
  Si  Si31  1  0.20357615  0.13062322  0.67991557  1
  Si  Si32  1  0.79642385  0.86937678  0.17991557  1
  Si  Si33  1  0.29642385  0.63062322  0.57008443  1
  Si  Si34  1  0.36937678  0.70357615  0.92991557  1
  Si  Si35  1  0.63062322  0.29642385  0.42991557  1
