# generated using pymatgen
data_Cs4Cu3F10
_symmetry_space_group_name_H-M   'P 1'
_cell_length_a   6.29453721
_cell_length_b   7.78593044
_cell_length_c   8.10099569
_cell_angle_alpha   114.51707277
_cell_angle_beta   90.04405957
_cell_angle_gamma   113.76333295
_symmetry_Int_Tables_number   1
_chemical_formula_structural   Cs4Cu3F10
_chemical_formula_sum   'Cs4 Cu3 F10'
_cell_volume   323.80172173
_cell_formula_units_Z   1
loop_
 _symmetry_equiv_pos_site_id
 _symmetry_equiv_pos_as_xyz
  1  'x, y, z'
loop_
 _atom_site_type_symbol
 _atom_site_label
 _atom_site_symmetry_multiplicity
 _atom_site_fract_x
 _atom_site_fract_y
 _atom_site_fract_z
 _atom_site_occupancy
  Cs  Cs0  1  0.81305747  0.62607758  0.71575002  1
  Cs  Cs1  1  0.18694253  0.37392242  0.28424998  1
  Cs  Cs2  1  0.46505644  0.93016016  0.21466654  1
  Cs  Cs3  1  0.53494356  0.06983984  0.78533346  1
  Cu  Cu4  1  0.19797241  0.39572281  0.81708843  1
  Cu  Cu5  1  0.80202759  0.60427719  0.18291157  1
  Cu  Cu6  1  0.00000000  0.00000000  0.50000000  1
  F  F7  1  0.89715312  0.21983163  0.56460019  1
  F  F8  1  0.67894779  0.35695728  0.21926746  1
  F  F9  1  0.93394136  0.87131859  0.17088706  1
  F  F10  1  0.10284688  0.78016837  0.43539981  1
  F  F11  1  0.06605864  0.12868141  0.82911294  1
  F  F12  1  0.67814058  0.77889898  0.43736532  1
  F  F13  1  0.32185942  0.22110102  0.56263468  1
  F  F14  1  0.00000000  0.50000000  0.00000000  1
  F  F15  1  0.50000000  0.50000000  0.00000000  1
  F  F16  1  0.32105221  0.64304272  0.78073254  1
