# generated using pymatgen
data_CsSbS6(O3F)6
_symmetry_space_group_name_H-M   'P 1'
_cell_length_a   8.21255449
_cell_length_b   8.21255435
_cell_length_c   8.21255459
_cell_angle_alpha   97.21273720
_cell_angle_beta   97.21273710
_cell_angle_gamma   97.21273888
_symmetry_Int_Tables_number   1
_chemical_formula_structural   CsSbS6(O3F)6
_chemical_formula_sum   'Cs1 Sb1 S6 O18 F6'
_cell_volume   539.52399178
_cell_formula_units_Z   1
loop_
 _symmetry_equiv_pos_site_id
 _symmetry_equiv_pos_as_xyz
  1  'x, y, z'
loop_
 _atom_site_type_symbol
 _atom_site_label
 _atom_site_symmetry_multiplicity
 _atom_site_fract_x
 _atom_site_fract_y
 _atom_site_fract_z
 _atom_site_occupancy
  Cs  Cs0  1  0.00000000  0.00000000  0.00000000  1
  Sb  Sb1  1  0.50000000  0.50000000  0.50000000  1
  S  S2  1  0.26301502  0.16087269  0.56026088  1
  S  S3  1  0.83912731  0.43973912  0.73698498  1
  S  S4  1  0.16087269  0.56026088  0.26301502  1
  S  S5  1  0.43973912  0.73698498  0.83912731  1
  S  S6  1  0.73698498  0.83912731  0.43973912  1
  S  S7  1  0.56026088  0.26301502  0.16087269  1
  O  O8  1  0.35238486  0.57026398  0.31334038  1
  O  O9  1  0.42973602  0.68665962  0.64761514  1
  O  O10  1  0.13719971  0.67751896  0.15155303  1
  O  O11  1  0.22883733  0.07906001  0.39359711  1
  O  O12  1  0.07906001  0.39359711  0.22883733  1
  O  O13  1  0.57026398  0.31334038  0.35238486  1
  O  O14  1  0.77116267  0.92093999  0.60640289  1
  O  O15  1  0.86280029  0.32248104  0.84844697  1
  O  O16  1  0.64761514  0.42973602  0.68665962  1
  O  O17  1  0.15155303  0.13719971  0.67751896  1
  O  O18  1  0.67751896  0.15155303  0.13719971  1
  O  O19  1  0.31334038  0.35238486  0.57026398  1
  O  O20  1  0.39359711  0.22883733  0.07906001  1
  O  O21  1  0.60640289  0.77116267  0.92093999  1
  O  O22  1  0.32248104  0.84844697  0.86280029  1
  O  O23  1  0.92093999  0.60640289  0.77116267  1
  O  O24  1  0.84844697  0.86280029  0.32248104  1
  O  O25  1  0.68665962  0.64761514  0.42973602  1
  F  F26  1  0.56532619  0.88869531  0.36337745  1
  F  F27  1  0.63662255  0.43467381  0.11130469  1
  F  F28  1  0.11130469  0.63662255  0.43467381  1
  F  F29  1  0.36337745  0.56532619  0.88869531  1
  F  F30  1  0.43467381  0.11130469  0.63662255  1
  F  F31  1  0.88869531  0.36337745  0.56532619  1
