# generated using pymatgen
data_Ca(LuS2)2
_symmetry_space_group_name_H-M   'P 1'
_cell_length_a   3.83602336
_cell_length_b   12.79064123
_cell_length_c   12.98780839
_cell_angle_alpha   90.00000000
_cell_angle_beta   90.00000000
_cell_angle_gamma   90.00000000
_symmetry_Int_Tables_number   1
_chemical_formula_structural   Ca(LuS2)2
_chemical_formula_sum   'Ca4 Lu8 S16'
_cell_volume   637.24939735
_cell_formula_units_Z   4
loop_
 _symmetry_equiv_pos_site_id
 _symmetry_equiv_pos_as_xyz
  1  'x, y, z'
loop_
 _atom_site_type_symbol
 _atom_site_label
 _atom_site_symmetry_multiplicity
 _atom_site_fract_x
 _atom_site_fract_y
 _atom_site_fract_z
 _atom_site_occupancy
  Ca  Ca0  1  0.75000000  0.86856745  0.91655219  1
  Ca  Ca1  1  0.25000000  0.13143255  0.08344781  1
  Ca  Ca2  1  0.75000000  0.36856745  0.58344781  1
  Ca  Ca3  1  0.25000000  0.63143255  0.41655219  1
  Lu  Lu4  1  0.75000000  0.60682678  0.08331085  1
  Lu  Lu5  1  0.25000000  0.39317322  0.91668915  1
  Lu  Lu6  1  0.75000000  0.10682678  0.41668915  1
  Lu  Lu7  1  0.25000000  0.89317322  0.58331085  1
  Lu  Lu8  1  0.75000000  0.64688325  0.70243721  1
  Lu  Lu9  1  0.25000000  0.35311675  0.29756279  1
  Lu  Lu10  1  0.75000000  0.14688325  0.79756279  1
  Lu  Lu11  1  0.25000000  0.85311675  0.20243721  1
  S  S12  1  0.75000000  0.71806227  0.26170851  1
  S  S13  1  0.25000000  0.28193773  0.73829149  1
  S  S14  1  0.75000000  0.21806227  0.23829149  1
  S  S15  1  0.25000000  0.78193773  0.76170851  1
  S  S16  1  0.75000000  0.75815246  0.52743494  1
  S  S17  1  0.25000000  0.24184754  0.47256506  1
  S  S18  1  0.75000000  0.25815246  0.97256506  1
  S  S19  1  0.25000000  0.74184754  0.02743494  1
  S  S20  1  0.75000000  0.96936989  0.11952168  1
  S  S21  1  0.25000000  0.03063011  0.88047832  1
  S  S22  1  0.75000000  0.46936989  0.38047832  1
  S  S23  1  0.25000000  0.53063011  0.61952168  1
  S  S24  1  0.75000000  0.53419264  0.88244248  1
  S  S25  1  0.25000000  0.46580736  0.11755752  1
  S  S26  1  0.75000000  0.03419264  0.61755752  1
  S  S27  1  0.25000000  0.96580736  0.38244248  1
