# generated using pymatgen
data_Li4Sb2C4SO16
_symmetry_space_group_name_H-M   'P 1'
_cell_length_a   10.40217285
_cell_length_b   9.58041892
_cell_length_c   9.81322722
_cell_angle_alpha   116.77209739
_cell_angle_beta   57.27250172
_cell_angle_gamma   119.51876577
_symmetry_Int_Tables_number   1
_chemical_formula_structural   Li4Sb2C4SO16
_chemical_formula_sum   'Li8 Sb4 C8 S2 O32'
_cell_volume   692.91748344
_cell_formula_units_Z   2
loop_
 _symmetry_equiv_pos_site_id
 _symmetry_equiv_pos_as_xyz
  1  'x, y, z'
loop_
 _atom_site_type_symbol
 _atom_site_label
 _atom_site_symmetry_multiplicity
 _atom_site_fract_x
 _atom_site_fract_y
 _atom_site_fract_z
 _atom_site_occupancy
  Li  Li0  1  0.92952347  0.17499654  0.32046019  1
  Li  Li1  1  0.91982684  0.14722021  0.93910186  1
  Li  Li2  1  0.93566479  0.56816333  0.28641571  1
  Li  Li3  1  0.73123198  0.45468771  0.07450676  1
  Li  Li4  1  0.29883863  0.16814727  0.92876387  1
  Li  Li5  1  0.37400518  0.59577328  0.96171170  1
  Li  Li6  1  0.06095509  0.44138553  0.67196213  1
  Li  Li7  1  0.09086150  0.80088631  0.67389084  1
  Sb  Sb8  1  0.48892191  0.00905327  0.01285659  1
  Sb  Sb9  1  0.51039375  0.01315254  0.50180102  1
  Sb  Sb10  1  0.49240874  0.49206327  0.48877347  1
  Sb  Sb11  1  0.00880705  0.97558549  0.48461727  1
  C  C12  1  0.72633652  0.16160551  0.69785011  1
  C  C13  1  0.68970189  0.24201296  0.25759653  1
  C  C14  1  0.25580883  0.20161841  0.67754556  1
  C  C15  1  0.30178095  0.25752704  0.26138044  1
  C  C16  1  0.69603948  0.77553941  0.73520405  1
  C  C17  1  0.75371057  0.79023399  0.33709075  1
  C  C18  1  0.32255915  0.78471872  0.75847803  1
  C  C19  1  0.23772937  0.79959285  0.30553572  1
  S  S20  1  0.87195481  0.61385625  0.86205205  1
  S  S21  1  0.11573285  0.36828705  0.11276847  1
  O  O22  1  0.86329633  0.18421703  0.68283953  1
  O  O23  1  0.69401333  0.11334672  0.26644949  1
  O  O24  1  0.71198278  0.15846686  0.57059239  1
  O  O25  1  0.73804592  0.26434690  0.11589032  1
  O  O26  1  0.59390229  0.14406108  0.83636124  1
  O  O27  1  0.93902136  0.55890729  0.67327010  1
  O  O28  1  0.94375480  0.54892760  0.91133199  1
  O  O29  1  0.63722845  0.34899223  0.40092539  1
  O  O30  1  0.37055114  0.19823450  0.69343486  1
  O  O31  1  0.31024627  0.14251296  0.11963103  1
  O  O32  1  0.93003788  0.79805684  0.90521726  1
  O  O33  1  0.69412691  0.54068559  0.94701787  1
  O  O34  1  0.82473993  0.77798147  0.58683780  1
  O  O35  1  0.76719606  0.64672236  0.28252467  1
  O  O36  1  0.44451217  0.34184530  0.27485365  1
  O  O37  1  0.11122533  0.10120225  0.72528155  1
  O  O38  1  0.58393119  0.63884676  0.75389379  1
  O  O39  1  0.87762664  0.92715373  0.35239499  1
  O  O40  1  0.28745521  0.31238842  0.60904494  1
  O  O41  1  0.17187756  0.28017961  0.37489803  1
  O  O42  1  0.29137902  0.40685940  0.05884575  1
  O  O43  1  0.04186135  0.18189950  0.06978100  1
  O  O44  1  0.61657156  0.80387561  0.38565710  1
  O  O45  1  0.69619954  0.91657381  0.84751796  1
  O  O46  1  0.28001026  0.64126006  0.66840006  1
  O  O47  1  0.09773973  0.44303293  0.02247830  1
  O  O48  1  0.02613793  0.42945497  0.29630823  1
  O  O49  1  0.35874677  0.77121630  0.17312771  1
  O  O50  1  0.36623045  0.80406029  0.87280331  1
  O  O51  1  0.23119375  0.85363935  0.45446810  1
  O  O52  1  0.32794816  0.91581350  0.74206901  1
  O  O53  1  0.10841757  0.78558485  0.29194546  1
