# generated using pymatgen
data_Mg3Nb6O11
_symmetry_space_group_name_H-M   'P 1'
_cell_length_a   6.11632366
_cell_length_b   6.11632358
_cell_length_c   7.55661859
_cell_angle_alpha   90.00000000
_cell_angle_beta   90.00000000
_cell_angle_gamma   120.00000046
_symmetry_Int_Tables_number   1
_chemical_formula_structural   Mg3Nb6O11
_chemical_formula_sum   'Mg3 Nb6 O11'
_cell_volume   244.81557521
_cell_formula_units_Z   1
loop_
 _symmetry_equiv_pos_site_id
 _symmetry_equiv_pos_as_xyz
  1  'x, y, z'
loop_
 _atom_site_type_symbol
 _atom_site_label
 _atom_site_symmetry_multiplicity
 _atom_site_fract_x
 _atom_site_fract_y
 _atom_site_fract_z
 _atom_site_occupancy
  Nb  Nb0  1  0.15445431  0.84554569  0.15284031  1
  Nb  Nb1  1  0.15445431  0.30890862  0.15284031  1
  Nb  Nb2  1  0.69109138  0.84554569  0.15284031  1
  Nb  Nb3  1  0.30890862  0.15445431  0.84715969  1
  Nb  Nb4  1  0.84554569  0.69109138  0.84715969  1
  Nb  Nb5  1  0.84554569  0.15445431  0.84715969  1
  Mg  Mg6  1  0.00000000  0.00000000  0.50000000  1
  Mg  Mg7  1  0.33333300  0.66666700  0.57590693  1
  Mg  Mg8  1  0.66666700  0.33333300  0.42409307  1
  O  O9  1  0.50000000  0.50000000  0.00000000  1
  O  O10  1  0.50000000  0.00000000  0.00000000  1
  O  O11  1  0.00000000  0.50000000  0.00000000  1
  O  O12  1  0.15604961  0.84395039  0.67323453  1
  O  O13  1  0.15604961  0.31209922  0.67323453  1
  O  O14  1  0.68790078  0.84395039  0.67323453  1
  O  O15  1  0.31209922  0.15604961  0.32676547  1
  O  O16  1  0.84395039  0.68790078  0.32676547  1
  O  O17  1  0.84395039  0.15604961  0.32676547  1
  O  O18  1  0.33333300  0.66666700  0.31299291  1
  O  O19  1  0.66666700  0.33333300  0.68700709  1
