# generated using pymatgen
data_MoAs2O7
_symmetry_space_group_name_H-M   'P 1'
_cell_length_a   4.68137019
_cell_length_b   8.10499839
_cell_length_c   16.76021989
_cell_angle_alpha   99.02487621
_cell_angle_beta   90.00000000
_cell_angle_gamma   90.00000000
_symmetry_Int_Tables_number   1
_chemical_formula_structural   MoAs2O7
_chemical_formula_sum   'Mo4 As8 O28'
_cell_volume   628.05206950
_cell_formula_units_Z   4
loop_
 _symmetry_equiv_pos_site_id
 _symmetry_equiv_pos_as_xyz
  1  'x, y, z'
loop_
 _atom_site_type_symbol
 _atom_site_label
 _atom_site_symmetry_multiplicity
 _atom_site_fract_x
 _atom_site_fract_y
 _atom_site_fract_z
 _atom_site_occupancy
  O  O0  1  0.31359166  0.17813361  0.73525832  1
  O  O1  1  0.81359166  0.32186639  0.76474168  1
  O  O2  1  0.68640734  0.82186639  0.26474168  1
  O  O3  1  0.18640934  0.67813361  0.23525832  1
  O  O4  1  0.71207263  0.66003395  0.67948301  1
  O  O5  1  0.21207263  0.83996605  0.82051699  1
  O  O6  1  0.28792737  0.33996605  0.32051599  1
  O  O7  1  0.78792637  0.16003395  0.17948401  1
  O  O8  1  0.24733514  0.23494286  0.47778413  1
  O  O9  1  0.74733614  0.26505714  0.02221487  1
  O  O10  1  0.75266286  0.76505714  0.52221587  1
  O  O11  1  0.25266486  0.73494286  0.97778413  1
  O  O12  1  0.25196125  0.96875325  0.12404352  1
  O  O13  1  0.75196125  0.53124675  0.37595648  1
  O  O14  1  0.74803675  0.03124675  0.87595648  1
  O  O15  1  0.24803875  0.46875325  0.62404352  1
  O  O16  1  0.57518728  0.67244423  0.10560911  1
  O  O17  1  0.07518728  0.82755577  0.39439089  1
  O  O18  1  0.42481272  0.32755577  0.89439189  1
  O  O19  1  0.92481372  0.17244423  0.60560811  1
  O  O20  1  0.74341807  0.42777713  0.52456912  1
  O  O21  1  0.72203732  0.17081260  0.37874067  1
  O  O22  1  0.77796168  0.67081260  0.87874067  1
  O  O23  1  0.27796068  0.82918740  0.62125933  1
  O  O24  1  0.75658293  0.92777713  0.02456812  1
  O  O25  1  0.25658293  0.57222287  0.47543188  1
  O  O26  1  0.24341707  0.07222287  0.97543088  1
  O  O27  1  0.22203932  0.32918740  0.12125933  1
  As  As28  1  0.94786999  0.12153972  0.71121552  1
  As  As29  1  0.44786899  0.37846028  0.78878448  1
  As  As30  1  0.05212901  0.87846028  0.28878448  1
  As  As31  1  0.55212901  0.62153972  0.21121552  1
  As  As32  1  0.04436270  0.33227539  0.55733821  1
  As  As33  1  0.54436270  0.16772361  0.94266179  1
  As  As34  1  0.45563730  0.83227639  0.05733921  1
  As  As35  1  0.95563830  0.66772461  0.44266179  1
  Mo  Mo36  1  0.49696077  0.65876136  0.59648878  1
  Mo  Mo37  1  0.99695977  0.84123964  0.90351122  1
  Mo  Mo38  1  0.50303823  0.34123964  0.40351122  1
  Mo  Mo39  1  0.00303823  0.15876136  0.09648878  1
