# generated using pymatgen
data_YbNiGe2
_symmetry_space_group_name_H-M   'P 1'
_cell_length_a   4.23955164
_cell_length_b   8.59627024
_cell_length_c   9.14840323
_cell_angle_alpha   118.02167473
_cell_angle_beta   103.40519492
_cell_angle_gamma   89.99823047
_symmetry_Int_Tables_number   1
_chemical_formula_structural   YbNiGe2
_chemical_formula_sum   'Yb4 Ni4 Ge8'
_cell_volume   283.99220331
_cell_formula_units_Z   4
loop_
 _symmetry_equiv_pos_site_id
 _symmetry_equiv_pos_as_xyz
  1  'x, y, z'
loop_
 _atom_site_type_symbol
 _atom_site_label
 _atom_site_symmetry_multiplicity
 _atom_site_fract_x
 _atom_site_fract_y
 _atom_site_fract_z
 _atom_site_occupancy
  Yb  Yb0  1  0.49998044  0.25883698  0.99997663  1
  Yb  Yb1  1  0.70585003  0.70587167  0.41168852  1
  Yb  Yb2  1  0.50001956  0.74116302  0.00002337  1
  Yb  Yb3  1  0.29414997  0.29412833  0.58831148  1
  Ni  Ni4  1  0.85139554  0.59902522  0.70253234  1
  Ni  Ni5  1  0.14868388  0.89652119  0.29751735  1
  Ni  Ni6  1  0.85131612  0.10347881  0.70248265  1
  Ni  Ni7  1  0.14860446  0.40097478  0.29746766  1
  Ge  Ge8  1  0.69474756  0.03883621  0.38958377  1
  Ge  Ge9  1  0.30527952  0.64919966  0.61040158  1
  Ge  Ge10  1  0.91524070  0.91524724  0.83047915  1
  Ge  Ge11  1  0.69472048  0.35080034  0.38959842  1
  Ge  Ge12  1  0.08475930  0.08475276  0.16952085  1
  Ge  Ge13  1  0.92178962  0.42177182  0.84357114  1
  Ge  Ge14  1  0.07821038  0.57822818  0.15642886  1
  Ge  Ge15  1  0.30525244  0.96116379  0.61041623  1
