# generated using pymatgen
data_CsCr5Se8
_symmetry_space_group_name_H-M   'P 1'
_cell_length_a   3.71697865
_cell_length_b   9.22482651
_cell_length_c   9.72821319
_cell_angle_alpha   104.30310390
_cell_angle_beta   101.01163180
_cell_angle_gamma   90.00409800
_symmetry_Int_Tables_number   1
_chemical_formula_structural   CsCr5Se8
_chemical_formula_sum   'Cs1 Cr5 Se8'
_cell_volume   316.88293806
_cell_formula_units_Z   1
loop_
 _symmetry_equiv_pos_site_id
 _symmetry_equiv_pos_as_xyz
  1  'x, y, z'
loop_
 _atom_site_type_symbol
 _atom_site_label
 _atom_site_symmetry_multiplicity
 _atom_site_fract_x
 _atom_site_fract_y
 _atom_site_fract_z
 _atom_site_occupancy
  Cs  Cs0  1  0.50000000  0.50000000  0.00000000  1
  Cr  Cr1  1  0.00000000  0.00000000  0.00000000  1
  Cr  Cr2  1  0.65970562  0.98353449  0.31949133  1
  Cr  Cr3  1  0.34029438  0.01646551  0.68050867  1
  Cr  Cr4  1  0.29539727  0.66584703  0.59102251  1
  Cr  Cr5  1  0.70460273  0.33415297  0.40897749  1
  Se  Se6  1  0.57518232  0.15318414  0.14998109  1
  Se  Se7  1  0.42481768  0.84681586  0.85001891  1
  Se  Se8  1  0.91107187  0.16278062  0.82190368  1
  Se  Se9  1  0.08892813  0.83721938  0.17809632  1
  Se  Se10  1  0.82733269  0.51172803  0.65471080  1
  Se  Se11  1  0.17266731  0.48827197  0.34528920  1
  Se  Se12  1  0.23949623  0.15802198  0.47842394  1
  Se  Se13  1  0.76050377  0.84197802  0.52157606  1
