# generated using pymatgen
data_RbReCl4
_symmetry_space_group_name_H-M   'P 1'
_cell_length_a   9.34086526
_cell_length_b   9.34086599
_cell_length_c   12.49848275
_cell_angle_alpha   90.00000000
_cell_angle_beta   90.00000000
_cell_angle_gamma   108.84977422
_symmetry_Int_Tables_number   1
_chemical_formula_structural   RbReCl4
_chemical_formula_sum   'Rb6 Re6 Cl24'
_cell_volume   1032.02929089
_cell_formula_units_Z   6
loop_
 _symmetry_equiv_pos_site_id
 _symmetry_equiv_pos_as_xyz
  1  'x, y, z'
loop_
 _atom_site_type_symbol
 _atom_site_label
 _atom_site_symmetry_multiplicity
 _atom_site_fract_x
 _atom_site_fract_y
 _atom_site_fract_z
 _atom_site_occupancy
  Rb  Rb0  1  0.24627992  0.24627992  0.00000000  1
  Rb  Rb1  1  0.25221807  0.74778193  0.75000000  1
  Rb  Rb2  1  0.24627992  0.24627992  0.50000000  1
  Rb  Rb3  1  0.75372008  0.75372008  0.50000000  1
  Rb  Rb4  1  0.75372008  0.75372008  0.00000000  1
  Rb  Rb5  1  0.74778193  0.25221807  0.25000000  1
  Re  Re6  1  0.78848565  0.21151435  0.65115733  1
  Re  Re7  1  0.78848565  0.21151435  0.84884267  1
  Re  Re8  1  0.21151435  0.78848565  0.34884267  1
  Re  Re9  1  0.64749338  0.35250662  0.75000000  1
  Re  Re10  1  0.21151435  0.78848565  0.15115733  1
  Re  Re11  1  0.35250662  0.64749338  0.25000000  1
  Cl  Cl12  1  0.87286070  0.12713930  0.46830217  1
  Cl  Cl13  1  0.47558680  0.52441320  0.75000000  1
  Cl  Cl14  1  0.01394648  0.40640090  0.87707708  1
  Cl  Cl15  1  0.35134196  0.64865804  0.44500546  1
  Cl  Cl16  1  0.40640090  0.01394648  0.37707708  1
  Cl  Cl17  1  0.98605352  0.59359910  0.12292292  1
  Cl  Cl18  1  0.35134196  0.64865804  0.05499454  1
  Cl  Cl19  1  0.40640090  0.01394648  0.12292292  1
  Cl  Cl20  1  0.59359910  0.98605352  0.62292292  1
  Cl  Cl21  1  0.12713930  0.87286070  0.53169783  1
  Cl  Cl22  1  0.40717675  0.16994856  0.75000000  1
  Cl  Cl23  1  0.52441320  0.47558680  0.25000000  1
  Cl  Cl24  1  0.98605352  0.59359910  0.37707708  1
  Cl  Cl25  1  0.87286070  0.12713930  0.03169783  1
  Cl  Cl26  1  0.07394484  0.92605516  0.25000000  1
  Cl  Cl27  1  0.59359910  0.98605352  0.87707708  1
  Cl  Cl28  1  0.83005144  0.59282325  0.75000000  1
  Cl  Cl29  1  0.12713930  0.87286070  0.96830217  1
  Cl  Cl30  1  0.01394648  0.40640090  0.62292292  1
  Cl  Cl31  1  0.16994856  0.40717675  0.25000000  1
  Cl  Cl32  1  0.92605516  0.07394484  0.75000000  1
  Cl  Cl33  1  0.59282325  0.83005144  0.25000000  1
  Cl  Cl34  1  0.64865804  0.35134196  0.55499454  1
  Cl  Cl35  1  0.64865804  0.35134196  0.94500546  1
