# generated using pymatgen
data_K6Pb2O5
_symmetry_space_group_name_H-M   'P 1'
_cell_length_a   6.51689931
_cell_length_b   7.74330445
_cell_length_c   12.65902405
_cell_angle_alpha   79.02983132
_cell_angle_beta   84.25758284
_cell_angle_gamma   88.05244757
_symmetry_Int_Tables_number   1
_chemical_formula_structural   K6Pb2O5
_chemical_formula_sum   'K12 Pb4 O10'
_cell_volume   623.91055194
_cell_formula_units_Z   2
loop_
 _symmetry_equiv_pos_site_id
 _symmetry_equiv_pos_as_xyz
  1  'x, y, z'
loop_
 _atom_site_type_symbol
 _atom_site_label
 _atom_site_symmetry_multiplicity
 _atom_site_fract_x
 _atom_site_fract_y
 _atom_site_fract_z
 _atom_site_occupancy
  Pb  Pb0  1  0.91159810  0.86908282  0.35381585  1
  Pb  Pb1  1  0.08840190  0.13091718  0.64618415  1
  Pb  Pb2  1  0.75656940  0.21106867  0.13713093  1
  Pb  Pb3  1  0.24343060  0.78893133  0.86286907  1
  K  K4  1  0.43316660  0.60663409  0.36516452  1
  K  K5  1  0.56683340  0.39336591  0.63483548  1
  K  K6  1  0.92066693  0.41012325  0.38326290  1
  K  K7  1  0.07933307  0.58987675  0.61673710  1
  K  K8  1  0.31723887  0.94958841  0.12232386  1
  K  K9  1  0.68276113  0.05041159  0.87767614  1
  K  K10  1  0.30845424  0.48538407  0.12164825  1
  K  K11  1  0.69154576  0.51461593  0.87835175  1
  K  K12  1  0.77994650  0.70103899  0.12624775  1
  K  K13  1  0.22005350  0.29896101  0.87375225  1
  K  K14  1  0.41174273  0.13372993  0.37410208  1
  K  K15  1  0.58825727  0.86627007  0.62589792  1
  O  O16  1  0.64767582  0.94799597  0.24412679  1
  O  O17  1  0.35232418  0.05200403  0.75587321  1
  O  O18  1  0.51765922  0.24216660  0.02555795  1
  O  O19  1  0.48234078  0.75783340  0.97444205  1
  O  O20  1  0.74562325  0.67557558  0.47849012  1
  O  O21  1  0.25437675  0.32442442  0.52150988  1
  O  O22  1  0.61816041  0.38363664  0.24338403  1
  O  O23  1  0.38183959  0.61636336  0.75661597  1
  O  O24  1  0.08149182  0.69324577  0.25814181  1
  O  O25  1  0.91850818  0.30675423  0.74185819  1
