# generated using pymatgen
data_Te10Mo3I10
_symmetry_space_group_name_H-M   'P 1'
_cell_length_a   11.19086396
_cell_length_b   11.23031261
_cell_length_c   18.14553279
_cell_angle_alpha   84.00523987
_cell_angle_beta   75.95011449
_cell_angle_gamma   67.22272946
_symmetry_Int_Tables_number   1
_chemical_formula_structural   Te10Mo3I10
_chemical_formula_sum   'Te20 Mo6 I20'
_cell_volume   2039.59550133
_cell_formula_units_Z   2
loop_
 _symmetry_equiv_pos_site_id
 _symmetry_equiv_pos_as_xyz
  1  'x, y, z'
loop_
 _atom_site_type_symbol
 _atom_site_label
 _atom_site_symmetry_multiplicity
 _atom_site_fract_x
 _atom_site_fract_y
 _atom_site_fract_z
 _atom_site_occupancy
  I  I0  1  0.48427597  0.81759189  0.65141449  1
  I  I1  1  0.51572403  0.18240811  0.34858551  1
  I  I2  1  0.80023624  0.89837586  0.47670264  1
  I  I3  1  0.19976376  0.10162414  0.52329736  1
  I  I4  1  0.81810394  0.10708985  0.65432034  1
  I  I5  1  0.18189606  0.89291015  0.34567966  1
  I  I6  1  0.06790447  0.24574136  0.73632399  1
  I  I7  1  0.93209553  0.75425864  0.26367601  1
  I  I8  1  0.38877618  0.37946899  0.72256954  1
  I  I9  1  0.61122382  0.62053101  0.27743046  1
  I  I10  1  0.22895865  0.64325366  0.55500274  1
  I  I11  1  0.77104135  0.35674634  0.44499726  1
  I  I12  1  0.69531664  0.77849761  0.02241804  1
  I  I13  1  0.30468336  0.22150239  0.97758196  1
  I  I14  1  0.78527193  0.11276779  0.92671552  1
  I  I15  1  0.21472807  0.88723221  0.07328448  1
  I  I16  1  0.16293286  0.84490453  0.82067960  1
  I  I17  1  0.83706714  0.15509547  0.17932040  1
  I  I18  1  0.54621523  0.44860813  0.88503318  1
  I  I19  1  0.45378477  0.55139187  0.11496682  1
  Te  Te20  1  0.94269417  0.76381599  0.72523293  1
  Te  Te21  1  0.05730583  0.23618401  0.27476707  1
  Te  Te22  1  0.72049604  0.49330799  0.71949368  1
  Te  Te23  1  0.27950396  0.50669201  0.28050632  1
  Te  Te24  1  0.87794692  0.57617296  0.60172962  1
  Te  Te25  1  0.12205308  0.42382704  0.39827038  1
  Te  Te26  1  0.82267916  0.47468760  0.89800896  1
  Te  Te27  1  0.17732084  0.52531240  0.10199104  1
  Te  Te28  1  0.04876982  0.53045706  0.87143606  1
  Te  Te29  1  0.95123018  0.46954294  0.12856394  1
  Te  Te30  1  0.53931854  0.74985531  0.85891736  1
  Te  Te31  1  0.46068146  0.25014469  0.14108264  1
  Te  Te32  1  0.60952179  0.96043369  0.82035275  1
  Te  Te33  1  0.39047821  0.03956631  0.17964725  1
  Te  Te34  1  0.66614740  0.96533964  0.62748984  1
  Te  Te35  1  0.33385260  0.03466036  0.37251016  1
  Te  Te36  1  0.18150627  0.43651542  0.64654270  1
  Te  Te37  1  0.81849373  0.56348458  0.35345730  1
  Te  Te38  1  0.92583310  0.84327024  0.92538329  1
  Te  Te39  1  0.07416690  0.15672976  0.07461671  1
  Mo  Mo40  1  0.71301693  0.74359474  0.72084356  1
  Mo  Mo41  1  0.28698307  0.25640526  0.27915644  1
  Mo  Mo42  1  0.93562452  0.52621130  0.75030134  1
  Mo  Mo43  1  0.06437548  0.47378870  0.24969866  1
  Mo  Mo44  1  0.79568061  0.72684946  0.86012348  1
  Mo  Mo45  1  0.20431939  0.27315054  0.13987652  1
