# generated using pymatgen
data_Sc5As3
_symmetry_space_group_name_H-M   'P 1'
_cell_length_a   7.26423744
_cell_length_b   8.18744677
_cell_length_c   10.76524490
_cell_angle_alpha   90.00000000
_cell_angle_beta   90.00000000
_cell_angle_gamma   90.00000000
_symmetry_Int_Tables_number   1
_chemical_formula_structural   Sc5As3
_chemical_formula_sum   'Sc20 As12'
_cell_volume   640.26894059
_cell_formula_units_Z   4
loop_
 _symmetry_equiv_pos_site_id
 _symmetry_equiv_pos_as_xyz
  1  'x, y, z'
loop_
 _atom_site_type_symbol
 _atom_site_label
 _atom_site_symmetry_multiplicity
 _atom_site_fract_x
 _atom_site_fract_y
 _atom_site_fract_z
 _atom_site_occupancy
  Sc  Sc0  1  0.80859285  0.94765064  0.92903791  1
  Sc  Sc1  1  0.30859285  0.05234936  0.57096209  1
  Sc  Sc2  1  0.19140715  0.44765064  0.07096209  1
  Sc  Sc3  1  0.69140715  0.55234936  0.42903791  1
  Sc  Sc4  1  0.19140715  0.05234936  0.07096209  1
  Sc  Sc5  1  0.69140715  0.94765064  0.42903791  1
  Sc  Sc6  1  0.80859285  0.55234936  0.92903791  1
  Sc  Sc7  1  0.30859285  0.44765064  0.57096209  1
  Sc  Sc8  1  0.16627934  0.75000000  0.77672854  1
  Sc  Sc9  1  0.66627934  0.25000000  0.72327146  1
  Sc  Sc10  1  0.83372066  0.25000000  0.22327146  1
  Sc  Sc11  1  0.33372066  0.75000000  0.27672854  1
  Sc  Sc12  1  0.46983637  0.75000000  0.99598189  1
  Sc  Sc13  1  0.96983637  0.25000000  0.50401811  1
  Sc  Sc14  1  0.53016363  0.25000000  0.00401811  1
  Sc  Sc15  1  0.03016363  0.75000000  0.49598189  1
  Sc  Sc16  1  0.64981794  0.75000000  0.70678615  1
  Sc  Sc17  1  0.14981794  0.25000000  0.79321385  1
  Sc  Sc18  1  0.35018206  0.25000000  0.29321385  1
  Sc  Sc19  1  0.85018206  0.75000000  0.20678615  1
  As  As20  1  0.41701633  0.75000000  0.51742124  1
  As  As21  1  0.91701633  0.25000000  0.98257876  1
  As  As22  1  0.58298367  0.25000000  0.48257876  1
  As  As23  1  0.08298367  0.75000000  0.01742124  1
  As  As24  1  0.93558190  0.50998193  0.67233466  1
  As  As25  1  0.43558190  0.49001807  0.82766534  1
  As  As26  1  0.06441810  0.00998193  0.32766534  1
  As  As27  1  0.56441810  0.99001807  0.17233466  1
  As  As28  1  0.06441810  0.49001807  0.32766534  1
  As  As29  1  0.56441810  0.50998193  0.17233466  1
  As  As30  1  0.93558190  0.99001807  0.67233466  1
  As  As31  1  0.43558190  0.00998193  0.82766534  1
