# generated using pymatgen
data_NaTiCuS3
_symmetry_space_group_name_H-M   'P 1'
_cell_length_a   3.57409894
_cell_length_b   9.61408352
_cell_length_c   12.98059987
_cell_angle_alpha   90.00000000
_cell_angle_beta   90.00000000
_cell_angle_gamma   90.00000000
_symmetry_Int_Tables_number   1
_chemical_formula_structural   NaTiCuS3
_chemical_formula_sum   'Na4 Ti4 Cu4 S12'
_cell_volume   446.03529316
_cell_formula_units_Z   4
loop_
 _symmetry_equiv_pos_site_id
 _symmetry_equiv_pos_as_xyz
  1  'x, y, z'
loop_
 _atom_site_type_symbol
 _atom_site_label
 _atom_site_symmetry_multiplicity
 _atom_site_fract_x
 _atom_site_fract_y
 _atom_site_fract_z
 _atom_site_occupancy
  Na  Na0  1  0.25000000  0.04296172  0.23421580  1
  Na  Na1  1  0.75000000  0.95703828  0.76578420  1
  Na  Na2  1  0.75000000  0.54296172  0.26578420  1
  Na  Na3  1  0.25000000  0.45703828  0.73421580  1
  Cu  Cu4  1  0.25000000  0.59590119  0.48708577  1
  Cu  Cu5  1  0.75000000  0.40409881  0.51291423  1
  Cu  Cu6  1  0.75000000  0.09590119  0.01291423  1
  Cu  Cu7  1  0.25000000  0.90409881  0.98708577  1
  Ti  Ti8  1  0.25000000  0.32594372  0.01240724  1
  Ti  Ti9  1  0.75000000  0.67405628  0.98759276  1
  Ti  Ti10  1  0.75000000  0.82594372  0.48759276  1
  Ti  Ti11  1  0.25000000  0.17405628  0.51240724  1
  S  S12  1  0.25000000  0.56560086  0.09385410  1
  S  S13  1  0.75000000  0.43439914  0.90614590  1
  S  S14  1  0.75000000  0.06560086  0.40614590  1
  S  S15  1  0.25000000  0.93439914  0.59385410  1
  S  S16  1  0.25000000  0.37187180  0.40123731  1
  S  S17  1  0.75000000  0.62812820  0.59876269  1
  S  S18  1  0.75000000  0.87187180  0.09876269  1
  S  S19  1  0.25000000  0.12812820  0.90123731  1
  S  S20  1  0.25000000  0.76250642  0.36506193  1
  S  S21  1  0.75000000  0.23749358  0.63493807  1
  S  S22  1  0.75000000  0.26250642  0.13493807  1
  S  S23  1  0.25000000  0.73749358  0.86506193  1
