# generated using pymatgen
data_Na5(InTe3)2
_symmetry_space_group_name_H-M   'P 1'
_cell_length_a   8.99317707
_cell_length_b   8.99317734
_cell_length_c   23.88539635
_cell_angle_alpha   90.00000000
_cell_angle_beta   90.00000000
_cell_angle_gamma   118.91286408
_symmetry_Int_Tables_number   1
_chemical_formula_structural   Na5(InTe3)2
_chemical_formula_sum   'Na20 In8 Te24'
_cell_volume   1690.99945021
_cell_formula_units_Z   4
loop_
 _symmetry_equiv_pos_site_id
 _symmetry_equiv_pos_as_xyz
  1  'x, y, z'
loop_
 _atom_site_type_symbol
 _atom_site_label
 _atom_site_symmetry_multiplicity
 _atom_site_fract_x
 _atom_site_fract_y
 _atom_site_fract_z
 _atom_site_occupancy
  Na  Na0  1  0.74552837  0.75141995  0.75164694  1
  Na  Na1  1  0.25447163  0.24858005  0.25164694  1
  Na  Na2  1  0.24858005  0.25447163  0.75164694  1
  Na  Na3  1  0.75141995  0.74552837  0.25164694  1
  Na  Na4  1  0.50382567  0.00758229  0.74888340  1
  Na  Na5  1  0.49617433  0.99241771  0.24888340  1
  Na  Na6  1  0.99241771  0.49617433  0.74888340  1
  Na  Na7  1  0.00758229  0.50382567  0.24888340  1
  Na  Na8  1  0.56474059  0.91759044  0.91213105  1
  Na  Na9  1  0.43525941  0.08240956  0.41213105  1
  Na  Na10  1  0.08240956  0.43525941  0.91213105  1
  Na  Na11  1  0.91759044  0.56474059  0.41213105  1
  Na  Na12  1  0.31844219  0.15917820  0.58665415  1
  Na  Na13  1  0.68155781  0.84082180  0.08665415  1
  Na  Na14  1  0.84082180  0.68155781  0.58665415  1
  Na  Na15  1  0.15917820  0.31844219  0.08665415  1
  Na  Na16  1  0.43268039  0.18378564  0.99984570  1
  Na  Na17  1  0.56731961  0.81621436  0.49984570  1
  Na  Na18  1  0.81621436  0.56731961  0.99984570  1
  Na  Na19  1  0.18378564  0.43268039  0.49984570  1
  In  In20  1  0.03381525  0.96618475  0.88015525  1
  In  In21  1  0.96618475  0.03381525  0.38015525  1
  In  In22  1  0.26589337  0.73410663  0.62232020  1
  In  In23  1  0.73410663  0.26589337  0.12232020  1
  In  In24  1  0.78376838  0.21623162  0.61719168  1
  In  In25  1  0.21623162  0.78376838  0.11719168  1
  In  In26  1  0.51234800  0.48765200  0.87978331  1
  In  In27  1  0.48765200  0.51234800  0.37978331  1
  Te  Te28  1  0.21973273  0.78026727  0.99656558  1
  Te  Te29  1  0.78026727  0.21973273  0.49656558  1
  Te  Te30  1  0.12231997  0.87768003  0.69227513  1
  Te  Te31  1  0.87768003  0.12231997  0.19227513  1
  Te  Te32  1  0.37036908  0.62963092  0.80890936  1
  Te  Te33  1  0.62963092  0.37036908  0.30890936  1
  Te  Te34  1  0.03067007  0.96932993  0.00076091  1
  Te  Te35  1  0.96932993  0.03067007  0.50076091  1
  Te  Te36  1  0.62386425  0.85943785  0.64018122  1
  Te  Te37  1  0.37613575  0.14056215  0.14018122  1
  Te  Te38  1  0.14056215  0.37613575  0.64018122  1
  Te  Te39  1  0.85943785  0.62386425  0.14018122  1
  Te  Te40  1  0.39267287  0.13229318  0.85895866  1
  Te  Te41  1  0.60732713  0.86770682  0.35895866  1
  Te  Te42  1  0.86770682  0.60732713  0.85895866  1
  Te  Te43  1  0.13229318  0.39267287  0.35895866  1
  Te  Te44  1  0.45251846  0.54748154  0.99168153  1
  Te  Te45  1  0.54748154  0.45251846  0.49168153  1
  Te  Te46  1  0.62921670  0.37078330  0.67499966  1
  Te  Te47  1  0.37078330  0.62921670  0.17499966  1
  Te  Te48  1  0.12235166  0.87764834  0.32385084  1
  Te  Te49  1  0.87764834  0.12235166  0.82385084  1
  Te  Te50  1  0.20429723  0.79570277  0.51010429  1
  Te  Te51  1  0.79570277  0.20429723  0.01010429  1
