# generated using pymatgen
data_Nd3(CuGe)4
_symmetry_space_group_name_H-M   'P 1'
_cell_length_a   4.32723185
_cell_length_b   6.74497803
_cell_length_c   8.21180731
_cell_angle_alpha   114.24804774
_cell_angle_beta   105.27642793
_cell_angle_gamma   89.99999634
_symmetry_Int_Tables_number   1
_chemical_formula_structural   Nd3(CuGe)4
_chemical_formula_sum   'Nd3 Cu4 Ge4'
_cell_volume   209.21024981
_cell_formula_units_Z   1
loop_
 _symmetry_equiv_pos_site_id
 _symmetry_equiv_pos_as_xyz
  1  'x, y, z'
loop_
 _atom_site_type_symbol
 _atom_site_label
 _atom_site_symmetry_multiplicity
 _atom_site_fract_x
 _atom_site_fract_y
 _atom_site_fract_z
 _atom_site_occupancy
  Nd  Nd0  1  0.86771366  0.36771366  0.73542732  1
  Nd  Nd1  1  0.00000000  0.00000000  0.00000000  1
  Nd  Nd2  1  0.13228634  0.63228634  0.26457268  1
  Cu  Cu3  1  0.66642303  0.35238239  0.33284607  1
  Cu  Cu4  1  0.33357697  0.64761761  0.66715393  1
  Cu  Cu5  1  0.33357697  0.01953633  0.66715393  1
  Cu  Cu6  1  0.66642303  0.98046367  0.33284607  1
  Ge  Ge7  1  0.50000000  0.31118059  0.00000000  1
  Ge  Ge8  1  0.21619061  0.21619061  0.43238121  1
  Ge  Ge9  1  0.78380939  0.78380939  0.56761879  1
  Ge  Ge10  1  0.50000000  0.68881941  1.00000000  1
