# generated using pymatgen
data_Sc2CI3
_symmetry_space_group_name_H-M   'P 1'
_cell_length_a   11.16695170
_cell_length_b   11.06933159
_cell_length_c   14.23719635
_cell_angle_alpha   88.52966453
_cell_angle_beta   72.43543158
_cell_angle_gamma   60.79485336
_symmetry_Int_Tables_number   1
_chemical_formula_structural   Sc2CI3
_chemical_formula_sum   'Sc16 C8 I24'
_cell_volume   1448.81567591
_cell_formula_units_Z   8
loop_
 _symmetry_equiv_pos_site_id
 _symmetry_equiv_pos_as_xyz
  1  'x, y, z'
loop_
 _atom_site_type_symbol
 _atom_site_label
 _atom_site_symmetry_multiplicity
 _atom_site_fract_x
 _atom_site_fract_y
 _atom_site_fract_z
 _atom_site_occupancy
  I  I0  1  0.42054744  0.85857970  -0.00036595  1
  I  I1  1  0.57945256  0.14142030  1.00036595  1
  I  I2  1  0.28519764  0.58124459  0.99360991  1
  I  I3  1  0.71480236  0.41875541  0.00639009  1
  I  I4  1  0.87274596  0.73014767  0.99360302  1
  I  I5  1  0.12725404  0.26985233  0.00639698  1
  I  I6  1  0.10237948  0.63668136  0.50650929  1
  I  I7  1  0.89762052  0.36331864  0.49349071  1
  I  I8  1  0.22976006  0.92187085  0.50714395  1
  I  I9  1  0.77023994  0.07812915  0.49285605  1
  I  I10  1  0.64195830  0.78502736  0.49898076  1
  I  I11  1  0.35804170  0.21497264  0.50101924  1
  I  I12  1  0.06876782  0.19624133  0.75113853  1
  I  I13  1  0.93123218  0.80375867  0.24886147  1
  I  I14  1  0.19780196  0.50507074  0.75607218  1
  I  I15  1  0.80219804  0.49492926  0.24392782  1
  I  I16  1  0.46915424  0.06210419  0.74950235  1
  I  I17  1  0.53084576  0.93789581  0.25049765  1
  I  I18  1  0.62191251  0.34828600  0.75244517  1
  I  I19  1  0.37808749  0.65171400  0.24755483  1
  I  I20  1  0.93510066  0.90755461  0.74531730  1
  I  I21  1  0.06489934  0.09244539  0.25468270  1
  I  I22  1  0.74018203  0.63011235  0.73814768  1
  I  I23  1  0.25981797  0.36988765  0.26185232  1
  Sc  Sc24  1  0.59340816  0.56466729  0.60190292  1
  Sc  Sc25  1  0.40659184  0.43533271  0.39809708  1
  Sc  Sc26  1  0.35559754  0.92483066  0.66289319  1
  Sc  Sc27  1  0.64440246  0.07516934  0.33710681  1
  Sc  Sc28  1  0.46727500  0.66350014  0.83677150  1
  Sc  Sc29  1  0.53272500  0.33649986  0.16322850  1
  Sc  Sc30  1  0.09011617  0.80590966  0.89261021  1
  Sc  Sc31  1  0.90988383  0.19409034  0.10738979  1
  Sc  Sc32  1  0.84102542  0.14906873  0.88125366  1
  Sc  Sc33  1  0.15897458  0.85093127  0.11874634  1
  Sc  Sc34  1  0.48151521  0.30408195  0.61961097  1
  Sc  Sc35  1  0.51848479  0.69591805  0.38038903  1
  Sc  Sc36  1  0.28409307  0.66146688  0.60456186  1
  Sc  Sc37  1  0.71590693  0.33853312  0.39543814  1
  Sc  Sc38  1  0.19459556  0.01299288  0.89960997  1
  Sc  Sc39  1  0.80540444  0.98700712  0.10039003  1
  C  C40  1  0.28724634  0.83026682  0.79179054  1
  C  C41  1  0.71275366  0.16973318  0.20820946  1
  C  C42  1  0.04202145  0.96017090  0.02917954  1
  C  C43  1  0.95797855  0.03982910  0.97082046  1
  C  C44  1  0.38697894  0.71880748  0.70811125  1
  C  C45  1  0.61302106  0.28119252  0.29188875  1
  C  C46  1  0.49702220  0.44912895  0.52995989  1
  C  C47  1  0.50297780  0.55087105  0.47004011  1
