# generated using pymatgen
data_Na2Hg3S4
_symmetry_space_group_name_H-M   'P 1'
_cell_length_a   7.58126621
_cell_length_b   8.44157887
_cell_length_c   14.24905526
_cell_angle_alpha   90.00000000
_cell_angle_beta   90.00000000
_cell_angle_gamma   90.00000000
_symmetry_Int_Tables_number   1
_chemical_formula_structural   Na2Hg3S4
_chemical_formula_sum   'Na8 Hg12 S16'
_cell_volume   911.90899587
_cell_formula_units_Z   4
loop_
 _symmetry_equiv_pos_site_id
 _symmetry_equiv_pos_as_xyz
  1  'x, y, z'
loop_
 _atom_site_type_symbol
 _atom_site_label
 _atom_site_symmetry_multiplicity
 _atom_site_fract_x
 _atom_site_fract_y
 _atom_site_fract_z
 _atom_site_occupancy
  Na  Na0  1  0.43531541  0.61809573  0.39321952  1
  Na  Na1  1  0.93531541  0.38190427  0.10678048  1
  Na  Na2  1  0.06468459  0.11809573  0.60678048  1
  Na  Na3  1  0.56468459  0.88190427  0.89321952  1
  Na  Na4  1  0.56468459  0.38190427  0.60678048  1
  Na  Na5  1  0.06468459  0.61809573  0.89321952  1
  Na  Na6  1  0.93531541  0.88190427  0.39321952  1
  Na  Na7  1  0.43531541  0.11809573  0.10678048  1
  Hg  Hg8  1  0.26981527  0.77804144  0.69349113  1
  Hg  Hg9  1  0.76981527  0.22195856  0.80650887  1
  Hg  Hg10  1  0.23018473  0.27804144  0.30650887  1
  Hg  Hg11  1  0.73018473  0.72195856  0.19349113  1
  Hg  Hg12  1  0.73018473  0.22195856  0.30650887  1
  Hg  Hg13  1  0.23018473  0.77804144  0.19349113  1
  Hg  Hg14  1  0.76981527  0.72195856  0.69349113  1
  Hg  Hg15  1  0.26981527  0.27804144  0.80650887  1
  Hg  Hg16  1  0.50000000  0.00000000  0.50000000  1
  Hg  Hg17  1  0.00000000  0.00000000  0.00000000  1
  Hg  Hg18  1  0.00000000  0.50000000  0.50000000  1
  Hg  Hg19  1  0.50000000  0.50000000  0.00000000  1
  S  S20  1  0.73948961  0.65353378  0.51727096  1
  S  S21  1  0.23948961  0.34646622  0.98272904  1
  S  S22  1  0.76051039  0.15353378  0.48272904  1
  S  S23  1  0.26051039  0.84646622  0.01727096  1
  S  S24  1  0.26051039  0.34646622  0.48272904  1
  S  S25  1  0.76051039  0.65353378  0.01727096  1
  S  S26  1  0.23948961  0.84646622  0.51727096  1
  S  S27  1  0.73948961  0.15353378  0.98272904  1
  S  S28  1  0.50963507  0.89339856  0.26844849  1
  S  S29  1  0.00963507  0.10660144  0.23155151  1
  S  S30  1  0.99036493  0.39339856  0.73155151  1
  S  S31  1  0.49036493  0.60660144  0.76844849  1
  S  S32  1  0.49036493  0.10660144  0.73155151  1
  S  S33  1  0.99036493  0.89339856  0.76844849  1
  S  S34  1  0.00963507  0.60660144  0.26844849  1
  S  S35  1  0.50963507  0.39339856  0.23155151  1
