# generated using pymatgen
data_BaP2PbO7
_symmetry_space_group_name_H-M   'P 1'
_cell_length_a   5.69885939
_cell_length_b   9.23096122
_cell_length_c   13.63657683
_cell_angle_alpha   90.00000000
_cell_angle_beta   90.00000000
_cell_angle_gamma   90.00000000
_symmetry_Int_Tables_number   1
_chemical_formula_structural   BaP2PbO7
_chemical_formula_sum   'Ba4 P8 Pb4 O28'
_cell_volume   717.36507926
_cell_formula_units_Z   4
loop_
 _symmetry_equiv_pos_site_id
 _symmetry_equiv_pos_as_xyz
  1  'x, y, z'
loop_
 _atom_site_type_symbol
 _atom_site_label
 _atom_site_symmetry_multiplicity
 _atom_site_fract_x
 _atom_site_fract_y
 _atom_site_fract_z
 _atom_site_occupancy
  Ba  Ba0  1  0.75000000  0.66272912  0.76149085  1
  Ba  Ba1  1  0.25000000  0.33727088  0.23850915  1
  Ba  Ba2  1  0.75000000  0.16272912  0.73850915  1
  Ba  Ba3  1  0.25000000  0.83727088  0.26149085  1
  Pb  Pb4  1  0.25000000  0.86339823  0.58666266  1
  Pb  Pb5  1  0.75000000  0.13660177  0.41333734  1
  Pb  Pb6  1  0.25000000  0.36339823  0.91333734  1
  Pb  Pb7  1  0.75000000  0.63660177  0.08666266  1
  P  P8  1  0.75000000  0.77833114  0.46600469  1
  P  P9  1  0.25000000  0.22166886  0.53399531  1
  P  P10  1  0.75000000  0.27833114  0.03399531  1
  P  P11  1  0.25000000  0.72166886  0.96600469  1
  P  P12  1  0.75000000  0.53959741  0.31970375  1
  P  P13  1  0.25000000  0.46040259  0.68029625  1
  P  P14  1  0.75000000  0.03959741  0.18029625  1
  P  P15  1  0.25000000  0.96040259  0.81970375  1
  O  O16  1  0.52620871  0.85236269  0.42679719  1
  O  O17  1  0.02620871  0.14763731  0.57320281  1
  O  O18  1  0.97379129  0.35236269  0.07320281  1
  O  O19  1  0.47379129  0.64763731  0.92679719  1
  O  O20  1  0.47379129  0.14763731  0.57320281  1
  O  O21  1  0.97379129  0.85236269  0.42679719  1
  O  O22  1  0.02620871  0.64763731  0.92679719  1
  O  O23  1  0.52620871  0.35236269  0.07320281  1
  O  O24  1  0.75000000  0.77111588  0.57791052  1
  O  O25  1  0.25000000  0.22888412  0.42208948  1
  O  O26  1  0.75000000  0.27111588  0.92208948  1
  O  O27  1  0.25000000  0.72888412  0.07791052  1
  O  O28  1  0.75000000  0.61032894  0.42897242  1
  O  O29  1  0.25000000  0.38967106  0.57102758  1
  O  O30  1  0.75000000  0.11032894  0.07102758  1
  O  O31  1  0.25000000  0.88967106  0.92897242  1
  O  O32  1  0.75000000  0.37558374  0.33610255  1
  O  O33  1  0.25000000  0.62441626  0.66389745  1
  O  O34  1  0.75000000  0.87558374  0.16389745  1
  O  O35  1  0.25000000  0.12441626  0.83610255  1
  O  O36  1  0.97189360  0.58929590  0.26486809  1
  O  O37  1  0.47189360  0.41070410  0.73513191  1
  O  O38  1  0.52810640  0.08929590  0.23513191  1
  O  O39  1  0.02810640  0.91070410  0.76486809  1
  O  O40  1  0.02810640  0.41070410  0.73513191  1
  O  O41  1  0.52810640  0.58929590  0.26486809  1
  O  O42  1  0.47189360  0.91070410  0.76486809  1
  O  O43  1  0.97189360  0.08929590  0.23513191  1
