# generated using pymatgen
data_LiVCuO4
_symmetry_space_group_name_H-M   'P 1'
_cell_length_a   6.09523192
_cell_length_b   6.09525529
_cell_length_c   7.79678444
_cell_angle_alpha   90.00433109
_cell_angle_beta   90.00691849
_cell_angle_gamma   90.00879242
_symmetry_Int_Tables_number   1
_chemical_formula_structural   LiVCuO4
_chemical_formula_sum   'Li4 V4 Cu4 O16'
_cell_volume   289.66608715
_cell_formula_units_Z   4
loop_
 _symmetry_equiv_pos_site_id
 _symmetry_equiv_pos_as_xyz
  1  'x, y, z'
loop_
 _atom_site_type_symbol
 _atom_site_label
 _atom_site_symmetry_multiplicity
 _atom_site_fract_x
 _atom_site_fract_y
 _atom_site_fract_z
 _atom_site_occupancy
  Li  Li0  1  0.00002787  0.23675620  0.00006546  1
  Li  Li1  1  -0.00010869  0.76324981  0.50000898  1
  Li  Li2  1  0.23675481  0.00011250  0.24999969  1
  Li  Li3  1  0.76324594  0.99997569  0.74992561  1
  V  V4  1  0.21653620  0.49989225  0.24998881  1
  V  V5  1  0.50010863  0.21662066  0.00012882  1
  V  V6  1  0.50020157  0.78341773  0.49998511  1
  V  V7  1  0.78333658  0.49999760  0.74989270  1
  Cu  Cu8  1  0.25943146  0.25944852  0.62500418  1
  Cu  Cu9  1  0.25940237  0.74057573  0.87501721  1
  Cu  Cu10  1  0.74061183  0.25937743  0.37499208  1
  Cu  Cu11  1  0.74056709  0.74058598  0.12499389  1
  O  O12  1  0.03362982  0.27491859  0.26771441  1
  O  O13  1  0.03343039  0.72505514  0.23218855  1
  O  O14  1  0.27481405  0.03334226  0.98219608  1
  O  O15  1  0.27485363  0.96664673  0.51781306  1
  O  O16  1  0.26989119  0.47266534  0.01067070  1
  O  O17  1  0.26988144  0.52731442  0.48930614  1
  O  O18  1  0.47243109  0.26988627  0.23911791  1
  O  O19  1  0.47267228  0.73012424  0.26071384  1
  O  O20  1  0.52729624  0.26987260  0.76071410  1
  O  O21  1  0.52730906  0.73011779  0.73932305  1
  O  O22  1  0.73011777  0.52754246  0.51088703  1
  O  O23  1  0.73013334  0.47269129  0.98926386  1
  O  O24  1  0.72504162  0.03341024  0.01779579  1
  O  O25  1  0.72506110  0.96636683  0.48229274  1
  O  O26  1  0.96666677  0.27487022  0.73220336  1
  O  O27  1  0.96665453  0.72516549  0.76779687  1
