# generated using pymatgen
data_RbFeCl4
_symmetry_space_group_name_H-M   'P 1'
_cell_length_a   7.27898368
_cell_length_b   9.53221267
_cell_length_c   11.54698610
_cell_angle_alpha   90.00000000
_cell_angle_beta   90.00000000
_cell_angle_gamma   90.00000000
_symmetry_Int_Tables_number   1
_chemical_formula_structural   RbFeCl4
_chemical_formula_sum   'Rb4 Fe4 Cl16'
_cell_volume   801.18555739
_cell_formula_units_Z   4
loop_
 _symmetry_equiv_pos_site_id
 _symmetry_equiv_pos_as_xyz
  1  'x, y, z'
loop_
 _atom_site_type_symbol
 _atom_site_label
 _atom_site_symmetry_multiplicity
 _atom_site_fract_x
 _atom_site_fract_y
 _atom_site_fract_z
 _atom_site_occupancy
  Fe  Fe0  1  0.25000000  0.68921463  0.56754979  1
  Fe  Fe1  1  0.75000000  0.31078537  0.43245021  1
  Fe  Fe2  1  0.75000000  0.18921463  0.93245021  1
  Fe  Fe3  1  0.25000000  0.81078537  0.06754979  1
  Cl  Cl4  1  0.25000000  0.54525755  0.71678670  1
  Cl  Cl5  1  0.75000000  0.45474245  0.28321330  1
  Cl  Cl6  1  0.75000000  0.04525755  0.78321330  1
  Cl  Cl7  1  0.25000000  0.95474245  0.21678670  1
  Cl  Cl8  1  0.25000000  0.57623422  0.40166797  1
  Cl  Cl9  1  0.75000000  0.42376578  0.59833203  1
  Cl  Cl10  1  0.75000000  0.07623422  0.09833203  1
  Cl  Cl11  1  0.25000000  0.92376578  0.90166797  1
  Cl  Cl12  1  0.00363346  0.82533610  0.58124963  1
  Cl  Cl13  1  0.50363346  0.17466390  0.41875037  1
  Cl  Cl14  1  0.99636654  0.32533610  0.91875037  1
  Cl  Cl15  1  0.49636654  0.67466390  0.08124963  1
  Cl  Cl16  1  0.99636654  0.17466390  0.41875037  1
  Cl  Cl17  1  0.49636654  0.82533610  0.58124963  1
  Cl  Cl18  1  0.00363346  0.67466390  0.08124963  1
  Cl  Cl19  1  0.50363346  0.32533610  0.91875037  1
  Rb  Rb20  1  0.25000000  0.16236551  0.67984151  1
  Rb  Rb21  1  0.75000000  0.83763449  0.32015849  1
  Rb  Rb22  1  0.75000000  0.66236551  0.82015849  1
  Rb  Rb23  1  0.25000000  0.33763449  0.17984151  1
