# generated using pymatgen
data_La2InCu2
_symmetry_space_group_name_H-M   'P 1'
_cell_length_a   3.96005983
_cell_length_b   7.86827446
_cell_length_c   7.86827446
_cell_angle_alpha   90.00000000
_cell_angle_beta   90.00000000
_cell_angle_gamma   90.00000000
_symmetry_Int_Tables_number   1
_chemical_formula_structural   La2InCu2
_chemical_formula_sum   'La4 In2 Cu4'
_cell_volume   245.16628625
_cell_formula_units_Z   2
loop_
 _symmetry_equiv_pos_site_id
 _symmetry_equiv_pos_as_xyz
  1  'x, y, z'
loop_
 _atom_site_type_symbol
 _atom_site_label
 _atom_site_symmetry_multiplicity
 _atom_site_fract_x
 _atom_site_fract_y
 _atom_site_fract_z
 _atom_site_occupancy
  La  La0  1  0.50000000  0.17871324  0.67871324  1
  La  La1  1  0.50000000  0.32128676  0.17871324  1
  La  La2  1  0.50000000  0.67871324  0.82128676  1
  La  La3  1  0.50000000  0.82128676  0.32128676  1
  In  In4  1  0.00000000  0.00000000  0.00000000  1
  In  In5  1  0.00000000  0.50000000  0.50000000  1
  Cu  Cu6  1  0.00000000  0.11663991  0.38336009  1
  Cu  Cu7  1  0.00000000  0.38336009  0.88336009  1
  Cu  Cu8  1  0.00000000  0.61663991  0.11663991  1
  Cu  Cu9  1  0.00000000  0.88336009  0.61663991  1
