# generated using pymatgen
data_Li4Ti2Mn4Cr3O18
_symmetry_space_group_name_H-M   'P 1'
_cell_length_a   9.02911695
_cell_length_b   25.23211323
_cell_length_c   2.92884816
_cell_angle_alpha   89.99993626
_cell_angle_beta   90.00008837
_cell_angle_gamma   89.99622774
_symmetry_Int_Tables_number   1
_chemical_formula_structural   Li4Ti2Mn4Cr3O18
_chemical_formula_sum   'Li8 Ti4 Mn8 Cr6 O36'
_cell_volume   667.26102722
_cell_formula_units_Z   2
loop_
 _symmetry_equiv_pos_site_id
 _symmetry_equiv_pos_as_xyz
  1  'x, y, z'
loop_
 _atom_site_type_symbol
 _atom_site_label
 _atom_site_symmetry_multiplicity
 _atom_site_fract_x
 _atom_site_fract_y
 _atom_site_fract_z
 _atom_site_occupancy
  Li  Li0  1  0.18030233  0.00065539  0.99999944  1
  Li  Li1  1  0.19768643  0.20299428  0.00000038  1
  Li  Li2  1  0.30225869  0.70295729  0.00000057  1
  Li  Li3  1  0.31970172  0.50068189  0.99999932  1
  Li  Li4  1  0.68031176  0.49933282  0.00000025  1
  Li  Li5  1  0.69755332  0.29702720  0.00000015  1
  Li  Li6  1  0.80251004  0.79706554  0.99999985  1
  Li  Li7  1  0.81971922  0.99932033  0.00000025  1
  Ti  Ti8  1  0.00044470  0.10678052  -0.00000007  1
  Ti  Ti9  1  0.49954351  0.60674078  0.99999916  1
  Ti  Ti10  1  0.50040690  0.39322662  0.00000042  1
  Ti  Ti11  1  0.99962624  0.89324733  0.00000143  1
  Mn  Mn12  1  0.02181583  0.30997309  0.99999909  1
  Mn  Mn13  1  0.13800775  0.58757516  0.49999813  1
  Mn  Mn14  1  0.36198801  0.08758510  0.49999993  1
  Mn  Mn15  1  0.47823091  0.80997230  -0.00000003  1
  Mn  Mn16  1  0.52184503  0.19001563  0.00000026  1
  Mn  Mn17  1  0.63801754  0.91243326  0.50000066  1
  Mn  Mn18  1  0.86198680  0.41242518  0.49999971  1
  Mn  Mn19  1  0.97817508  0.69002246  0.99999824  1
  Cr  Cr20  1  0.00002560  0.49998580  0.00000742  1
  Cr  Cr21  1  0.14364669  0.80436341  0.50000795  1
  Cr  Cr22  1  0.35632501  0.30438092  0.49999776  1
  Cr  Cr23  1  0.50000483  0.00000778  0.00001807  1
  Cr  Cr24  1  0.64357982  0.69561103  0.50001509  1
  Cr  Cr25  1  0.85623720  0.19562754  0.49999191  1
  O  O26  1  0.00103199  0.42092343  0.99999152  1
  O  O27  1  0.99898182  0.57906934  0.99999529  1
  O  O28  1  0.03444038  0.94093928  0.49999930  1
  O  O29  1  0.05646212  0.16168060  0.49999267  1
  O  O30  1  0.10305964  0.66232021  0.49999777  1
  O  O31  1  0.11594702  0.75525225  0.00000544  1
  O  O32  1  0.15191872  0.50972181  0.49998368  1
  O  O33  1  0.14175458  0.28313253  0.49999861  1
  O  O34  1  0.18174249  0.85684963  0.00000631  1
  O  O35  1  0.22210277  0.08890503  0.00000074  1
  O  O36  1  0.27791139  0.58886872  0.99999917  1
  O  O37  1  0.31826298  0.35683019  0.99999946  1
  O  O38  1  0.35831979  0.78315060  0.50000385  1
  O  O39  1  0.34809866  0.00974264  0.50000659  1
  O  O40  1  0.38410875  0.25525592  0.00000122  1
  O  O41  1  0.39696743  0.16233186  0.49999721  1
  O  O42  1  0.44341005  0.66164492  0.50000369  1
  O  O43  1  0.46557721  0.44090858  0.49999799  1
  O  O44  1  0.50102928  0.07908194  0.00000153  1
  O  O45  1  0.49898110  0.92094233  0.00000222  1
  O  O46  1  0.53442370  0.55904869  0.50000071  1
  O  O47  1  0.55647975  0.33831626  0.50000332  1
  O  O48  1  0.60304918  0.83769198  0.49999964  1
  O  O49  1  0.61593796  0.74474926  0.00000832  1
  O  O50  1  0.65190063  0.99028222  0.50000847  1
  O  O51  1  0.64172754  0.21685313  0.49999423  1
  O  O52  1  0.68165308  0.64314445  0.00000710  1
  O  O53  1  0.72209024  0.41109929  0.00000220  1
  O  O54  1  0.77792675  0.91112369  0.99999904  1
  O  O55  1  0.81826630  0.14317810  0.99998907  1
  O  O56  1  0.85823996  0.71682913  0.50000051  1
  O  O57  1  0.84811744  0.49026825  0.49998528  1
  O  O58  1  0.88406087  0.24474421  0.99998886  1
  O  O59  1  0.89697149  0.33767451  0.49999869  1
  O  O60  1  0.94349987  0.83834580  0.49999690  1
  O  O61  1  0.96559610  0.05909062  0.49999803  1
