# generated using pymatgen
data_SrV2(P2O7)2
_symmetry_space_group_name_H-M   'P 1'
_cell_length_a   4.89042447
_cell_length_b   7.19238106
_cell_length_c   8.06725009
_cell_angle_alpha   89.47740688
_cell_angle_beta   87.14380411
_cell_angle_gamma   73.99182870
_symmetry_Int_Tables_number   1
_chemical_formula_structural   SrV2(P2O7)2
_chemical_formula_sum   'Sr1 V2 P4 O14'
_cell_volume   272.41045158
_cell_formula_units_Z   1
loop_
 _symmetry_equiv_pos_site_id
 _symmetry_equiv_pos_as_xyz
  1  'x, y, z'
loop_
 _atom_site_type_symbol
 _atom_site_label
 _atom_site_symmetry_multiplicity
 _atom_site_fract_x
 _atom_site_fract_y
 _atom_site_fract_z
 _atom_site_occupancy
  O  O0  1  0.07996726  0.21124655  0.35797633  1
  O  O1  1  0.92003274  0.78875345  0.64202367  1
  O  O2  1  0.28381949  0.45025668  0.20241544  1
  O  O3  1  0.71618051  0.54974332  0.79758456  1
  O  O4  1  0.13178235  0.65377695  0.90744198  1
  O  O5  1  0.86821765  0.34622305  0.09255802  1
  O  O6  1  0.20672277  0.43879708  0.65318125  1
  O  O7  1  0.51653719  0.76554100  0.11399430  1
  O  O8  1  0.48346281  0.23445900  0.88600570  1
  O  O9  1  0.82113373  0.90648754  0.28930272  1
  O  O10  1  0.17886627  0.09351246  0.71069728  1
  O  O11  1  0.37924305  0.83179815  0.42576134  1
  O  O12  1  0.62075695  0.16820185  0.57423866  1
  O  O13  1  0.79327723  0.56120292  0.34681875  1
  P  P14  1  0.98244206  0.61247700  0.75131025  1
  P  P15  1  0.01755794  0.38752300  0.24868975  1
  P  P16  1  0.38383651  0.22289804  0.70713554  1
  P  P17  1  0.61616349  0.77710196  0.29286446  1
  V  V18  1  0.50000000  0.50000000  0.00000000  1
  V  V19  1  0.00000000  0.00000000  0.50000000  1
  Sr  Sr20  1  0.00000000  0.00000000  0.00000000  1
