# generated using pymatgen
data_Mn3Se3O10
_symmetry_space_group_name_H-M   'P 1'
_cell_length_a   6.80212493
_cell_length_b   8.74694610
_cell_length_c   9.84325880
_cell_angle_alpha   64.33231583
_cell_angle_beta   69.78633637
_cell_angle_gamma   67.11837561
_symmetry_Int_Tables_number   1
_chemical_formula_structural   Mn3Se3O10
_chemical_formula_sum   'Mn6 Se6 O20'
_cell_volume   475.13485622
_cell_formula_units_Z   2
loop_
 _symmetry_equiv_pos_site_id
 _symmetry_equiv_pos_as_xyz
  1  'x, y, z'
loop_
 _atom_site_type_symbol
 _atom_site_label
 _atom_site_symmetry_multiplicity
 _atom_site_fract_x
 _atom_site_fract_y
 _atom_site_fract_z
 _atom_site_occupancy
  O  O0  1  0.69257522  0.59979065  0.01505790  1
  O  O1  1  0.30742478  0.40020935  0.98494210  1
  O  O2  1  0.78380399  0.08420175  0.34819127  1
  O  O3  1  0.21619601  0.91579825  0.65180973  1
  O  O4  1  0.24918261  0.17212584  0.32950895  1
  O  O5  1  0.75081639  0.82787416  0.67049105  1
  O  O6  1  0.51697426  0.10634649  0.85970598  1
  O  O7  1  0.48302774  0.89365351  0.14029302  1
  O  O8  1  0.33292715  0.80642524  0.91905081  1
  O  O9  1  0.05840520  0.19357476  0.08094819  1
  O  O10  1  0.66707185  0.19357476  0.08094819  1
  O  O11  1  0.94159480  0.80642524  0.91905181  1
  O  O12  1  0.19638720  0.79794969  0.40807820  1
  O  O13  1  0.40241509  0.20205031  0.59192180  1
  O  O14  1  0.80361280  0.20205031  0.59192180  1
  O  O15  1  0.59758491  0.79794969  0.40807920  1
  O  O16  1  0.35112062  0.48541777  0.21424047  1
  O  O17  1  0.64887938  0.51458223  0.78575953  1
  O  O18  1  0.05077686  0.51458223  0.78575953  1
  O  O19  1  0.94922314  0.48541777  0.21423947  1
  Mn  Mn20  1  0.50000000  0.00000100  0.50000000  1
  Mn  Mn21  1  0.00000000  0.00000100  0.50000000  1
  Mn  Mn22  1  0.38284534  0.14954921  0.08475911  1
  Mn  Mn23  1  0.61715466  0.85045079  0.91523989  1
  Mn  Mn24  1  0.50000100  0.49999900  0.00000000  1
  Mn  Mn25  1  0.00000100  0.49999900  0.00000000  1
  Se  Se26  1  0.46869987  0.72991475  0.33268450  1
  Se  Se27  1  0.53130013  0.27008525  0.66731550  1
  Se  Se28  1  0.13950212  0.39403873  0.32695703  1
  Se  Se29  1  0.86049788  0.60596127  0.67304197  1
  Se  Se30  1  0.11372593  0.94317812  0.82937102  1
  Se  Se31  1  0.88627407  0.05682188  0.17062898  1
