# generated using pymatgen
data_U3Co7B2
_symmetry_space_group_name_H-M   'P 1'
_cell_length_a   4.95102191
_cell_length_b   4.95102233
_cell_length_c   13.93243135
_cell_angle_alpha   90.00000000
_cell_angle_beta   90.00000000
_cell_angle_gamma   119.99999727
_symmetry_Int_Tables_number   1
_chemical_formula_structural   U3Co7B2
_chemical_formula_sum   'U6 Co14 B4'
_cell_volume   295.76534679
_cell_formula_units_Z   2
loop_
 _symmetry_equiv_pos_site_id
 _symmetry_equiv_pos_as_xyz
  1  'x, y, z'
loop_
 _atom_site_type_symbol
 _atom_site_label
 _atom_site_symmetry_multiplicity
 _atom_site_fract_x
 _atom_site_fract_y
 _atom_site_fract_z
 _atom_site_occupancy
  U  U0  1  0.33333300  0.66666700  0.25000000  1
  U  U1  1  0.66666700  0.33333300  0.75000000  1
  U  U2  1  0.33333300  0.66666700  0.03001376  1
  U  U3  1  0.66666700  0.33333300  0.53001376  1
  U  U4  1  0.66666700  0.33333300  0.96998624  1
  U  U5  1  0.33333300  0.66666700  0.46998624  1
  Co  Co6  1  0.00000000  0.00000000  0.00000000  1
  Co  Co7  1  0.00000000  0.00000000  0.50000000  1
  Co  Co8  1  0.83481059  0.66962118  0.14652457  1
  Co  Co9  1  0.16518941  0.83481059  0.64652457  1
  Co  Co10  1  0.66962118  0.83481059  0.64652457  1
  Co  Co11  1  0.33037882  0.16518941  0.14652457  1
  Co  Co12  1  0.83481059  0.16518941  0.14652457  1
  Co  Co13  1  0.16518941  0.33037882  0.85347543  1
  Co  Co14  1  0.16518941  0.83481059  0.85347543  1
  Co  Co15  1  0.16518941  0.33037882  0.64652457  1
  Co  Co16  1  0.66962118  0.83481059  0.85347543  1
  Co  Co17  1  0.33037882  0.16518941  0.35347543  1
  Co  Co18  1  0.83481059  0.66962118  0.35347543  1
  Co  Co19  1  0.83481059  0.16518941  0.35347543  1
  B  B20  1  0.00000000  0.00000000  0.25000000  1
  B  B21  1  0.00000000  0.00000000  0.75000000  1
  B  B22  1  0.33333300  0.66666700  0.75000000  1
  B  B23  1  0.66666700  0.33333300  0.25000000  1
