# generated using pymatgen
data_P3Pd7
_symmetry_space_group_name_H-M   'P 1'
_cell_length_a   7.38341477
_cell_length_b   7.38341528
_cell_length_c   7.38341500
_cell_angle_alpha   110.05484901
_cell_angle_beta   110.05485046
_cell_angle_gamma   110.05484940
_symmetry_Int_Tables_number   1
_chemical_formula_structural   P3Pd7
_chemical_formula_sum   'P6 Pd14'
_cell_volume   302.96879072
_cell_formula_units_Z   2
loop_
 _symmetry_equiv_pos_site_id
 _symmetry_equiv_pos_as_xyz
  1  'x, y, z'
loop_
 _atom_site_type_symbol
 _atom_site_label
 _atom_site_symmetry_multiplicity
 _atom_site_fract_x
 _atom_site_fract_y
 _atom_site_fract_z
 _atom_site_occupancy
  Pd  Pd0  1  0.10805818  0.18127764  0.74884647  1
  Pd  Pd1  1  0.74884647  0.10805818  0.18127764  1
  Pd  Pd2  1  0.18127764  0.74884647  0.10805818  1
  Pd  Pd3  1  0.29778326  0.94520546  0.87316757  1
  Pd  Pd4  1  0.87316757  0.29778326  0.94520546  1
  Pd  Pd5  1  0.94520546  0.87316757  0.29778326  1
  Pd  Pd6  1  0.61121210  0.43759054  0.16519138  1
  Pd  Pd7  1  0.16519138  0.61121210  0.43759054  1
  Pd  Pd8  1  0.43759054  0.16519138  0.61121210  1
  Pd  Pd9  1  0.87532703  0.44107812  0.61620191  1
  Pd  Pd10  1  0.61620191  0.87532703  0.44107812  1
  Pd  Pd11  1  0.44107812  0.61620191  0.87532703  1
  Pd  Pd12  1  0.22462594  0.22462594  0.22462594  1
  Pd  Pd13  1  0.82808133  0.82808133  0.82808133  1
  P  P14  1  0.50008537  0.12336013  0.30017395  1
  P  P15  1  0.30017395  0.50008537  0.12336013  1
  P  P16  1  0.12336013  0.30017395  0.50008537  1
  P  P17  1  0.92279900  0.75244604  0.54648855  1
  P  P18  1  0.54648855  0.92279900  0.75244604  1
  P  P19  1  0.75244604  0.54648855  0.92279900  1
