# generated using pymatgen
data_Nb2Pd3Se8
_symmetry_space_group_name_H-M   'P 1'
_cell_length_a   3.63011426
_cell_length_b   10.83880565
_cell_length_c   15.43915186
_cell_angle_alpha   90.00000000
_cell_angle_beta   90.00000000
_cell_angle_gamma   90.00000000
_symmetry_Int_Tables_number   1
_chemical_formula_structural   Nb2Pd3Se8
_chemical_formula_sum   'Nb4 Pd6 Se16'
_cell_volume   607.47045857
_cell_formula_units_Z   2
loop_
 _symmetry_equiv_pos_site_id
 _symmetry_equiv_pos_as_xyz
  1  'x, y, z'
loop_
 _atom_site_type_symbol
 _atom_site_label
 _atom_site_symmetry_multiplicity
 _atom_site_fract_x
 _atom_site_fract_y
 _atom_site_fract_z
 _atom_site_occupancy
  Nb  Nb0  1  0.50000000  0.78649934  0.88344461  1
  Nb  Nb1  1  0.50000000  0.21350066  0.11655539  1
  Nb  Nb2  1  0.50000000  0.28649934  0.61655539  1
  Nb  Nb3  1  0.50000000  0.71350066  0.38344461  1
  Pd  Pd4  1  0.00000000  0.00000000  0.00000000  1
  Pd  Pd5  1  0.00000000  0.50000000  0.50000000  1
  Pd  Pd6  1  0.00000000  0.61993303  0.78378372  1
  Pd  Pd7  1  0.00000000  0.38006697  0.21621628  1
  Pd  Pd8  1  0.00000000  0.11993303  0.71621628  1
  Pd  Pd9  1  0.00000000  0.88006697  0.28378372  1
  Se  Se10  1  0.00000000  0.77061308  0.00754899  1
  Se  Se11  1  0.00000000  0.22938692  0.99245101  1
  Se  Se12  1  0.00000000  0.27061308  0.49245101  1
  Se  Se13  1  0.00000000  0.72938692  0.50754899  1
  Se  Se14  1  0.00000000  0.95548099  0.84322405  1
  Se  Se15  1  0.00000000  0.04451901  0.15677595  1
  Se  Se16  1  0.00000000  0.45548099  0.65677595  1
  Se  Se17  1  0.00000000  0.54451901  0.34322405  1
  Se  Se18  1  0.50000000  0.74888028  0.71888140  1
  Se  Se19  1  0.50000000  0.25111972  0.28111860  1
  Se  Se20  1  0.50000000  0.24888028  0.78111860  1
  Se  Se21  1  0.50000000  0.75111972  0.21888140  1
  Se  Se22  1  0.50000000  0.54714266  0.88254947  1
  Se  Se23  1  0.50000000  0.45285734  0.11745053  1
  Se  Se24  1  0.50000000  0.04714266  0.61745053  1
  Se  Se25  1  0.50000000  0.95285734  0.38254947  1
