# generated using pymatgen
data_Cs4Pr6C2I13
_symmetry_space_group_name_H-M   'P 1'
_cell_length_a   12.86263041
_cell_length_b   14.46666536
_cell_length_c   14.46666580
_cell_angle_alpha   78.60133558
_cell_angle_beta   63.60474381
_cell_angle_gamma   63.60474497
_symmetry_Int_Tables_number   1
_chemical_formula_structural   Cs4Pr6C2I13
_chemical_formula_sum   'Cs8 Pr12 C4 I26'
_cell_volume   2159.92627355
_cell_formula_units_Z   2
loop_
 _symmetry_equiv_pos_site_id
 _symmetry_equiv_pos_as_xyz
  1  'x, y, z'
loop_
 _atom_site_type_symbol
 _atom_site_label
 _atom_site_symmetry_multiplicity
 _atom_site_fract_x
 _atom_site_fract_y
 _atom_site_fract_z
 _atom_site_occupancy
  Cs  Cs0  1  0.02857670  0.25000000  0.44284661  1
  Cs  Cs1  1  0.97142330  0.05715339  0.25000000  1
  Cs  Cs2  1  0.27857670  0.44284661  0.25000000  1
  Cs  Cs3  1  0.72142330  0.25000000  0.05715339  1
  Cs  Cs4  1  0.97142330  0.75000000  0.55715339  1
  Cs  Cs5  1  0.02857670  0.94284661  0.75000000  1
  Cs  Cs6  1  0.72142330  0.55715339  0.75000000  1
  Cs  Cs7  1  0.27857670  0.75000000  0.94284661  1
  Pr  Pr8  1  0.60876093  0.25000000  0.75000000  1
  Pr  Pr9  1  0.85876093  0.75000000  0.25000000  1
  Pr  Pr10  1  0.14123907  0.25000000  0.75000000  1
  Pr  Pr11  1  0.39123907  0.75000000  0.25000000  1
  Pr  Pr12  1  0.37651247  0.11127860  0.88872140  1
  Pr  Pr13  1  0.76523386  0.61127860  0.11127860  1
  Pr  Pr14  1  0.48779107  0.88872140  0.38872140  1
  Pr  Pr15  1  0.37651247  0.38872140  0.61127860  1
  Pr  Pr16  1  0.51220893  0.11127860  0.61127860  1
  Pr  Pr17  1  0.23476614  0.38872140  0.88872140  1
  Pr  Pr18  1  0.62348753  0.61127860  0.38872140  1
  Pr  Pr19  1  0.62348753  0.88872140  0.11127860  1
  I  I20  1  0.12500000  0.75000000  0.25000000  1
  I  I21  1  0.87500000  0.25000000  0.75000000  1
  I  I22  1  0.54640338  0.25000000  0.40719324  1
  I  I23  1  0.45359662  0.09280676  0.25000000  1
  I  I24  1  0.79640338  0.40719324  0.25000000  1
  I  I25  1  0.20359662  0.25000000  0.09280676  1
  I  I26  1  0.45359662  0.75000000  0.59280676  1
  I  I27  1  0.54640338  0.90719324  0.75000000  1
  I  I28  1  0.20359662  0.59280676  0.75000000  1
  I  I29  1  0.79640338  0.75000000  0.90719324  1
  I  I30  1  0.12238286  0.07351356  0.92648644  1
  I  I31  1  0.54886929  0.57351356  0.07351356  1
  I  I32  1  0.19589642  0.92648644  0.42648644  1
  I  I33  1  0.12238286  0.42648644  0.57351356  1
  I  I34  1  0.80410358  0.07351356  0.57351356  1
  I  I35  1  0.45113071  0.42648644  0.92648644  1
  I  I36  1  0.87761714  0.57351356  0.42648644  1
  I  I37  1  0.87761714  0.92648644  0.07351356  1
  I  I38  1  0.63050738  0.07736457  0.92263543  1
  I  I39  1  0.05314280  0.57736457  0.07736457  1
  I  I40  1  0.70787195  0.92263543  0.42263543  1
  I  I41  1  0.63050738  0.42263543  0.57736457  1
  I  I42  1  0.29212805  0.07736457  0.57736457  1
  I  I43  1  0.94685720  0.42263543  0.92263543  1
  I  I44  1  0.36949262  0.57736457  0.42263543  1
  I  I45  1  0.36949262  0.92263543  0.07736457  1
  C  C46  1  0.42921462  0.25000000  0.75000000  1
  C  C47  1  0.67921462  0.75000000  0.25000000  1
  C  C48  1  0.32078538  0.25000000  0.75000000  1
  C  C49  1  0.57078538  0.75000000  0.25000000  1
