# generated using pymatgen
data_Rb(OsO3)2
_symmetry_space_group_name_H-M   'P 1'
_cell_length_a   7.24298863
_cell_length_b   7.24298863
_cell_length_c   7.24298863
_cell_angle_alpha   59.99999996
_cell_angle_beta   59.99999995
_cell_angle_gamma   59.99999995
_symmetry_Int_Tables_number   1
_chemical_formula_structural   Rb(OsO3)2
_chemical_formula_sum   'Rb2 Os4 O12'
_cell_volume   268.68190085
_cell_formula_units_Z   2
loop_
 _symmetry_equiv_pos_site_id
 _symmetry_equiv_pos_as_xyz
  1  'x, y, z'
loop_
 _atom_site_type_symbol
 _atom_site_label
 _atom_site_symmetry_multiplicity
 _atom_site_fract_x
 _atom_site_fract_y
 _atom_site_fract_z
 _atom_site_occupancy
  O  O0  1  0.31496667  0.93503333  0.93503333  1
  O  O1  1  0.06496667  0.68503333  0.68503333  1
  O  O2  1  0.93503333  0.31496667  0.93503333  1
  O  O3  1  0.93503333  0.93503333  0.31496667  1
  O  O4  1  0.31496667  0.31496667  0.93503333  1
  O  O5  1  0.31496667  0.93503333  0.31496667  1
  O  O6  1  0.93503333  0.31496667  0.31496667  1
  O  O7  1  0.68503333  0.68503333  0.06496667  1
  O  O8  1  0.06496667  0.06496667  0.68503333  1
  O  O9  1  0.68503333  0.06496667  0.06496667  1
  O  O10  1  0.68503333  0.06496667  0.68503333  1
  O  O11  1  0.06496667  0.68503333  0.06496667  1
  Rb  Rb12  1  0.37500000  0.37500000  0.37500000  1
  Rb  Rb13  1  0.62500000  0.62500000  0.62500000  1
  Os  Os14  1  0.00000000  0.00000000  0.50000000  1
  Os  Os15  1  0.00000000  0.00000000  0.00000000  1
  Os  Os16  1  0.50000000  0.00000000  0.00000000  1
  Os  Os17  1  0.00000000  0.50000000  0.00000000  1
