# generated using pymatgen
data_Ni2W3N
_symmetry_space_group_name_H-M   'P 1'
_cell_length_a   6.67986522
_cell_length_b   6.67986522
_cell_length_c   6.67986522
_cell_angle_alpha   90.00000000
_cell_angle_beta   90.00000000
_cell_angle_gamma   90.00000000
_symmetry_Int_Tables_number   1
_chemical_formula_structural   Ni2W3N
_chemical_formula_sum   'Ni8 W12 N4'
_cell_volume   298.05958974
_cell_formula_units_Z   4
loop_
 _symmetry_equiv_pos_site_id
 _symmetry_equiv_pos_as_xyz
  1  'x, y, z'
loop_
 _atom_site_type_symbol
 _atom_site_label
 _atom_site_symmetry_multiplicity
 _atom_site_fract_x
 _atom_site_fract_y
 _atom_site_fract_z
 _atom_site_occupancy
  W  W0  1  0.20036224  0.45036224  0.12500000  1
  W  W1  1  0.45036224  0.12500000  0.20036224  1
  W  W2  1  0.95036224  0.37500000  0.79963776  1
  W  W3  1  0.87500000  0.70036224  0.04963776  1
  W  W4  1  0.12500000  0.20036224  0.45036224  1
  W  W5  1  0.79963776  0.95036224  0.37500000  1
  W  W6  1  0.70036224  0.04963776  0.87500000  1
  W  W7  1  0.04963776  0.87500000  0.70036224  1
  W  W8  1  0.62500000  0.29963776  0.54963776  1
  W  W9  1  0.54963776  0.62500000  0.29963776  1
  W  W10  1  0.37500000  0.79963776  0.95036224  1
  W  W11  1  0.29963776  0.54963776  0.62500000  1
  Ni  Ni12  1  0.06620750  0.06620750  0.06620750  1
  Ni  Ni13  1  0.31620750  0.18379250  0.81620750  1
  Ni  Ni14  1  0.81620750  0.31620750  0.18379250  1
  Ni  Ni15  1  0.18379250  0.81620750  0.31620750  1
  Ni  Ni16  1  0.43379250  0.93379250  0.56620750  1
  Ni  Ni17  1  0.56620750  0.43379250  0.93379250  1
  Ni  Ni18  1  0.93379250  0.56620750  0.43379250  1
  Ni  Ni19  1  0.68379250  0.68379250  0.68379250  1
  N  N20  1  0.37500000  0.37500000  0.37500000  1
  N  N21  1  0.62500000  0.87500000  0.12500000  1
  N  N22  1  0.12500000  0.62500000  0.87500000  1
  N  N23  1  0.87500000  0.12500000  0.62500000  1
