# generated using pymatgen
data_Sc7CBr12
_symmetry_space_group_name_H-M   'P 1'
_cell_length_a   8.61297919
_cell_length_b   8.61297879
_cell_length_c   8.61297899
_cell_angle_alpha   107.74740886
_cell_angle_beta   107.74740803
_cell_angle_gamma   107.74740432
_symmetry_Int_Tables_number   1
_chemical_formula_structural   Sc7CBr12
_chemical_formula_sum   'Sc7 C1 Br12'
_cell_volume   520.88576505
_cell_formula_units_Z   1
loop_
 _symmetry_equiv_pos_site_id
 _symmetry_equiv_pos_as_xyz
  1  'x, y, z'
loop_
 _atom_site_type_symbol
 _atom_site_label
 _atom_site_symmetry_multiplicity
 _atom_site_fract_x
 _atom_site_fract_y
 _atom_site_fract_z
 _atom_site_occupancy
  Br  Br0  1  0.07690908  0.22701349  0.69496189  1
  Br  Br1  1  0.69496189  0.07690908  0.22701349  1
  Br  Br2  1  0.22701349  0.69496189  0.07690908  1
  Br  Br3  1  0.84163831  0.54588807  0.61958065  1
  Br  Br4  1  0.61958065  0.84163831  0.54588807  1
  Br  Br5  1  0.54588807  0.61958065  0.84163831  1
  Br  Br6  1  0.31101834  0.92537311  0.78095304  1
  Br  Br7  1  0.78095304  0.31101834  0.92537311  1
  Br  Br8  1  0.92537311  0.78095304  0.31101834  1
  Br  Br9  1  0.46600251  0.38728064  0.14904891  1
  Br  Br10  1  0.14904891  0.46600251  0.38728064  1
  Br  Br11  1  0.38728064  0.14904891  0.46600251  1
  Sc  Sc12  1  0.47821893  0.47821893  0.47821893  1
  Sc  Sc13  1  0.97771561  0.91051081  0.71394843  1
  Sc  Sc14  1  0.71394843  0.97771561  0.91051081  1
  Sc  Sc15  1  0.91051081  0.71394843  0.97771561  1
  Sc  Sc16  1  0.29470225  0.03896592  0.10389957  1
  Sc  Sc17  1  0.10389957  0.29470225  0.03896592  1
  Sc  Sc18  1  0.03896592  0.10389957  0.29470225  1
  C  C19  1  0.00057043  0.00057043  0.00057043  1
