# generated using pymatgen
data_Cs2Te2O5
_symmetry_space_group_name_H-M   'P 1'
_cell_length_a   11.16787901
_cell_length_b   12.27062565
_cell_length_c   12.30753350
_cell_angle_alpha   90.00000000
_cell_angle_beta   90.00000000
_cell_angle_gamma   90.00000000
_symmetry_Int_Tables_number   1
_chemical_formula_structural   Cs2Te2O5
_chemical_formula_sum   'Cs16 Te16 O40'
_cell_volume   1686.58577763
_cell_formula_units_Z   8
loop_
 _symmetry_equiv_pos_site_id
 _symmetry_equiv_pos_as_xyz
  1  'x, y, z'
loop_
 _atom_site_type_symbol
 _atom_site_label
 _atom_site_symmetry_multiplicity
 _atom_site_fract_x
 _atom_site_fract_y
 _atom_site_fract_z
 _atom_site_occupancy
  Cs  Cs0  1  0.25057106  0.24775728  0.24733841  1
  Cs  Cs1  1  0.78772334  0.00411366  0.99721118  1
  Cs  Cs2  1  0.25057106  0.74775728  0.25266159  1
  Cs  Cs3  1  0.71227666  0.00411366  0.49721118  1
  Cs  Cs4  1  0.74942894  0.25224272  0.74733841  1
  Cs  Cs5  1  0.24942894  0.74775728  0.75266159  1
  Cs  Cs6  1  0.24942894  0.24775728  0.74733841  1
  Cs  Cs7  1  0.28772334  0.99588634  0.50278882  1
  Cs  Cs8  1  0.75057106  0.75224272  0.25266159  1
  Cs  Cs9  1  0.71227666  0.50411366  0.00278882  1
  Cs  Cs10  1  0.21227666  0.49588634  0.49721118  1
  Cs  Cs11  1  0.78772334  0.50411366  0.50278882  1
  Cs  Cs12  1  0.75057106  0.25224272  0.24733841  1
  Cs  Cs13  1  0.21227666  0.99588634  0.00278882  1
  Cs  Cs14  1  0.74942894  0.75224272  0.75266159  1
  Cs  Cs15  1  0.28772334  0.49588634  0.99721118  1
  Te  Te16  1  0.50370181  0.98902991  0.23863009  1
  Te  Te17  1  0.00556505  0.73766618  0.01384268  1
  Te  Te18  1  0.49443495  0.73766618  0.51384268  1
  Te  Te19  1  0.00370181  0.01097009  0.26136991  1
  Te  Te20  1  0.49629819  0.51097009  0.73863009  1
  Te  Te21  1  0.50370181  0.48902991  0.26136991  1
  Te  Te22  1  0.00556505  0.23766618  0.48615732  1
  Te  Te23  1  0.99443495  0.76233382  0.51384268  1
  Te  Te24  1  0.99629819  0.48902991  0.76136991  1
  Te  Te25  1  0.50556505  0.26233382  0.48615732  1
  Te  Te26  1  0.99443495  0.26233382  0.98615732  1
  Te  Te27  1  0.49443495  0.23766618  0.98615732  1
  Te  Te28  1  0.50556505  0.76233382  0.01384268  1
  Te  Te29  1  0.49629819  0.01097009  0.76136991  1
  Te  Te30  1  0.00370181  0.51097009  0.23863009  1
  Te  Te31  1  0.99629819  0.98902991  0.73863009  1
  O  O32  1  0.66871128  0.00549296  0.22670201  1
  O  O33  1  0.46778918  0.89195308  0.10901875  1
  O  O34  1  0.00815838  0.38463182  0.65105677  1
  O  O35  1  0.99184162  0.61536818  0.34894323  1
  O  O36  1  0.33128872  0.49450704  0.72670201  1
  O  O37  1  0.17124619  0.72739656  0.00310260  1
  O  O38  1  0.49184162  0.38463182  0.15105677  1
  O  O39  1  0.83128872  0.00549296  0.72670201  1
  O  O40  1  0.98582603  0.84871783  0.11686256  1
  O  O41  1  0.32875381  0.72739656  0.50310260  1
  O  O42  1  0.82875381  0.27260344  0.99689740  1
  O  O43  1  0.03221082  0.39195308  0.89098125  1
  O  O44  1  0.96778918  0.10804692  0.39098125  1
  O  O45  1  0.48582603  0.15128217  0.38313744  1
  O  O46  1  0.83128872  0.50549296  0.77329799  1
  O  O47  1  0.48582603  0.65128217  0.11686256  1
  O  O48  1  0.66871128  0.50549296  0.27329799  1
  O  O49  1  0.82875381  0.77260344  0.50310260  1
  O  O50  1  0.16871128  0.49450704  0.22670201  1
  O  O51  1  0.01417397  0.15128217  0.88313744  1
  O  O52  1  0.51417397  0.34871783  0.88313744  1
  O  O53  1  0.67124619  0.27260344  0.49689740  1
  O  O54  1  0.98582603  0.34871783  0.38313744  1
  O  O55  1  0.50815838  0.11536818  0.65105677  1
  O  O56  1  0.53221082  0.10804692  0.89098125  1
  O  O57  1  0.99184162  0.11536818  0.15105677  1
  O  O58  1  0.00815838  0.88463182  0.84894323  1
  O  O59  1  0.16871128  0.99450704  0.27329799  1
  O  O60  1  0.01417397  0.65128217  0.61686256  1
  O  O61  1  0.49184162  0.88463182  0.34894323  1
  O  O62  1  0.51417397  0.84871783  0.61686256  1
  O  O63  1  0.33128872  0.99450704  0.77329799  1
  O  O64  1  0.53221082  0.60804692  0.60901875  1
  O  O65  1  0.50815838  0.61536818  0.84894323  1
  O  O66  1  0.17124619  0.22739656  0.49689740  1
  O  O67  1  0.32875381  0.22739656  0.99689740  1
  O  O68  1  0.67124619  0.77260344  0.00310260  1
  O  O69  1  0.96778918  0.60804692  0.10901875  1
  O  O70  1  0.03221082  0.89195308  0.60901875  1
  O  O71  1  0.46778918  0.39195308  0.39098125  1
