# generated using pymatgen
data_Cs2SnS14
_symmetry_space_group_name_H-M   'P 1'
_cell_length_a   7.30526482
_cell_length_b   15.28458706
_cell_length_c   19.24467728
_cell_angle_alpha   90.00000000
_cell_angle_beta   90.00000000
_cell_angle_gamma   99.30692750
_symmetry_Int_Tables_number   1
_chemical_formula_structural   Cs2SnS14
_chemical_formula_sum   'Cs8 Sn4 S56'
_cell_volume   2120.53461314
_cell_formula_units_Z   4
loop_
 _symmetry_equiv_pos_site_id
 _symmetry_equiv_pos_as_xyz
  1  'x, y, z'
loop_
 _atom_site_type_symbol
 _atom_site_label
 _atom_site_symmetry_multiplicity
 _atom_site_fract_x
 _atom_site_fract_y
 _atom_site_fract_z
 _atom_site_occupancy
  Cs  Cs0  1  0.08089701  0.52285988  0.20134141  1
  Cs  Cs1  1  0.41910299  0.97714012  0.70134141  1
  Cs  Cs2  1  0.91910299  0.47714012  0.79865859  1
  Cs  Cs3  1  0.58089701  0.02285988  0.29865859  1
  Cs  Cs4  1  0.36973466  0.16446498  0.04911870  1
  Cs  Cs5  1  0.13026534  0.33553502  0.54911870  1
  Cs  Cs6  1  0.63026534  0.83553502  0.95088130  1
  Cs  Cs7  1  0.86973466  0.66446498  0.45088130  1
  Sn  Sn8  1  0.96476133  0.83050527  0.17546025  1
  Sn  Sn9  1  0.53523867  0.66949473  0.67546025  1
  Sn  Sn10  1  0.03523867  0.16949473  0.82453975  1
  Sn  Sn11  1  0.46476133  0.33050527  0.32453975  1
  S  S12  1  0.74064723  0.67708249  0.18304554  1
  S  S13  1  0.75935277  0.82291751  0.68304554  1
  S  S14  1  0.25935277  0.32291751  0.81695446  1
  S  S15  1  0.24064723  0.17708249  0.31695446  1
  S  S16  1  0.59925671  0.64452548  0.09297610  1
  S  S17  1  0.90074329  0.85547452  0.59297610  1
  S  S18  1  0.40074329  0.35547452  0.90702390  1
  S  S19  1  0.09925671  0.14452548  0.40702390  1
  S  S20  1  0.73829475  0.56138919  0.03550017  1
  S  S21  1  0.76170525  0.93861081  0.53550017  1
  S  S22  1  0.26170525  0.43861081  0.96449983  1
  S  S23  1  0.23829475  0.06138919  0.46449983  1
  S  S24  1  0.91729808  0.63946947  0.96759614  1
  S  S25  1  0.58270192  0.86053053  0.46759614  1
  S  S26  1  0.08270192  0.36053053  0.03240386  1
  S  S27  1  0.41729808  0.13946947  0.53240386  1
  S  S28  1  0.14614381  0.69565333  0.02562406  1
  S  S29  1  0.35385619  0.80434667  0.52562406  1
  S  S30  1  0.85385619  0.30434667  0.97437594  1
  S  S31  1  0.64614381  0.19565333  0.47437594  1
  S  S32  1  0.11545141  0.82187037  0.05094301  1
  S  S33  1  0.38454859  0.67812963  0.55094301  1
  S  S34  1  0.88454859  0.17812963  0.94905699  1
  S  S35  1  0.61545141  0.32187037  0.44905699  1
  S  S36  1  0.67575954  0.90328622  0.13531437  1
  S  S37  1  0.82424046  0.59671378  0.63531437  1
  S  S38  1  0.32424046  0.09671378  0.86468563  1
  S  S39  1  0.17575954  0.40328622  0.36468563  1
  S  S40  1  0.80195281  0.02078726  0.09141038  1
  S  S41  1  0.69804719  0.47921274  0.59141038  1
  S  S42  1  0.19804719  0.97921274  0.90858962  1
  S  S43  1  0.30195281  0.52078726  0.40858962  1
  S  S44  1  0.98576588  0.07486830  0.16817689  1
  S  S45  1  0.51423412  0.42513170  0.66817689  1
  S  S46  1  0.01423412  0.92513170  0.83182311  1
  S  S47  1  0.48576588  0.57486830  0.33182311  1
  S  S48  1  0.17545346  0.98859069  0.17049363  1
  S  S49  1  0.32454654  0.51140931  0.67049363  1
  S  S50  1  0.82454654  0.01140931  0.82950637  1
  S  S51  1  0.67545346  0.48859069  0.32950637  1
  S  S52  1  0.86093431  0.83775224  0.30624730  1
  S  S53  1  0.63906569  0.66224776  0.80624730  1
  S  S54  1  0.13906569  0.16224776  0.69375270  1
  S  S55  1  0.36093431  0.33775224  0.19375270  1
  S  S56  1  0.11442568  0.86459431  0.35454269  1
  S  S57  1  0.38557432  0.63540569  0.85454269  1
  S  S58  1  0.88557432  0.13540569  0.64545731  1
  S  S59  1  0.61442568  0.36459431  0.14545731  1
  S  S60  1  0.24331382  0.75948619  0.32393201  1
  S  S61  1  0.25668618  0.74051381  0.82393201  1
  S  S62  1  0.75668618  0.24051381  0.67606799  1
  S  S63  1  0.74331382  0.25948619  0.17606799  1
  S  S64  1  0.27159495  0.77454463  0.21799698  1
  S  S65  1  0.22840505  0.72545537  0.71799698  1
  S  S66  1  0.72840505  0.22545537  0.78200302  1
  S  S67  1  0.77159495  0.27454463  0.28200302  1
