# generated using pymatgen
data_K2Nb4Fe2O13
_symmetry_space_group_name_H-M   'P 1'
_cell_length_a   3.96146201
_cell_length_b   8.43258059
_cell_length_c   9.63593065
_cell_angle_alpha   99.97174709
_cell_angle_beta   90.00000000
_cell_angle_gamma   103.58515380
_symmetry_Int_Tables_number   1
_chemical_formula_structural   K2Nb4Fe2O13
_chemical_formula_sum   'K2 Nb4 Fe2 O13'
_cell_volume   307.88075538
_cell_formula_units_Z   1
loop_
 _symmetry_equiv_pos_site_id
 _symmetry_equiv_pos_as_xyz
  1  'x, y, z'
loop_
 _atom_site_type_symbol
 _atom_site_label
 _atom_site_symmetry_multiplicity
 _atom_site_fract_x
 _atom_site_fract_y
 _atom_site_fract_z
 _atom_site_occupancy
  O  O0  1  0.37551426  0.75102752  0.88649557  1
  O  O1  1  0.62448574  0.24897148  0.11350443  1
  O  O2  1  0.00000000  0.00000000  0.00000000  1
  O  O3  1  0.30007107  0.60014314  0.56166911  1
  O  O4  1  0.69992793  0.39985686  0.43833089  1
  O  O5  1  0.83627917  0.67255934  0.07746838  1
  O  O6  1  0.16372083  0.32744166  0.92253162  1
  O  O7  1  0.93205139  0.86410377  0.69688234  1
  O  O8  1  0.22286681  0.44573462  0.24305196  1
  O  O9  1  0.77713319  0.55426638  0.75694904  1
  O  O10  1  0.06794861  0.13589723  0.30311866  1
  O  O11  1  0.86927977  0.73856055  0.39020272  1
  O  O12  1  0.13072023  0.26144045  0.60979728  1
  K  K13  1  0.44876977  0.89753954  0.24932672  1
  K  K14  1  0.55122923  0.10245946  0.75067228  1
  Fe  Fe15  1  0.23685770  0.47371541  0.77499818  1
  Fe  Fe16  1  0.76314130  0.52628459  0.22500082  1
  Nb  Nb17  1  0.16389246  0.32778393  0.43606715  1
  Nb  Nb18  1  0.11907437  0.23814773  0.08474764  1
  Nb  Nb19  1  0.83610754  0.67221507  0.56393185  1
  Nb  Nb20  1  0.88092563  0.76185227  0.91525336  1
