# generated using pymatgen
data_K2PdSe10
_symmetry_space_group_name_H-M   'P 1'
_cell_length_a   12.61112000
_cell_length_b   13.22107123
_cell_length_c   13.22107132
_cell_angle_alpha   76.87574315
_cell_angle_beta   61.51474401
_cell_angle_gamma   61.51474451
_symmetry_Int_Tables_number   1
_chemical_formula_structural   K2PdSe10
_chemical_formula_sum   'K8 Pd4 Se40'
_cell_volume   1702.96305567
_cell_formula_units_Z   4
loop_
 _symmetry_equiv_pos_site_id
 _symmetry_equiv_pos_as_xyz
  1  'x, y, z'
loop_
 _atom_site_type_symbol
 _atom_site_label
 _atom_site_symmetry_multiplicity
 _atom_site_fract_x
 _atom_site_fract_y
 _atom_site_fract_z
 _atom_site_occupancy
  K  K0  1  0.97683413  0.05285389  0.24472300  1
  K  K1  1  0.52316587  0.75527700  0.94714611  1
  K  K2  1  0.02970691  0.94683555  0.74255998  1
  K  K3  1  0.72558898  0.74472300  0.55285389  1
  K  K4  1  0.21910244  0.55316445  0.75744002  1
  K  K5  1  0.47029309  0.25744002  0.05316445  1
  K  K6  1  0.77441102  0.44714611  0.25527700  1
  K  K7  1  0.28089756  0.24255998  0.44683555  1
  Pd  Pd8  1  0.87476918  0.75000000  0.75000000  1
  Pd  Pd9  1  0.37492659  0.75000000  0.75000000  1
  Pd  Pd10  1  0.62523082  0.25000000  0.25000000  1
  Pd  Pd11  1  0.12507341  0.25000000  0.25000000  1
  Se  Se12  1  0.20680012  0.29986647  0.92217233  1
  Se  Se13  1  0.53440907  0.60851109  0.59082642  1
  Se  Se14  1  0.44699709  0.19764453  0.83019460  1
  Se  Se15  1  0.35661787  0.53266844  0.44300170  1
  Se  Se16  1  0.64434748  0.80270560  0.32961432  1
  Se  Se17  1  0.70050862  0.44275255  0.96740404  1
  Se  Se18  1  0.05300291  0.16980540  0.80235547  1
  Se  Se19  1  0.52516377  0.33019460  0.69764453  1
  Se  Se20  1  0.57116108  0.42217233  0.79986647  1
  Se  Se21  1  0.35732055  0.90893174  0.60847446  1
  Se  Se22  1  0.27666740  0.69729440  0.17038568  1
  Se  Se23  1  0.23374658  0.89148891  0.90917358  1
  Se  Se24  1  0.99295262  0.57815910  0.30017397  1
  Se  Se25  1  0.77182986  0.16815956  0.05240340  1
  Se  Se26  1  0.50704738  0.69982603  0.42184090  1
  Se  Se27  1  0.93970556  0.83166978  0.55245782  1
  Se  Se28  1  0.26625342  0.09082642  0.10851109  1
  Se  Se29  1  0.72817014  0.94759660  0.83184044  1
  Se  Se30  1  0.12871430  0.80017397  0.07815910  1
  Se  Se31  1  0.88933479  0.46740404  0.94275255  1
  Se  Se32  1  0.29319988  0.07782767  0.70013353  1
  Se  Se33  1  0.37472675  0.59106826  0.89152554  1
  Se  Se34  1  0.79949138  0.03259596  0.55724745  1
  Se  Se35  1  0.97483623  0.30235547  0.66980540  1
  Se  Se36  1  0.14267945  0.39152554  0.09106826  1
  Se  Se37  1  0.49239282  0.33184044  0.44759660  1
  Se  Se38  1  0.00760718  0.55240340  0.66815956  1
  Se  Se39  1  0.67616684  0.05245782  0.33166978  1
  Se  Se40  1  0.12527325  0.10847446  0.40893174  1
  Se  Se41  1  0.66771198  0.94300170  0.03266844  1
  Se  Se42  1  0.85565252  0.67038568  0.19729440  1
  Se  Se43  1  0.92883892  0.20013353  0.57782767  1
  Se  Se44  1  0.61066521  0.05724745  0.53259596  1
  Se  Se45  1  0.56029444  0.44754218  0.16833022  1
  Se  Se46  1  0.82383316  0.66833022  0.94754218  1
  Se  Se47  1  0.96559093  0.40917358  0.39148891  1
  Se  Se48  1  0.22333260  0.82961432  0.30270560  1
  Se  Se49  1  0.83228802  0.96733156  0.05699830  1
  Se  Se50  1  0.14338213  0.55699830  0.46733156  1
  Se  Se51  1  0.37128570  0.92184090  0.19982603  1
