# generated using pymatgen
data_Cs2NaCrF6
_symmetry_space_group_name_H-M   'P 1'
_cell_length_a   10.95877662
_cell_length_b   10.95877681
_cell_length_c   10.95877666
_cell_angle_alpha   33.73296488
_cell_angle_beta   33.73296340
_cell_angle_gamma   33.73296660
_symmetry_Int_Tables_number   1
_chemical_formula_structural   Cs2NaCrF6
_chemical_formula_sum   'Cs4 Na2 Cr2 F12'
_cell_volume   361.61483154
_cell_formula_units_Z   2
loop_
 _symmetry_equiv_pos_site_id
 _symmetry_equiv_pos_as_xyz
  1  'x, y, z'
loop_
 _atom_site_type_symbol
 _atom_site_label
 _atom_site_symmetry_multiplicity
 _atom_site_fract_x
 _atom_site_fract_y
 _atom_site_fract_z
 _atom_site_occupancy
  Cs  Cs0  1  0.71799983  0.71799983  0.71799983  1
  Cs  Cs1  1  0.28200017  0.28200017  0.28200017  1
  Cs  Cs2  1  0.87195123  0.87195123  0.87195123  1
  Cs  Cs3  1  0.12804877  0.12804877  0.12804877  1
  Na  Na4  1  0.40322133  0.40322133  0.40322133  1
  Na  Na5  1  0.59677867  0.59677867  0.59677867  1
  Cr  Cr6  1  0.00000000  0.00000000  0.00000000  1
  Cr  Cr7  1  0.50000000  0.50000000  0.50000000  1
  F  F8  1  0.18307865  0.18307865  0.74218659  1
  F  F9  1  0.18307865  0.74218659  0.18307865  1
  F  F10  1  0.74218659  0.18307865  0.18307865  1
  F  F11  1  0.25781341  0.81692135  0.81692135  1
  F  F12  1  0.81692135  0.81692135  0.25781341  1
  F  F13  1  0.81692135  0.25781341  0.81692135  1
  F  F14  1  0.39611500  0.39611500  0.82201401  1
  F  F15  1  0.39611500  0.82201401  0.39611500  1
  F  F16  1  0.60388500  0.17798599  0.60388500  1
  F  F17  1  0.60388500  0.60388500  0.17798599  1
  F  F18  1  0.17798599  0.60388500  0.60388500  1
  F  F19  1  0.82201401  0.39611500  0.39611500  1
