# generated using pymatgen
data_Cs4Sn2Te7
_symmetry_space_group_name_H-M   'P 1'
_cell_length_a   8.05314555
_cell_length_b   9.35423043
_cell_length_c   19.56746910
_cell_angle_alpha   76.57171972
_cell_angle_beta   78.12490132
_cell_angle_gamma   64.50357599
_symmetry_Int_Tables_number   1
_chemical_formula_structural   Cs4Sn2Te7
_chemical_formula_sum   'Cs8 Sn4 Te14'
_cell_volume   1284.67572507
_cell_formula_units_Z   2
loop_
 _symmetry_equiv_pos_site_id
 _symmetry_equiv_pos_as_xyz
  1  'x, y, z'
loop_
 _atom_site_type_symbol
 _atom_site_label
 _atom_site_symmetry_multiplicity
 _atom_site_fract_x
 _atom_site_fract_y
 _atom_site_fract_z
 _atom_site_occupancy
  Cs  Cs0  1  0.02636129  0.36406014  0.14760519  1
  Cs  Cs1  1  0.68014385  0.24207008  0.93843395  1
  Cs  Cs2  1  0.86064789  0.25792992  0.56156605  1
  Cs  Cs3  1  0.13935211  0.74207008  0.43843395  1
  Cs  Cs4  1  0.53802662  0.13593986  0.35239481  1
  Cs  Cs5  1  0.31985615  0.75792992  0.06156605  1
  Cs  Cs6  1  0.46197338  0.86406014  0.64760519  1
  Cs  Cs7  1  0.97363871  0.63593986  0.85239481  1
  Sn  Sn8  1  0.22025080  0.43900404  0.65381228  1
  Sn  Sn9  1  0.68693288  0.93900404  0.15381228  1
  Sn  Sn10  1  0.31306712  0.06099596  0.84618772  1
  Sn  Sn11  1  0.77974920  0.56099596  0.34618772  1
  Te  Te12  1  0.19138589  0.20496440  0.96371572  1
  Te  Te13  1  0.40874680  0.73847794  0.85631119  1
  Te  Te14  1  0.99646407  0.23847794  0.35631119  1
  Te  Te15  1  0.00353593  0.76152206  0.64368881  1
  Te  Te16  1  0.36006600  0.29503560  0.53628428  1
  Te  Te17  1  0.80861411  0.79503560  0.03628428  1
  Te  Te18  1  0.49035725  0.41556265  0.73562848  1
  Te  Te19  1  0.04252926  0.25000000  0.75000000  1
  Te  Te20  1  0.63993400  0.70496440  0.46371572  1
  Te  Te21  1  0.95747074  0.75000000  0.25000000  1
  Te  Te22  1  0.35845162  0.91556265  0.23562848  1
  Te  Te23  1  0.64154838  0.08443735  0.76437152  1
  Te  Te24  1  0.50964275  0.58443735  0.26437152  1
  Te  Te25  1  0.59125320  0.26152206  0.14368881  1
