# generated using pymatgen
data_Sr5Nb5O17
_symmetry_space_group_name_H-M   'P 1'
_cell_length_a   4.04878772
_cell_length_b   5.75167605
_cell_length_c   33.15188111
_cell_angle_alpha   90.00000000
_cell_angle_beta   90.00000000
_cell_angle_gamma   90.00000000
_symmetry_Int_Tables_number   1
_chemical_formula_structural   Sr5Nb5O17
_chemical_formula_sum   'Sr10 Nb10 O34'
_cell_volume   772.01831021
_cell_formula_units_Z   2
loop_
 _symmetry_equiv_pos_site_id
 _symmetry_equiv_pos_as_xyz
  1  'x, y, z'
loop_
 _atom_site_type_symbol
 _atom_site_label
 _atom_site_symmetry_multiplicity
 _atom_site_fract_x
 _atom_site_fract_y
 _atom_site_fract_z
 _atom_site_occupancy
  Nb  Nb0  1  0.49305404  0.50000000  0.50000000  1
  Nb  Nb1  1  0.99305404  0.00000000  0.00000000  1
  Nb  Nb2  1  0.49104409  0.46581976  0.67677974  1
  Nb  Nb3  1  0.49104409  0.53418024  0.32322026  1
  Nb  Nb4  1  0.99104409  0.03418024  0.17677974  1
  Nb  Nb5  1  0.99104409  0.96581976  0.82322026  1
  Nb  Nb6  1  0.49279422  0.99479042  0.59005001  1
  Nb  Nb7  1  0.49279422  0.00520958  0.40994999  1
  Nb  Nb8  1  0.99279422  0.50520958  0.09005001  1
  Nb  Nb9  1  0.99279422  0.49479042  0.90994999  1
  Sr  Sr10  1  0.49074957  0.43295202  0.78299578  1
  Sr  Sr11  1  0.49074957  0.56704798  0.21700422  1
  Sr  Sr12  1  0.99074957  0.06704798  0.28299578  1
  Sr  Sr13  1  0.99074957  0.93295202  0.71700422  1
  Sr  Sr14  1  0.99429079  0.00000000  0.50000000  1
  Sr  Sr15  1  0.49429079  0.50000000  0.00000000  1
  Sr  Sr16  1  0.99087448  0.50231196  0.59011737  1
  Sr  Sr17  1  0.99087448  0.49768804  0.40988263  1
  Sr  Sr18  1  0.49087448  -0.00231196  0.09011737  1
  Sr  Sr19  1  0.49087448  1.00231196  0.90988263  1
  O  O20  1  0.49430053  0.78091696  0.46371251  1
  O  O21  1  0.49430053  0.21908304  0.53628749  1
  O  O22  1  0.99430053  0.71908304  0.96371251  1
  O  O23  1  0.99430053  0.28091696  0.03628749  1
  O  O24  1  0.49247864  0.72243971  0.54813825  1
  O  O25  1  0.49247864  0.27756029  0.45186175  1
  O  O26  1  0.99247864  0.77756029  0.04813825  1
  O  O27  1  0.99247864  0.22243971  0.95186175  1
  O  O28  1  0.99327835  0.50000000  0.50000000  1
  O  O29  1  0.49327835  0.00000000  0.00000000  1
  O  O30  1  0.99131347  0.70172582  0.79112610  1
  O  O31  1  0.99131347  0.29827418  0.20887390  1
  O  O32  1  0.49131347  0.79827418  0.29112610  1
  O  O33  1  0.49131347  0.20172582  0.70887390  1
  O  O34  1  0.99154892  0.79399234  0.87979800  1
  O  O35  1  0.99154892  0.20600766  0.12020200  1
  O  O36  1  0.49154892  0.70600766  0.37979800  1
  O  O37  1  0.49154892  0.29399234  0.62020200  1
  O  O38  1  0.99433541  0.27542387  0.86795746  1
  O  O39  1  0.99433541  0.72457613  0.13204254  1
  O  O40  1  0.49433541  0.22457613  0.36795746  1
  O  O41  1  0.49433541  0.77542387  0.63204254  1
  O  O42  1  0.49099479  0.68315558  0.72018318  1
  O  O43  1  0.49099479  0.31684442  0.27981682  1
  O  O44  1  0.99099479  0.81684442  0.22018318  1
  O  O45  1  0.99099479  0.18315558  0.77981682  1
  O  O46  1  0.99185143  0.49845037  0.66914885  1
  O  O47  1  0.99185143  0.50154963  0.33085115  1
  O  O48  1  0.49185143  0.00154963  0.16914885  1
  O  O49  1  0.49185143  0.99845037  0.83085115  1
  O  O50  1  0.99310284  0.00904874  0.58335639  1
  O  O51  1  0.99310284  0.99095126  0.41664361  1
  O  O52  1  0.49310284  0.49095126  0.08335639  1
  O  O53  1  0.49310284  0.50904874  0.91664361  1
