# generated using pymatgen
data_V(HgO2)2
_symmetry_space_group_name_H-M   'P 1'
_cell_length_a   3.73899247
_cell_length_b   14.71481504
_cell_length_c   16.87505113
_cell_angle_alpha   90.00000000
_cell_angle_beta   90.00000000
_cell_angle_gamma   90.09214852
_symmetry_Int_Tables_number   1
_chemical_formula_structural   V(HgO2)2
_chemical_formula_sum   'V8 Hg16 O32'
_cell_volume   928.44019369
_cell_formula_units_Z   8
loop_
 _symmetry_equiv_pos_site_id
 _symmetry_equiv_pos_as_xyz
  1  'x, y, z'
loop_
 _atom_site_type_symbol
 _atom_site_label
 _atom_site_symmetry_multiplicity
 _atom_site_fract_x
 _atom_site_fract_y
 _atom_site_fract_z
 _atom_site_occupancy
  O  O0  1  0.00205142  0.72773367  0.37725105  1
  O  O1  1  0.49794658  0.77226633  0.87725105  1
  O  O2  1  0.99794758  0.27226633  0.62274895  1
  O  O3  1  0.50205142  0.22773367  0.12274895  1
  O  O4  1  0.99797397  0.62354626  0.20975458  1
  O  O5  1  0.50202603  0.87645374  0.70975458  1
  O  O6  1  0.00202703  0.37645374  0.79024542  1
  O  O7  1  0.49797197  0.12354626  0.29024542  1
  O  O8  1  0.99594731  0.54138837  0.39349786  1
  O  O9  1  0.50405369  0.95861163  0.89349686  1
  O  O10  1  0.00405369  0.45861163  0.60650214  1
  O  O11  1  0.49594531  0.04138837  0.10650214  1
  O  O12  1  0.56224205  0.87406733  0.44854644  1
  O  O13  1  0.93775795  0.62593267  0.94854544  1
  O  O14  1  0.43775895  0.12593267  0.55145356  1
  O  O15  1  0.06224305  0.37406733  0.05145356  1
  O  O16  1  0.00494766  0.79227782  0.61423314  1
  O  O17  1  0.49505334  0.70772218  0.11423314  1
  O  O18  1  0.99505134  0.20772218  0.38576686  1
  O  O19  1  0.50494766  0.29227782  0.88576686  1
  O  O20  1  0.49823801  0.62366616  0.29671882  1
  O  O21  1  0.00175999  0.87633384  0.79671882  1
  O  O22  1  0.50175999  0.37633384  0.70328118  1
  O  O23  1  0.99823901  0.12366616  0.20328118  1
  O  O24  1  0.49848044  0.52112487  0.12775179  1
  O  O25  1  0.00151756  0.97887513  0.62775179  1
  O  O26  1  0.50151756  0.47887513  0.87224821  1
  O  O27  1  0.99848144  0.02112487  0.37224821  1
  O  O28  1  0.49608089  0.62457161  0.56516513  1
  O  O29  1  0.50391711  0.37542839  0.43483487  1
  O  O30  1  0.00391911  0.87542839  0.06516513  1
  O  O31  1  0.99608189  0.12457161  0.93483487  1
  V  V32  1  0.49839814  0.12910624  0.17238590  1
  V  V33  1  0.00160086  0.37089376  0.67238590  1
  V  V34  1  0.50159986  0.87089376  0.82761410  1
  V  V35  1  0.99839814  0.62910624  0.32761410  1
  V  V36  1  0.99822870  0.11908861  0.32128635  1
  V  V37  1  0.50177030  0.38091239  0.82128635  1
  V  V38  1  0.00177030  0.88091239  0.67871365  1
  V  V39  1  0.49823070  0.61908761  0.17871365  1
  Hg  Hg40  1  0.49779656  0.87447228  0.32124358  1
  Hg  Hg41  1  0.99999900  0.50000000  0.00000000  1
  Hg  Hg42  1  0.49999900  0.50000000  0.50000000  1
  Hg  Hg43  1  0.00000000  0.00000000  0.00000000  1
  Hg  Hg44  1  0.50000000  0.00000000  0.50000000  1
  Hg  Hg45  1  0.00220444  0.62552772  0.82124358  1
  Hg  Hg46  1  0.50220444  0.12552772  0.67875642  1
  Hg  Hg47  1  0.99779456  0.37447228  0.17875642  1
  Hg  Hg48  1  0.49954310  0.74970118  0.50601689  1
  Hg  Hg49  1  0.00045790  0.75029882  0.00601689  1
  Hg  Hg50  1  0.50045590  0.25029882  0.49398311  1
  Hg  Hg51  1  0.99954410  0.24970118  0.99398311  1
  Hg  Hg52  1  0.38069382  0.87622219  0.16811271  1
  Hg  Hg53  1  0.11930618  0.62377781  0.66811271  1
  Hg  Hg54  1  0.61930418  0.12377781  0.83188729  1
  Hg  Hg55  1  0.88069482  0.37622219  0.33188729  1
