# generated using pymatgen
data_Ni2SnP
_symmetry_space_group_name_H-M   'P 1'
_cell_length_a   3.59022524
_cell_length_b   5.09371747
_cell_length_c   12.94569039
_cell_angle_alpha   90.00000000
_cell_angle_beta   90.00000000
_cell_angle_gamma   90.00000000
_symmetry_Int_Tables_number   1
_chemical_formula_structural   Ni2SnP
_chemical_formula_sum   'Ni8 Sn4 P4'
_cell_volume   236.74551730
_cell_formula_units_Z   4
loop_
 _symmetry_equiv_pos_site_id
 _symmetry_equiv_pos_as_xyz
  1  'x, y, z'
loop_
 _atom_site_type_symbol
 _atom_site_label
 _atom_site_symmetry_multiplicity
 _atom_site_fract_x
 _atom_site_fract_y
 _atom_site_fract_z
 _atom_site_occupancy
  Ni  Ni0  1  0.25000000  0.49919202  0.11167023  1
  Ni  Ni1  1  0.75000000  0.50080798  0.88832977  1
  Ni  Ni2  1  0.75000000  0.99919202  0.38832977  1
  Ni  Ni3  1  0.25000000  0.00080798  0.61167023  1
  Ni  Ni4  1  0.75000000  0.51370684  0.41945842  1
  Ni  Ni5  1  0.25000000  0.48629316  0.58054158  1
  Ni  Ni6  1  0.25000000  0.01370684  0.08054158  1
  Ni  Ni7  1  0.75000000  0.98629316  0.91945842  1
  Sn  Sn8  1  0.25000000  0.28254615  0.29285606  1
  Sn  Sn9  1  0.75000000  0.71745385  0.70714394  1
  Sn  Sn10  1  0.75000000  0.78254615  0.20714394  1
  Sn  Sn11  1  0.25000000  0.21745385  0.79285606  1
  P  P12  1  0.75000000  0.28330666  0.04356627  1
  P  P13  1  0.25000000  0.71669334  0.95643373  1
  P  P14  1  0.25000000  0.78330666  0.45643373  1
  P  P15  1  0.75000000  0.21669334  0.54356627  1
