# generated using pymatgen
data_NaCuP2O7
_symmetry_space_group_name_H-M   'P 1'
_cell_length_a   5.57743850
_cell_length_b   8.08635797
_cell_length_c   8.12355095
_cell_angle_alpha   66.19218000
_cell_angle_beta   90.00000000
_cell_angle_gamma   69.82631351
_symmetry_Int_Tables_number   1
_chemical_formula_structural   NaCuP2O7
_chemical_formula_sum   'Na2 Cu2 P4 O14'
_cell_volume   310.47831898
_cell_formula_units_Z   2
loop_
 _symmetry_equiv_pos_site_id
 _symmetry_equiv_pos_as_xyz
  1  'x, y, z'
loop_
 _atom_site_type_symbol
 _atom_site_label
 _atom_site_symmetry_multiplicity
 _atom_site_fract_x
 _atom_site_fract_y
 _atom_site_fract_z
 _atom_site_occupancy
  Na  Na0  1  0.61769511  0.46753449  0.69955170  1
  Na  Na1  1  0.91477040  0.46753449  0.19955170  1
  Cu  Cu2  1  0.00043886  0.99857707  0.00095825  1
  Cu  Cu3  1  0.00098407  0.99857707  0.50095825  1
  P  P4  1  0.24222241  0.20248367  0.66064164  1
  P  P5  1  0.55529392  0.20248367  0.16064164  1
  P  P6  1  0.43923465  0.79721160  0.84047883  1
  P  P7  1  0.76355375  0.79721160  0.34047883  1
  O  O8  1  0.06037416  0.19881664  0.80822377  1
  O  O9  1  0.11057940  0.19448421  0.49509223  1
  O  O10  1  0.30660198  0.37437232  0.09887781  1
  O  O11  1  0.49562499  0.99890415  0.75125940  1
  O  O12  1  0.50547086  0.99890415  0.25125940  1
  O  O13  1  0.31902470  0.37437232  0.59887781  1
  O  O14  1  0.26893242  0.79872142  0.68709114  1
  O  O15  1  0.30251063  0.80531388  0.00553540  1
  O  O16  1  0.69493639  0.19448421  0.99509223  1
  O  O17  1  0.74080920  0.19881664  0.30822377  1
  O  O18  1  0.69209947  0.62147254  0.40335283  1
  O  O19  1  0.68642800  0.62147254  0.90335283  1
  O  O20  1  0.89217449  0.80531388  0.50553540  1
  O  O21  1  0.93234616  0.79872142  0.18709114  1
