# generated using pymatgen
data_Np2Si4Tc3
_symmetry_space_group_name_H-M   'P 1'
_cell_length_a   5.66225457
_cell_length_b   6.76394526
_cell_length_c   8.05095228
_cell_angle_alpha   90.00000000
_cell_angle_beta   90.00000000
_cell_angle_gamma   104.17026608
_symmetry_Int_Tables_number   1
_chemical_formula_structural   Np2Si4Tc3
_chemical_formula_sum   'Np4 Tc6 Si8'
_cell_volume   298.96271382
_cell_formula_units_Z   2
loop_
 _symmetry_equiv_pos_site_id
 _symmetry_equiv_pos_as_xyz
  1  'x, y, z'
loop_
 _atom_site_type_symbol
 _atom_site_label
 _atom_site_symmetry_multiplicity
 _atom_site_fract_x
 _atom_site_fract_y
 _atom_site_fract_z
 _atom_site_occupancy
  Np  Np0  1  0.42660194  0.25459676  0.05638235  1
  Np  Np1  1  0.07339806  0.74540324  0.55638235  1
  Np  Np2  1  0.57339806  0.74540324  0.94361765  1
  Np  Np3  1  0.92660194  0.25459676  0.44361765  1
  Tc  Tc4  1  0.38400032  0.11160323  0.70705049  1
  Tc  Tc5  1  0.11599968  0.88839677  0.20705049  1
  Tc  Tc6  1  0.61599968  0.88839677  0.29294951  1
  Tc  Tc7  1  0.88400032  0.11160323  0.79294951  1
  Tc  Tc8  1  0.50000000  0.50000000  0.50000000  1
  Tc  Tc9  1  0.00000000  0.50000000  0.00000000  1
  Si  Si10  1  0.38398755  0.12736865  0.40380224  1
  Si  Si11  1  0.11601245  0.87263135  0.90380224  1
  Si  Si12  1  0.61601245  0.87263135  0.59619776  1
  Si  Si13  1  0.88398755  0.12736865  0.09619776  1
  Si  Si14  1  0.27560046  0.57861064  0.24873955  1
  Si  Si15  1  0.22439954  0.42138936  0.74873955  1
  Si  Si16  1  0.72439954  0.42138936  0.75126045  1
  Si  Si17  1  0.77560046  0.57861064  0.25126045  1
