# generated using pymatgen
data_Pb3(BrO)2
_symmetry_space_group_name_H-M   'P 1'
_cell_length_a   6.00099272
_cell_length_b   10.16118611
_cell_length_c   12.52233878
_cell_angle_alpha   90.00000000
_cell_angle_beta   90.00000000
_cell_angle_gamma   90.00000000
_symmetry_Int_Tables_number   1
_chemical_formula_structural   Pb3(BrO)2
_chemical_formula_sum   'Pb12 Br8 O8'
_cell_volume   763.57720475
_cell_formula_units_Z   4
loop_
 _symmetry_equiv_pos_site_id
 _symmetry_equiv_pos_as_xyz
  1  'x, y, z'
loop_
 _atom_site_type_symbol
 _atom_site_label
 _atom_site_symmetry_multiplicity
 _atom_site_fract_x
 _atom_site_fract_y
 _atom_site_fract_z
 _atom_site_occupancy
  Pb  Pb0  1  0.25000000  0.07455693  0.07839722  1
  Pb  Pb1  1  0.75000000  0.92544307  0.92160278  1
  Pb  Pb2  1  0.75000000  0.57455693  0.42160278  1
  Pb  Pb3  1  0.25000000  0.42544307  0.57839722  1
  Pb  Pb4  1  0.25000000  0.36317199  0.29161075  1
  Pb  Pb5  1  0.75000000  0.63682801  0.70838925  1
  Pb  Pb6  1  0.75000000  0.86317199  0.20838925  1
  Pb  Pb7  1  0.25000000  0.13682801  0.79161075  1
  Pb  Pb8  1  0.25000000  0.78426870  0.55837767  1
  Pb  Pb9  1  0.75000000  0.21573130  0.44162233  1
  Pb  Pb10  1  0.75000000  0.28426870  0.94162233  1
  Pb  Pb11  1  0.25000000  0.71573130  0.05837767  1
  Br  Br12  1  0.25000000  0.08093897  0.37178254  1
  Br  Br13  1  0.75000000  0.91906103  0.62821746  1
  Br  Br14  1  0.75000000  0.58093897  0.12821746  1
  Br  Br15  1  0.25000000  0.41906103  0.87178254  1
  Br  Br16  1  0.25000000  0.80435203  0.81020943  1
  Br  Br17  1  0.75000000  0.19564797  0.18979057  1
  Br  Br18  1  0.75000000  0.30435203  0.68979057  1
  Br  Br19  1  0.25000000  0.69564797  0.31020943  1
  O  O20  1  0.99589722  0.38935811  0.42344431  1
  O  O21  1  0.49589722  0.61064189  0.57655569  1
  O  O22  1  0.00410278  0.88935811  0.07655569  1
  O  O23  1  0.50410278  0.11064189  0.92344431  1
  O  O24  1  0.00410278  0.61064189  0.57655569  1
  O  O25  1  0.50410278  0.38935811  0.42344431  1
  O  O26  1  0.99589722  0.11064189  0.92344431  1
  O  O27  1  0.49589722  0.88935811  0.07655569  1
