# generated using pymatgen
data_Dy3Ge5
_symmetry_space_group_name_H-M   'P 1'
_cell_length_a   5.77792367
_cell_length_b   7.46622762
_cell_length_c   9.16905686
_cell_angle_alpha   82.98548208
_cell_angle_beta   71.61206528
_cell_angle_gamma   67.23949107
_symmetry_Int_Tables_number   1
_chemical_formula_structural   Dy3Ge5
_chemical_formula_sum   'Dy6 Ge10'
_cell_volume   346.12242185
_cell_formula_units_Z   2
loop_
 _symmetry_equiv_pos_site_id
 _symmetry_equiv_pos_as_xyz
  1  'x, y, z'
loop_
 _atom_site_type_symbol
 _atom_site_label
 _atom_site_symmetry_multiplicity
 _atom_site_fract_x
 _atom_site_fract_y
 _atom_site_fract_z
 _atom_site_occupancy
  Dy  Dy0  1  0.99625863  0.00748667  0.00002425  1
  Dy  Dy1  1  0.24625249  0.50755850  0.49995142  1
  Dy  Dy2  1  0.56755833  0.49289680  0.83518629  1
  Dy  Dy3  1  0.93961052  0.49289067  0.16484784  1
  Dy  Dy4  1  0.35441143  0.99283727  0.33515793  1
  Dy  Dy5  1  0.65278344  0.99287725  0.66481830  1
  Ge  Ge6  1  0.44167750  0.11687714  0.99993312  1
  Ge  Ge7  1  0.69160069  0.61683338  0.50005930  1
  Ge  Ge8  1  0.89654457  0.70054644  0.87335770  1
  Ge  Ge9  1  0.40281658  0.70039365  0.12675890  1
  Ge  Ge10  1  0.77957532  0.20053668  0.37322400  1
  Ge  Ge11  1  0.01979383  0.20069691  0.62663107  1
  Ge  Ge12  1  0.16520404  0.33435725  0.82546428  1
  Ge  Ge13  1  0.50039554  0.33429043  0.17456663  1
  Ge  Ge14  1  0.92487740  0.83440462  0.32551304  1
  Ge  Ge15  1  0.24063969  0.83451635  0.67450593  1
