# generated using pymatgen
data_U6Fe16Si7
_symmetry_space_group_name_H-M   'P 1'
_cell_length_a   8.23728971
_cell_length_b   8.23831069
_cell_length_c   8.23706910
_cell_angle_alpha   60.00921101
_cell_angle_beta   60.00594544
_cell_angle_gamma   59.99819703
_symmetry_Int_Tables_number   1
_chemical_formula_structural   U6Fe16Si7
_chemical_formula_sum   'U6 Fe16 Si7'
_cell_volume   395.29747053
_cell_formula_units_Z   1
loop_
 _symmetry_equiv_pos_site_id
 _symmetry_equiv_pos_as_xyz
  1  'x, y, z'
loop_
 _atom_site_type_symbol
 _atom_site_label
 _atom_site_symmetry_multiplicity
 _atom_site_fract_x
 _atom_site_fract_y
 _atom_site_fract_z
 _atom_site_occupancy
  U  U0  1  0.71826709  0.28167100  0.28174430  1
  U  U1  1  0.28176727  0.71827594  0.71819350  1
  U  U2  1  0.71822546  0.28170000  0.71830733  1
  U  U3  1  0.28174502  0.71831523  0.28174641  1
  U  U4  1  0.28174532  0.28167221  0.71831126  1
  U  U5  1  0.71822372  0.71839173  0.28169556  1
  Fe  Fe6  1  0.67153029  0.67158678  0.67152407  1
  Fe  Fe7  1  0.67150078  0.98540486  0.67154771  1
  Fe  Fe8  1  0.32862641  0.01416606  0.32861865  1
  Fe  Fe9  1  0.01445877  0.32852107  0.32852298  1
  Fe  Fe10  1  0.63438651  0.12178153  0.12192666  1
  Fe  Fe11  1  0.32852507  0.32850914  0.32856275  1
  Fe  Fe12  1  0.87806675  0.87807623  0.87818194  1
  Fe  Fe13  1  0.12190142  0.12187819  0.12183423  1
  Fe  Fe14  1  0.67153679  0.67159944  0.98532949  1
  Fe  Fe15  1  0.32860797  0.32859750  0.01417429  1
  Fe  Fe16  1  0.98547615  0.67151848  0.67150393  1
  Fe  Fe17  1  0.12178359  0.63443695  0.12189258  1
  Fe  Fe18  1  0.87815449  0.36565997  0.87810095  1
  Fe  Fe19  1  0.87807147  0.87809293  0.36564900  1
  Fe  Fe20  1  0.36568158  0.87815609  0.87808043  1
  Fe  Fe21  1  0.12190205  0.12186518  0.63442003  1
  Si  Si22  1  0.00005780  0.50000580  0.99996801  1
  Si  Si23  1  0.99996268  0.00003066  0.00002092  1
  Si  Si24  1  0.49990986  0.00010605  0.00008629  1
  Si  Si25  1  0.49995337  0.00002354  0.49996732  1
  Si  Si26  1  0.00002725  0.99995855  0.50001960  1
  Si  Si27  1  0.99997899  0.50004716  0.50003490  1
  Si  Si28  1  0.49992608  0.49995172  0.00003488  1
