# generated using pymatgen
data_Ho2Mo2C3
_symmetry_space_group_name_H-M   'P 1'
_cell_length_a   3.33926263
_cell_length_b   5.71005654
_cell_length_c   6.08534767
_cell_angle_alpha   111.28006192
_cell_angle_beta   105.92441963
_cell_angle_gamma   90.00000007
_symmetry_Int_Tables_number   1
_chemical_formula_structural   Ho2Mo2C3
_chemical_formula_sum   'Ho2 Mo2 C3'
_cell_volume   103.32716358
_cell_formula_units_Z   1
loop_
 _symmetry_equiv_pos_site_id
 _symmetry_equiv_pos_as_xyz
  1  'x, y, z'
loop_
 _atom_site_type_symbol
 _atom_site_label
 _atom_site_symmetry_multiplicity
 _atom_site_fract_x
 _atom_site_fract_y
 _atom_site_fract_z
 _atom_site_occupancy
  C  C0  1  0.75195843  0.26553602  0.50391685  1
  C  C1  1  0.24804157  0.73446398  0.49608315  1
  C  C2  1  0.00000000  0.00000000  0.00000000  1
  Mo  Mo3  1  0.15702558  0.32608732  0.31405116  1
  Mo  Mo4  1  0.84297442  0.67391268  0.68594884  1
  Ho  Ho5  1  0.38971126  0.17423346  0.77942253  1
  Ho  Ho6  1  0.61028874  0.82576654  0.22057747  1
