# generated using pymatgen
data_K(MoO2)4
_symmetry_space_group_name_H-M   'P 1'
_cell_length_a   6.54215759
_cell_length_b   10.49764493
_cell_length_c   10.66713427
_cell_angle_alpha   88.25495030
_cell_angle_beta   90.00000000
_cell_angle_gamma   90.00000000
_symmetry_Int_Tables_number   1
_chemical_formula_structural   K(MoO2)4
_chemical_formula_sum   'K4 Mo16 O32'
_cell_volume   732.24966410
_cell_formula_units_Z   4
loop_
 _symmetry_equiv_pos_site_id
 _symmetry_equiv_pos_as_xyz
  1  'x, y, z'
loop_
 _atom_site_type_symbol
 _atom_site_label
 _atom_site_symmetry_multiplicity
 _atom_site_fract_x
 _atom_site_fract_y
 _atom_site_fract_z
 _atom_site_occupancy
  K  K0  1  0.86697757  0.25000000  0.25000000  1
  K  K1  1  0.13302343  0.75000000  0.75000000  1
  K  K2  1  0.36454995  0.25000000  0.25000000  1
  K  K3  1  0.63545105  0.75000000  0.75000000  1
  Mo  Mo4  1  0.87144840  0.91616284  0.40276626  1
  Mo  Mo5  1  0.37144909  0.58306700  0.09743457  1
  Mo  Mo6  1  0.62854991  0.08306700  0.59743457  1
  Mo  Mo7  1  0.62854991  0.41693400  0.90256643  1
  Mo  Mo8  1  0.12855160  0.08383716  0.59723374  1
  Mo  Mo9  1  0.12855160  0.41616284  0.90276626  1
  Mo  Mo10  1  0.37144909  0.91693400  0.40256543  1
  Mo  Mo11  1  0.87144840  0.58383716  0.09723374  1
  Mo  Mo12  1  0.62723132  0.59861045  0.41120302  1
  Mo  Mo13  1  0.62723132  0.90138955  0.08879798  1
  Mo  Mo14  1  0.37276968  0.40138955  0.58879798  1
  Mo  Mo15  1  0.37276968  0.09861045  0.91120202  1
  Mo  Mo16  1  0.12558613  0.60012657  0.41144843  1
  Mo  Mo17  1  0.12558613  0.89987343  0.08855157  1
  Mo  Mo18  1  0.87441487  0.39987343  0.58855257  1
  Mo  Mo19  1  0.87441487  0.10012657  0.91144843  1
  O  O20  1  0.12341832  0.78823533  0.41181016  1
  O  O21  1  0.12341832  0.71176567  0.08818984  1
  O  O22  1  0.87658268  0.21176567  0.58819084  1
  O  O23  1  0.87658268  0.28823533  0.91181016  1
  O  O24  1  0.39211362  0.20853884  0.58799452  1
  O  O25  1  0.39211362  0.29146016  0.91200548  1
  O  O26  1  0.60788738  0.79146016  0.41200548  1
  O  O27  1  0.60788738  0.70853884  0.08799452  1
  O  O28  1  0.13004527  0.04751546  0.39848714  1
  O  O29  1  0.13004527  0.45248454  0.10151286  1
  O  O30  1  0.86995373  0.95248454  0.60151386  1
  O  O31  1  0.86995373  0.54751446  0.89848714  1
  O  O32  1  0.37990124  0.94714203  0.59356039  1
  O  O33  1  0.37990124  0.55285797  0.90643961  1
  O  O34  1  0.62009976  0.05285797  0.40643961  1
  O  O35  1  0.62009976  0.44714203  0.09356039  1
  O  O36  1  0.13562916  0.09031454  0.79521245  1
  O  O37  1  0.13562916  0.40968646  0.70478755  1
  O  O38  1  0.86436984  0.90968646  0.20478755  1
  O  O39  1  0.86436984  0.59031454  0.29521245  1
  O  O40  1  0.62242595  0.09432883  0.04185477  1
  O  O41  1  0.62242595  0.40567117  0.45814523  1
  O  O42  1  0.37757305  0.90567117  0.95814623  1
  O  O43  1  0.37757305  0.59432883  0.54185477  1
  O  O44  1  0.12185557  0.09405215  0.04354176  1
  O  O45  1  0.12185557  0.40594685  0.45645824  1
  O  O46  1  0.36704607  0.58427359  0.28848330  1
  O  O47  1  0.87814343  0.59405315  0.54354176  1
  O  O48  1  0.63295493  0.08427359  0.78848330  1
  O  O49  1  0.63295493  0.41572641  0.71151670  1
  O  O50  1  0.36704607  0.91572641  0.21151670  1
  O  O51  1  0.87814343  0.90594685  0.95645824  1
