# generated using pymatgen
data_Cd2BiAsO6
_symmetry_space_group_name_H-M   'P 1'
_cell_length_a   5.52824657
_cell_length_b   7.52959639
_cell_length_c   7.52959559
_cell_angle_alpha   108.13012796
_cell_angle_beta   90.00000000
_cell_angle_gamma   90.00000000
_symmetry_Int_Tables_number   1
_chemical_formula_structural   Cd2BiAsO6
_chemical_formula_sum   'Cd4 Bi2 As2 O12'
_cell_volume   297.86217383
_cell_formula_units_Z   2
loop_
 _symmetry_equiv_pos_site_id
 _symmetry_equiv_pos_as_xyz
  1  'x, y, z'
loop_
 _atom_site_type_symbol
 _atom_site_label
 _atom_site_symmetry_multiplicity
 _atom_site_fract_x
 _atom_site_fract_y
 _atom_site_fract_z
 _atom_site_occupancy
  Cd  Cd0  1  0.38644136  0.59306027  0.80175065  1
  Cd  Cd1  1  0.38644136  0.19824935  0.40693973  1
  Cd  Cd2  1  0.88644136  0.40693973  0.19824935  1
  Cd  Cd3  1  0.88644136  0.80175065  0.59306027  1
  Bi  Bi4  1  0.39199083  0.09354811  0.90645189  1
  Bi  Bi5  1  0.89199083  0.90645189  0.09354811  1
  As  As6  1  0.34622735  0.68342295  0.31657705  1
  As  As7  1  0.84622735  0.31657705  0.68342295  1
  O  O8  1  0.63230015  0.84330188  0.84832798  1
  O  O9  1  0.23597469  0.90726130  0.41358109  1
  O  O10  1  0.13230015  0.84832798  0.84330188  1
  O  O11  1  0.63230015  0.15167202  0.15669812  1
  O  O12  1  0.13230015  0.15669812  0.15167202  1
  O  O13  1  0.70246979  0.44329564  0.55670436  1
  O  O14  1  0.66128964  0.68030644  0.31969356  1
  O  O15  1  0.73597469  0.09273870  0.58641891  1
  O  O16  1  0.73597469  0.41358109  0.90726130  1
  O  O17  1  0.20246979  0.55670436  0.44329564  1
  O  O18  1  0.16128964  0.31969356  0.68030644  1
  O  O19  1  0.23597469  0.58641891  0.09273870  1
