# generated using pymatgen
data_Li4V2Cr3Sb3O16
_symmetry_space_group_name_H-M   'P 1'
_cell_length_a   6.17155630
_cell_length_b   6.22322870
_cell_length_c   9.73412580
_cell_angle_alpha   89.22151536
_cell_angle_beta   90.47523746
_cell_angle_gamma   121.27176087
_symmetry_Int_Tables_number   1
_chemical_formula_structural   Li4V2Cr3Sb3O16
_chemical_formula_sum   'Li4 V2 Cr3 Sb3 O16'
_cell_volume   319.51266553
_cell_formula_units_Z   1
loop_
 _symmetry_equiv_pos_site_id
 _symmetry_equiv_pos_as_xyz
  1  'x, y, z'
loop_
 _atom_site_type_symbol
 _atom_site_label
 _atom_site_symmetry_multiplicity
 _atom_site_fract_x
 _atom_site_fract_y
 _atom_site_fract_z
 _atom_site_occupancy
  Li  Li0  1  0.32849516  0.67845516  0.90156093  1
  Li  Li1  1  0.02618755  0.00699286  0.00140489  1
  Li  Li2  1  0.02872779  0.00866903  0.49172370  1
  Li  Li3  1  0.66789879  0.33624918  0.38064457  1
  V  V4  1  0.32355308  0.64598480  0.48184940  1
  V  V5  1  0.64294196  0.32560866  0.99096921  1
  Cr  Cr6  1  0.16811848  0.82928751  0.21602761  1
  Cr  Cr7  1  0.16655279  0.33693467  0.21302340  1
  Cr  Cr8  1  0.33934801  0.17132691  0.71276890  1
  Sb  Sb9  1  0.66157924  0.83142748  0.21202833  1
  Sb  Sb10  1  0.82998974  0.65850245  0.71508893  1
  Sb  Sb11  1  0.83083064  0.16703248  0.71373848  1
  O  O12  1  0.15870958  0.82882564  0.60382977  1
  O  O13  1  0.04224959  0.51455666  0.33515466  1
  O  O14  1  0.33121897  0.66914259  0.10653324  1
  O  O15  1  0.99939562  0.99675512  0.30927634  1
  O  O16  1  0.01100275  0.98479702  0.81602522  1
  O  O17  1  0.18475128  0.32543567  0.58855539  1
  O  O18  1  0.48381262  0.95405213  0.33875124  1
  O  O19  1  0.48063162  0.52149829  0.33521770  1
  O  O20  1  0.32958975  0.16707418  0.10814086  1
  O  O21  1  0.68059724  0.81951022  0.59364212  1
  O  O22  1  0.51178057  0.48416802  0.83396294  1
  O  O23  1  0.49880255  0.04792851  0.85075600  1
  O  O24  1  0.65298689  0.35070994  0.59576802  1
  O  O25  1  0.83019826  0.67998374  0.10401976  1
  O  O26  1  0.95462480  0.50742069  0.85858736  1
  O  O27  1  0.83542565  0.15196936  0.09878999  1
