# generated using pymatgen
data_RbAsOF4
_symmetry_space_group_name_H-M   'P 1'
_cell_length_a   5.50286256
_cell_length_b   6.10824859
_cell_length_c   14.18138694
_cell_angle_alpha   90.00000000
_cell_angle_beta   92.04869914
_cell_angle_gamma   90.00000000
_symmetry_Int_Tables_number   1
_chemical_formula_structural   RbAsOF4
_chemical_formula_sum   'Rb4 As4 O4 F16'
_cell_volume   476.37217630
_cell_formula_units_Z   4
loop_
 _symmetry_equiv_pos_site_id
 _symmetry_equiv_pos_as_xyz
  1  'x, y, z'
loop_
 _atom_site_type_symbol
 _atom_site_label
 _atom_site_symmetry_multiplicity
 _atom_site_fract_x
 _atom_site_fract_y
 _atom_site_fract_z
 _atom_site_occupancy
  O  O0  1  0.68864747  0.60681280  0.50917732  1
  O  O1  1  0.81135253  0.10681280  0.99082268  1
  O  O2  1  0.31135253  0.39318720  0.49082268  1
  O  O3  1  0.18864747  0.89318720  0.00917732  1
  F  F4  1  0.72518410  0.17325588  0.52177521  1
  F  F5  1  0.77481590  0.67325588  0.97822479  1
  F  F6  1  0.27481590  0.82674412  0.47822479  1
  F  F7  1  0.22518410  0.32674412  0.02177521  1
  F  F8  1  0.91297176  0.92248683  0.15790171  1
  F  F9  1  0.58702824  0.42248683  0.34209829  1
  F  F10  1  0.08702824  0.07751317  0.84209829  1
  F  F11  1  0.41297176  0.57751317  0.65790171  1
  F  F12  1  0.31165719  0.10350756  0.16437838  1
  F  F13  1  0.18834281  0.60350756  0.33562162  1
  F  F14  1  0.68834281  0.89649244  0.83562162  1
  F  F15  1  0.81165719  0.39649244  0.66437838  1
  F  F16  1  0.92165915  0.32588475  0.14685274  1
  F  F17  1  0.57834085  0.82588475  0.35314726  1
  F  F18  1  0.07834085  0.67411525  0.85314726  1
  F  F19  1  0.42165915  0.17411525  0.64685274  1
  As  As20  1  0.55988023  0.38656425  0.57982957  1
  As  As21  1  0.94011977  0.88656425  0.92017043  1
  As  As22  1  0.44011977  0.61343575  0.42017043  1
  As  As23  1  0.05988023  0.11343575  0.07982957  1
  Rb  Rb24  1  0.99842483  0.87322360  0.64901332  1
  Rb  Rb25  1  0.50157517  0.37322360  0.85098668  1
  Rb  Rb26  1  0.00157517  0.12677640  0.35098668  1
  Rb  Rb27  1  0.49842483  0.62677640  0.14901332  1
