# generated using pymatgen
data_YB2Rh3
_symmetry_space_group_name_H-M   'P 1'
_cell_length_a   3.13288976
_cell_length_b   5.44972370
_cell_length_c   5.44933262
_cell_angle_alpha   59.99763227
_cell_angle_beta   89.93323585
_cell_angle_gamma   89.86648136
_symmetry_Int_Tables_number   1
_chemical_formula_structural   YB2Rh3
_chemical_formula_sum   'Y1 B2 Rh3'
_cell_volume   80.57160316
_cell_formula_units_Z   1
loop_
 _symmetry_equiv_pos_site_id
 _symmetry_equiv_pos_as_xyz
  1  'x, y, z'
loop_
 _atom_site_type_symbol
 _atom_site_label
 _atom_site_symmetry_multiplicity
 _atom_site_fract_x
 _atom_site_fract_y
 _atom_site_fract_z
 _atom_site_occupancy
  Y  Y0  1  0.50000000  0.50000000  0.00000000  1
  B  B1  1  0.50000000  0.16683104  0.66633791  1
  B  B2  1  0.50000000  0.83316896  0.33366209  1
  Rh  Rh3  1  -0.00000000  0.00000000  0.50000000  1
  Rh  Rh4  1  0.00000000  0.50000000  0.50000000  1
  Rh  Rh5  1  -0.00000000  -0.00000000  -0.00000000  1
