# generated using pymatgen
data_NaIrO3
_symmetry_space_group_name_H-M   'P 1'
_cell_length_a   3.11685693
_cell_length_b   5.43253595
_cell_length_c   7.23000567
_cell_angle_alpha   90.00000000
_cell_angle_beta   90.00000000
_cell_angle_gamma   106.67062551
_symmetry_Int_Tables_number   1
_chemical_formula_structural   NaIrO3
_chemical_formula_sum   'Na2 Ir2 O6'
_cell_volume   117.27619976
_cell_formula_units_Z   2
loop_
 _symmetry_equiv_pos_site_id
 _symmetry_equiv_pos_as_xyz
  1  'x, y, z'
loop_
 _atom_site_type_symbol
 _atom_site_label
 _atom_site_symmetry_multiplicity
 _atom_site_fract_x
 _atom_site_fract_y
 _atom_site_fract_z
 _atom_site_occupancy
  Na  Na0  1  0.25224078  0.50448157  0.25000000  1
  Na  Na1  1  0.74775922  0.49551843  0.75000000  1
  Ir  Ir2  1  0.00000000  0.00000000  0.50000000  1
  Ir  Ir3  1  0.00000000  -0.00000000  0.00000000  1
  O  O4  1  0.92693218  0.85386437  0.25000000  1
  O  O5  1  0.07306782  0.14613563  0.75000000  1
  O  O6  1  0.61332572  0.22665144  0.44286252  1
  O  O7  1  0.38667428  0.77334856  0.55713748  1
  O  O8  1  0.61332572  0.22665144  0.05713748  1
  O  O9  1  0.38667428  0.77334856  0.94286252  1
