# generated using pymatgen
data_BaHo2O4
_symmetry_space_group_name_H-M   'P 1'
_cell_length_a   3.46456586
_cell_length_b   10.47774618
_cell_length_c   12.16223734
_cell_angle_alpha   90.00000000
_cell_angle_beta   90.00000000
_cell_angle_gamma   90.00000000
_symmetry_Int_Tables_number   1
_chemical_formula_structural   BaHo2O4
_chemical_formula_sum   'Ba4 Ho8 O16'
_cell_volume   441.49945246
_cell_formula_units_Z   4
loop_
 _symmetry_equiv_pos_site_id
 _symmetry_equiv_pos_as_xyz
  1  'x, y, z'
loop_
 _atom_site_type_symbol
 _atom_site_label
 _atom_site_symmetry_multiplicity
 _atom_site_fract_x
 _atom_site_fract_y
 _atom_site_fract_z
 _atom_site_occupancy
  O  O0  1  0.25000000  0.93012855  0.07394058  1
  O  O1  1  0.75000000  0.06987145  0.92605942  1
  O  O2  1  0.25000000  0.43012855  0.42605942  1
  O  O3  1  0.75000000  0.56987145  0.57394058  1
  O  O4  1  0.25000000  0.01892742  0.71722668  1
  O  O5  1  0.75000000  0.98107258  0.28277332  1
  O  O6  1  0.25000000  0.51892742  0.78277332  1
  O  O7  1  0.75000000  0.48107258  0.21722668  1
  O  O8  1  0.25000000  0.61445133  0.01806799  1
  O  O9  1  0.75000000  0.38554867  0.98193201  1
  O  O10  1  0.25000000  0.11445133  0.48193201  1
  O  O11  1  0.75000000  0.88554867  0.51806799  1
  O  O12  1  0.75000000  0.79059618  0.84267506  1
  O  O13  1  0.25000000  0.20940382  0.15732494  1
  O  O14  1  0.75000000  0.29059618  0.65732494  1
  O  O15  1  0.25000000  0.70940382  0.34267506  1
  Ba  Ba16  1  0.75000000  0.24675813  0.35094510  1
  Ba  Ba17  1  0.25000000  0.75324187  0.64905490  1
  Ba  Ba18  1  0.75000000  0.74675813  0.14905490  1
  Ba  Ba19  1  0.25000000  0.25324187  0.85094510  1
  Ho  Ho20  1  0.25000000  0.92244893  0.39112928  1
  Ho  Ho21  1  0.75000000  0.07755107  0.60887072  1
  Ho  Ho22  1  0.25000000  0.42244893  0.10887072  1
  Ho  Ho23  1  0.75000000  0.57755107  0.89112928  1
  Ho  Ho24  1  0.75000000  0.57334713  0.38925083  1
  Ho  Ho25  1  0.25000000  0.42665287  0.61074917  1
  Ho  Ho26  1  0.75000000  0.07334713  0.11074917  1
  Ho  Ho27  1  0.25000000  0.92665287  0.88925083  1
