# generated using pymatgen
data_YbHoRh2
_symmetry_space_group_name_H-M   'P 1'
_cell_length_a   4.76967063
_cell_length_b   4.76964764
_cell_length_c   4.76965398
_cell_angle_alpha   60.00017665
_cell_angle_beta   60.00004796
_cell_angle_gamma   60.00015791
_symmetry_Int_Tables_number   1
_chemical_formula_structural   YbHoRh2
_chemical_formula_sum   'Yb1 Ho1 Rh2'
_cell_volume   76.72692934
_cell_formula_units_Z   1
loop_
 _symmetry_equiv_pos_site_id
 _symmetry_equiv_pos_as_xyz
  1  'x, y, z'
loop_
 _atom_site_type_symbol
 _atom_site_label
 _atom_site_symmetry_multiplicity
 _atom_site_fract_x
 _atom_site_fract_y
 _atom_site_fract_z
 _atom_site_occupancy
  Yb  Yb0  1  0.74999963  0.74999991  0.75000011  1
  Ho  Ho1  1  0.25000024  0.25000132  0.25000071  1
  Rh  Rh2  1  0.99999974  0.99999984  0.00000053  1
  Rh  Rh3  1  0.50000138  0.49999993  0.49999965  1
