# generated using pymatgen
data_TlGaSe2
_symmetry_space_group_name_H-M   'P 1'
_cell_length_a   7.79138476
_cell_length_b   7.79138476
_cell_length_c   16.05960237
_cell_angle_alpha   83.28614058
_cell_angle_beta   83.28614058
_cell_angle_gamma   89.80881999
_symmetry_Int_Tables_number   1
_chemical_formula_structural   TlGaSe2
_chemical_formula_sum   'Tl8 Ga8 Se16'
_cell_volume   961.53104468
_cell_formula_units_Z   8
loop_
 _symmetry_equiv_pos_site_id
 _symmetry_equiv_pos_as_xyz
  1  'x, y, z'
loop_
 _atom_site_type_symbol
 _atom_site_label
 _atom_site_symmetry_multiplicity
 _atom_site_fract_x
 _atom_site_fract_y
 _atom_site_fract_z
 _atom_site_occupancy
  Ga  Ga0  1  0.91342883  0.28836913  0.33509747  1
  Ga  Ga1  1  0.70874920  0.58074999  0.16397238  1
  Ga  Ga2  1  0.41925001  0.29125080  0.33602762  1
  Ga  Ga3  1  0.29125080  0.41925001  0.83602762  1
  Ga  Ga4  1  0.58074999  0.70874920  0.66397238  1
  Ga  Ga5  1  0.71163087  0.08657117  0.16490253  1
  Ga  Ga6  1  0.08657117  0.71163087  0.66490253  1
  Ga  Ga7  1  0.28836913  0.91342883  0.83509747  1
  Se  Se8  1  0.57039462  0.94755439  0.74974852  1
  Se  Se9  1  0.05244561  0.42960538  0.75025148  1
  Se  Se10  1  0.42960538  0.05244561  0.25025148  1
  Se  Se11  1  0.75056718  0.35567208  0.06936115  1
  Se  Se12  1  0.94755439  0.57039462  0.24974852  1
  Se  Se13  1  0.35567208  0.75056718  0.56936115  1
  Se  Se14  1  0.24943282  0.64432792  0.93063885  1
  Se  Se15  1  0.64432792  0.24943282  0.43063885  1
  Se  Se16  1  0.04663987  0.95336013  0.75000000  1
  Se  Se17  1  0.95336013  0.04663987  0.25000000  1
  Se  Se18  1  0.57024023  0.42975977  0.75000000  1
  Se  Se19  1  0.42975977  0.57024023  0.25000000  1
  Se  Se20  1  0.28521982  0.14340139  0.92827668  1
  Se  Se21  1  0.85659861  0.71478018  0.57172332  1
  Se  Se22  1  0.71478018  0.85659861  0.07172332  1
  Se  Se23  1  0.14340139  0.28521982  0.42827668  1
  Tl  Tl24  1  0.17285531  0.34267013  0.11687080  1
  Tl  Tl25  1  0.65732987  0.82714469  0.38312920  1
  Tl  Tl26  1  0.82714469  0.65732987  0.88312920  1
  Tl  Tl27  1  0.34267013  0.17285531  0.61687080  1
  Tl  Tl28  1  0.15515004  0.71693663  0.39669997  1
  Tl  Tl29  1  0.28306337  0.84484996  0.10330003  1
  Tl  Tl30  1  0.84484996  0.28306337  0.60330003  1
  Tl  Tl31  1  0.71693663  0.15515004  0.89669997  1
