# generated using pymatgen
data_TaTe4Ir
_symmetry_space_group_name_H-M   'P 1'
_cell_length_a   3.83814527
_cell_length_b   12.63317342
_cell_length_c   14.04698360
_cell_angle_alpha   90.00000000
_cell_angle_beta   90.00000000
_cell_angle_gamma   90.00000000
_symmetry_Int_Tables_number   1
_chemical_formula_structural   TaTe4Ir
_chemical_formula_sum   'Ta4 Te16 Ir4'
_cell_volume   681.10950597
_cell_formula_units_Z   4
loop_
 _symmetry_equiv_pos_site_id
 _symmetry_equiv_pos_as_xyz
  1  'x, y, z'
loop_
 _atom_site_type_symbol
 _atom_site_label
 _atom_site_symmetry_multiplicity
 _atom_site_fract_x
 _atom_site_fract_y
 _atom_site_fract_z
 _atom_site_occupancy
  Te  Te0  1  0.50000000  0.10552035  0.13972721  1
  Te  Te1  1  0.00000000  0.89447965  0.63972721  1
  Te  Te2  1  0.50000000  0.15182724  0.59956988  1
  Te  Te3  1  0.00000000  0.84817276  0.09956988  1
  Te  Te4  1  0.50000000  0.32319486  0.35515408  1
  Te  Te5  1  0.00000000  0.67680514  0.85515408  1
  Te  Te6  1  0.50000000  0.43548765  0.90184544  1
  Te  Te7  1  0.00000000  0.56451235  0.40184544  1
  Te  Te8  1  0.00000000  0.06612596  0.39634786  1
  Te  Te9  1  0.50000000  0.93387404  0.89634786  1
  Te  Te10  1  0.00000000  0.19440178  0.86130234  1
  Te  Te11  1  0.50000000  0.80559822  0.36130234  1
  Te  Te12  1  0.00000000  0.34492123  0.09066924  1
  Te  Te13  1  0.50000000  0.65507877  0.59066924  1
  Te  Te14  1  0.00000000  0.41432085  0.63107746  1
  Te  Te15  1  0.50000000  0.58567915  0.13107746  1
  Ta  Ta16  1  0.00000000  0.05403987  0.00337007  1
  Ta  Ta17  1  0.50000000  0.94596013  0.50337007  1
  Ta  Ta18  1  0.00000000  0.27156456  0.49126364  1
  Ta  Ta19  1  0.50000000  0.72843544  0.99126364  1
  Ir  Ir20  1  0.00000000  0.53486055  0.00008125  1
  Ir  Ir21  1  0.50000000  0.46513945  0.50008125  1
  Ir  Ir22  1  0.00000000  0.75436421  0.49265151  1
  Ir  Ir23  1  0.50000000  0.24563579  0.99265151  1
