# generated using pymatgen
data_NaYGeO4
_symmetry_space_group_name_H-M   'P 1'
_cell_length_a   5.33502402
_cell_length_b   6.52651437
_cell_length_c   11.53200209
_cell_angle_alpha   90.00000000
_cell_angle_beta   90.00000000
_cell_angle_gamma   90.00000000
_symmetry_Int_Tables_number   1
_chemical_formula_structural   NaYGeO4
_chemical_formula_sum   'Na4 Y4 Ge4 O16'
_cell_volume   401.53406003
_cell_formula_units_Z   4
loop_
 _symmetry_equiv_pos_site_id
 _symmetry_equiv_pos_as_xyz
  1  'x, y, z'
loop_
 _atom_site_type_symbol
 _atom_site_label
 _atom_site_symmetry_multiplicity
 _atom_site_fract_x
 _atom_site_fract_y
 _atom_site_fract_z
 _atom_site_occupancy
  O  O0  1  0.79233141  0.45720366  0.67394209  1
  O  O1  1  0.29233141  0.54279634  0.82605791  1
  O  O2  1  0.20766859  0.95720366  0.32605791  1
  O  O3  1  0.70766859  0.04279634  0.17394209  1
  O  O4  1  0.20766859  0.54279634  0.32605791  1
  O  O5  1  0.70766859  0.45720366  0.17394209  1
  O  O6  1  0.79233141  0.04279634  0.67394209  1
  O  O7  1  0.29233141  0.95720366  0.82605791  1
  O  O8  1  0.17417180  0.75000000  0.54528511  1
  O  O9  1  0.67417180  0.25000000  0.95471489  1
  O  O10  1  0.82582820  0.25000000  0.45471489  1
  O  O11  1  0.32582820  0.75000000  0.04528511  1
  O  O12  1  0.72803332  0.75000000  0.38947609  1
  O  O13  1  0.22803332  0.25000000  0.11052391  1
  O  O14  1  0.27196668  0.25000000  0.61052391  1
  O  O15  1  0.77196668  0.75000000  0.88947609  1
  Na  Na16  1  0.00000000  0.00000000  0.00000000  1
  Na  Na17  1  0.00000000  0.50000000  0.00000000  1
  Na  Na18  1  0.50000000  0.00000000  0.50000000  1
  Na  Na19  1  0.50000000  0.50000000  0.50000000  1
  Ge  Ge20  1  0.94568481  0.25000000  0.59727932  1
  Ge  Ge21  1  0.55431519  0.25000000  0.09727932  1
  Ge  Ge22  1  0.05431519  0.75000000  0.40272068  1
  Ge  Ge23  1  0.44568481  0.75000000  0.90272068  1
  Y  Y24  1  0.00394247  0.75000000  0.72233315  1
  Y  Y25  1  0.99605753  0.25000000  0.27766685  1
  Y  Y26  1  0.49605753  0.75000000  0.22233315  1
  Y  Y27  1  0.50394247  0.25000000  0.77766685  1
