# generated using pymatgen
data_KZn4P3
_symmetry_space_group_name_H-M   'P 1'
_cell_length_a   4.05540643
_cell_length_b   4.05540643
_cell_length_c   11.69981281
_cell_angle_alpha   80.01963099
_cell_angle_beta   80.01963099
_cell_angle_gamma   60.00000900
_symmetry_Int_Tables_number   1
_chemical_formula_structural   KZn4P3
_chemical_formula_sum   'K1 Zn4 P3'
_cell_volume   163.26869723
_cell_formula_units_Z   1
loop_
 _symmetry_equiv_pos_site_id
 _symmetry_equiv_pos_as_xyz
  1  'x, y, z'
loop_
 _atom_site_type_symbol
 _atom_site_label
 _atom_site_symmetry_multiplicity
 _atom_site_fract_x
 _atom_site_fract_y
 _atom_site_fract_z
 _atom_site_occupancy
  K  K0  1  0.50000000  0.50000000  0.50000000  1
  Zn  Zn1  1  0.30345632  0.30345632  0.08963105  1
  Zn  Zn2  1  0.69654368  0.69654368  0.91036895  1
  Zn  Zn3  1  0.08648266  0.08648266  0.74055203  1
  Zn  Zn4  1  0.91351734  0.91351734  0.25944797  1
  P  P5  1  0.23470059  0.23470059  0.29589822  1
  P  P6  1  0.76529941  0.76529941  0.70410178  1
  P  P7  1  0.00000000  0.00000000  -0.00000000  1
