# generated using pymatgen
data_Cs2WS4
_symmetry_space_group_name_H-M   'P 1'
_cell_length_a   7.39510547
_cell_length_b   10.39569018
_cell_length_c   13.20640241
_cell_angle_alpha   90.00000000
_cell_angle_beta   90.00000000
_cell_angle_gamma   90.00000000
_symmetry_Int_Tables_number   1
_chemical_formula_structural   Cs2WS4
_chemical_formula_sum   'Cs8 W4 S16'
_cell_volume   1015.27157367
_cell_formula_units_Z   4
loop_
 _symmetry_equiv_pos_site_id
 _symmetry_equiv_pos_as_xyz
  1  'x, y, z'
loop_
 _atom_site_type_symbol
 _atom_site_label
 _atom_site_symmetry_multiplicity
 _atom_site_fract_x
 _atom_site_fract_y
 _atom_site_fract_z
 _atom_site_occupancy
  S  S0  1  0.99309723  0.83220443  0.14450688  1
  S  S1  1  0.49309723  0.16779557  0.85549312  1
  S  S2  1  0.50690277  0.33220443  0.35549312  1
  S  S3  1  0.00690277  0.66779557  0.64450688  1
  S  S4  1  0.00690277  0.16779557  0.85549312  1
  S  S5  1  0.50690277  0.83220443  0.14450688  1
  S  S6  1  0.49309723  0.66779557  0.64450688  1
  S  S7  1  0.99309723  0.33220443  0.35549312  1
  S  S8  1  0.25000000  0.46419448  0.89737228  1
  S  S9  1  0.75000000  0.53580552  0.10262772  1
  S  S10  1  0.25000000  0.96419448  0.60262772  1
  S  S11  1  0.75000000  0.03580552  0.39737228  1
  S  S12  1  0.75000000  0.28714342  0.58860963  1
  S  S13  1  0.25000000  0.71285658  0.41139037  1
  S  S14  1  0.75000000  0.78714342  0.91139037  1
  S  S15  1  0.25000000  0.21285658  0.08860963  1
  Cs  Cs16  1  0.25000000  0.34683572  0.60106564  1
  Cs  Cs17  1  0.75000000  0.65316428  0.39893436  1
  Cs  Cs18  1  0.25000000  0.84683572  0.89893436  1
  Cs  Cs19  1  0.75000000  0.15316428  0.10106564  1
  Cs  Cs20  1  0.25000000  0.03402544  0.32943662  1
  Cs  Cs21  1  0.75000000  0.96597456  0.67056338  1
  Cs  Cs22  1  0.25000000  0.53402544  0.17056338  1
  Cs  Cs23  1  0.75000000  0.46597456  0.82943662  1
  W  W24  1  0.25000000  0.25415477  0.92436997  1
  W  W25  1  0.75000000  0.74584523  0.07563003  1
  W  W26  1  0.25000000  0.75415477  0.57563003  1
  W  W27  1  0.75000000  0.24584523  0.42436997  1
