# generated using pymatgen
data_KSm(PO3)4
_symmetry_space_group_name_H-M   'P 1'
_cell_length_a   7.53055789
_cell_length_b   7.53055790
_cell_length_c   10.70902426
_cell_angle_alpha   100.95949324
_cell_angle_beta   100.95949325
_cell_angle_gamma   115.51496788
_symmetry_Int_Tables_number   1
_chemical_formula_structural   KSm(PO3)4
_chemical_formula_sum   'K2 Sm2 P8 O24'
_cell_volume   512.09298881
_cell_formula_units_Z   2
loop_
 _symmetry_equiv_pos_site_id
 _symmetry_equiv_pos_as_xyz
  1  'x, y, z'
loop_
 _atom_site_type_symbol
 _atom_site_label
 _atom_site_symmetry_multiplicity
 _atom_site_fract_x
 _atom_site_fract_y
 _atom_site_fract_z
 _atom_site_occupancy
  O  O0  1  0.14554335  0.00881865  0.91392512  1
  O  O1  1  0.99118135  0.85445665  0.58607488  1
  O  O2  1  0.85445665  0.99118135  0.08607488  1
  O  O3  1  0.00881865  0.14554335  0.41392512  1
  O  O4  1  0.96811901  0.22270125  0.93726308  1
  O  O5  1  0.77729875  0.03188099  0.56273692  1
  O  O6  1  0.03188099  0.77729875  0.06273692  1
  O  O7  1  0.22270125  0.96811901  0.43726308  1
  O  O8  1  0.25697369  0.32728043  0.83888887  1
  O  O9  1  0.67271957  0.74302631  0.66111113  1
  O  O10  1  0.74302631  0.67271957  0.16111113  1
  O  O11  1  0.32728043  0.25697369  0.33888887  1
  O  O12  1  0.36195182  0.33093394  0.59225782  1
  O  O13  1  0.66906606  0.63804818  0.90774218  1
  O  O14  1  0.63804818  0.66906606  0.40774218  1
  O  O15  1  0.33093394  0.36195182  0.09225782  1
  O  O16  1  0.69977768  0.19919258  0.39544331  1
  O  O17  1  0.80080742  0.30022232  0.10455669  1
  O  O18  1  0.30022232  0.80080742  0.60455669  1
  O  O19  1  0.19919258  0.69977768  0.89544331  1
  O  O20  1  0.01247160  0.40581120  0.61217080  1
  O  O21  1  0.59418880  0.98752840  0.88782920  1
  O  O22  1  0.98752840  0.59418880  0.38782920  1
  O  O23  1  0.40581120  0.01247160  0.11217080  1
  P  P24  1  0.21314772  0.87824697  0.99552994  1
  P  P25  1  0.12175303  0.78685228  0.50447006  1
  P  P26  1  0.78685228  0.12175303  0.00447006  1
  P  P27  1  0.87824697  0.21314772  0.49552994  1
  P  P28  1  0.19523990  0.24837277  0.94964360  1
  P  P29  1  0.75162723  0.80476010  0.55035640  1
  P  P30  1  0.80476010  0.75162723  0.05035640  1
  P  P31  1  0.24837277  0.19523990  0.44964360  1
  K  K32  1  0.31060424  0.68939576  0.25000000  1
  K  K33  1  0.68939576  0.31060424  0.75000000  1
  Sm  Sm34  1  0.62068724  0.37931276  0.25000000  1
  Sm  Sm35  1  0.37931276  0.62068724  0.75000000  1
