# generated using pymatgen
data_ZrSnS3
_symmetry_space_group_name_H-M   'P 1'
_cell_length_a   3.75387131
_cell_length_b   9.57251340
_cell_length_c   14.15166526
_cell_angle_alpha   90.00000000
_cell_angle_beta   90.00000000
_cell_angle_gamma   90.00000000
_symmetry_Int_Tables_number   1
_chemical_formula_structural   ZrSnS3
_chemical_formula_sum   'Zr4 Sn4 S12'
_cell_volume   508.52570477
_cell_formula_units_Z   4
loop_
 _symmetry_equiv_pos_site_id
 _symmetry_equiv_pos_as_xyz
  1  'x, y, z'
loop_
 _atom_site_type_symbol
 _atom_site_label
 _atom_site_symmetry_multiplicity
 _atom_site_fract_x
 _atom_site_fract_y
 _atom_site_fract_z
 _atom_site_occupancy
  S  S0  1  0.25000000  0.51063514  0.60656898  1
  S  S1  1  0.75000000  0.48936486  0.39343102  1
  S  S2  1  0.25000000  0.01063514  0.89343102  1
  S  S3  1  0.75000000  0.98936486  0.10656898  1
  S  S4  1  0.75000000  0.82326391  0.50792887  1
  S  S5  1  0.25000000  0.17673609  0.49207113  1
  S  S6  1  0.75000000  0.32326391  0.99207113  1
  S  S7  1  0.25000000  0.67673609  0.00792887  1
  S  S8  1  0.75000000  0.73360568  0.78731186  1
  S  S9  1  0.25000000  0.26639432  0.21268814  1
  S  S10  1  0.75000000  0.23360568  0.71268814  1
  S  S11  1  0.25000000  0.76639432  0.28731186  1
  Zr  Zr12  1  0.25000000  0.65758684  0.45258417  1
  Zr  Zr13  1  0.75000000  0.34241316  0.54741583  1
  Zr  Zr14  1  0.25000000  0.15758684  0.04741583  1
  Zr  Zr15  1  0.75000000  0.84241316  0.95258417  1
  Sn  Sn16  1  0.75000000  0.94446844  0.33404175  1
  Sn  Sn17  1  0.25000000  0.05553156  0.66595825  1
  Sn  Sn18  1  0.75000000  0.44446844  0.16595825  1
  Sn  Sn19  1  0.25000000  0.55553156  0.83404175  1
