# generated using pymatgen
data_Mn3Cr2Sb(PO4)6
_symmetry_space_group_name_H-M   'P 1'
_cell_length_a   8.58286572
_cell_length_b   8.58286496
_cell_length_c   8.58286503
_cell_angle_alpha   61.20349563
_cell_angle_beta   61.20349272
_cell_angle_gamma   61.20349299
_symmetry_Int_Tables_number   1
_chemical_formula_structural   Mn3Cr2Sb(PO4)6
_chemical_formula_sum   'Mn3 Cr2 Sb1 P6 O24'
_cell_volume   459.17933595
_cell_formula_units_Z   1
loop_
 _symmetry_equiv_pos_site_id
 _symmetry_equiv_pos_as_xyz
  1  'x, y, z'
loop_
 _atom_site_type_symbol
 _atom_site_label
 _atom_site_symmetry_multiplicity
 _atom_site_fract_x
 _atom_site_fract_y
 _atom_site_fract_z
 _atom_site_occupancy
  Mn  Mn0  1  0.14780674  0.14780674  0.14780674  1
  Mn  Mn1  1  0.35193498  0.35193498  0.35193498  1
  Mn  Mn2  1  0.64523572  0.64523572  0.64523572  1
  Cr  Cr3  1  0.00438310  0.00438310  0.00438310  1
  Cr  Cr4  1  0.49967197  0.49967197  0.49967197  1
  Sb  Sb5  1  0.85518353  0.85518353  0.85518353  1
  P  P6  1  0.74718273  0.44957670  0.05241653  1
  P  P7  1  0.25394301  0.54463910  0.94526996  1
  P  P8  1  0.54463910  0.94526996  0.25394301  1
  P  P9  1  0.94526996  0.25394301  0.54463910  1
  P  P10  1  0.05241653  0.74718273  0.44957670  1
  P  P11  1  0.44957670  0.05241653  0.74718273  1
  O  O12  1  0.09327104  0.31635637  0.52052045  1
  O  O13  1  0.31635637  0.52052045  0.09327104  1
  O  O14  1  0.06423681  0.90758045  0.25356766  1
  O  O15  1  0.52052045  0.09327104  0.31635637  1
  O  O16  1  0.00782403  0.82126493  0.60847349  1
  O  O17  1  0.25093385  0.59958378  0.44196879  1
  O  O18  1  0.25356766  0.06423681  0.90758045  1
  O  O19  1  0.44196879  0.25093385  0.59958378  1
  O  O20  1  0.17883256  0.39801052  0.98565029  1
  O  O21  1  0.59958378  0.44196879  0.25093385  1
  O  O22  1  0.08770046  0.75205820  0.93158729  1
  O  O23  1  0.39801052  0.98565029  0.17883256  1
  O  O24  1  0.60847349  0.00782403  0.82126493  1
  O  O25  1  0.90758045  0.25356766  0.06423681  1
  O  O26  1  0.40056015  0.56743137  0.74303062  1
  O  O27  1  0.82126493  0.60847349  0.00782403  1
  O  O28  1  0.56743137  0.74303062  0.40056015  1
  O  O29  1  0.75205820  0.93158729  0.08770046  1
  O  O30  1  0.74303062  0.40056015  0.56743137  1
  O  O31  1  0.98565029  0.17883256  0.39801052  1
  O  O32  1  0.49235803  0.89974862  0.68020918  1
  O  O33  1  0.93158729  0.08770046  0.75205820  1
  O  O34  1  0.68020918  0.49235803  0.89974862  1
  O  O35  1  0.89974862  0.68020918  0.49235803  1
