# generated using pymatgen
data_SrNi5As3
_symmetry_space_group_name_H-M   'P 1'
_cell_length_a   3.76199111
_cell_length_b   6.40162657
_cell_length_c   11.94685189
_cell_angle_alpha   90.00000000
_cell_angle_beta   90.00000000
_cell_angle_gamma   107.08744490
_symmetry_Int_Tables_number   1
_chemical_formula_structural   SrNi5As3
_chemical_formula_sum   'Sr2 Ni10 As6'
_cell_volume   275.01393397
_cell_formula_units_Z   2
loop_
 _symmetry_equiv_pos_site_id
 _symmetry_equiv_pos_as_xyz
  1  'x, y, z'
loop_
 _atom_site_type_symbol
 _atom_site_label
 _atom_site_symmetry_multiplicity
 _atom_site_fract_x
 _atom_site_fract_y
 _atom_site_fract_z
 _atom_site_occupancy
  Ni  Ni0  1  0.80683461  0.61366921  0.93299936  1
  Ni  Ni1  1  0.19316539  0.38633079  0.43299936  1
  Ni  Ni2  1  0.00000000  0.00000000  0.00000000  1
  Ni  Ni3  1  0.00000000  0.00000000  0.50000000  1
  Ni  Ni4  1  0.45166407  0.90332813  0.64476167  1
  Ni  Ni5  1  0.54833593  0.09667187  0.35523833  1
  Ni  Ni6  1  0.54833593  0.09667187  0.14476167  1
  Ni  Ni7  1  0.80683461  0.61366921  0.56700064  1
  Ni  Ni8  1  0.19316539  0.38633079  0.06700064  1
  Ni  Ni9  1  0.45166407  0.90332813  0.85523833  1
  As  As10  1  0.37907078  0.75814155  0.45922985  1
  As  As11  1  0.88657150  0.77314300  0.75000000  1
  As  As12  1  0.37907078  0.75814155  0.04077015  1
  As  As13  1  0.62092922  0.24185845  0.95922985  1
  As  As14  1  0.11342850  0.22685700  0.25000000  1
  As  As15  1  0.62092922  0.24185845  0.54077015  1
  Sr  Sr16  1  0.83575669  0.67151338  0.25000000  1
  Sr  Sr17  1  0.16424331  0.32848662  0.75000000  1
