# generated using pymatgen
data_Hf2N2O
_symmetry_space_group_name_H-M   'P 1'
_cell_length_a   9.62380031
_cell_length_b   5.48402392
_cell_length_c   3.43708351
_cell_angle_alpha   51.18683303
_cell_angle_beta   111.19001589
_cell_angle_gamma   90.25048910
_symmetry_Int_Tables_number   1
_chemical_formula_structural   Hf2N2O
_chemical_formula_sum   'Hf4 N4 O2'
_cell_volume   125.47418870
_cell_formula_units_Z   2
loop_
 _symmetry_equiv_pos_site_id
 _symmetry_equiv_pos_as_xyz
  1  'x, y, z'
loop_
 _atom_site_type_symbol
 _atom_site_label
 _atom_site_symmetry_multiplicity
 _atom_site_fract_x
 _atom_site_fract_y
 _atom_site_fract_z
 _atom_site_occupancy
  Hf  Hf0  1  0.10551675  0.18374829  0.66644303  1
  Hf  Hf1  1  0.67003002  0.45633686  0.96694231  1
  Hf  Hf2  1  0.32849920  0.54745034  0.02946227  1
  Hf  Hf3  1  0.89269910  0.81986147  0.32927121  1
  N  N4  1  0.24822060  0.08121363  0.41512236  1
  N  N5  1  0.90213110  0.31497555  0.84217358  1
  N  N6  1  0.09630751  0.68851147  0.15184495  1
  N  N7  1  0.75003443  0.92247879  0.58002103  1
  O  O8  1  0.43839582  0.37494257  0.81311902  1
  O  O9  1  0.56024447  0.62857401  0.18353524  1
