# generated using pymatgen
data_LiV6O7F5
_symmetry_space_group_name_H-M   'P 1'
_cell_length_a   4.89723654
_cell_length_b   5.67184942
_cell_length_c   7.83643237
_cell_angle_alpha   84.69169944
_cell_angle_beta   91.72629591
_cell_angle_gamma   92.88495414
_symmetry_Int_Tables_number   1
_chemical_formula_structural   LiV6O7F5
_chemical_formula_sum   'Li1 V6 O7 F5'
_cell_volume   216.38858908
_cell_formula_units_Z   1
loop_
 _symmetry_equiv_pos_site_id
 _symmetry_equiv_pos_as_xyz
  1  'x, y, z'
loop_
 _atom_site_type_symbol
 _atom_site_label
 _atom_site_symmetry_multiplicity
 _atom_site_fract_x
 _atom_site_fract_y
 _atom_site_fract_z
 _atom_site_occupancy
  Li  Li0  1  0.49858672  0.10468276  0.89575177  1
  V  V1  1  0.99656891  0.99495854  0.02116729  1
  V  V2  1  0.44076728  0.53876126  0.00415455  1
  V  V3  1  0.55888042  0.79082013  0.65935699  1
  V  V4  1  0.52457401  0.15426982  0.32982385  1
  V  V5  1  0.99478743  0.33864307  0.66030218  1
  V  V6  1  0.98861162  0.68391362  0.32801563  1
  O  O7  1  0.17931792  0.70432091  0.11061485  1
  O  O8  1  0.30902323  0.52896389  0.76046456  1
  O  O9  1  0.31856511  0.20053198  0.09637577  1
  O  O10  1  0.68652378  0.81135986  0.90850570  1
  O  O11  1  0.68776579  0.11973138  0.57265036  1
  O  O12  1  0.80593778  0.97060002  0.24406173  1
  O  O13  1  0.82354901  0.61552794  0.55636230  1
  F  F14  1  0.18046393  0.03373707  0.77548962  1
  F  F15  1  0.19630000  0.36424460  0.42311153  1
  F  F16  1  0.31514793  0.85598591  0.43446952  1
  F  F17  1  0.68730862  0.47620567  0.22788570  1
  F  F18  1  0.80862650  0.30387358  0.90347809  1
