# generated using pymatgen
data_Ti5Mn3O16
_symmetry_space_group_name_H-M   'P 1'
_cell_length_a   5.85943766
_cell_length_b   5.87053095
_cell_length_c   9.06020111
_cell_angle_alpha   89.99922096
_cell_angle_beta   89.40079004
_cell_angle_gamma   120.06307065
_symmetry_Int_Tables_number   1
_chemical_formula_structural   Ti5Mn3O16
_chemical_formula_sum   'Ti5 Mn3 O16'
_cell_volume   269.70790573
_cell_formula_units_Z   1
loop_
 _symmetry_equiv_pos_site_id
 _symmetry_equiv_pos_as_xyz
  1  'x, y, z'
loop_
 _atom_site_type_symbol
 _atom_site_label
 _atom_site_symmetry_multiplicity
 _atom_site_fract_x
 _atom_site_fract_y
 _atom_site_fract_z
 _atom_site_occupancy
  Ti  Ti0  1  0.32650191  0.16324927  0.71443155  1
  Ti  Ti1  1  0.16112684  0.82792675  0.21380944  1
  Ti  Ti2  1  0.33950664  0.66975912  0.49503267  1
  Ti  Ti3  1  0.16112586  0.33321297  0.21380882  1
  Ti  Ti4  1  0.66658126  0.33330502  0.99261789  1
  Mn  Mn5  1  0.65766654  0.82884204  0.21136151  1
  Mn  Mn6  1  0.82806557  0.66003003  0.71113606  1
  Mn  Mn7  1  0.82806529  0.16806148  0.71114136  1
  O  O8  1  0.17085469  0.83194944  0.60052201  1
  O  O9  1  0.04357526  0.52179147  0.33908297  1
  O  O10  1  0.33919980  0.66961155  0.10014405  1
  O  O11  1  0.99269339  0.99635235  0.31483010  1
  O  O12  1  0.99093259  0.99547038  0.81442624  1
  O  O13  1  0.17085822  0.33892932  0.60052854  1
  O  O14  1  0.48342179  0.95574875  0.33620908  1
  O  O15  1  0.48342017  0.52768945  0.33621565  1
  O  O16  1  0.34240447  0.17121172  0.09967160  1
  O  O17  1  0.66603128  0.83302924  0.60274860  1
  O  O18  1  0.52665239  0.48213538  0.83652340  1
  O  O19  1  0.52665182  0.04452543  0.83652399  1
  O  O20  1  0.67504861  0.33753136  0.60210339  1
  O  O21  1  0.83162272  0.66199593  0.10078839  1
  O  O22  1  0.95636052  0.47819061  0.83127783  1
  O  O23  1  0.83163236  0.16965294  0.10078687  1
