# generated using pymatgen
data_SrTh2Se5
_symmetry_space_group_name_H-M   'P 1'
_cell_length_a   7.96907401
_cell_length_b   8.80346416
_cell_length_c   12.66900801
_cell_angle_alpha   90.00314656
_cell_angle_beta   90.00000000
_cell_angle_gamma   90.00000000
_symmetry_Int_Tables_number   1
_chemical_formula_structural   SrTh2Se5
_chemical_formula_sum   'Sr4 Th8 Se20'
_cell_volume   888.80005152
_cell_formula_units_Z   4
loop_
 _symmetry_equiv_pos_site_id
 _symmetry_equiv_pos_as_xyz
  1  'x, y, z'
loop_
 _atom_site_type_symbol
 _atom_site_label
 _atom_site_symmetry_multiplicity
 _atom_site_fract_x
 _atom_site_fract_y
 _atom_site_fract_z
 _atom_site_occupancy
  Se  Se0  1  0.83961730  0.04386140  0.60159008  1
  Se  Se1  1  0.82730267  0.22406594  0.31518543  1
  Se  Se2  1  0.67269733  0.22406594  0.81518543  1
  Se  Se3  1  0.17269733  0.77593406  0.68481457  1
  Se  Se4  1  0.54265813  0.77861138  0.50173663  1
  Se  Se5  1  0.04265813  0.22138862  0.99826337  1
  Se  Se6  1  0.45734187  0.22138862  0.49826337  1
  Se  Se7  1  0.95734187  0.77861138  0.00173663  1
  Se  Se8  1  0.19827662  0.23547451  0.71683639  1
  Se  Se9  1  0.69827662  0.76452549  0.78316361  1
  Se  Se10  1  0.80172338  0.76452549  0.28316361  1
  Se  Se11  1  0.66038270  0.04386140  0.10159008  1
  Se  Se12  1  0.82886583  0.45845969  0.58922495  1
  Se  Se13  1  0.32886583  0.54154031  0.91077505  1
  Se  Se14  1  0.17113417  0.54154031  0.41077505  1
  Se  Se15  1  0.67113417  0.45845969  0.08922495  1
  Se  Se16  1  0.30172338  0.23547451  0.21683639  1
  Se  Se17  1  0.33961730  0.95613860  0.89840992  1
  Se  Se18  1  0.16038270  0.95613860  0.39840992  1
  Se  Se19  1  0.32730267  0.77593406  0.18481457  1
  Sr  Sr20  1  0.96622660  0.49456259  0.82529462  1
  Sr  Sr21  1  0.46622660  0.50543741  0.67470538  1
  Sr  Sr22  1  0.03377340  0.50543741  0.17470538  1
  Sr  Sr23  1  0.53377340  0.49456259  0.32529462  1
  Th  Th24  1  0.57472257  0.74876039  0.00882518  1
  Th  Th25  1  0.92527743  0.74876039  0.50882518  1
  Th  Th26  1  0.42527743  0.25123961  0.99117482  1
  Th  Th27  1  0.07472257  0.25123961  0.49117482  1
  Th  Th28  1  0.51764988  0.99804763  0.32023564  1
  Th  Th29  1  0.01764988  0.00195237  0.17976436  1
  Th  Th30  1  0.48235012  0.00195237  0.67976436  1
  Th  Th31  1  0.98235012  0.99804763  0.82023564  1
