# generated using pymatgen
data_Ba2DyReO6
_symmetry_space_group_name_H-M   'P 1'
_cell_length_a   5.99214825
_cell_length_b   5.99214847
_cell_length_c   5.99214846
_cell_angle_alpha   60.00000003
_cell_angle_beta   59.99999885
_cell_angle_gamma   59.99999776
_symmetry_Int_Tables_number   1
_chemical_formula_structural   Ba2DyReO6
_chemical_formula_sum   'Ba2 Dy1 Re1 O6'
_cell_volume   152.13623730
_cell_formula_units_Z   1
loop_
 _symmetry_equiv_pos_site_id
 _symmetry_equiv_pos_as_xyz
  1  'x, y, z'
loop_
 _atom_site_type_symbol
 _atom_site_label
 _atom_site_symmetry_multiplicity
 _atom_site_fract_x
 _atom_site_fract_y
 _atom_site_fract_z
 _atom_site_occupancy
  Ba  Ba0  1  0.25000000  0.25000000  0.25000000  1
  Ba  Ba1  1  0.75000000  0.75000000  0.75000000  1
  Dy  Dy2  1  0.50000000  0.50000000  0.50000000  1
  Re  Re3  1  0.00000000  0.00000000  -0.00000000  1
  O  O4  1  0.23505677  0.76494323  0.76494323  1
  O  O5  1  0.76494323  0.23505677  0.23505677  1
  O  O6  1  0.76494323  0.23505677  0.76494323  1
  O  O7  1  0.23505677  0.76494323  0.23505677  1
  O  O8  1  0.23505677  0.23505677  0.76494323  1
  O  O9  1  0.76494323  0.76494323  0.23505677  1
