# generated using pymatgen
data_Cu15Si4
_symmetry_space_group_name_H-M   'P 1'
_cell_length_a   8.40442571
_cell_length_b   8.40442572
_cell_length_c   8.40442572
_cell_angle_alpha   109.47122064
_cell_angle_beta   109.47122065
_cell_angle_gamma   109.47122064
_symmetry_Int_Tables_number   1
_chemical_formula_structural   Cu15Si4
_chemical_formula_sum   'Si8 Cu30'
_cell_volume   456.98530817
_cell_formula_units_Z   2
loop_
 _symmetry_equiv_pos_site_id
 _symmetry_equiv_pos_as_xyz
  1  'x, y, z'
loop_
 _atom_site_type_symbol
 _atom_site_label
 _atom_site_symmetry_multiplicity
 _atom_site_fract_x
 _atom_site_fract_y
 _atom_site_fract_z
 _atom_site_occupancy
  Si  Si0  1  0.41151775  0.41151775  0.41151775  1
  Si  Si1  1  0.58848225  0.50000000  0.00000000  1
  Si  Si2  1  0.00000000  0.58848225  0.50000000  1
  Si  Si3  1  0.50000000  0.00000000  0.58848225  1
  Si  Si4  1  0.00000000  0.08848225  0.50000000  1
  Si  Si5  1  0.50000000  0.00000000  0.08848225  1
  Si  Si6  1  0.08848225  0.50000000  0.00000000  1
  Si  Si7  1  0.91151775  0.91151775  0.91151775  1
  Cu  Cu8  1  0.25000000  0.62500000  0.37500000  1
  Cu  Cu9  1  0.37500000  0.25000000  0.62500000  1
  Cu  Cu10  1  0.12500000  0.75000000  0.87500000  1
  Cu  Cu11  1  0.87500000  0.12500000  0.75000000  1
  Cu  Cu12  1  0.62500000  0.37500000  0.25000000  1
  Cu  Cu13  1  0.75000000  0.87500000  0.12500000  1
  Cu  Cu14  1  0.12353852  0.07353262  0.27499634  1
  Cu  Cu15  1  0.92646738  0.70146373  0.05000590  1
  Cu  Cu16  1  0.15145782  0.87646148  0.44999410  1
  Cu  Cu17  1  0.44999410  0.15145782  0.87646148  1
  Cu  Cu18  1  0.72500366  0.34854218  0.79853627  1
  Cu  Cu19  1  0.79853627  0.72500366  0.34854218  1
  Cu  Cu20  1  0.70146373  0.05000590  0.92646738  1
  Cu  Cu21  1  0.84854218  0.22500366  0.29853627  1
  Cu  Cu22  1  0.55000590  0.20146373  0.42646738  1
  Cu  Cu23  1  0.65145782  0.94999410  0.37646148  1
  Cu  Cu24  1  0.22500366  0.29853627  0.84854218  1
  Cu  Cu25  1  0.42646738  0.55000590  0.20146373  1
  Cu  Cu26  1  0.94999410  0.37646148  0.65145782  1
  Cu  Cu27  1  0.27499634  0.12353852  0.07353262  1
  Cu  Cu28  1  0.07353262  0.27499634  0.12353852  1
  Cu  Cu29  1  0.29853627  0.84854218  0.22500366  1
  Cu  Cu30  1  0.20146373  0.42646738  0.55000590  1
  Cu  Cu31  1  0.37646148  0.65145782  0.94999410  1
  Cu  Cu32  1  0.57353262  0.62353852  0.77499634  1
  Cu  Cu33  1  0.77499634  0.57353262  0.62353852  1
  Cu  Cu34  1  0.62353852  0.77499634  0.57353262  1
  Cu  Cu35  1  0.34854218  0.79853627  0.72500366  1
  Cu  Cu36  1  0.05000590  0.92646738  0.70146373  1
  Cu  Cu37  1  0.87646148  0.44999410  0.15145782  1
