# generated using pymatgen
data_SrTi4(PO4)6
_symmetry_space_group_name_H-M   'P 1'
_cell_length_a   9.03371400
_cell_length_b   9.03371400
_cell_length_c   9.03371401
_cell_angle_alpha   55.98420779
_cell_angle_beta   55.98420781
_cell_angle_gamma   55.98420783
_symmetry_Int_Tables_number   1
_chemical_formula_structural   SrTi4(PO4)6
_chemical_formula_sum   'Sr1 Ti4 P6 O24'
_cell_volume   472.79381812
_cell_formula_units_Z   1
loop_
 _symmetry_equiv_pos_site_id
 _symmetry_equiv_pos_as_xyz
  1  'x, y, z'
loop_
 _atom_site_type_symbol
 _atom_site_label
 _atom_site_symmetry_multiplicity
 _atom_site_fract_x
 _atom_site_fract_y
 _atom_site_fract_z
 _atom_site_occupancy
  O  O0  1  0.55383087  0.46342479  0.18893486  1
  O  O1  1  0.46342479  0.18893486  0.55383087  1
  O  O2  1  0.18893486  0.55383087  0.46342479  1
  O  O3  1  0.44616913  0.53657521  0.81106514  1
  O  O4  1  0.53657521  0.81106514  0.44616913  1
  O  O5  1  0.81106514  0.44616913  0.53657521  1
  O  O6  1  0.90607997  0.09170793  0.72998869  1
  O  O7  1  0.09170793  0.72998869  0.90607997  1
  O  O8  1  0.72998869  0.90607997  0.09170793  1
  O  O9  1  0.09392003  0.90829207  0.27001131  1
  O  O10  1  0.90829207  0.27001131  0.09392003  1
  O  O11  1  0.37320863  0.99962786  0.21083190  1
  O  O12  1  0.21083190  0.37320863  0.99962786  1
  O  O13  1  0.99962786  0.21083190  0.37320863  1
  O  O14  1  0.62679137  0.00037214  0.78916810  1
  O  O15  1  0.78916810  0.62679137  0.00037214  1
  O  O16  1  0.00037214  0.78916810  0.62679137  1
  O  O17  1  0.76339297  0.48170430  0.84408569  1
  O  O18  1  0.84408569  0.76339297  0.48170430  1
  O  O19  1  0.48170430  0.84408569  0.76339297  1
  O  O20  1  0.23660703  0.51829570  0.15591431  1
  O  O21  1  0.15591431  0.23660703  0.51829570  1
  O  O22  1  0.51829570  0.15591431  0.23660703  1
  O  O23  1  0.27001131  0.09392003  0.90829207  1
  P  P24  1  0.03053063  0.75144609  0.46271211  1
  P  P25  1  0.75144609  0.46271211  0.03053063  1
  P  P26  1  0.46271211  0.03053063  0.75144609  1
  P  P27  1  0.96946937  0.24855391  0.53728789  1
  P  P28  1  0.24855391  0.53728789  0.96946937  1
  P  P29  1  0.53728789  0.96946937  0.24855391  1
  Ti  Ti30  1  0.35607857  0.35607857  0.35607857  1
  Ti  Ti31  1  0.64392143  0.64392143  0.64392143  1
  Ti  Ti32  1  0.85027752  0.85027752  0.85027752  1
  Ti  Ti33  1  0.14972248  0.14972248  0.14972248  1
  Sr  Sr34  1  0.00000000  0.00000000  0.00000000  1
