# generated using pymatgen
data_K2SmF5
_symmetry_space_group_name_H-M   'P 1'
_cell_length_a   6.76513217
_cell_length_b   7.45944643
_cell_length_c   11.07514034
_cell_angle_alpha   90.00000000
_cell_angle_beta   90.00000000
_cell_angle_gamma   90.00000000
_symmetry_Int_Tables_number   1
_chemical_formula_structural   K2SmF5
_chemical_formula_sum   'K8 Sm4 F20'
_cell_volume   558.89744387
_cell_formula_units_Z   4
loop_
 _symmetry_equiv_pos_site_id
 _symmetry_equiv_pos_as_xyz
  1  'x, y, z'
loop_
 _atom_site_type_symbol
 _atom_site_label
 _atom_site_symmetry_multiplicity
 _atom_site_fract_x
 _atom_site_fract_y
 _atom_site_fract_z
 _atom_site_occupancy
  K  K0  1  0.52799217  0.25336896  0.17201394  1
  K  K1  1  0.47200783  0.75336896  0.82798606  1
  K  K2  1  0.97200783  0.25336896  0.67201394  1
  K  K3  1  0.02799217  0.75336896  0.32798606  1
  K  K4  1  0.52794349  0.75930151  0.17199519  1
  K  K5  1  0.47205651  0.25930151  0.82800481  1
  K  K6  1  0.97205651  0.75930151  0.67199519  1
  K  K7  1  0.02794349  0.25930151  0.32800481  1
  Sm  Sm8  1  0.56522309  0.50640209  0.49743914  1
  Sm  Sm9  1  0.43477691  0.00640209  0.50256086  1
  Sm  Sm10  1  0.93477691  0.50640209  0.99743914  1
  Sm  Sm11  1  0.06522309  0.00640209  0.00256086  1
  F  F12  1  0.86635399  0.00637643  0.16776124  1
  F  F13  1  0.13364601  0.50637643  0.83223876  1
  F  F14  1  0.63364601  0.00637643  0.66776124  1
  F  F15  1  0.36635399  0.50637643  0.33223876  1
  F  F16  1  0.83534487  0.50634427  0.19452517  1
  F  F17  1  0.16465513  0.00634427  0.80547483  1
  F  F18  1  0.66465513  0.50634427  0.69452517  1
  F  F19  1  0.33534487  0.00634427  0.30547483  1
  F  F20  1  0.64603659  0.22282058  0.42051641  1
  F  F21  1  0.35396341  0.72282058  0.57948359  1
  F  F22  1  0.85396341  0.22282058  0.92051641  1
  F  F23  1  0.14603659  0.72282058  0.07948359  1
  F  F24  1  0.39871311  0.00639768  0.01239328  1
  F  F25  1  0.60128689  0.50639768  0.98760672  1
  F  F26  1  0.10128689  0.00639768  0.51239328  1
  F  F27  1  0.89871311  0.50639768  0.48760672  1
  F  F28  1  0.14609034  0.28998849  0.07947282  1
  F  F29  1  0.85390966  0.78998849  0.92052818  1
  F  F30  1  0.35390966  0.28998849  0.57947182  1
  F  F31  1  0.64609034  0.78998849  0.42052818  1
