# generated using pymatgen
data_Li4Nb3V3(SbO8)2
_symmetry_space_group_name_H-M   'P 1'
_cell_length_a   6.12979822
_cell_length_b   6.11528872
_cell_length_c   10.62909362
_cell_angle_alpha   89.99872721
_cell_angle_beta   90.41814740
_cell_angle_gamma   119.92067929
_symmetry_Int_Tables_number   1
_chemical_formula_structural   Li4Nb3V3(SbO8)2
_chemical_formula_sum   'Li4 Nb3 V3 Sb2 O16'
_cell_volume   345.31960110
_cell_formula_units_Z   1
loop_
 _symmetry_equiv_pos_site_id
 _symmetry_equiv_pos_as_xyz
  1  'x, y, z'
loop_
 _atom_site_type_symbol
 _atom_site_label
 _atom_site_symmetry_multiplicity
 _atom_site_fract_x
 _atom_site_fract_y
 _atom_site_fract_z
 _atom_site_occupancy
  Li  Li0  1  0.33317308  0.66659480  0.90172900  1
  Li  Li1  1  0.00759546  0.00382461  0.99215094  1
  Li  Li2  1  0.00461857  0.00232251  0.49395860  1
  Li  Li3  1  0.67817927  0.33909217  0.39232798  1
  Nb  Nb4  1  0.64970136  0.82486116  0.22633813  1
  Nb  Nb5  1  0.81368686  0.64377024  0.72128973  1
  Nb  Nb6  1  0.81368873  0.16992447  0.72129186  1
  V  V7  1  0.16603292  0.82587238  0.21528345  1
  V  V8  1  0.16603159  0.34018801  0.21528881  1
  V  V9  1  0.33974038  0.16987756  0.71079686  1
  Sb  Sb10  1  0.31786667  0.65895638  0.51054622  1
  Sb  Sb11  1  0.66045572  0.33024069  0.01661418  1
  O  O12  1  0.14620931  0.82875367  0.60355120  1
  O  O13  1  0.02697866  0.51350159  0.31547004  1
  O  O14  1  0.35251335  0.67627587  0.10732112  1
  O  O15  1  0.98958653  0.99480098  0.31238392  1
  O  O16  1  0.99615053  0.99807789  0.81085474  1
  O  O17  1  0.14620684  0.31747558  0.60354847  1
  O  O18  1  0.49992917  0.98482872  0.32005985  1
  O  O19  1  0.49991903  0.51510870  0.32006676  1
  O  O20  1  0.31357269  0.15680768  0.11196418  1
  O  O21  1  0.68928211  0.84465068  0.60260044  1
  O  O22  1  0.52019489  0.51040590  0.82256381  1
  O  O23  1  0.52020184  0.00980106  0.82256477  1
  O  O24  1  0.67540212  0.33770666  0.59569325  1
  O  O25  1  0.84547839  0.68883400  0.10440938  1
  O  O26  1  0.98211008  0.49105826  0.83275543  1
  O  O27  1  0.84549287  0.15668880  0.10441788  1
