# generated using pymatgen
data_Sr3(GaN2)2
_symmetry_space_group_name_H-M   'P 1'
_cell_length_a   5.99245757
_cell_length_b   9.62331156
_cell_length_c   10.36935725
_cell_angle_alpha   90.00000000
_cell_angle_beta   90.00000000
_cell_angle_gamma   90.00000000
_symmetry_Int_Tables_number   1
_chemical_formula_structural   Sr3(GaN2)2
_chemical_formula_sum   'Sr12 Ga8 N16'
_cell_volume   597.97269231
_cell_formula_units_Z   4
loop_
 _symmetry_equiv_pos_site_id
 _symmetry_equiv_pos_as_xyz
  1  'x, y, z'
loop_
 _atom_site_type_symbol
 _atom_site_label
 _atom_site_symmetry_multiplicity
 _atom_site_fract_x
 _atom_site_fract_y
 _atom_site_fract_z
 _atom_site_occupancy
  N  N0  1  0.49276737  0.16726925  0.59615594  1
  N  N1  1  0.49276737  0.33273075  0.90384406  1
  N  N2  1  0.00723263  0.16726925  0.40384406  1
  N  N3  1  0.00723263  0.33273075  0.09615594  1
  N  N4  1  0.50723263  0.83273075  0.40384406  1
  N  N5  1  0.50723263  0.66726925  0.09615594  1
  N  N6  1  0.99276737  0.83273075  0.59615594  1
  N  N7  1  0.99276737  0.66726925  0.90384406  1
  N  N8  1  0.12206865  0.37462829  0.64611389  1
  N  N9  1  0.12206865  0.12537171  0.85388611  1
  N  N10  1  0.37793135  0.37462829  0.35388611  1
  N  N11  1  0.37793135  0.12537171  0.14611389  1
  N  N12  1  0.87793135  0.87462829  0.14611389  1
  N  N13  1  0.62206865  0.62537171  0.64611389  1
  N  N14  1  0.62206865  0.87462829  0.85388611  1
  N  N15  1  0.87793135  0.62537171  0.35388611  1
  Ga  Ga16  1  0.83908413  0.75000000  0.75000000  1
  Ga  Ga17  1  0.66091587  0.75000000  0.25000000  1
  Ga  Ga18  1  0.16091587  0.25000000  0.25000000  1
  Ga  Ga19  1  0.33908413  0.25000000  0.75000000  1
  Ga  Ga20  1  0.25000000  0.23044271  0.00000000  1
  Ga  Ga21  1  0.75000000  0.73044271  0.50000000  1
  Ga  Ga22  1  0.75000000  0.76955729  0.00000000  1
  Ga  Ga23  1  0.25000000  0.26955729  0.50000000  1
  Sr  Sr24  1  0.25000000  0.59500477  0.50000000  1
  Sr  Sr25  1  0.25000000  0.90499523  0.00000000  1
  Sr  Sr26  1  0.75000000  0.40499523  0.50000000  1
  Sr  Sr27  1  0.75000000  0.09500477  0.00000000  1
  Sr  Sr28  1  0.39219034  0.58846383  0.84594497  1
  Sr  Sr29  1  0.39219034  0.91153617  0.65405503  1
  Sr  Sr30  1  0.10780966  0.58846383  0.15405503  1
  Sr  Sr31  1  0.10780966  0.91153617  0.34594497  1
  Sr  Sr32  1  0.60780966  0.41153617  0.15405503  1
  Sr  Sr33  1  0.60780966  0.08846383  0.34594497  1
  Sr  Sr34  1  0.89219034  0.41153617  0.84594497  1
  Sr  Sr35  1  0.89219034  0.08846383  0.65405503  1
