# generated using pymatgen
data_Na3TaF8
_symmetry_space_group_name_H-M   'P 1'
_cell_length_a   5.44756956
_cell_length_b   6.47489508
_cell_length_c   10.10070579
_cell_angle_alpha   83.59904630
_cell_angle_beta   74.35579647
_cell_angle_gamma   65.12319639
_symmetry_Int_Tables_number   1
_chemical_formula_structural   Na3TaF8
_chemical_formula_sum   'Na6 Ta2 F16'
_cell_volume   311.24472222
_cell_formula_units_Z   2
loop_
 _symmetry_equiv_pos_site_id
 _symmetry_equiv_pos_as_xyz
  1  'x, y, z'
loop_
 _atom_site_type_symbol
 _atom_site_label
 _atom_site_symmetry_multiplicity
 _atom_site_fract_x
 _atom_site_fract_y
 _atom_site_fract_z
 _atom_site_occupancy
  F  F0  1  0.82479872  0.54683290  0.28545547  1
  F  F1  1  0.15708709  0.95316710  0.21454453  1
  F  F2  1  0.17520128  0.45316710  0.71454453  1
  F  F3  1  0.84291291  0.04683290  0.78545547  1
  F  F4  1  0.31328793  0.48198721  0.13970721  1
  F  F5  1  0.43498236  0.01801279  0.36029279  1
  F  F6  1  0.68671207  0.51801279  0.86029279  1
  F  F7  1  0.56501764  0.98198721  0.63970721  1
  F  F8  1  0.76349053  0.57791474  0.61118258  1
  F  F9  1  0.45258784  0.92208526  0.88881742  1
  F  F10  1  0.23650947  0.42208526  0.38881742  1
  F  F11  1  0.54741216  0.07791474  0.11118258  1
  F  F12  1  0.09132693  0.79954235  0.58385179  1
  F  F13  1  0.97472107  0.70045765  0.91614821  1
  F  F14  1  0.90867307  0.20045765  0.41614821  1
  F  F15  1  0.02527893  0.29954235  0.08385179  1
  Na  Na16  1  0.87811052  0.83383007  0.39723162  1
  Na  Na17  1  0.60917221  0.66616993  0.10276838  1
  Na  Na18  1  0.12188948  0.16616993  0.60276838  1
  Na  Na19  1  0.39082779  0.33383007  0.89723162  1
  Na  Na20  1  0.50000000  0.50000000  0.50000000  1
  Na  Na21  1  0.00000000  0.00000000  0.00000000  1
  Ta  Ta22  1  0.18712200  0.25000000  0.25000000  1
  Ta  Ta23  1  0.81287800  0.75000000  0.75000000  1
