# generated using pymatgen
data_Zr3Tl2OF12
_symmetry_space_group_name_H-M   'P 1'
_cell_length_a   11.13369622
_cell_length_b   11.13369623
_cell_length_c   11.13369622
_cell_angle_alpha   41.36660386
_cell_angle_beta   41.36660385
_cell_angle_gamma   41.36660384
_symmetry_Int_Tables_number   1
_chemical_formula_structural   Zr3Tl2OF12
_chemical_formula_sum   'Zr6 Tl4 O2 F24'
_cell_volume   544.56676833
_cell_formula_units_Z   2
loop_
 _symmetry_equiv_pos_site_id
 _symmetry_equiv_pos_as_xyz
  1  'x, y, z'
loop_
 _atom_site_type_symbol
 _atom_site_label
 _atom_site_symmetry_multiplicity
 _atom_site_fract_x
 _atom_site_fract_y
 _atom_site_fract_z
 _atom_site_occupancy
  O  O0  1  0.71314891  0.71314891  0.71314891  1
  O  O1  1  0.28685109  0.28685109  0.28685109  1
  F  F2  1  0.70715402  0.70715402  0.37174577  1
  F  F3  1  0.70715402  0.37174577  0.70715402  1
  F  F4  1  0.37174577  0.70715402  0.70715402  1
  F  F5  1  0.62825423  0.29284598  0.29284598  1
  F  F6  1  0.29284598  0.29284598  0.62825423  1
  F  F7  1  0.29284598  0.62825423  0.29284598  1
  F  F8  1  0.90951356  0.90951356  0.40417028  1
  F  F9  1  0.90951356  0.40417028  0.90951356  1
  F  F10  1  0.35263214  0.64736786  0.00000000  1
  F  F11  1  0.00000000  0.35263214  0.64736786  1
  F  F12  1  0.64736786  0.00000000  0.35263214  1
  F  F13  1  0.64736786  0.35263214  0.00000000  1
  F  F14  1  0.00000000  0.64736786  0.35263214  1
  F  F15  1  0.35263214  0.00000000  0.64736786  1
  F  F16  1  0.35165913  0.91693865  0.35165913  1
  F  F17  1  0.35165913  0.35165913  0.91693865  1
  F  F18  1  0.91693865  0.35165913  0.35165913  1
  F  F19  1  0.08306135  0.64834087  0.64834087  1
  F  F20  1  0.64834087  0.08306135  0.64834087  1
  F  F21  1  0.64834087  0.64834087  0.08306135  1
  F  F22  1  0.09048644  0.59582972  0.09048644  1
  F  F23  1  0.09048644  0.09048644  0.59582972  1
  F  F24  1  0.59582972  0.09048644  0.09048644  1
  F  F25  1  0.40417028  0.90951356  0.90951356  1
  Zr  Zr26  1  0.42433570  0.42433570  0.97087668  1
  Zr  Zr27  1  0.42433570  0.97087668  0.42433570  1
  Zr  Zr28  1  0.97087668  0.42433570  0.42433570  1
  Zr  Zr29  1  0.02912332  0.57566430  0.57566430  1
  Zr  Zr30  1  0.57566430  0.57566430  0.02912332  1
  Zr  Zr31  1  0.57566430  0.02912332  0.57566430  1
  Tl  Tl32  1  0.85996307  0.85996307  0.85996307  1
  Tl  Tl33  1  0.14003693  0.14003693  0.14003693  1
  Tl  Tl34  1  0.50000000  0.50000000  0.50000000  1
  Tl  Tl35  1  0.00000000  0.00000000  0.00000000  1
