# generated using pymatgen
data_Rb(RuO2)4
_symmetry_space_group_name_H-M   'P 1'
_cell_length_a   3.18724704
_cell_length_b   7.29789085
_cell_length_c   7.29789084
_cell_angle_alpha   87.26684523
_cell_angle_beta   77.38682069
_cell_angle_gamma   77.38682071
_symmetry_Int_Tables_number   1
_chemical_formula_structural   Rb(RuO2)4
_chemical_formula_sum   'Rb1 Ru4 O8'
_cell_volume   161.65581233
_cell_formula_units_Z   1
loop_
 _symmetry_equiv_pos_site_id
 _symmetry_equiv_pos_as_xyz
  1  'x, y, z'
loop_
 _atom_site_type_symbol
 _atom_site_label
 _atom_site_symmetry_multiplicity
 _atom_site_fract_x
 _atom_site_fract_y
 _atom_site_fract_z
 _atom_site_occupancy
  Rb  Rb0  1  0.00000000  -0.00000000  0.00000000  1
  Ru  Ru1  1  0.33508338  0.81287494  0.51695829  1
  Ru  Ru2  1  0.66491662  0.18712506  0.48304171  1
  Ru  Ru3  1  0.85204168  0.48304171  0.81287494  1
  Ru  Ru4  1  0.14795832  0.51695829  0.18712506  1
  O  O5  1  0.29644827  0.04961087  0.35749258  1
  O  O6  1  0.70355173  0.95038913  0.64250742  1
  O  O7  1  0.65394086  0.64250742  0.04961087  1
  O  O8  1  0.34605914  0.35749258  0.95038913  1
  O  O9  1  0.04546960  0.29854401  0.61051679  1
  O  O10  1  0.95453040  0.70145599  0.38948321  1
  O  O11  1  0.65598639  0.38948321  0.29854401  1
  O  O12  1  0.34401361  0.61051679  0.70145599  1
