# generated using pymatgen
data_Y2InAu2
_symmetry_space_group_name_H-M   'P 1'
_cell_length_a   3.71022925
_cell_length_b   8.03746372
_cell_length_c   8.03746372
_cell_angle_alpha   90.00000000
_cell_angle_beta   90.00000000
_cell_angle_gamma   90.00000000
_symmetry_Int_Tables_number   1
_chemical_formula_structural   Y2InAu2
_chemical_formula_sum   'Y4 In2 Au4'
_cell_volume   239.68386326
_cell_formula_units_Z   2
loop_
 _symmetry_equiv_pos_site_id
 _symmetry_equiv_pos_as_xyz
  1  'x, y, z'
loop_
 _atom_site_type_symbol
 _atom_site_label
 _atom_site_symmetry_multiplicity
 _atom_site_fract_x
 _atom_site_fract_y
 _atom_site_fract_z
 _atom_site_occupancy
  Y  Y0  1  0.50000000  0.17033556  0.67033556  1
  Y  Y1  1  0.50000000  0.82966444  0.32966444  1
  Y  Y2  1  0.50000000  0.32966444  0.17033556  1
  Y  Y3  1  0.50000000  0.67033556  0.82966444  1
  In  In4  1  0.00000000  0.50000000  0.50000000  1
  In  In5  1  -0.00000000  0.00000000  -0.00000000  1
  Au  Au6  1  -0.00000000  0.62780736  0.12780736  1
  Au  Au7  1  0.00000000  0.37219264  0.87219264  1
  Au  Au8  1  0.00000000  0.87219264  0.62780736  1
  Au  Au9  1  -0.00000000  0.12780736  0.37219264  1
