# generated using pymatgen
data_V2P2O7
_symmetry_space_group_name_H-M   'P 1'
_cell_length_a   6.52810166
_cell_length_b   6.52810166
_cell_length_c   23.62124205
_cell_angle_alpha   90.00000000
_cell_angle_beta   90.00000000
_cell_angle_gamma   90.00000000
_symmetry_Int_Tables_number   1
_chemical_formula_structural   V2P2O7
_chemical_formula_sum   'V16 P16 O56'
_cell_volume   1006.64547985
_cell_formula_units_Z   8
loop_
 _symmetry_equiv_pos_site_id
 _symmetry_equiv_pos_as_xyz
  1  'x, y, z'
loop_
 _atom_site_type_symbol
 _atom_site_label
 _atom_site_symmetry_multiplicity
 _atom_site_fract_x
 _atom_site_fract_y
 _atom_site_fract_z
 _atom_site_occupancy
  V  V0  1  0.11664806  0.59553898  0.88031036  1
  V  V1  1  0.11263707  0.22013689  0.99854775  1
  V  V2  1  0.16437562  0.53401578  0.26149429  1
  V  V3  1  0.17964476  0.24516564  0.64088709  1
  V  V4  1  0.22013689  0.88736293  0.74854775  1
  V  V5  1  0.24516564  0.82035524  0.39088709  1
  V  V6  1  0.40446102  0.11664806  0.13031036  1
  V  V7  1  0.46598422  0.16437562  0.51149429  1
  V  V8  1  0.53401578  0.83562438  0.01149429  1
  V  V9  1  0.59553898  0.88335194  0.63031036  1
  V  V10  1  0.75483436  0.17964476  0.89088709  1
  V  V11  1  0.77986311  0.11263707  0.24854775  1
  V  V12  1  0.82035524  0.75483436  0.14088709  1
  V  V13  1  0.83562438  0.46598422  0.76149429  1
  V  V14  1  0.88736293  0.77986311  0.49854775  1
  V  V15  1  0.88335194  0.40446102  0.38031036  1
  P  P16  1  0.05013131  0.71890462  0.01771773  1
  P  P17  1  0.11737395  0.73791209  0.62310330  1
  P  P18  1  0.26208791  0.11737395  0.87310330  1
  P  P19  1  0.28109538  0.05013131  0.26771773  1
  P  P20  1  0.29580597  0.63946096  0.12514554  1
  P  P21  1  0.31797918  0.37634374  0.76837595  1
  P  P22  1  0.36053904  0.29580597  0.37514554  1
  P  P23  1  0.37634374  0.68202082  0.51837595  1
  P  P24  1  0.62365626  0.31797918  0.01837595  1
  P  P25  1  0.63946096  0.70419403  0.87514554  1
  P  P26  1  0.68202082  0.62365626  0.26837595  1
  P  P27  1  0.70419403  0.36053904  0.62514554  1
  P  P28  1  0.71890462  0.94986869  0.76771773  1
  P  P29  1  0.73791209  0.88262605  0.37310330  1
  P  P30  1  0.88262605  0.26208791  0.12310330  1
  P  P31  1  0.94986869  0.28109538  0.51771773  1
  O  O32  1  0.03935387  0.55423061  0.97176970  1
  O  O33  1  0.07466291  0.17455134  0.09448449  1
  O  O34  1  0.08569257  0.24984133  0.89888556  1
  O  O35  1  0.10155989  0.56555925  0.66548752  1
  O  O36  1  0.10292925  0.18781669  0.24906758  1
  O  O37  1  0.15240967  0.21102577  0.54492251  1
  O  O38  1  0.14959853  0.74838489  0.16601044  1
  O  O39  1  0.16803920  0.59524765  0.06727823  1
  O  O40  1  0.15989265  0.54286883  0.78667820  1
  O  O41  1  0.17455134  0.92533709  0.84448449  1
  O  O42  1  0.18781669  0.89707075  0.99906758  1
  O  O43  1  0.21179436  0.21632718  0.73052708  1
  O  O44  1  0.21102577  0.84759033  0.29492251  1
  O  O45  1  0.20942209  0.47252448  0.35681439  1
  O  O46  1  0.21632718  0.78820564  0.48052708  1
  O  O47  1  0.25161511  0.14959853  0.41601044  1
  O  O48  1  0.25192982  0.62804202  0.57483082  1
  O  O49  1  0.24984133  0.91430743  0.64888556  1
  O  O50  1  0.37502154  0.43427143  0.14305184  1
  O  O51  1  0.37195798  0.25192982  0.82483082  1
  O  O52  1  0.43444075  0.10155989  0.91548752  1
  O  O53  1  0.40475235  0.16803920  0.31727823  1
  O  O54  1  0.44576939  0.03935387  0.22176970  1
  O  O55  1  0.43427143  0.62497846  0.89305184  1
  O  O56  1  0.45713117  0.15989265  0.03667820  1
  O  O57  1  0.47252448  0.79057791  0.10681439  1
  O  O58  1  0.46774918  0.48574832  0.49781466  1
  O  O59  1  0.51425168  0.46774918  0.74781466  1
  O  O60  1  0.48574832  0.53225082  0.24781466  1
  O  O61  1  0.53225082  0.51425168  0.99781466  1
  O  O62  1  0.52747552  0.20942209  0.60681439  1
  O  O63  1  0.54286883  0.84010735  0.53667820  1
  O  O64  1  0.56572857  0.37502154  0.39305184  1
  O  O65  1  0.55423061  0.96064613  0.72176970  1
  O  O66  1  0.59524765  0.83196080  0.81727823  1
  O  O67  1  0.56555925  0.89844011  0.41548752  1
  O  O68  1  0.62804202  0.74807018  0.32483082  1
  O  O69  1  0.62497846  0.56572857  0.64305184  1
  O  O70  1  0.75015867  0.08569257  0.14888556  1
  O  O71  1  0.74807018  0.37195798  0.07483082  1
  O  O72  1  0.74838489  0.85040147  0.91601044  1
  O  O73  1  0.78367282  0.21179436  0.98052708  1
  O  O74  1  0.79057791  0.52747552  0.85681439  1
  O  O75  1  0.78897423  0.15240967  0.79492251  1
  O  O76  1  0.78820564  0.78367282  0.23052708  1
  O  O77  1  0.81218331  0.10292925  0.49906758  1
  O  O78  1  0.82544866  0.07466291  0.34448449  1
  O  O79  1  0.84010735  0.45713117  0.28667820  1
  O  O80  1  0.83196080  0.40475235  0.56727823  1
  O  O81  1  0.85040147  0.25161511  0.66601044  1
  O  O82  1  0.84759033  0.78897423  0.04492251  1
  O  O83  1  0.89707075  0.81218331  0.74906758  1
  O  O84  1  0.89844011  0.43444075  0.16548752  1
  O  O85  1  0.91430743  0.75015867  0.39888556  1
  O  O86  1  0.92533709  0.82544866  0.59448449  1
  O  O87  1  0.96064613  0.44576939  0.47176970  1
