# generated using pymatgen
data_Ba2Ca(PdO2)3
_symmetry_space_group_name_H-M   'P 1'
_cell_length_a   7.31242563
_cell_length_b   7.31242562
_cell_length_c   8.82222622
_cell_angle_alpha   107.87460019
_cell_angle_beta   107.87460021
_cell_angle_gamma   105.03354693
_symmetry_Int_Tables_number   1
_chemical_formula_structural   Ba2Ca(PdO2)3
_chemical_formula_sum   'Ba4 Ca2 Pd6 O12'
_cell_volume   393.39383061
_cell_formula_units_Z   2
loop_
 _symmetry_equiv_pos_site_id
 _symmetry_equiv_pos_as_xyz
  1  'x, y, z'
loop_
 _atom_site_type_symbol
 _atom_site_label
 _atom_site_symmetry_multiplicity
 _atom_site_fract_x
 _atom_site_fract_y
 _atom_site_fract_z
 _atom_site_occupancy
  O  O0  1  0.46875966  0.70256447  0.79676009  1
  O  O1  1  0.90580438  0.67199957  0.20323991  1
  O  O2  1  0.29743553  0.53124034  0.20323991  1
  O  O3  1  0.32800043  0.09419562  0.79676009  1
  O  O4  1  0.53124034  0.29743553  0.20323991  1
  O  O5  1  0.09419562  0.32800043  0.79676009  1
  O  O6  1  0.92210899  0.68727800  0.60938699  1
  O  O7  1  0.67199957  0.90580438  0.20323991  1
  O  O8  1  0.68727800  0.92210899  0.60938699  1
  O  O9  1  0.31272200  0.07789101  0.39061301  1
  O  O10  1  0.07789101  0.31272200  0.39061301  1
  O  O11  1  0.70256447  0.46875966  0.79676009  1
  Ca  Ca12  1  0.67062967  0.67062967  0.34125934  1
  Ca  Ca13  1  0.32937033  0.32937033  0.65874066  1
  Pd  Pd14  1  0.00646553  0.00646553  0.69639561  1
  Pd  Pd15  1  0.31006992  0.31006992  0.30360439  1
  Pd  Pd16  1  0.68993008  0.68993008  0.69639561  1
  Pd  Pd17  1  0.99353447  0.99353447  0.30360439  1
  Pd  Pd18  1  0.67466008  0.67466008  0.00000000  1
  Pd  Pd19  1  0.32533992  0.32533992  0.00000000  1
  Ba  Ba20  1  0.75000000  0.25000000  0.50000000  1
  Ba  Ba21  1  0.25000000  0.75000000  0.50000000  1
  Ba  Ba22  1  0.76702023  0.23297977  0.00000000  1
  Ba  Ba23  1  0.23297977  0.76702023  0.00000000  1
