# generated using pymatgen
data_Mn3SbO8
_symmetry_space_group_name_H-M   'P 1'
_cell_length_a   10.32057831
_cell_length_b   10.32059541
_cell_length_c   14.55634837
_cell_angle_alpha   19.89235036
_cell_angle_beta   19.89387942
_cell_angle_gamma   34.31490096
_symmetry_Int_Tables_number   1
_chemical_formula_structural   Mn3SbO8
_chemical_formula_sum   'Mn3 Sb1 O8'
_cell_volume   155.12588803
_cell_formula_units_Z   1
loop_
 _symmetry_equiv_pos_site_id
 _symmetry_equiv_pos_as_xyz
  1  'x, y, z'
loop_
 _atom_site_type_symbol
 _atom_site_label
 _atom_site_symmetry_multiplicity
 _atom_site_fract_x
 _atom_site_fract_y
 _atom_site_fract_z
 _atom_site_occupancy
  Mn  Mn0  1  0.00013837  0.50004669  -0.00012855  1
  Mn  Mn1  1  0.50008112  -0.00002587  -0.00006775  1
  Mn  Mn2  1  0.49987761  0.50003827  0.00008643  1
  Sb  Sb3  1  0.00002252  0.00011849  -0.00008483  1
  O  O4  1  0.00024540  0.00026537  0.27282471  1
  O  O5  1  0.99603835  0.49913260  0.26824836  1
  O  O6  1  0.49914840  0.99609435  0.26821646  1
  O  O7  1  0.99969614  0.99967708  0.72726640  1
  O  O8  1  0.50027398  0.50029950  0.26438941  1
  O  O9  1  0.00394068  0.50085428  0.73175187  1
  O  O10  1  0.50080582  0.00386889  0.73184244  1
  O  O11  1  0.49972958  0.49963035  0.73565605  1
