# generated using pymatgen
data_Li4NiSn3(PO4)4
_symmetry_space_group_name_H-M   'P 1'
_cell_length_a   4.84534959
_cell_length_b   10.98249555
_cell_length_c   6.74203580
_cell_angle_alpha   90.00000000
_cell_angle_beta   90.00000000
_cell_angle_gamma   91.10517513
_symmetry_Int_Tables_number   1
_chemical_formula_structural   Li4NiSn3(PO4)4
_chemical_formula_sum   'Li4 Ni1 Sn3 P4 O16'
_cell_volume   358.70415677
_cell_formula_units_Z   1
loop_
 _symmetry_equiv_pos_site_id
 _symmetry_equiv_pos_as_xyz
  1  'x, y, z'
loop_
 _atom_site_type_symbol
 _atom_site_label
 _atom_site_symmetry_multiplicity
 _atom_site_fract_x
 _atom_site_fract_y
 _atom_site_fract_z
 _atom_site_occupancy
  Li  Li0  1  0.98317220  0.99073256  0.01259069  1
  Li  Li1  1  0.98317220  0.99073256  0.48740931  1
  Li  Li2  1  0.49939830  0.50992711  0.50049987  1
  Li  Li3  1  0.49939830  0.50992711  0.99950013  1
  Ni  Ni4  1  0.02273158  0.72672091  0.75000000  1
  Sn  Sn5  1  0.47500610  0.21935774  0.75000000  1
  Sn  Sn6  1  0.53409641  0.78310709  0.25000000  1
  Sn  Sn7  1  0.95290404  0.29519793  0.25000000  1
  P  P8  1  0.08729674  0.58728429  0.25000000  1
  P  P9  1  0.38693256  0.07624126  0.25000000  1
  P  P10  1  0.61889391  0.89612274  0.75000000  1
  P  P11  1  0.91441024  0.43998238  0.75000000  1
  O  O12  1  0.23588271  0.45979883  0.25000000  1
  O  O13  1  0.20085950  0.65690080  0.06248620  1
  O  O14  1  0.20085950  0.65690080  0.43751380  1
  O  O15  1  0.23128097  0.43871244  0.75000000  1
  O  O16  1  0.30249343  0.88132338  0.75000000  1
  O  O17  1  0.27723828  0.14703330  0.06452978  1
  O  O18  1  0.27723828  0.14703330  0.43547022  1
  O  O19  1  0.23079426  0.94963623  0.25000000  1
  O  O20  1  0.72392670  0.03172447  0.75000000  1
  O  O21  1  0.76339996  0.83294679  0.56969981  1
  O  O22  1  0.76339996  0.83294679  0.93030019  1
  O  O23  1  0.70070298  0.05943435  0.25000000  1
  O  O24  1  0.77160700  0.56955016  0.25000000  1
  O  O25  1  0.78490509  0.37010906  0.56703686  1
  O  O26  1  0.78490509  0.37010906  0.93296314  1
  O  O27  1  0.79309170  0.57050454  0.75000000  1
