# generated using pymatgen
data_Th(PRu)2
_symmetry_space_group_name_H-M   'P 1'
_cell_length_a   4.16589900
_cell_length_b   7.58206794
_cell_length_c   10.52964052
_cell_angle_alpha   90.00000000
_cell_angle_beta   90.00000000
_cell_angle_gamma   90.00000000
_symmetry_Int_Tables_number   1
_chemical_formula_structural   Th(PRu)2
_chemical_formula_sum   'Th4 P8 Ru8'
_cell_volume   332.59058641
_cell_formula_units_Z   4
loop_
 _symmetry_equiv_pos_site_id
 _symmetry_equiv_pos_as_xyz
  1  'x, y, z'
loop_
 _atom_site_type_symbol
 _atom_site_label
 _atom_site_symmetry_multiplicity
 _atom_site_fract_x
 _atom_site_fract_y
 _atom_site_fract_z
 _atom_site_occupancy
  P  P0  1  0.25000000  0.59520261  0.46978810  1
  P  P1  1  0.75000000  0.40479739  0.53021190  1
  P  P2  1  0.25000000  0.09520261  0.03021190  1
  P  P3  1  0.75000000  0.90479739  0.96978810  1
  P  P4  1  0.25000000  0.02935059  0.65981288  1
  P  P5  1  0.75000000  0.97064941  0.34018712  1
  P  P6  1  0.25000000  0.52935059  0.84018712  1
  P  P7  1  0.75000000  0.47064941  0.15981288  1
  Ru  Ru8  1  0.75000000  0.61019557  0.95045675  1
  Ru  Ru9  1  0.25000000  0.38980443  0.04954325  1
  Ru  Ru10  1  0.75000000  0.11019557  0.54954325  1
  Ru  Ru11  1  0.25000000  0.88980443  0.45045675  1
  Ru  Ru12  1  0.25000000  0.36744337  0.63222228  1
  Ru  Ru13  1  0.75000000  0.63255663  0.36777772  1
  Ru  Ru14  1  0.25000000  0.86744337  0.86777772  1
  Ru  Ru15  1  0.75000000  0.13255663  0.13222228  1
  Th  Th16  1  0.25000000  0.76678568  0.16869141  1
  Th  Th17  1  0.75000000  0.23321432  0.83130859  1
  Th  Th18  1  0.25000000  0.26678568  0.33130859  1
  Th  Th19  1  0.75000000  0.73321432  0.66869141  1
