# generated using pymatgen
data_CsEr3Se5
_symmetry_space_group_name_H-M   'P 1'
_cell_length_a   4.12487218
_cell_length_b   12.42991074
_cell_length_c   22.13008732
_cell_angle_alpha   90.00000000
_cell_angle_beta   90.00000000
_cell_angle_gamma   90.00000000
_symmetry_Int_Tables_number   1
_chemical_formula_structural   CsEr3Se5
_chemical_formula_sum   'Cs4 Er12 Se20'
_cell_volume   1134.64925639
_cell_formula_units_Z   4
loop_
 _symmetry_equiv_pos_site_id
 _symmetry_equiv_pos_as_xyz
  1  'x, y, z'
loop_
 _atom_site_type_symbol
 _atom_site_label
 _atom_site_symmetry_multiplicity
 _atom_site_fract_x
 _atom_site_fract_y
 _atom_site_fract_z
 _atom_site_occupancy
  Se  Se0  1  0.25000000  0.94843281  0.56896117  1
  Se  Se1  1  0.75000000  0.05156719  0.43103883  1
  Se  Se2  1  0.75000000  0.44843281  0.93103883  1
  Se  Se3  1  0.25000000  0.55156719  0.06896117  1
  Se  Se4  1  0.75000000  0.76402329  0.95217058  1
  Se  Se5  1  0.25000000  0.23597671  0.04782942  1
  Se  Se6  1  0.25000000  0.26402329  0.54782942  1
  Se  Se7  1  0.75000000  0.73597671  0.45217058  1
  Se  Se8  1  0.25000000  0.94911079  0.82534080  1
  Se  Se9  1  0.75000000  0.05088921  0.17465920  1
  Se  Se10  1  0.75000000  0.44911079  0.67465920  1
  Se  Se11  1  0.25000000  0.55088921  0.32534080  1
  Se  Se12  1  0.75000000  0.12599179  0.68463502  1
  Se  Se13  1  0.25000000  0.87400821  0.31536498  1
  Se  Se14  1  0.25000000  0.62599179  0.81536498  1
  Se  Se15  1  0.75000000  0.37400821  0.18463502  1
  Se  Se16  1  0.75000000  0.69347339  0.19777714  1
  Se  Se17  1  0.25000000  0.30652661  0.80222286  1
  Se  Se18  1  0.25000000  0.19347339  0.30222286  1
  Se  Se19  1  0.75000000  0.80652661  0.69777714  1
  Cs  Cs20  1  0.25000000  0.85337168  0.09238201  1
  Cs  Cs21  1  0.75000000  0.14662832  0.90761799  1
  Cs  Cs22  1  0.75000000  0.35337168  0.40761799  1
  Cs  Cs23  1  0.25000000  0.64662832  0.59238201  1
  Er  Er24  1  0.75000000  0.79702217  0.82525137  1
  Er  Er25  1  0.25000000  0.20297783  0.17474863  1
  Er  Er26  1  0.25000000  0.29702217  0.67474863  1
  Er  Er27  1  0.75000000  0.70297783  0.32525137  1
  Er  Er28  1  0.25000000  0.95711074  0.69783628  1
  Er  Er29  1  0.75000000  0.04288926  0.30216372  1
  Er  Er30  1  0.75000000  0.45711074  0.80216372  1
  Er  Er31  1  0.25000000  0.54288926  0.19783628  1
  Er  Er32  1  0.75000000  0.39187302  0.05403498  1
  Er  Er33  1  0.25000000  0.60812698  0.94596502  1
  Er  Er34  1  0.25000000  0.89187302  0.44596502  1
  Er  Er35  1  0.75000000  0.10812698  0.55403498  1
