# generated using pymatgen
data_KHfPdF7
_symmetry_space_group_name_H-M   'P 1'
_cell_length_a   6.48833958
_cell_length_b   8.10466302
_cell_length_c   11.55476853
_cell_angle_alpha   90.00000000
_cell_angle_beta   90.00000000
_cell_angle_gamma   90.00000000
_symmetry_Int_Tables_number   1
_chemical_formula_structural   KHfPdF7
_chemical_formula_sum   'K4 Hf4 Pd4 F28'
_cell_volume   607.61681462
_cell_formula_units_Z   4
loop_
 _symmetry_equiv_pos_site_id
 _symmetry_equiv_pos_as_xyz
  1  'x, y, z'
loop_
 _atom_site_type_symbol
 _atom_site_label
 _atom_site_symmetry_multiplicity
 _atom_site_fract_x
 _atom_site_fract_y
 _atom_site_fract_z
 _atom_site_occupancy
  F  F0  1  0.95085508  0.18147608  0.45303913  1
  F  F1  1  0.95085508  0.81852392  0.04696087  1
  F  F2  1  0.54914492  0.68147608  0.04696087  1
  F  F3  1  0.54914492  0.31852392  0.45303913  1
  F  F4  1  0.04914492  0.81852392  0.54696087  1
  F  F5  1  0.04914492  0.18147608  0.95303913  1
  F  F6  1  0.45085508  0.31852392  0.95303913  1
  F  F7  1  0.45085508  0.68147608  0.54696087  1
  F  F8  1  0.25000000  0.75000000  0.91964421  1
  F  F9  1  0.25000000  0.25000000  0.58035579  1
  F  F10  1  0.75000000  0.25000000  0.08035579  1
  F  F11  1  0.75000000  0.75000000  0.41964421  1
  F  F12  1  0.93278236  0.79191113  0.74417361  1
  F  F13  1  0.93278236  0.20808887  0.75582639  1
  F  F14  1  0.56721764  0.29191113  0.75582639  1
  F  F15  1  0.56721764  0.70808887  0.74417361  1
  F  F16  1  0.06721764  0.20808887  0.25582639  1
  F  F17  1  0.06721764  0.79191113  0.24417361  1
  F  F18  1  0.43278236  0.70808887  0.24417361  1
  F  F19  1  0.43278236  0.29191113  0.25582639  1
  F  F20  1  0.65127447  0.01355270  0.89522335  1
  F  F21  1  0.65127447  0.98644730  0.60477665  1
  F  F22  1  0.84872553  0.51355270  0.60477665  1
  F  F23  1  0.84872553  0.48644730  0.89522335  1
  F  F24  1  0.34872553  0.98644730  0.10477665  1
  F  F25  1  0.34872553  0.01355270  0.39522335  1
  F  F26  1  0.15127447  0.48644730  0.39522335  1
  F  F27  1  0.15127447  0.51355270  0.10477665  1
  K  K28  1  0.26796457  0.00000000  0.75000000  1
  K  K29  1  0.23203543  0.50000000  0.75000000  1
  K  K30  1  0.73203543  0.00000000  0.25000000  1
  K  K31  1  0.76796457  0.50000000  0.25000000  1
  Pd  Pd32  1  0.25000000  0.75000000  0.40130771  1
  Pd  Pd33  1  0.25000000  0.25000000  0.09869229  1
  Pd  Pd34  1  0.75000000  0.25000000  0.59869229  1
  Pd  Pd35  1  0.75000000  0.75000000  0.90130771  1
  Hf  Hf36  1  0.75000000  0.75000000  0.59255185  1
  Hf  Hf37  1  0.75000000  0.25000000  0.90744815  1
  Hf  Hf38  1  0.25000000  0.25000000  0.40744815  1
  Hf  Hf39  1  0.25000000  0.75000000  0.09255185  1
