# generated using pymatgen
data_Na3CaMg3AlF14
_symmetry_space_group_name_H-M   'P 1'
_cell_length_a   7.27305942
_cell_length_b   7.27305936
_cell_length_c   7.28872225
_cell_angle_alpha   60.07106052
_cell_angle_beta   60.07105657
_cell_angle_gamma   60.00000048
_symmetry_Int_Tables_number   1
_chemical_formula_structural   Na3CaMg3AlF14
_chemical_formula_sum   'Na3 Ca1 Mg3 Al1 F14'
_cell_volume   272.92058414
_cell_formula_units_Z   1
loop_
 _symmetry_equiv_pos_site_id
 _symmetry_equiv_pos_as_xyz
  1  'x, y, z'
loop_
 _atom_site_type_symbol
 _atom_site_label
 _atom_site_symmetry_multiplicity
 _atom_site_fract_x
 _atom_site_fract_y
 _atom_site_fract_z
 _atom_site_occupancy
  Na  Na0  1  0.50000000  -0.00000000  0.50000000  1
  Na  Na1  1  0.00000000  0.50000000  0.50000000  1
  Na  Na2  1  0.00000000  -0.00000000  0.50000000  1
  Ca  Ca3  1  0.00000000  -0.00000000  -0.00000000  1
  Mg  Mg4  1  0.50000000  0.50000000  -0.00000000  1
  Mg  Mg5  1  0.50000000  -0.00000000  -0.00000000  1
  Mg  Mg6  1  0.00000000  0.50000000  -0.00000000  1
  Al  Al7  1  0.50000000  0.50000000  0.50000000  1
  F  F8  1  0.82914564  0.82914564  0.92009859  1
  F  F9  1  0.82914564  0.42161013  0.92009859  1
  F  F10  1  0.42161013  0.82914564  0.92009859  1
  F  F11  1  0.17085436  0.17085436  0.07990141  1
  F  F12  1  0.17085436  0.57838987  0.07990141  1
  F  F13  1  0.57838987  0.17085436  0.07990141  1
  F  F14  1  0.56189583  0.56189583  0.67398238  1
  F  F15  1  0.56189583  0.20222597  0.67398238  1
  F  F16  1  0.20222597  0.56189583  0.67398238  1
  F  F17  1  0.43810417  0.43810417  0.32601762  1
  F  F18  1  0.43810417  0.79777403  0.32601762  1
  F  F19  1  0.79777403  0.43810417  0.32601762  1
  F  F20  1  0.87619494  0.87619494  0.37141517  1
  F  F21  1  0.12380506  0.12380506  0.62858483  1
