# generated using pymatgen
data_TiNi3Sb2(PO4)6
_symmetry_space_group_name_H-M   'P 1'
_cell_length_a   8.67319524
_cell_length_b   8.67319470
_cell_length_c   8.67319455
_cell_angle_alpha   60.36387556
_cell_angle_beta   60.36387736
_cell_angle_gamma   60.36387428
_symmetry_Int_Tables_number   1
_chemical_formula_structural   TiNi3Sb2(PO4)6
_chemical_formula_sum   'Ti1 Ni3 Sb2 P6 O24'
_cell_volume   465.13849401
_cell_formula_units_Z   1
loop_
 _symmetry_equiv_pos_site_id
 _symmetry_equiv_pos_as_xyz
  1  'x, y, z'
loop_
 _atom_site_type_symbol
 _atom_site_label
 _atom_site_symmetry_multiplicity
 _atom_site_fract_x
 _atom_site_fract_y
 _atom_site_fract_z
 _atom_site_occupancy
  Ti  Ti0  1  0.85625812  0.85625812  0.85625812  1
  Ni  Ni1  1  0.15174456  0.15174456  0.15174456  1
  Ni  Ni2  1  0.34797424  0.34797424  0.34797424  1
  Ni  Ni3  1  0.64811476  0.64811476  0.64811476  1
  Sb  Sb4  1  0.01248759  0.01248759  0.01248759  1
  Sb  Sb5  1  0.50193336  0.50193336  0.50193336  1
  P  P6  1  0.24645655  0.54044675  0.95223686  1
  P  P7  1  0.54044675  0.95223686  0.24645655  1
  P  P8  1  0.95223686  0.24645655  0.54044675  1
  P  P9  1  0.04476517  0.74890979  0.46109913  1
  P  P10  1  0.46109913  0.04476517  0.74890979  1
  P  P11  1  0.74890979  0.46109913  0.04476517  1
  O  O12  1  0.09962775  0.31001334  0.51516186  1
  O  O13  1  0.31001334  0.51516186  0.09962775  1
  O  O14  1  0.07683623  0.90462173  0.26310541  1
  O  O15  1  0.51516186  0.09962775  0.31001334  1
  O  O16  1  0.98979203  0.82189143  0.61631545  1
  O  O17  1  0.24846792  0.58904046  0.45551835  1
  O  O18  1  0.26310541  0.07683623  0.90462173  1
  O  O19  1  0.45551835  0.24846792  0.58904046  1
  O  O20  1  0.18804784  0.38894858  0.98216974  1
  O  O21  1  0.58904046  0.45551835  0.24846792  1
  O  O22  1  0.09087541  0.73935257  0.91861107  1
  O  O23  1  0.38894858  0.98216974  0.18804784  1
  O  O24  1  0.61631545  0.98979203  0.82189143  1
  O  O25  1  0.90462173  0.26310541  0.07683623  1
  O  O26  1  0.40967497  0.56315054  0.74584694  1
  O  O27  1  0.82189143  0.61631545  0.98979203  1
  O  O28  1  0.56315054  0.74584694  0.40967497  1
  O  O29  1  0.73935257  0.91861107  0.09087541  1
  O  O30  1  0.74584694  0.40967497  0.56315054  1
  O  O31  1  0.98216974  0.18804784  0.38894858  1
  O  O32  1  0.49069702  0.90433889  0.67546860  1
  O  O33  1  0.91861107  0.09087541  0.73935257  1
  O  O34  1  0.67546860  0.49069702  0.90433889  1
  O  O35  1  0.90433889  0.67546860  0.49069702  1
