# generated using pymatgen
data_Ho3Si3O10F
_symmetry_space_group_name_H-M   'P 1'
_cell_length_a   7.36589079
_cell_length_b   10.43785358
_cell_length_c   11.22648102
_cell_angle_alpha   90.00000000
_cell_angle_beta   90.00000000
_cell_angle_gamma   97.29717659
_symmetry_Int_Tables_number   1
_chemical_formula_structural   Ho3Si3O10F
_chemical_formula_sum   'Ho12 Si12 O40 F4'
_cell_volume   856.14696238
_cell_formula_units_Z   4
loop_
 _symmetry_equiv_pos_site_id
 _symmetry_equiv_pos_as_xyz
  1  'x, y, z'
loop_
 _atom_site_type_symbol
 _atom_site_label
 _atom_site_symmetry_multiplicity
 _atom_site_fract_x
 _atom_site_fract_y
 _atom_site_fract_z
 _atom_site_occupancy
  O  O0  1  0.47218922  0.13001773  0.90937381  1
  O  O1  1  0.02781078  0.36998227  0.40937381  1
  O  O2  1  0.52781078  0.86998227  0.09062619  1
  O  O3  1  0.97218922  0.63001773  0.59062619  1
  O  O4  1  0.03399203  0.13790080  0.52176843  1
  O  O5  1  0.46600797  0.36209920  0.02176843  1
  O  O6  1  0.96600797  0.86209920  0.47823157  1
  O  O7  1  0.53399203  0.63790080  0.97823157  1
  O  O8  1  0.31267560  0.80863236  0.89608344  1
  O  O9  1  0.18732440  0.69136764  0.39608344  1
  O  O10  1  0.68732440  0.19136764  0.10391656  1
  O  O11  1  0.81267560  0.30863236  0.60391656  1
  O  O12  1  0.17937749  0.37852025  0.60787985  1
  O  O13  1  0.32062251  0.12147975  0.10787985  1
  O  O14  1  0.82062251  0.62147975  0.39212015  1
  O  O15  1  0.67937749  0.87852025  0.89212015  1
  O  O16  1  0.28832378  0.80265490  0.64322847  1
  O  O17  1  0.48302686  0.37934850  0.72559356  1
  O  O18  1  0.51697314  0.62065150  0.27440644  1
  O  O19  1  0.98302686  0.87934850  0.77440644  1
  O  O20  1  0.23104280  0.51855339  0.81897518  1
  O  O21  1  0.26895720  0.98144661  0.31897518  1
  O  O22  1  0.76895720  0.48144661  0.18102482  1
  O  O23  1  0.73104280  0.01855339  0.68102482  1
  O  O24  1  0.15362274  0.26931584  0.82161022  1
  O  O25  1  0.34637726  0.23068416  0.32161022  1
  O  O26  1  0.84637726  0.73068416  0.17838978  1
  O  O27  1  0.65362274  0.76931584  0.67838978  1
  O  O28  1  0.98761324  0.63650619  0.97549009  1
  O  O29  1  0.51238676  0.86349381  0.47549009  1
  O  O30  1  0.01238676  0.36349381  0.02450991  1
  O  O31  1  0.48761324  0.13650619  0.52450991  1
  O  O32  1  0.95951194  0.10778179  0.95025082  1
  O  O33  1  0.54048806  0.39221821  0.45025082  1
  O  O34  1  0.04048806  0.89221821  0.04974918  1
  O  O35  1  0.45951194  0.60778179  0.54974918  1
  O  O36  1  0.78832378  0.30265490  0.85677153  1
  O  O37  1  0.71167622  0.19734510  0.35677153  1
  O  O38  1  0.21167622  0.69734510  0.14322847  1
  O  O39  1  0.01697314  0.12065150  0.22559356  1
  F  F40  1  0.69710133  0.94063418  0.28563516  1
  F  F41  1  0.80289867  0.55936582  0.78563516  1
  F  F42  1  0.19710133  0.44063418  0.21436484  1
  F  F43  1  0.30289867  0.05936582  0.71436484  1
  Si  Si44  1  0.00524991  0.29156520  0.53656753  1
  Si  Si45  1  0.23385993  0.10988242  0.24424300  1
  Si  Si46  1  0.73385993  0.60988242  0.25575700  1
  Si  Si47  1  0.76614007  0.89011758  0.75575700  1
  Si  Si48  1  0.47425682  0.75940780  0.58618120  1
  Si  Si49  1  0.02574318  0.74059220  0.08618120  1
  Si  Si50  1  0.52574318  0.24059220  0.41381880  1
  Si  Si51  1  0.97425682  0.25940780  0.91381880  1
  Si  Si52  1  0.50524991  0.79156520  0.96343247  1
  Si  Si53  1  0.99475009  0.70843480  0.46343247  1
  Si  Si54  1  0.26614007  0.39011758  0.74424300  1
  Si  Si55  1  0.49475009  0.20843480  0.03656753  1
  Ho  Ho56  1  0.23763614  0.98172584  0.53076768  1
  Ho  Ho57  1  0.26236386  0.51827416  0.03076768  1
  Ho  Ho58  1  0.76236386  0.01827416  0.46923232  1
  Ho  Ho59  1  0.73763614  0.48172584  0.96923232  1
  Ho  Ho60  1  0.09309958  0.68912662  0.77083925  1
  Ho  Ho61  1  0.40690042  0.81087338  0.27083925  1
  Ho  Ho62  1  0.90690042  0.31087338  0.22916075  1
  Ho  Ho63  1  0.59309958  0.18912662  0.72916075  1
  Ho  Ho64  1  0.19759083  0.00318483  0.90152945  1
  Ho  Ho65  1  0.30240917  0.49681517  0.40152945  1
  Ho  Ho66  1  0.80240917  0.99681517  0.09847055  1
  Ho  Ho67  1  0.69759083  0.50318483  0.59847055  1
