# generated using pymatgen
data_Li2ZnSiO4
_symmetry_space_group_name_H-M   'P 1'
_cell_length_a   5.11481009
_cell_length_b   6.33897315
_cell_length_c   10.75632027
_cell_angle_alpha   90.00000000
_cell_angle_beta   90.00000000
_cell_angle_gamma   90.55214966
_symmetry_Int_Tables_number   1
_chemical_formula_structural   Li2ZnSiO4
_chemical_formula_sum   'Li8 Zn4 Si4 O16'
_cell_volume   348.73214748
_cell_formula_units_Z   4
loop_
 _symmetry_equiv_pos_site_id
 _symmetry_equiv_pos_as_xyz
  1  'x, y, z'
loop_
 _atom_site_type_symbol
 _atom_site_label
 _atom_site_symmetry_multiplicity
 _atom_site_fract_x
 _atom_site_fract_y
 _atom_site_fract_z
 _atom_site_occupancy
  Li  Li0  1  0.80850256  0.49335682  0.33673730  1
  Li  Li1  1  0.20220889  0.74041123  0.42453644  1
  Li  Li2  1  0.29779111  0.75958877  0.92453644  1
  Li  Li3  1  0.79779111  0.25958877  0.57546356  1
  Li  Li4  1  0.70220889  0.24041123  0.07546356  1
  Li  Li5  1  0.69149744  0.00664318  0.83673730  1
  Li  Li6  1  0.19149744  0.50664318  0.66326270  1
  Li  Li7  1  0.30850256  0.99335682  0.16326270  1
  O  O8  1  0.20296266  0.03102231  0.33988583  1
  O  O9  1  0.29703734  0.46897769  0.83988583  1
  O  O10  1  0.79703734  0.96897769  0.66011417  1
  O  O11  1  0.70451172  0.95966384  0.16066257  1
  O  O12  1  0.70296266  0.53102231  0.16011417  1
  O  O13  1  0.20451172  0.45966384  0.33933743  1
  O  O14  1  0.29548828  0.04033616  0.83933743  1
  O  O15  1  0.79548828  0.54033616  0.66066257  1
  O  O16  1  0.63427553  0.24479140  0.41014434  1
  O  O17  1  0.86572447  0.25520860  0.91014434  1
  O  O18  1  0.36572447  0.75520860  0.58985566  1
  O  O19  1  0.13427553  0.74479140  0.08985566  1
  O  O20  1  0.20177755  0.25548961  0.55602634  1
  O  O21  1  0.29822245  0.24451039  0.05602634  1
  O  O22  1  0.79822245  0.74451039  0.44397366  1
  O  O23  1  0.70177755  0.75548961  0.94397366  1
  Si  Si24  1  0.81021698  0.74589591  0.08816061  1
  Si  Si25  1  0.68978302  0.75410409  0.58816061  1
  Si  Si26  1  0.18978302  0.25410409  0.91183939  1
  Si  Si27  1  0.31021698  0.24589591  0.41183939  1
  Zn  Zn28  1  0.80818986  0.99851550  0.33560194  1
  Zn  Zn29  1  0.69181014  0.50148450  0.83560194  1
  Zn  Zn30  1  0.19181014  0.00148450  0.66439806  1
  Zn  Zn31  1  0.30818986  0.49851550  0.16439806  1
