# generated using pymatgen
data_Na3SiTe3
_symmetry_space_group_name_H-M   'P 1'
_cell_length_a   8.90510423
_cell_length_b   8.89278371
_cell_length_c   12.89722402
_cell_angle_alpha   90.00000000
_cell_angle_beta   90.00000000
_cell_angle_gamma   119.10983673
_symmetry_Int_Tables_number   1
_chemical_formula_structural   Na3SiTe3
_chemical_formula_sum   'Na12 Si4 Te12'
_cell_volume   892.33865438
_cell_formula_units_Z   4
loop_
 _symmetry_equiv_pos_site_id
 _symmetry_equiv_pos_as_xyz
  1  'x, y, z'
loop_
 _atom_site_type_symbol
 _atom_site_label
 _atom_site_symmetry_multiplicity
 _atom_site_fract_x
 _atom_site_fract_y
 _atom_site_fract_z
 _atom_site_occupancy
  Na  Na0  1  0.72358729  0.75272150  0.22905533  1
  Na  Na1  1  0.77641271  0.74727850  0.72905533  1
  Na  Na2  1  0.27641271  0.24727850  0.77094467  1
  Na  Na3  1  0.22358729  0.25272150  0.27094467  1
  Na  Na4  1  0.02650051  0.30002992  0.55783232  1
  Na  Na5  1  0.47349949  0.19997008  0.05783232  1
  Na  Na6  1  0.97349949  0.69997008  0.44216768  1
  Na  Na7  1  0.52650051  0.80002992  0.94216768  1
  Na  Na8  1  0.97923644  0.48532194  0.15194888  1
  Na  Na9  1  0.52076356  0.01467806  0.65194888  1
  Na  Na10  1  0.02076356  0.51467806  0.84805112  1
  Na  Na11  1  0.47923644  0.98532194  0.34805112  1
  Si  Si12  1  0.03249963  0.88598675  0.00923732  1
  Si  Si13  1  0.46750037  0.61401325  0.50923732  1
  Si  Si14  1  0.96750037  0.11401325  0.99076268  1
  Si  Si15  1  0.53249963  0.38598675  0.49076268  1
  Te  Te16  1  0.75949131  0.42442947  0.62296642  1
  Te  Te17  1  0.74050869  0.07557053  0.12296642  1
  Te  Te18  1  0.24050869  0.57557053  0.37703358  1
  Te  Te19  1  0.25949131  0.92442947  0.87703358  1
  Te  Te20  1  0.25839034  0.10745672  0.52548088  1
  Te  Te21  1  0.24160966  0.39254328  0.02548088  1
  Te  Te22  1  0.74160966  0.89254328  0.47451912  1
  Te  Te23  1  0.75839034  0.60745672  0.97451912  1
  Te  Te24  1  0.63596387  0.38626703  0.30733114  1
  Te  Te25  1  0.86403613  0.11373297  0.80733114  1
  Te  Te26  1  0.36403613  0.61373297  0.69266886  1
  Te  Te27  1  0.13596387  0.88626703  0.19266886  1
