# generated using pymatgen
data_Tb2Si2O7
_symmetry_space_group_name_H-M   'P 1'
_cell_length_a   6.68614001
_cell_length_b   6.71931066
_cell_length_c   12.18556629
_cell_angle_alpha   94.24139603
_cell_angle_beta   91.20502268
_cell_angle_gamma   91.85688448
_symmetry_Int_Tables_number   1
_chemical_formula_structural   Tb2Si2O7
_chemical_formula_sum   'Tb8 Si8 O28'
_cell_volume   545.51509195
_cell_formula_units_Z   4
loop_
 _symmetry_equiv_pos_site_id
 _symmetry_equiv_pos_as_xyz
  1  'x, y, z'
loop_
 _atom_site_type_symbol
 _atom_site_label
 _atom_site_symmetry_multiplicity
 _atom_site_fract_x
 _atom_site_fract_y
 _atom_site_fract_z
 _atom_site_occupancy
  O  O0  1  0.00069532  0.98747710  0.81494199  1
  O  O1  1  0.99930468  0.01252290  0.18505801  1
  O  O2  1  0.99973422  0.33339593  0.91835462  1
  O  O3  1  0.00026578  0.66660407  0.08164538  1
  O  O4  1  0.34694826  0.21039857  0.81437563  1
  O  O5  1  0.65305174  0.78960143  0.18562437  1
  O  O6  1  0.23038825  0.08488903  0.00419576  1
  O  O7  1  0.76961175  0.91511097  0.99580424  1
  O  O8  1  0.07740936  0.41600253  0.31200218  1
  O  O9  1  0.92259064  0.58399747  0.68799782  1
  O  O10  1  0.96425433  0.77028869  0.42125806  1
  O  O11  1  0.03574567  0.22971131  0.57874194  1
  O  O12  1  0.29021989  0.77996104  0.31324074  1
  O  O13  1  0.70978011  0.22003896  0.68675926  1
  O  O14  1  0.28522311  0.57488710  0.49019258  1
  O  O15  1  0.71477689  0.42511290  0.50980742  1
  O  O16  1  0.35652245  0.48793994  0.12677774  1
  O  O17  1  0.64347755  0.51206006  0.87322226  1
  O  O18  1  0.38086553  0.13708835  0.21065213  1
  O  O19  1  0.61913447  0.86291165  0.78934787  1
  O  O20  1  0.69938912  0.29238116  0.09438387  1
  O  O21  1  0.30061088  0.70761884  0.90561613  1
  O  O22  1  0.60064813  0.42780339  0.30510880  1
  O  O23  1  0.39935187  0.57219661  0.69489120  1
  O  O24  1  0.41461529  0.17393283  0.44696494  1
  O  O25  1  0.58538471  0.82606717  0.55303506  1
  O  O26  1  0.77342967  0.09369777  0.37790015  1
  O  O27  1  0.22657033  0.90630223  0.62209985  1
  Si  Si28  1  0.14611566  0.62494480  0.37994011  1
  Si  Si29  1  0.85388434  0.37505520  0.62005989  1
  Si  Si30  1  0.37636680  0.72730326  0.59435624  1
  Si  Si31  1  0.62363320  0.27269674  0.40564376  1
  Si  Si32  1  0.48750485  0.66740025  0.82474115  1
  Si  Si33  1  0.51249515  0.33259975  0.17525885  1
  Si  Si34  1  0.15414988  0.14920099  0.88457583  1
  Si  Si35  1  0.84585012  0.85079901  0.11542417  1
  Tb  Tb36  1  0.67241121  0.17379176  0.89154603  1
  Tb  Tb37  1  0.32758879  0.82620824  0.10845397  1
  Tb  Tb38  1  0.36678615  0.22212097  0.63326344  1
  Tb  Tb39  1  0.63321385  0.77787903  0.36673656  1
  Tb  Tb40  1  0.88176883  0.91146228  0.64270080  1
  Tb  Tb41  1  0.11823117  0.08853772  0.35729920  1
  Tb  Tb42  1  0.94831941  0.67321460  0.88468671  1
  Tb  Tb43  1  0.05168059  0.32678540  0.11531329  1
