# generated using pymatgen
data_BaCu2GeSe4
_symmetry_space_group_name_H-M   'P 1'
_cell_length_a   6.59720685
_cell_length_b   6.59720685
_cell_length_c   16.40473821
_cell_angle_alpha   90.00000000
_cell_angle_beta   90.00000000
_cell_angle_gamma   119.99999999
_symmetry_Int_Tables_number   1
_chemical_formula_structural   BaCu2GeSe4
_chemical_formula_sum   'Ba3 Cu6 Ge3 Se12'
_cell_volume   618.32974469
_cell_formula_units_Z   3
loop_
 _symmetry_equiv_pos_site_id
 _symmetry_equiv_pos_as_xyz
  1  'x, y, z'
loop_
 _atom_site_type_symbol
 _atom_site_label
 _atom_site_symmetry_multiplicity
 _atom_site_fract_x
 _atom_site_fract_y
 _atom_site_fract_z
 _atom_site_occupancy
  Cu  Cu0  1  0.74433889  0.76655596  0.75520759  1
  Cu  Cu1  1  0.02221706  0.25566111  0.42187426  1
  Cu  Cu2  1  0.23344404  0.97778294  0.08854092  1
  Cu  Cu3  1  0.58909318  0.68906999  0.24400388  1
  Cu  Cu4  1  0.09997680  0.41090682  0.91067055  1
  Cu  Cu5  1  0.31093001  0.90002320  0.57733721  1
  Ge  Ge6  1  0.66659764  0.61967316  0.49963579  1
  Ge  Ge7  1  0.95307552  0.33340236  0.16630246  1
  Ge  Ge8  1  0.38032684  0.04692448  0.83296913  1
  Se  Se9  1  0.19894115  0.37399568  0.28192587  1
  Se  Se10  1  0.17505453  0.80105885  0.94859253  1
  Se  Se11  1  0.62600432  0.82494547  0.61525920  1
  Se  Se12  1  0.56056700  0.99744455  0.16883385  1
  Se  Se13  1  0.89672370  0.66960931  0.16380811  1
  Se  Se14  1  0.77288561  0.10327630  0.83047478  1
  Se  Se15  1  0.43687755  0.43943300  0.83550051  1
  Se  Se16  1  0.13461294  0.84110924  0.71738173  1
  Se  Se17  1  0.00255545  0.56312245  0.50216718  1
  Se  Se18  1  0.70649631  0.86538706  0.38404839  1
  Se  Se19  1  0.15889076  0.29350369  0.05071506  1
  Se  Se20  1  0.33039069  0.22711439  0.49714144  1
  Ba  Ba21  1  0.11535840  0.33309566  0.66627985  1
  Ba  Ba22  1  0.21773727  0.88464160  0.33294652  1
  Ba  Ba23  1  0.66690434  0.78226273  0.99961319  1
