# generated using pymatgen
data_NdCo9Si4
_symmetry_space_group_name_H-M   'P 1'
_cell_length_a   7.74510115
_cell_length_b   7.74510115
_cell_length_c   7.92348726
_cell_angle_alpha   119.25800967
_cell_angle_beta   119.25800966
_cell_angle_gamma   89.99999999
_symmetry_Int_Tables_number   1
_chemical_formula_structural   NdCo9Si4
_chemical_formula_sum   'Nd2 Co18 Si8'
_cell_volume   343.48992135
_cell_formula_units_Z   2
loop_
 _symmetry_equiv_pos_site_id
 _symmetry_equiv_pos_as_xyz
  1  'x, y, z'
loop_
 _atom_site_type_symbol
 _atom_site_label
 _atom_site_symmetry_multiplicity
 _atom_site_fract_x
 _atom_site_fract_y
 _atom_site_fract_z
 _atom_site_occupancy
  Si  Si0  1  0.78993173  0.28993173  0.24227424  1
  Si  Si1  1  0.54765750  0.04765750  0.75772576  1
  Si  Si2  1  0.71006827  0.54765750  0.75772576  1
  Si  Si3  1  0.95234250  0.78993173  0.24227424  1
  Si  Si4  1  0.28993173  0.45234250  0.24227424  1
  Si  Si5  1  0.45234250  0.95234250  0.24227424  1
  Si  Si6  1  0.21006827  0.71006827  0.75772576  1
  Si  Si7  1  0.04765750  0.21006827  0.75772576  1
  Co  Co8  1  0.44961662  0.68987319  0.63948981  1
  Co  Co9  1  0.94961662  0.44961662  0.63948981  1
  Co  Co10  1  0.68987319  0.18987319  0.63948981  1
  Co  Co11  1  0.05038338  0.55038338  0.36051019  1
  Co  Co12  1  0.18987319  0.94961662  0.63948981  1
  Co  Co13  1  0.92960637  0.19954968  0.00000000  1
  Co  Co14  1  0.07039363  0.80045032  0.00000000  1
  Co  Co15  1  0.69954968  0.42960637  0.00000000  1
  Co  Co16  1  0.30045032  0.57039363  0.00000000  1
  Co  Co17  1  0.57039363  0.69954968  0.00000000  1
  Co  Co18  1  0.42960637  0.30045032  0.00000000  1
  Co  Co19  1  0.80045032  0.92960637  0.00000000  1
  Co  Co20  1  0.55038338  0.31012681  0.36051019  1
  Co  Co21  1  0.31012681  0.81012681  0.36051019  1
  Co  Co22  1  0.50000000  0.00000000  0.00000000  1
  Co  Co23  1  0.00000000  0.50000000  0.00000000  1
  Co  Co24  1  0.19954968  0.07039363  0.00000000  1
  Co  Co25  1  0.81012681  0.05038338  0.36051019  1
  Nd  Nd26  1  0.75000000  0.75000000  0.50000000  1
  Nd  Nd27  1  0.25000000  0.25000000  0.50000000  1
