# generated using pymatgen
data_BaPr2O4
_symmetry_space_group_name_H-M   'P 1'
_cell_length_a   3.66544559
_cell_length_b   10.79125633
_cell_length_c   12.68673383
_cell_angle_alpha   90.00000000
_cell_angle_beta   90.00000000
_cell_angle_gamma   90.00000000
_symmetry_Int_Tables_number   1
_chemical_formula_structural   BaPr2O4
_chemical_formula_sum   'Ba4 Pr8 O16'
_cell_volume   501.82074894
_cell_formula_units_Z   4
loop_
 _symmetry_equiv_pos_site_id
 _symmetry_equiv_pos_as_xyz
  1  'x, y, z'
loop_
 _atom_site_type_symbol
 _atom_site_label
 _atom_site_symmetry_multiplicity
 _atom_site_fract_x
 _atom_site_fract_y
 _atom_site_fract_z
 _atom_site_occupancy
  O  O0  1  0.25000000  0.92896376  0.07669058  1
  O  O1  1  0.75000000  0.07103624  0.92330942  1
  O  O2  1  0.25000000  0.42896376  0.42330942  1
  O  O3  1  0.75000000  0.57103624  0.57669058  1
  O  O4  1  0.25000000  0.01411550  0.71715085  1
  O  O5  1  0.75000000  0.98588450  0.28284915  1
  O  O6  1  0.25000000  0.51411550  0.78284915  1
  O  O7  1  0.75000000  0.48588450  0.21715085  1
  O  O8  1  0.25000000  0.62311635  0.01863828  1
  O  O9  1  0.75000000  0.37688365  0.98136172  1
  O  O10  1  0.25000000  0.12311635  0.48136172  1
  O  O11  1  0.75000000  0.87688365  0.51863828  1
  O  O12  1  0.75000000  0.78801397  0.82848231  1
  O  O13  1  0.25000000  0.21198603  0.17151769  1
  O  O14  1  0.75000000  0.28801397  0.67151769  1
  O  O15  1  0.25000000  0.71198603  0.32848231  1
  Ba  Ba16  1  0.75000000  0.24874991  0.35331220  1
  Ba  Ba17  1  0.25000000  0.75125009  0.64668780  1
  Ba  Ba18  1  0.75000000  0.74874991  0.14668780  1
  Ba  Ba19  1  0.25000000  0.25125009  0.85331220  1
  Pr  Pr20  1  0.25000000  0.91981758  0.88870252  1
  Pr  Pr21  1  0.75000000  0.08018242  0.11129748  1
  Pr  Pr22  1  0.25000000  0.41981758  0.61129748  1
  Pr  Pr23  1  0.75000000  0.58018242  0.38870252  1
  Pr  Pr24  1  0.75000000  0.57536229  0.88714772  1
  Pr  Pr25  1  0.25000000  0.42463771  0.11285228  1
  Pr  Pr26  1  0.75000000  0.07536229  0.61285228  1
  Pr  Pr27  1  0.25000000  0.92463771  0.38714772  1
