# generated using pymatgen
data_Rb2Si3SnO9
_symmetry_space_group_name_H-M   'P 1'
_cell_length_a   7.09817368
_cell_length_b   7.09817368
_cell_length_c   10.19764565
_cell_angle_alpha   90.00000000
_cell_angle_beta   90.00000000
_cell_angle_gamma   120.00000001
_symmetry_Int_Tables_number   1
_chemical_formula_structural   Rb2Si3SnO9
_chemical_formula_sum   'Rb4 Si6 Sn2 O18'
_cell_volume   444.96288936
_cell_formula_units_Z   2
loop_
 _symmetry_equiv_pos_site_id
 _symmetry_equiv_pos_as_xyz
  1  'x, y, z'
loop_
 _atom_site_type_symbol
 _atom_site_label
 _atom_site_symmetry_multiplicity
 _atom_site_fract_x
 _atom_site_fract_y
 _atom_site_fract_z
 _atom_site_occupancy
  O  O0  1  0.25728979  0.22172055  0.38599510  1
  O  O1  1  0.03556924  0.25728979  0.88599510  1
  O  O2  1  0.22172055  0.96443076  0.88599510  1
  O  O3  1  0.77827945  0.03556924  0.38599510  1
  O  O4  1  0.96443076  0.74271021  0.38599510  1
  O  O5  1  0.74271021  0.77827945  0.88599510  1
  O  O6  1  0.74271021  0.77827945  0.61400490  1
  O  O7  1  0.96443076  0.74271021  0.11400490  1
  O  O8  1  0.77827945  0.03556924  0.11400490  1
  O  O9  1  0.22172055  0.96443076  0.61400490  1
  O  O10  1  0.03556924  0.25728979  0.61400490  1
  O  O11  1  0.25728979  0.22172055  0.11400490  1
  O  O12  1  0.49762468  0.08865255  0.25000000  1
  O  O13  1  0.40897214  0.49762468  0.75000000  1
  O  O14  1  0.08865255  0.59102786  0.75000000  1
  O  O15  1  0.91134745  0.40897214  0.25000000  1
  O  O16  1  0.59102786  0.50237532  0.25000000  1
  O  O17  1  0.50237532  0.91134745  0.75000000  1
  Si  Si18  1  0.61578697  0.75529136  0.75000000  1
  Si  Si19  1  0.86049560  0.61578697  0.25000000  1
  Si  Si20  1  0.75529136  0.13950440  0.25000000  1
  Si  Si21  1  0.24470864  0.86049560  0.75000000  1
  Si  Si22  1  0.13950440  0.38421303  0.75000000  1
  Si  Si23  1  0.38421303  0.24470864  0.25000000  1
  Rb  Rb24  1  0.33333333  0.66666667  0.06078695  1
  Rb  Rb25  1  0.66666667  0.33333333  0.56078695  1
  Rb  Rb26  1  0.33333333  0.66666667  0.43921305  1
  Rb  Rb27  1  0.66666667  0.33333333  0.93921305  1
  Sn  Sn28  1  0.00000000  0.00000000  0.00000000  1
  Sn  Sn29  1  0.00000000  0.00000000  0.50000000  1
