# generated using pymatgen
data_Rb2Hf3OF12
_symmetry_space_group_name_H-M   'P 1'
_cell_length_a   11.04224391
_cell_length_b   11.04224391
_cell_length_c   11.04224391
_cell_angle_alpha   41.13111188
_cell_angle_beta   41.13111192
_cell_angle_gamma   41.13111189
_symmetry_Int_Tables_number   1
_chemical_formula_structural   Rb2Hf3OF12
_chemical_formula_sum   'Rb4 Hf6 O2 F24'
_cell_volume   526.05641746
_cell_formula_units_Z   2
loop_
 _symmetry_equiv_pos_site_id
 _symmetry_equiv_pos_as_xyz
  1  'x, y, z'
loop_
 _atom_site_type_symbol
 _atom_site_label
 _atom_site_symmetry_multiplicity
 _atom_site_fract_x
 _atom_site_fract_y
 _atom_site_fract_z
 _atom_site_occupancy
  O  O0  1  0.28706721  0.28706721  0.28706721  1
  O  O1  1  0.71293279  0.71293279  0.71293279  1
  F  F2  1  0.70774619  0.37246260  0.70774619  1
  F  F3  1  0.37246260  0.70774619  0.70774619  1
  F  F4  1  0.70774619  0.70774619  0.37246260  1
  F  F5  1  0.29225381  0.62753740  0.29225381  1
  F  F6  1  0.62753740  0.29225381  0.29225381  1
  F  F7  1  0.29225381  0.29225381  0.62753740  1
  F  F8  1  0.59831377  0.09045711  0.09045711  1
  F  F9  1  0.09045711  0.09045711  0.59831377  1
  F  F10  1  0.35280096  0.00000000  0.64719904  1
  F  F11  1  0.64719904  0.35280096  0.00000000  1
  F  F12  1  0.00000000  0.64719904  0.35280096  1
  F  F13  1  0.64719904  0.00000000  0.35280096  1
  F  F14  1  0.35280096  0.64719904  0.00000000  1
  F  F15  1  0.00000000  0.35280096  0.64719904  1
  F  F16  1  0.64635582  0.08297820  0.64635582  1
  F  F17  1  0.64635582  0.64635582  0.08297820  1
  F  F18  1  0.08297820  0.64635582  0.64635582  1
  F  F19  1  0.91702180  0.35364418  0.35364418  1
  F  F20  1  0.35364418  0.91702180  0.35364418  1
  F  F21  1  0.35364418  0.35364418  0.91702180  1
  F  F22  1  0.40168623  0.90954289  0.90954289  1
  F  F23  1  0.90954289  0.40168623  0.90954289  1
  F  F24  1  0.90954289  0.90954289  0.40168623  1
  F  F25  1  0.09045711  0.59831377  0.09045711  1
  Rb  Rb26  1  0.00000000  0.00000000  0.00000000  1
  Rb  Rb27  1  0.50000000  0.50000000  0.50000000  1
  Rb  Rb28  1  0.13859044  0.13859044  0.13859044  1
  Rb  Rb29  1  0.86140956  0.86140956  0.86140956  1
  Hf  Hf30  1  0.57527101  0.57527101  0.02808325  1
  Hf  Hf31  1  0.57527101  0.02808325  0.57527101  1
  Hf  Hf32  1  0.02808325  0.57527101  0.57527101  1
  Hf  Hf33  1  0.97191675  0.42472899  0.42472899  1
  Hf  Hf34  1  0.42472899  0.97191675  0.42472899  1
  Hf  Hf35  1  0.42472899  0.42472899  0.97191675  1
