# generated using pymatgen
data_Na3In2(PO4)3
_symmetry_space_group_name_H-M   'P 1'
_cell_length_a   6.70580506
_cell_length_b   9.05353735
_cell_length_c   9.05353735
_cell_angle_alpha   91.58217166
_cell_angle_beta   106.71426328
_cell_angle_gamma   106.71426330
_symmetry_Int_Tables_number   1
_chemical_formula_structural   Na3In2(PO4)3
_chemical_formula_sum   'Na6 In4 P6 O24'
_cell_volume   500.52830484
_cell_formula_units_Z   2
loop_
 _symmetry_equiv_pos_site_id
 _symmetry_equiv_pos_as_xyz
  1  'x, y, z'
loop_
 _atom_site_type_symbol
 _atom_site_label
 _atom_site_symmetry_multiplicity
 _atom_site_fract_x
 _atom_site_fract_y
 _atom_site_fract_z
 _atom_site_occupancy
  O  O0  1  0.78163025  0.26005342  0.56238497  1
  O  O1  1  0.71836975  0.43761503  0.73994658  1
  O  O2  1  0.21836975  0.73994658  0.43761503  1
  O  O3  1  0.28163025  0.56238497  0.26005342  1
  O  O4  1  0.54430762  0.15343673  0.74491738  1
  O  O5  1  0.95569238  0.25508262  0.84656327  1
  O  O6  1  0.45569238  0.84656327  0.25508262  1
  O  O7  1  0.04430762  0.74491738  0.15343673  1
  O  O8  1  0.58422717  0.66618895  0.98986239  1
  O  O9  1  0.91577283  0.01013761  0.33381105  1
  O  O10  1  0.41577283  0.33381105  0.01013761  1
  O  O11  1  0.08422717  0.98986239  0.66618895  1
  O  O12  1  0.37981686  0.83241782  0.83584976  1
  O  O13  1  0.12018314  0.16415024  0.16758218  1
  O  O14  1  0.62018314  0.16758218  0.16415024  1
  O  O15  1  0.87981686  0.83584976  0.83241782  1
  O  O16  1  0.82764370  0.71308808  0.55806496  1
  O  O17  1  0.67235630  0.44193504  0.28691192  1
  O  O18  1  0.17235630  0.28691192  0.44193504  1
  O  O19  1  0.32764370  0.55806496  0.71308808  1
  O  O20  1  0.67554328  0.93515446  0.59372072  1
  O  O21  1  0.82445672  0.40627928  0.06484554  1
  O  O22  1  0.32445672  0.06484554  0.40627928  1
  O  O23  1  0.17554328  0.59372072  0.93515446  1
  Na  Na24  1  0.75000000  0.72475336  0.27524664  1
  Na  Na25  1  0.75000000  0.01677971  0.98322029  1
  Na  Na26  1  0.50000000  0.50000000  0.50000000  1
  Na  Na27  1  0.25000000  0.98322029  0.01677971  1
  Na  Na28  1  0.25000000  0.27524664  0.72475336  1
  Na  Na29  1  0.00000000  0.50000000  0.50000000  1
  P  P30  1  0.63335417  0.34111964  0.13791378  1
  P  P31  1  0.13335417  0.13791378  0.34111964  1
  P  P32  1  0.75000000  0.27453355  0.72546645  1
  P  P33  1  0.25000000  0.72546645  0.27453355  1
  P  P34  1  0.86664583  0.86208622  0.65888036  1
  P  P35  1  0.36664583  0.65888036  0.86208622  1
  In  In36  1  0.84579733  0.61614017  0.92891771  1
  In  In37  1  0.15420267  0.38385983  0.07108229  1
  In  In38  1  0.34579733  0.92891771  0.61614017  1
  In  In39  1  0.65420267  0.07108229  0.38385983  1
