# generated using pymatgen
data_SmSnF7
_symmetry_space_group_name_H-M   'P 1'
_cell_length_a   5.74959511
_cell_length_b   9.15795623
_cell_length_c   11.41801681
_cell_angle_alpha   107.45184973
_cell_angle_beta   90.00000000
_cell_angle_gamma   90.00000000
_symmetry_Int_Tables_number   1
_chemical_formula_structural   SmSnF7
_chemical_formula_sum   'Sm4 Sn4 F28'
_cell_volume   573.53630303
_cell_formula_units_Z   4
loop_
 _symmetry_equiv_pos_site_id
 _symmetry_equiv_pos_as_xyz
  1  'x, y, z'
loop_
 _atom_site_type_symbol
 _atom_site_label
 _atom_site_symmetry_multiplicity
 _atom_site_fract_x
 _atom_site_fract_y
 _atom_site_fract_z
 _atom_site_occupancy
  F  F0  1  0.04508356  0.82831555  0.54521120  1
  F  F1  1  0.54508356  0.67168445  0.95478880  1
  F  F2  1  0.95491644  0.17168445  0.45478880  1
  F  F3  1  0.45491644  0.32831555  0.04521120  1
  F  F4  1  0.95230654  0.37158158  0.08010281  1
  F  F5  1  0.45230654  0.12841842  0.41989719  1
  F  F6  1  0.04769346  0.62841842  0.91989719  1
  F  F7  1  0.54769346  0.87158158  0.58010281  1
  F  F8  1  0.26863587  0.62220507  0.14032273  1
  F  F9  1  0.76863587  0.87779493  0.35967727  1
  F  F10  1  0.73136413  0.37779493  0.85967727  1
  F  F11  1  0.23136413  0.12220507  0.64032273  1
  F  F12  1  0.25982048  0.91922102  0.94645955  1
  F  F13  1  0.75982048  0.58077898  0.55354045  1
  F  F14  1  0.74017952  0.08077898  0.05354045  1
  F  F15  1  0.24017952  0.41922102  0.44645955  1
  F  F16  1  0.95626230  0.58539060  0.32971839  1
  F  F17  1  0.45626230  0.91460940  0.17028161  1
  F  F18  1  0.04373770  0.41460940  0.67028161  1
  F  F19  1  0.54373770  0.08539060  0.82971839  1
  F  F20  1  0.98063448  0.87172165  0.14125862  1
  F  F21  1  0.48063448  0.62827835  0.35874138  1
  F  F22  1  0.01936552  0.12827835  0.85874138  1
  F  F23  1  0.51936552  0.37172165  0.64125862  1
  F  F24  1  0.91893830  0.79684581  0.76671537  1
  F  F25  1  0.41893830  0.70315419  0.73328463  1
  F  F26  1  0.08106170  0.20315419  0.23328463  1
  F  F27  1  0.58106170  0.29684581  0.26671537  1
  Sn  Sn28  1  0.75600749  0.72995278  0.45703757  1
  Sn  Sn29  1  0.25600749  0.77004722  0.04296243  1
  Sn  Sn30  1  0.24399251  0.27004722  0.54296243  1
  Sn  Sn31  1  0.74399251  0.22995278  0.95703757  1
  Sm  Sm32  1  0.24203124  0.92222494  0.73456754  1
  Sm  Sm33  1  0.74203124  0.57777506  0.76543246  1
  Sm  Sm34  1  0.75796876  0.07777506  0.26543246  1
  Sm  Sm35  1  0.25796876  0.42222494  0.23456754  1
