# generated using pymatgen
data_SnB4O7
_symmetry_space_group_name_H-M   'P 1'
_cell_length_a   4.27968797
_cell_length_b   4.49426174
_cell_length_c   10.98269806
_cell_angle_alpha   90.00000000
_cell_angle_beta   90.00000000
_cell_angle_gamma   90.00000000
_symmetry_Int_Tables_number   1
_chemical_formula_structural   SnB4O7
_chemical_formula_sum   'Sn2 B8 O14'
_cell_volume   211.24163076
_cell_formula_units_Z   2
loop_
 _symmetry_equiv_pos_site_id
 _symmetry_equiv_pos_as_xyz
  1  'x, y, z'
loop_
 _atom_site_type_symbol
 _atom_site_label
 _atom_site_symmetry_multiplicity
 _atom_site_fract_x
 _atom_site_fract_y
 _atom_site_fract_z
 _atom_site_occupancy
  B  B0  1  0.55648497  0.67221234  0.87739336  1
  B  B1  1  0.02592379  0.82412544  0.24879913  1
  B  B2  1  0.52592379  0.17587456  0.25120087  1
  B  B3  1  0.05648497  0.32778766  0.62260664  1
  B  B4  1  0.05648497  0.32778766  0.37739336  1
  B  B5  1  0.55648497  0.67221234  0.12260664  1
  B  B6  1  0.02592379  0.82412544  0.75120087  1
  B  B7  1  0.52592379  0.17587456  0.74879913  1
  O  O8  1  0.94832965  0.23604103  0.50000000  1
  O  O9  1  0.44832965  0.76395897  0.00000000  1
  O  O10  1  0.37926815  0.87287052  0.78220416  1
  O  O11  1  0.87926815  0.12712948  0.71779584  1
  O  O12  1  0.87926815  0.12712948  0.28220416  1
  O  O13  1  0.37926815  0.87287052  0.21779584  1
  O  O14  1  0.47990612  0.36024944  0.85577991  1
  O  O15  1  0.97990612  0.63975056  0.64422009  1
  O  O16  1  0.97990612  0.63975056  0.35577991  1
  O  O17  1  0.47990612  0.36024944  0.14422009  1
  O  O18  1  0.88521918  0.73186070  0.86226256  1
  O  O19  1  0.38521918  0.26813930  0.63773744  1
  O  O20  1  0.38521918  0.26813930  0.36226256  1
  O  O21  1  0.88521918  0.73186070  0.13773744  1
  Sn  Sn22  1  0.60482593  0.83350364  0.50000000  1
  Sn  Sn23  1  0.10482593  0.16649636  0.00000000  1
