# generated using pymatgen
data_LiPm2Ge
_symmetry_space_group_name_H-M   'P 1'
_cell_length_a   5.15851157
_cell_length_b   5.15851534
_cell_length_c   5.15851338
_cell_angle_alpha   60.00006997
_cell_angle_beta   60.00003396
_cell_angle_gamma   60.00006403
_symmetry_Int_Tables_number   1
_chemical_formula_structural   LiPm2Ge
_chemical_formula_sum   'Li1 Pm2 Ge1'
_cell_volume   97.06423822
_cell_formula_units_Z   1
loop_
 _symmetry_equiv_pos_site_id
 _symmetry_equiv_pos_as_xyz
  1  'x, y, z'
loop_
 _atom_site_type_symbol
 _atom_site_label
 _atom_site_symmetry_multiplicity
 _atom_site_fract_x
 _atom_site_fract_y
 _atom_site_fract_z
 _atom_site_occupancy
  Pm  Pm0  1  0.00000021  -0.00000003  0.99999992  1
  Pm  Pm1  1  0.50000061  0.50000075  0.50000091  1
  Li  Li2  1  0.75000004  0.75000007  0.75000004  1
  Ge  Ge3  1  0.24999914  0.24999921  0.24999913  1
