# generated using pymatgen
data_Zr4Fe4Si7
_symmetry_space_group_name_H-M   'P 1'
_cell_length_a   5.04516534
_cell_length_b   9.58748853
_cell_length_c   9.58748853
_cell_angle_alpha   86.03035894
_cell_angle_beta   74.74520618
_cell_angle_gamma   74.74520614
_symmetry_Int_Tables_number   1
_chemical_formula_structural   Zr4Fe4Si7
_chemical_formula_sum   'Zr8 Fe8 Si14'
_cell_volume   431.64675412
_cell_formula_units_Z   2
loop_
 _symmetry_equiv_pos_site_id
 _symmetry_equiv_pos_as_xyz
  1  'x, y, z'
loop_
 _atom_site_type_symbol
 _atom_site_label
 _atom_site_symmetry_multiplicity
 _atom_site_fract_x
 _atom_site_fract_y
 _atom_site_fract_z
 _atom_site_occupancy
  Si  Si0  1  0.74991773  0.00000000  0.00000000  1
  Si  Si1  1  0.25008227  0.00000000  0.00000000  1
  Si  Si2  1  0.09122551  0.40877449  0.40877449  1
  Si  Si3  1  0.50000000  0.59122551  0.40877449  1
  Si  Si4  1  0.50000000  0.40877449  0.59122551  1
  Si  Si5  1  0.90877449  0.59122551  0.59122551  1
  Si  Si6  1  0.69955328  0.30044672  0.30044672  1
  Si  Si7  1  0.00000000  0.69955328  0.30044672  1
  Si  Si8  1  0.71046801  0.00000000  0.57906398  1
  Si  Si9  1  0.28953199  0.42093602  0.00000000  1
  Si  Si10  1  0.30044672  0.69955328  0.69955328  1
  Si  Si11  1  0.71046801  0.57906398  0.00000000  1
  Si  Si12  1  0.28953199  0.00000000  0.42093602  1
  Si  Si13  1  0.00000000  0.30044672  0.69955328  1
  Fe  Fe14  1  0.10215499  0.79569002  0.50000000  1
  Fe  Fe15  1  0.89784501  0.50000000  0.20430998  1
  Fe  Fe16  1  0.60215499  0.50000000  0.79569002  1
  Fe  Fe17  1  0.10215499  0.50000000  0.79569002  1
  Fe  Fe18  1  0.60215499  0.79569002  0.50000000  1
  Fe  Fe19  1  0.39784501  0.50000000  0.20430998  1
  Fe  Fe20  1  0.89784501  0.20430998  0.50000000  1
  Fe  Fe21  1  0.39784501  0.20430998  0.50000000  1
  Zr  Zr22  1  0.69645875  0.80354125  0.80354125  1
  Zr  Zr23  1  0.50000000  0.19645875  0.80354125  1
  Zr  Zr24  1  0.50000000  0.80354125  0.19645875  1
  Zr  Zr25  1  0.30354125  0.19645875  0.19645875  1
  Zr  Zr26  1  0.86193739  0.00000000  0.27612522  1
  Zr  Zr27  1  0.13806261  0.72387478  0.00000000  1
  Zr  Zr28  1  0.86193739  0.27612522  0.00000000  1
  Zr  Zr29  1  0.13806261  0.00000000  0.72387478  1
