# generated using pymatgen
data_Ba4Ru3O10
_symmetry_space_group_name_H-M   'P 1'
_cell_length_a   5.86993760
_cell_length_b   7.31161253
_cell_length_c   13.30290956
_cell_angle_alpha   90.00000000
_cell_angle_beta   90.00000000
_cell_angle_gamma   113.66647735
_symmetry_Int_Tables_number   1
_chemical_formula_structural   Ba4Ru3O10
_chemical_formula_sum   'Ba8 Ru6 O20'
_cell_volume   522.92597701
_cell_formula_units_Z   2
loop_
 _symmetry_equiv_pos_site_id
 _symmetry_equiv_pos_as_xyz
  1  'x, y, z'
loop_
 _atom_site_type_symbol
 _atom_site_label
 _atom_site_symmetry_multiplicity
 _atom_site_fract_x
 _atom_site_fract_y
 _atom_site_fract_z
 _atom_site_occupancy
  O  O0  1  0.23057274  0.46114549  0.65031458  1
  O  O1  1  0.76942726  0.53885451  0.34968542  1
  O  O2  1  0.26942726  0.53885451  0.15031458  1
  O  O3  1  0.73057274  0.46114549  0.84968542  1
  O  O4  1  0.84069491  0.21993286  0.46478517  1
  O  O5  1  0.62076205  0.78006714  0.53521483  1
  O  O6  1  0.65930509  0.78006714  0.96478517  1
  O  O7  1  0.87923795  0.21993286  0.03521483  1
  O  O8  1  0.15930509  0.78006714  0.53521483  1
  O  O9  1  0.37923795  0.21993286  0.46478517  1
  O  O10  1  0.34069491  0.21993286  0.03521483  1
  O  O11  1  0.12076205  0.78006714  0.96478517  1
  O  O12  1  0.53519205  0.07038409  0.64986100  1
  O  O13  1  0.46480795  0.92961591  0.35013900  1
  O  O14  1  0.13065363  0.76130725  0.75000000  1
  O  O15  1  0.36934637  0.23869275  0.25000000  1
  O  O16  1  0.86934637  0.23869275  0.25000000  1
  O  O17  1  0.63065363  0.76130725  0.75000000  1
  O  O18  1  0.03519205  0.07038409  0.85013900  1
  O  O19  1  0.96480795  0.92961591  0.14986100  1
  Ru  Ru20  1  0.37584853  0.75169706  0.64911322  1
  Ru  Ru21  1  0.62415147  0.24830294  0.35088678  1
  Ru  Ru22  1  0.12415147  0.24830294  0.14911322  1
  Ru  Ru23  1  0.87584853  0.75169706  0.85088678  1
  Ru  Ru24  1  0.50000000  0.00000000  0.50000000  1
  Ru  Ru25  1  0.00000000  0.00000000  0.00000000  1
  Ba  Ba26  1  0.03461444  0.06922888  0.63949390  1
  Ba  Ba27  1  0.96538556  0.93077112  0.36050610  1
  Ba  Ba28  1  0.46538556  0.93077112  0.13949390  1
  Ba  Ba29  1  0.53461444  0.06922888  0.86050610  1
  Ba  Ba30  1  0.74037183  0.48074366  0.61310017  1
  Ba  Ba31  1  0.25962817  0.51925634  0.38689983  1
  Ba  Ba32  1  0.75962817  0.51925634  0.11310017  1
  Ba  Ba33  1  0.24037183  0.48074366  0.88689983  1
