# generated using pymatgen
data_PrPtF7
_symmetry_space_group_name_H-M   'P 1'
_cell_length_a   5.70198196
_cell_length_b   9.24269441
_cell_length_c   11.42902286
_cell_angle_alpha   107.35550549
_cell_angle_beta   90.00000000
_cell_angle_gamma   90.00000000
_symmetry_Int_Tables_number   1
_chemical_formula_structural   PrPtF7
_chemical_formula_sum   'Pr4 Pt4 F28'
_cell_volume   574.90601066
_cell_formula_units_Z   4
loop_
 _symmetry_equiv_pos_site_id
 _symmetry_equiv_pos_as_xyz
  1  'x, y, z'
loop_
 _atom_site_type_symbol
 _atom_site_label
 _atom_site_symmetry_multiplicity
 _atom_site_fract_x
 _atom_site_fract_y
 _atom_site_fract_z
 _atom_site_occupancy
  F  F0  1  0.56859604  0.37626086  0.08358159  1
  F  F1  1  0.06859604  0.12373914  0.41641841  1
  F  F2  1  0.43140396  0.62373914  0.91641841  1
  F  F3  1  0.93140396  0.87626086  0.58358159  1
  F  F4  1  0.54949910  0.17888271  0.46071472  1
  F  F5  1  0.04949910  0.32111729  0.03928528  1
  F  F6  1  0.45050090  0.82111729  0.53928528  1
  F  F7  1  0.95050090  0.67888271  0.96071472  1
  F  F8  1  0.23393224  0.62396398  0.13826178  1
  F  F9  1  0.73393224  0.87603602  0.36173822  1
  F  F10  1  0.76606776  0.37603602  0.86173822  1
  F  F11  1  0.26606776  0.12396398  0.63826178  1
  F  F12  1  0.24262902  0.91903903  0.95110340  1
  F  F13  1  0.74262902  0.58096097  0.54889660  1
  F  F14  1  0.75737098  0.08096097  0.04889660  1
  F  F15  1  0.25737098  0.41903903  0.45110340  1
  F  F16  1  0.03118709  0.64208222  0.37032353  1
  F  F17  1  0.53118709  0.85791778  0.12967647  1
  F  F18  1  0.96881291  0.35791778  0.62967647  1
  F  F19  1  0.46881291  0.14208222  0.87032353  1
  F  F20  1  0.94085967  0.08681484  0.82834632  1
  F  F21  1  0.44085967  0.41318516  0.67165368  1
  F  F22  1  0.05914033  0.91318516  0.17165368  1
  F  F23  1  0.55914033  0.58681484  0.32834632  1
  F  F24  1  0.59465278  0.80231714  0.76897722  1
  F  F25  1  0.09465278  0.69768286  0.73102278  1
  F  F26  1  0.40534722  0.19768286  0.23102278  1
  F  F27  1  0.90534722  0.30231714  0.26897722  1
  Pr  Pr28  1  0.23931251  0.42474975  0.23575094  1
  Pr  Pr29  1  0.73931251  0.07525025  0.26424906  1
  Pr  Pr30  1  0.76068749  0.57525025  0.76424906  1
  Pr  Pr31  1  0.26068749  0.92474975  0.73575094  1
  Pt  Pt32  1  0.24328169  0.76920242  0.04247814  1
  Pt  Pt33  1  0.74328169  0.73079758  0.45752186  1
  Pt  Pt34  1  0.75671831  0.23079758  0.95752186  1
  Pt  Pt35  1  0.25671831  0.26920242  0.54247814  1
