# generated using pymatgen
data_Cu2PO4
_symmetry_space_group_name_H-M   'P 1'
_cell_length_a   6.05083584
_cell_length_b   6.34097286
_cell_length_c   9.39529056
_cell_angle_alpha   73.92303122
_cell_angle_beta   84.27762976
_cell_angle_gamma   79.37482761
_symmetry_Int_Tables_number   1
_chemical_formula_structural   Cu2PO4
_chemical_formula_sum   'Cu8 P4 O16'
_cell_volume   339.99119998
_cell_formula_units_Z   4
loop_
 _symmetry_equiv_pos_site_id
 _symmetry_equiv_pos_as_xyz
  1  'x, y, z'
loop_
 _atom_site_type_symbol
 _atom_site_label
 _atom_site_symmetry_multiplicity
 _atom_site_fract_x
 _atom_site_fract_y
 _atom_site_fract_z
 _atom_site_occupancy
  Cu  Cu0  1  0.80757268  0.67398891  0.02957824  1
  Cu  Cu1  1  0.19242732  0.32601109  0.97042176  1
  Cu  Cu2  1  0.97525585  0.89271968  0.26960228  1
  Cu  Cu3  1  0.02474415  0.10728032  0.73039772  1
  Cu  Cu4  1  0.44918898  0.61604140  0.36577089  1
  Cu  Cu5  1  0.55081102  0.38395860  0.63422911  1
  Cu  Cu6  1  0.56849139  0.81053022  0.65491391  1
  Cu  Cu7  1  0.43150861  0.18946978  0.34508609  1
  P  P8  1  0.12524590  0.70048860  0.61525957  1
  P  P9  1  0.87475410  0.29951140  0.38474043  1
  P  P10  1  0.28833261  0.80476533  0.00156111  1
  P  P11  1  0.71166739  0.19523467  0.99843889  1
  O  O12  1  0.80541470  0.95243337  0.09122032  1
  O  O13  1  0.19458530  0.04756663  0.90877968  1
  O  O14  1  0.75414554  0.53524030  0.30233755  1
  O  O15  1  0.24585446  0.46475970  0.69766245  1
  O  O16  1  0.13346661  0.64676299  0.97799601  1
  O  O17  1  0.86653339  0.35323701  0.02200399  1
  O  O18  1  0.15284379  0.71691923  0.44424693  1
  O  O19  1  0.84715621  0.28308077  0.55575307  1
  O  O20  1  0.88033499  0.74503593  0.66844246  1
  O  O21  1  0.11966501  0.25496407  0.33155754  1
  O  O22  1  0.52596597  0.73879236  0.93916596  1
  O  O23  1  0.47403403  0.26120764  0.06083404  1
  O  O24  1  0.27763359  0.80175972  0.16790809  1
  O  O25  1  0.72236641  0.19824028  0.83209191  1
  O  O26  1  0.24961755  0.88351346  0.64415911  1
  O  O27  1  0.75038245  0.11648654  0.35584089  1
