# generated using pymatgen
data_K2ErF5
_symmetry_space_group_name_H-M   'P 1'
_cell_length_a   6.68240063
_cell_length_b   7.26395447
_cell_length_c   10.97209595
_cell_angle_alpha   90.00000000
_cell_angle_beta   90.00000000
_cell_angle_gamma   90.00000000
_symmetry_Int_Tables_number   1
_chemical_formula_structural   K2ErF5
_chemical_formula_sum   'K8 Er4 F20'
_cell_volume   532.59271236
_cell_formula_units_Z   4
loop_
 _symmetry_equiv_pos_site_id
 _symmetry_equiv_pos_as_xyz
  1  'x, y, z'
loop_
 _atom_site_type_symbol
 _atom_site_label
 _atom_site_symmetry_multiplicity
 _atom_site_fract_x
 _atom_site_fract_y
 _atom_site_fract_z
 _atom_site_occupancy
  F  F0  1  0.87761885  0.99495347  0.16608016  1
  F  F1  1  0.12238115  0.49495347  0.83391984  1
  F  F2  1  0.62238115  0.99495347  0.66608016  1
  F  F3  1  0.37761885  0.49495347  0.33391984  1
  F  F4  1  0.84310602  0.49486692  0.18902878  1
  F  F5  1  0.15689398  0.99486692  0.81097122  1
  F  F6  1  0.65689398  0.49486692  0.68902878  1
  F  F7  1  0.34310602  0.99486692  0.31097122  1
  F  F8  1  0.64687829  0.20925697  0.42709047  1
  F  F9  1  0.35312171  0.70925697  0.57290953  1
  F  F10  1  0.85312171  0.20925697  0.92709047  1
  F  F11  1  0.14687829  0.70925697  0.07290953  1
  F  F12  1  0.38982424  0.99512991  0.01393506  1
  F  F13  1  0.61017576  0.49512991  0.98606494  1
  F  F14  1  0.11017576  0.99512991  0.51393506  1
  F  F15  1  0.88982424  0.49512991  0.48606494  1
  F  F16  1  0.14695944  0.28080855  0.07295676  1
  F  F17  1  0.85304056  0.78080855  0.92704324  1
  F  F18  1  0.35304056  0.28080855  0.57295676  1
  F  F19  1  0.64695944  0.78080855  0.42704324  1
  K  K20  1  0.53466436  0.24198781  0.17095229  1
  K  K21  1  0.46533564  0.74198781  0.82904771  1
  K  K22  1  0.96533564  0.24198781  0.67095229  1
  K  K23  1  0.03466436  0.74198781  0.32904771  1
  K  K24  1  0.53492631  0.74797978  0.17083001  1
  K  K25  1  0.46507369  0.24797978  0.82916999  1
  K  K26  1  0.96507369  0.74797978  0.67083001  1
  K  K27  1  0.03492631  0.24797978  0.32916999  1
  Er  Er28  1  0.56371506  0.49502658  0.49748144  1
  Er  Er29  1  0.43628494  0.99502658  0.50251856  1
  Er  Er30  1  0.93628494  0.49502658  0.99748144  1
  Er  Er31  1  0.06371506  0.99502658  0.00251856  1
