# generated using pymatgen
data_CsPHO3F
_symmetry_space_group_name_H-M   'P 1'
_cell_length_a   5.52092289
_cell_length_b   6.01496830
_cell_length_c   8.15725967
_cell_angle_alpha   66.34130620
_cell_angle_beta   99.04090883
_cell_angle_gamma   91.29513812
_symmetry_Int_Tables_number   1
_chemical_formula_structural   CsPHO3F
_chemical_formula_sum   'Cs2 P2 H2 O6 F2'
_cell_volume   244.79245032
_cell_formula_units_Z   2
loop_
 _symmetry_equiv_pos_site_id
 _symmetry_equiv_pos_as_xyz
  1  'x, y, z'
loop_
 _atom_site_type_symbol
 _atom_site_label
 _atom_site_symmetry_multiplicity
 _atom_site_fract_x
 _atom_site_fract_y
 _atom_site_fract_z
 _atom_site_occupancy
  Cs  Cs0  1  0.59384855  0.13702445  0.72739250  1
  Cs  Cs1  1  0.40615145  0.86297555  0.27260750  1
  P  P2  1  0.84121062  0.39318539  0.23566544  1
  P  P3  1  0.15878938  0.60681461  0.76433456  1
  H  H4  1  0.97264835  0.28135760  0.03197417  1
  H  H5  1  0.02735165  0.71864240  0.96802583  1
  O  O6  1  0.86968535  0.21622479  0.13878893  1
  O  O7  1  0.88496388  0.65511105  0.11619179  1
  O  O8  1  0.13031465  0.78377521  0.86121107  1
  O  O9  1  0.11503612  0.34488895  0.88380821  1
  O  O10  1  0.61807415  0.34074640  0.32525520  1
  O  O11  1  0.38192585  0.65925360  0.67474480  1
  F  F12  1  0.07576245  0.30823638  0.39643229  1
  F  F13  1  0.92423755  0.69176362  0.60356771  1
