# generated using pymatgen
data_Ta3VSe6
_symmetry_space_group_name_H-M   'P 1'
_cell_length_a   6.00490916
_cell_length_b   6.01072516
_cell_length_c   12.79807860
_cell_angle_alpha   89.94602464
_cell_angle_beta   89.99999999
_cell_angle_gamma   119.96800558
_symmetry_Int_Tables_number   1
_chemical_formula_structural   Ta3VSe6
_chemical_formula_sum   'Ta6 V2 Se12'
_cell_volume   400.17355471
_cell_formula_units_Z   2
loop_
 _symmetry_equiv_pos_site_id
 _symmetry_equiv_pos_as_xyz
  1  'x, y, z'
loop_
 _atom_site_type_symbol
 _atom_site_label
 _atom_site_symmetry_multiplicity
 _atom_site_fract_x
 _atom_site_fract_y
 _atom_site_fract_z
 _atom_site_occupancy
  Ta  Ta0  1  0.99927749  0.00000000  0.50000000  1
  Ta  Ta1  1  0.00010719  0.00000000  0.00000000  1
  Ta  Ta2  1  0.66640529  0.33278060  0.00058199  1
  Ta  Ta3  1  0.33362469  0.66721940  0.99941801  1
  Ta  Ta4  1  0.33323238  0.66614253  0.50058066  1
  Ta  Ta5  1  0.66708985  0.33385747  0.49941934  1
  V  V6  1  0.66697584  0.33348446  0.75002185  1
  V  V7  1  0.33349138  0.66651554  0.24997815  1
  Se  Se8  1  0.66695499  0.99849503  0.63172785  1
  Se  Se9  1  0.33086420  0.33162839  0.63165486  1
  Se  Se10  1  0.00214270  0.67011063  0.63129960  1
  Se  Se11  1  0.66845996  0.00150497  0.36827215  1
  Se  Se12  1  0.99923580  0.66837161  0.36834514  1
  Se  Se13  1  0.33203207  0.32988937  0.36870040  1
  Se  Se14  1  0.33192987  0.00184605  0.13136747  1
  Se  Se15  1  0.66895876  0.66720292  0.13157185  1
  Se  Se16  1  0.99927785  0.33107782  0.13175205  1
  Se  Se17  1  0.33008382  0.99815395  0.86863253  1
  Se  Se18  1  0.00175584  0.33279708  0.86842815  1
  Se  Se19  1  0.66820003  0.66892218  0.86824795  1
