# generated using pymatgen
data_Nd3IrO7
_symmetry_space_group_name_H-M   'P 1'
_cell_length_a   6.65347193
_cell_length_b   6.65347193
_cell_length_c   7.60085295
_cell_angle_alpha   90.00000000
_cell_angle_beta   90.00000000
_cell_angle_gamma   111.09925318
_symmetry_Int_Tables_number   1
_chemical_formula_structural   Nd3IrO7
_chemical_formula_sum   'Nd6 Ir2 O14'
_cell_volume   313.92159121
_cell_formula_units_Z   2
loop_
 _symmetry_equiv_pos_site_id
 _symmetry_equiv_pos_as_xyz
  1  'x, y, z'
loop_
 _atom_site_type_symbol
 _atom_site_label
 _atom_site_symmetry_multiplicity
 _atom_site_fract_x
 _atom_site_fract_y
 _atom_site_fract_z
 _atom_site_occupancy
  O  O0  1  0.58938007  0.58938007  0.75000000  1
  O  O1  1  0.41061993  0.41061993  0.25000000  1
  O  O2  1  0.10790970  0.84389066  0.75000000  1
  O  O3  1  0.89209030  0.15610934  0.25000000  1
  O  O4  1  0.84389066  0.10790970  0.75000000  1
  O  O5  1  0.15610934  0.89209030  0.25000000  1
  O  O6  1  0.18752875  0.43974494  0.96172249  1
  O  O7  1  0.81247125  0.56025506  0.46172249  1
  O  O8  1  0.43974494  0.18752875  0.96172249  1
  O  O9  1  0.56025506  0.81247125  0.46172249  1
  O  O10  1  0.18752875  0.43974494  0.53827751  1
  O  O11  1  0.81247125  0.56025506  0.03827751  1
  O  O12  1  0.56025506  0.81247125  0.03827751  1
  O  O13  1  0.43974494  0.18752875  0.53827751  1
  Nd  Nd14  1  0.00000000  0.00000000  0.00000000  1
  Nd  Nd15  1  0.00000000  0.00000000  0.50000000  1
  Nd  Nd16  1  0.92001591  0.47523250  0.75000000  1
  Nd  Nd17  1  0.07998409  0.52476750  0.25000000  1
  Nd  Nd18  1  0.47523250  0.92001591  0.75000000  1
  Nd  Nd19  1  0.52476750  0.07998409  0.25000000  1
  Ir  Ir20  1  0.50000000  0.50000000  0.00000000  1
  Ir  Ir21  1  0.50000000  0.50000000  0.50000000  1
