# generated using pymatgen
data_Au3F8
_symmetry_space_group_name_H-M   'P 1'
_cell_length_a   5.59707680
_cell_length_b   5.93704638
_cell_length_c   10.94133560
_cell_angle_alpha   90.00000000
_cell_angle_beta   90.00000000
_cell_angle_gamma   92.13685643
_symmetry_Int_Tables_number   1
_chemical_formula_structural   Au3F8
_chemical_formula_sum   'Au6 F16'
_cell_volume   363.32889645
_cell_formula_units_Z   2
loop_
 _symmetry_equiv_pos_site_id
 _symmetry_equiv_pos_as_xyz
  1  'x, y, z'
loop_
 _atom_site_type_symbol
 _atom_site_label
 _atom_site_symmetry_multiplicity
 _atom_site_fract_x
 _atom_site_fract_y
 _atom_site_fract_z
 _atom_site_occupancy
  F  F0  1  0.25845355  0.11127677  0.52384067  1
  F  F1  1  0.24154645  0.38872323  0.02384067  1
  F  F2  1  0.74154645  0.88872323  0.47615933  1
  F  F3  1  0.75845355  0.61127677  0.97615933  1
  F  F4  1  0.20712279  0.84033317  0.09775887  1
  F  F5  1  0.29287721  0.65966683  0.59775887  1
  F  F6  1  0.85762995  0.31427481  0.65747887  1
  F  F7  1  0.64237005  0.18572519  0.15747887  1
  F  F8  1  0.14237005  0.68572519  0.34252113  1
  F  F9  1  0.35762995  0.81427481  0.84252113  1
  F  F10  1  0.83866228  0.75057716  0.73434525  1
  F  F11  1  0.66133772  0.74942284  0.23434525  1
  F  F12  1  0.16133772  0.24942284  0.26565475  1
  F  F13  1  0.33866228  0.25057716  0.76565475  1
  F  F14  1  0.70712279  0.34033317  0.40224113  1
  F  F15  1  0.79287721  0.15966683  0.90224113  1
  Au  Au16  1  0.30955756  0.96359432  0.67995839  1
  Au  Au17  1  0.19044244  0.53640568  0.17995839  1
  Au  Au18  1  0.69044244  0.03640568  0.32004161  1
  Au  Au19  1  0.80955756  0.46359432  0.82004161  1
  Au  Au20  1  0.50000000  0.00000000  0.00000000  1
  Au  Au21  1  0.00000000  0.50000000  0.50000000  1
