# generated using pymatgen
data_Sm3Rh2
_symmetry_space_group_name_H-M   'P 1'
_cell_length_a   7.53739969
_cell_length_b   7.53739968
_cell_length_c   7.53739968
_cell_angle_alpha   71.46316432
_cell_angle_beta   71.46316439
_cell_angle_gamma   71.46316437
_symmetry_Int_Tables_number   1
_chemical_formula_structural   Sm3Rh2
_chemical_formula_sum   'Sm9 Rh6'
_cell_volume   373.57042702
_cell_formula_units_Z   3
loop_
 _symmetry_equiv_pos_site_id
 _symmetry_equiv_pos_as_xyz
  1  'x, y, z'
loop_
 _atom_site_type_symbol
 _atom_site_label
 _atom_site_symmetry_multiplicity
 _atom_site_fract_x
 _atom_site_fract_y
 _atom_site_fract_z
 _atom_site_occupancy
  Rh  Rh0  1  0.54448293  0.90967561  0.33614942  1
  Rh  Rh1  1  0.90967561  0.33614942  0.54448293  1
  Rh  Rh2  1  0.33614942  0.54448293  0.90967561  1
  Rh  Rh3  1  0.45551707  0.09032439  0.66385058  1
  Rh  Rh4  1  0.09032439  0.66385058  0.45551707  1
  Rh  Rh5  1  0.66385058  0.45551707  0.09032439  1
  Sm  Sm6  1  0.66177868  0.16564451  0.89193121  1
  Sm  Sm7  1  0.89193121  0.66177868  0.16564451  1
  Sm  Sm8  1  0.16564451  0.89193121  0.66177868  1
  Sm  Sm9  1  0.83435549  0.10806879  0.33822132  1
  Sm  Sm10  1  0.10806879  0.33822132  0.83435549  1
  Sm  Sm11  1  0.33822132  0.83435549  0.10806879  1
  Sm  Sm12  1  0.70310996  0.70310996  0.70310996  1
  Sm  Sm13  1  0.29689004  0.29689004  0.29689004  1
  Sm  Sm14  1  0.50000000  0.50000000  0.50000000  1
