# generated using pymatgen
data_NdH3
_symmetry_space_group_name_H-M   'P 1'
_cell_length_a   6.66663854
_cell_length_b   6.66662799
_cell_length_c   6.91380759
_cell_angle_alpha   89.99982768
_cell_angle_beta   90.00001812
_cell_angle_gamma   119.99967922
_symmetry_Int_Tables_number   1
_chemical_formula_structural   NdH3
_chemical_formula_sum   'Nd6 H18'
_cell_volume   266.11077185
_cell_formula_units_Z   6
loop_
 _symmetry_equiv_pos_site_id
 _symmetry_equiv_pos_as_xyz
  1  'x, y, z'
loop_
 _atom_site_type_symbol
 _atom_site_label
 _atom_site_symmetry_multiplicity
 _atom_site_fract_x
 _atom_site_fract_y
 _atom_site_fract_z
 _atom_site_occupancy
  Nd  Nd0  1  0.66381588  0.00000015  0.25000264  1
  Nd  Nd1  1  0.00000003  0.66381693  0.24999667  1
  Nd  Nd2  1  0.33618467  0.33618357  0.24999885  1
  Nd  Nd3  1  0.66381622  0.66381221  0.75000145  1
  Nd  Nd4  1  -0.00000113  0.33618391  0.74999814  1
  Nd  Nd5  1  0.33618185  0.00000114  0.74999992  1
  H  H6  1  0.67796817  0.65300053  0.09427750  1
  H  H7  1  0.34699586  0.02496442  0.09427805  1
  H  H8  1  0.97503308  0.32203107  0.09427903  1
  H  H9  1  0.33333357  0.66666635  0.17978677  1
  H  H10  1  -0.00000085  -0.00000082  0.24999988  1
  H  H11  1  0.66666627  0.33333434  0.32021194  1
  H  H12  1  0.02496351  0.34699734  0.40572310  1
  H  H13  1  0.32203207  0.97503472  0.40572355  1
  H  H14  1  0.65300511  0.67796928  0.40572275  1
  H  H15  1  0.67797104  0.02496699  0.59427603  1
  H  H16  1  0.34699366  0.32203029  0.59427745  1
  H  H17  1  0.97503521  0.65300140  0.59427821  1
  H  H18  1  0.33333687  0.66666926  0.67978898  1
  H  H19  1  0.00000203  0.99999794  0.75000012  1
  H  H20  1  0.66666852  0.33333509  0.82021247  1
  H  H21  1  0.02496548  0.67796794  0.90572294  1
  H  H22  1  0.65300653  0.97503720  0.90572109  1
  H  H23  1  0.32203133  0.34699771  0.90572247  1
