# generated using pymatgen
data_RbEr2Cu3S5
_symmetry_space_group_name_H-M   'P 1'
_cell_length_a   3.93311573
_cell_length_b   7.22942224
_cell_length_c   16.43336022
_cell_angle_alpha   90.00000000
_cell_angle_beta   90.00000000
_cell_angle_gamma   105.78458997
_symmetry_Int_Tables_number   1
_chemical_formula_structural   RbEr2Cu3S5
_chemical_formula_sum   'Rb2 Er4 Cu6 S10'
_cell_volume   449.64855400
_cell_formula_units_Z   2
loop_
 _symmetry_equiv_pos_site_id
 _symmetry_equiv_pos_as_xyz
  1  'x, y, z'
loop_
 _atom_site_type_symbol
 _atom_site_label
 _atom_site_symmetry_multiplicity
 _atom_site_fract_x
 _atom_site_fract_y
 _atom_site_fract_z
 _atom_site_occupancy
  S  S0  1  0.33166050  0.66332100  0.56939934  1
  S  S1  1  0.66833950  0.33667900  0.43060066  1
  S  S2  1  0.66833950  0.33667900  0.06939934  1
  S  S3  1  0.33166050  0.66332100  0.93060066  1
  S  S4  1  0.26182545  0.52365090  0.25000000  1
  S  S5  1  0.73817455  0.47634910  0.75000000  1
  S  S6  1  0.93809915  0.87619831  0.11330238  1
  S  S7  1  0.93809915  0.87619831  0.38669762  1
  S  S8  1  0.06190085  0.12380169  0.88669762  1
  S  S9  1  0.06190085  0.12380169  0.61330238  1
  Cu  Cu10  1  0.91601223  0.83202446  0.96344432  1
  Cu  Cu11  1  0.08398777  0.16797554  0.03655568  1
  Cu  Cu12  1  0.08398777  0.16797554  0.46344432  1
  Cu  Cu13  1  0.15471742  0.30943484  0.75000000  1
  Cu  Cu14  1  0.84528258  0.69056516  0.25000000  1
  Cu  Cu15  1  0.91601223  0.83202446  0.53655568  1
  Rb  Rb16  1  0.43452294  0.86904588  0.75000000  1
  Rb  Rb17  1  0.56547706  0.13095412  0.25000000  1
  Er  Er18  1  0.69208215  0.38416430  0.59285695  1
  Er  Er19  1  0.30791785  0.61583570  0.40714305  1
  Er  Er20  1  0.69208215  0.38416430  0.90714305  1
  Er  Er21  1  0.30791785  0.61583570  0.09285695  1
