# generated using pymatgen
data_Mg2GeS4
_symmetry_space_group_name_H-M   'P 1'
_cell_length_a   6.05960271
_cell_length_b   7.52192173
_cell_length_c   12.93075969
_cell_angle_alpha   90.00000000
_cell_angle_beta   90.00000000
_cell_angle_gamma   90.00000000
_symmetry_Int_Tables_number   1
_chemical_formula_structural   Mg2GeS4
_chemical_formula_sum   'Mg8 Ge4 S16'
_cell_volume   589.38218144
_cell_formula_units_Z   4
loop_
 _symmetry_equiv_pos_site_id
 _symmetry_equiv_pos_as_xyz
  1  'x, y, z'
loop_
 _atom_site_type_symbol
 _atom_site_label
 _atom_site_symmetry_multiplicity
 _atom_site_fract_x
 _atom_site_fract_y
 _atom_site_fract_z
 _atom_site_occupancy
  Mg  Mg0  1  0.00000000  0.00000000  0.00000000  1
  Mg  Mg1  1  0.50000000  0.00000000  0.50000000  1
  Mg  Mg2  1  0.00000000  0.50000000  0.00000000  1
  Mg  Mg3  1  0.50000000  0.50000000  0.50000000  1
  Mg  Mg4  1  0.49722106  0.75000000  0.76937898  1
  Mg  Mg5  1  0.99722106  0.25000000  0.73062102  1
  Mg  Mg6  1  0.50277894  0.25000000  0.23062102  1
  Mg  Mg7  1  0.00277894  0.75000000  0.26937898  1
  S  S8  1  0.25529738  0.25000000  0.06836451  1
  S  S9  1  0.74470262  0.75000000  0.93163549  1
  S  S10  1  0.24470262  0.25000000  0.56836451  1
  S  S11  1  0.25123456  0.48210761  0.33291062  1
  S  S12  1  0.74876544  0.98210761  0.66708938  1
  S  S13  1  0.24876544  0.01789239  0.83291062  1
  S  S14  1  0.74876544  0.51789239  0.66708938  1
  S  S15  1  0.75123456  0.51789239  0.16708938  1
  S  S16  1  0.25123456  0.01789239  0.33291062  1
  S  S17  1  0.75123456  0.98210761  0.16708938  1
  S  S18  1  0.22134395  0.75000000  0.09300331  1
  S  S19  1  0.24876544  0.48210761  0.83291062  1
  S  S20  1  0.27865605  0.75000000  0.59300331  1
  S  S21  1  0.77865605  0.25000000  0.90699669  1
  S  S22  1  0.72134395  0.25000000  0.40699669  1
  S  S23  1  0.75529738  0.75000000  0.43163549  1
  Ge  Ge24  1  0.91379661  0.75000000  0.58937914  1
  Ge  Ge25  1  0.58620339  0.75000000  0.08937914  1
  Ge  Ge26  1  0.08620339  0.25000000  0.41062086  1
  Ge  Ge27  1  0.41379661  0.25000000  0.91062086  1
