# generated using pymatgen
data_K3NbSe4
_symmetry_space_group_name_H-M   'P 1'
_cell_length_a   9.77072768
_cell_length_b   9.90930182
_cell_length_c   11.34190524
_cell_angle_alpha   90.00000000
_cell_angle_beta   90.00000000
_cell_angle_gamma   90.00000000
_symmetry_Int_Tables_number   1
_chemical_formula_structural   K3NbSe4
_chemical_formula_sum   'K12 Nb4 Se16'
_cell_volume   1098.13562327
_cell_formula_units_Z   4
loop_
 _symmetry_equiv_pos_site_id
 _symmetry_equiv_pos_as_xyz
  1  'x, y, z'
loop_
 _atom_site_type_symbol
 _atom_site_label
 _atom_site_symmetry_multiplicity
 _atom_site_fract_x
 _atom_site_fract_y
 _atom_site_fract_z
 _atom_site_occupancy
  K  K0  1  0.37212884  0.58320363  0.25000000  1
  K  K1  1  0.12787116  0.08320363  0.75000000  1
  K  K2  1  0.62787116  0.41679637  0.75000000  1
  K  K3  1  0.87212884  0.91679637  0.25000000  1
  K  K4  1  0.94080361  0.70830718  0.54812121  1
  K  K5  1  0.44080361  0.79169282  0.95187879  1
  K  K6  1  0.55919639  0.20830718  0.45187879  1
  K  K7  1  0.05919639  0.29169282  0.04812121  1
  K  K8  1  0.05919639  0.29169282  0.45187879  1
  K  K9  1  0.55919639  0.20830718  0.04812121  1
  K  K10  1  0.44080361  0.79169282  0.54812121  1
  K  K11  1  0.94080361  0.70830718  0.95187879  1
  Se  Se12  1  0.33527822  0.44761800  0.57370536  1
  Se  Se13  1  0.66472178  0.55238200  0.07370536  1
  Se  Se14  1  0.83527822  0.05238200  0.92629464  1
  Se  Se15  1  0.16472178  0.94761800  0.42629464  1
  Se  Se16  1  0.01324917  0.58719227  0.25000000  1
  Se  Se17  1  0.51324917  0.91280773  0.25000000  1
  Se  Se18  1  0.48675083  0.08719227  0.75000000  1
  Se  Se19  1  0.98675083  0.41280773  0.75000000  1
  Se  Se20  1  0.81081262  0.24289025  0.25000000  1
  Se  Se21  1  0.31081262  0.25710975  0.25000000  1
  Se  Se22  1  0.68918738  0.74289025  0.75000000  1
  Se  Se23  1  0.18918738  0.75710975  0.75000000  1
  Se  Se24  1  0.66472178  0.55238200  0.42629464  1
  Se  Se25  1  0.16472178  0.94761800  0.07370536  1
  Se  Se26  1  0.83527822  0.05238200  0.57370536  1
  Se  Se27  1  0.33527822  0.44761800  0.92629464  1
  Nb  Nb28  1  0.21312988  0.51362754  0.75000000  1
  Nb  Nb29  1  0.71312988  0.98637246  0.75000000  1
  Nb  Nb30  1  0.28687012  0.01362754  0.25000000  1
  Nb  Nb31  1  0.78687012  0.48637246  0.25000000  1
