# generated using pymatgen
data_LiFeF5
_symmetry_space_group_name_H-M   'P 1'
_cell_length_a   16.01963921
_cell_length_b   5.58008801
_cell_length_c   4.77027860
_cell_angle_alpha   90.00000000
_cell_angle_beta   90.00000000
_cell_angle_gamma   90.00000000
_symmetry_Int_Tables_number   1
_chemical_formula_structural   LiFeF5
_chemical_formula_sum   'Li4 Fe4 F20'
_cell_volume   426.41995850
_cell_formula_units_Z   4
loop_
 _symmetry_equiv_pos_site_id
 _symmetry_equiv_pos_as_xyz
  1  'x, y, z'
loop_
 _atom_site_type_symbol
 _atom_site_label
 _atom_site_symmetry_multiplicity
 _atom_site_fract_x
 _atom_site_fract_y
 _atom_site_fract_z
 _atom_site_occupancy
  Li  Li0  1  0.07489725  0.25000000  0.08742218  1
  Li  Li1  1  0.42510275  0.75000000  0.58742218  1
  Li  Li2  1  0.57489725  0.25000000  0.41257782  1
  Li  Li3  1  0.92510275  0.75000000  0.91257782  1
  Fe  Fe4  1  0.13449923  0.75000000  0.53869022  1
  Fe  Fe5  1  0.36550077  0.25000000  0.03869022  1
  Fe  Fe6  1  0.63449923  0.75000000  0.96130978  1
  Fe  Fe7  1  0.86550077  0.25000000  0.46130978  1
  F  F8  1  0.03420869  0.75000000  0.74096591  1
  F  F9  1  0.11044362  0.52851123  0.27336114  1
  F  F10  1  0.11044362  0.97148877  0.27336114  1
  F  F11  1  0.18536599  0.52112543  0.73339261  1
  F  F12  1  0.18536599  0.97887457  0.73339261  1
  F  F13  1  0.31463401  0.02112543  0.23339261  1
  F  F14  1  0.31463401  0.47887457  0.23339261  1
  F  F15  1  0.38955638  0.02851123  0.77336114  1
  F  F16  1  0.38955638  0.47148877  0.77336114  1
  F  F17  1  0.46579131  0.25000000  0.24096591  1
  F  F18  1  0.53420869  0.75000000  0.75903409  1
  F  F19  1  0.61044362  0.52851123  0.22663886  1
  F  F20  1  0.61044362  0.97148877  0.22663886  1
  F  F21  1  0.68536599  0.52112543  0.76660739  1
  F  F22  1  0.68536599  0.97887457  0.76660739  1
  F  F23  1  0.81463401  0.02112543  0.26660739  1
  F  F24  1  0.81463401  0.47887457  0.26660739  1
  F  F25  1  0.88955638  0.02851123  0.72663886  1
  F  F26  1  0.88955638  0.47148877  0.72663886  1
  F  F27  1  0.96579131  0.25000000  0.25903409  1
