# generated using pymatgen
data_Ca5Sb3
_symmetry_space_group_name_H-M   'P 1'
_cell_length_a   8.31598274
_cell_length_b   9.58859709
_cell_length_c   12.64362028
_cell_angle_alpha   90.00000000
_cell_angle_beta   90.00000000
_cell_angle_gamma   90.00000000
_symmetry_Int_Tables_number   1
_chemical_formula_structural   Ca5Sb3
_chemical_formula_sum   'Ca20 Sb12'
_cell_volume   1008.18467996
_cell_formula_units_Z   4
loop_
 _symmetry_equiv_pos_site_id
 _symmetry_equiv_pos_as_xyz
  1  'x, y, z'
loop_
 _atom_site_type_symbol
 _atom_site_label
 _atom_site_symmetry_multiplicity
 _atom_site_fract_x
 _atom_site_fract_y
 _atom_site_fract_z
 _atom_site_occupancy
  Ca  Ca0  1  0.30840163  0.95829833  0.92190537  1
  Ca  Ca1  1  0.80840163  0.04170167  0.57809463  1
  Ca  Ca2  1  0.69159837  0.45829833  0.07809463  1
  Ca  Ca3  1  0.19159837  0.54170167  0.42190537  1
  Ca  Ca4  1  0.69159837  0.04170167  0.07809463  1
  Ca  Ca5  1  0.19159837  0.95829833  0.42190537  1
  Ca  Ca6  1  0.30840163  0.54170167  0.92190537  1
  Ca  Ca7  1  0.80840163  0.45829833  0.57809463  1
  Ca  Ca8  1  0.68089289  0.75000000  0.77236546  1
  Ca  Ca9  1  0.18089289  0.25000000  0.72763454  1
  Ca  Ca10  1  0.31910711  0.25000000  0.22763454  1
  Ca  Ca11  1  0.81910711  0.75000000  0.27236546  1
  Ca  Ca12  1  0.15367307  0.75000000  0.70709691  1
  Ca  Ca13  1  0.65367307  0.25000000  0.79290309  1
  Ca  Ca14  1  0.84632693  0.25000000  0.29290309  1
  Ca  Ca15  1  0.34632693  0.75000000  0.20709691  1
  Ca  Ca16  1  0.53558201  0.75000000  0.49532522  1
  Ca  Ca17  1  0.03558201  0.25000000  0.00467478  1
  Ca  Ca18  1  0.46441799  0.25000000  0.50467478  1
  Ca  Ca19  1  0.96441799  0.75000000  0.99532522  1
  Sb  Sb20  1  0.93834931  0.01167277  0.82899536  1
  Sb  Sb21  1  0.43834931  0.98832723  0.67100464  1
  Sb  Sb22  1  0.06165069  0.51167277  0.17100464  1
  Sb  Sb23  1  0.56165069  0.48832723  0.32899536  1
  Sb  Sb24  1  0.06165069  0.98832723  0.17100464  1
  Sb  Sb25  1  0.56165069  0.01167277  0.32899536  1
  Sb  Sb26  1  0.93834931  0.48832723  0.82899536  1
  Sb  Sb27  1  0.43834931  0.51167277  0.67100464  1
  Sb  Sb28  1  0.57684507  0.75000000  0.01537733  1
  Sb  Sb29  1  0.07684507  0.25000000  0.48462267  1
  Sb  Sb30  1  0.42315493  0.25000000  0.98462267  1
  Sb  Sb31  1  0.92315493  0.75000000  0.51537733  1
