# generated using pymatgen
data_Th2NiB10
_symmetry_space_group_name_H-M   'P 1'
_cell_length_a   4.17777994
_cell_length_b   5.64828908
_cell_length_c   11.20446825
_cell_angle_alpha   90.00000000
_cell_angle_beta   90.00000000
_cell_angle_gamma   90.00000000
_symmetry_Int_Tables_number   1
_chemical_formula_structural   Th2NiB10
_chemical_formula_sum   'Th4 Ni2 B20'
_cell_volume   264.39529739
_cell_formula_units_Z   2
loop_
 _symmetry_equiv_pos_site_id
 _symmetry_equiv_pos_as_xyz
  1  'x, y, z'
loop_
 _atom_site_type_symbol
 _atom_site_label
 _atom_site_symmetry_multiplicity
 _atom_site_fract_x
 _atom_site_fract_y
 _atom_site_fract_z
 _atom_site_occupancy
  B  B0  1  0.00000000  0.12458564  0.54054433  1
  B  B1  1  0.00000000  0.87541436  0.45945567  1
  B  B2  1  0.00000000  0.62458564  0.95945567  1
  B  B3  1  0.00000000  0.37541436  0.04054433  1
  B  B4  1  0.00000000  0.15238025  0.69735745  1
  B  B5  1  0.00000000  0.84761975  0.30264255  1
  B  B6  1  0.30019189  0.20206585  0.11391779  1
  B  B7  1  0.30019189  0.79793415  0.88608221  1
  B  B8  1  0.69980811  0.70206585  0.38608221  1
  B  B9  1  0.69980811  0.29793415  0.61391779  1
  B  B10  1  0.69980811  0.79793415  0.88608221  1
  B  B11  1  0.69980811  0.20206585  0.11391779  1
  B  B12  1  0.30019189  0.29793415  0.61391779  1
  B  B13  1  0.30019189  0.70206585  0.38608221  1
  B  B14  1  0.00000000  0.03667290  0.18879304  1
  B  B15  1  0.00000000  0.96332710  0.81120696  1
  B  B16  1  0.00000000  0.53667290  0.31120696  1
  B  B17  1  0.00000000  0.46332710  0.68879304  1
  B  B18  1  0.00000000  0.34761975  0.19735745  1
  B  B19  1  0.00000000  0.65238025  0.80264255  1
  Ni  Ni20  1  0.00000000  0.50000000  0.50000000  1
  Ni  Ni21  1  0.00000000  0.00000000  0.00000000  1
  Th  Th22  1  0.50000000  0.30648231  0.86331591  1
  Th  Th23  1  0.50000000  0.69351769  0.13668409  1
  Th  Th24  1  0.50000000  0.80648231  0.63668409  1
  Th  Th25  1  0.50000000  0.19351769  0.36331591  1
