# generated using pymatgen
data_RbNd(PO3)4
_symmetry_space_group_name_H-M   'P 1'
_cell_length_a   7.68878777
_cell_length_b   7.68878777
_cell_length_c   10.82154867
_cell_angle_alpha   100.90466311
_cell_angle_beta   100.90466309
_cell_angle_gamma   116.72402946
_symmetry_Int_Tables_number   1
_chemical_formula_structural   RbNd(PO3)4
_chemical_formula_sum   'Rb2 Nd2 P8 O24'
_cell_volume   532.95358440
_cell_formula_units_Z   2
loop_
 _symmetry_equiv_pos_site_id
 _symmetry_equiv_pos_as_xyz
  1  'x, y, z'
loop_
 _atom_site_type_symbol
 _atom_site_label
 _atom_site_symmetry_multiplicity
 _atom_site_fract_x
 _atom_site_fract_y
 _atom_site_fract_z
 _atom_site_occupancy
  O  O0  1  0.83592087  0.35919243  0.09061903  1
  O  O1  1  0.14080757  0.66407913  0.40938097  1
  O  O2  1  0.16407913  0.64080757  0.90938097  1
  O  O3  1  0.85919243  0.33592087  0.59061903  1
  O  O4  1  0.25153783  0.66969557  0.15933142  1
  O  O5  1  0.83030443  0.24846217  0.34066858  1
  O  O6  1  0.74846217  0.33030443  0.84066858  1
  O  O7  1  0.16969557  0.75153783  0.65933142  1
  O  O8  1  0.35759917  0.98881809  0.08977913  1
  O  O9  1  0.51118191  0.14240083  0.41022087  1
  O  O10  1  0.64240083  0.01118191  0.91022087  1
  O  O11  1  0.48881809  0.85759917  0.58977913  1
  O  O12  1  0.68912651  0.70498978  0.88812350  1
  O  O13  1  0.79501022  0.81087349  0.61187650  1
  O  O14  1  0.31087349  0.29501022  0.11187650  1
  O  O15  1  0.20498978  0.18912651  0.38812350  1
  O  O16  1  0.10078668  0.98583836  0.89559859  1
  O  O17  1  0.51416164  0.39921332  0.60440141  1
  O  O18  1  0.89921332  0.01416164  0.10440141  1
  O  O19  1  0.48583836  0.60078668  0.39559859  1
  O  O20  1  0.47261978  0.22139779  0.94492747  1
  O  O21  1  0.27860221  0.02738022  0.55507253  1
  O  O22  1  0.52738022  0.77860221  0.05507253  1
  O  O23  1  0.72139779  0.97261978  0.44492747  1
  P  P24  1  0.74804558  0.19451127  0.45050250  1
  P  P25  1  0.30548873  0.75195442  0.04949750  1
  P  P26  1  0.25195442  0.80548873  0.54949750  1
  P  P27  1  0.69451127  0.24804558  0.95050250  1
  P  P28  1  0.61932582  0.79323080  0.51101611  1
  P  P29  1  0.70676920  0.88067418  0.98898389  1
  P  P30  1  0.38067418  0.20676920  0.48898389  1
  P  P31  1  0.29323080  0.11932582  0.01101611  1
  Rb  Rb32  1  0.80748888  0.69251112  0.25000000  1
  Rb  Rb33  1  0.19251112  0.30748888  0.75000000  1
  Nd  Nd34  1  0.12279775  0.37720225  0.25000000  1
  Nd  Nd35  1  0.87720225  0.62279775  0.75000000  1
