# generated using pymatgen
data_AgRuF7
_symmetry_space_group_name_H-M   'P 1'
_cell_length_a   5.66735865
_cell_length_b   8.61592916
_cell_length_c   12.51127788
_cell_angle_alpha   108.48785443
_cell_angle_beta   90.00000000
_cell_angle_gamma   90.00000000
_symmetry_Int_Tables_number   1
_chemical_formula_structural   AgRuF7
_chemical_formula_sum   'Ag4 Ru4 F28'
_cell_volume   579.39115768
_cell_formula_units_Z   4
loop_
 _symmetry_equiv_pos_site_id
 _symmetry_equiv_pos_as_xyz
  1  'x, y, z'
loop_
 _atom_site_type_symbol
 _atom_site_label
 _atom_site_symmetry_multiplicity
 _atom_site_fract_x
 _atom_site_fract_y
 _atom_site_fract_z
 _atom_site_occupancy
  F  F0  1  0.41885680  0.27894660  0.26014956  1
  F  F1  1  0.91885680  0.22105340  0.23985044  1
  F  F2  1  0.58114320  0.72105340  0.73985044  1
  F  F3  1  0.08114320  0.77894660  0.76014956  1
  F  F4  1  0.61719409  0.13282793  0.44731490  1
  F  F5  1  0.11719409  0.36717207  0.05268510  1
  F  F6  1  0.38280591  0.86717207  0.55268510  1
  F  F7  1  0.88280591  0.63282793  0.94731490  1
  F  F8  1  0.53718714  0.92735367  0.18915650  1
  F  F9  1  0.03718714  0.57264633  0.31084350  1
  F  F10  1  0.46281286  0.07264633  0.81084350  1
  F  F11  1  0.96281286  0.42735367  0.68915650  1
  F  F12  1  -0.00105395  0.84658203  0.15001689  1
  F  F13  1  0.49894605  0.65341797  0.34998311  1
  F  F14  1  1.00105395  0.15341797  0.84998311  1
  F  F15  1  0.50105395  0.34658203  0.65001689  1
  F  F16  1  0.75051424  0.94525172  0.99895591  1
  F  F17  1  0.25051424  0.55474828  0.50104409  1
  F  F18  1  0.24948576  0.05474828  0.00104409  1
  F  F19  1  0.74948576  0.44525172  0.49895591  1
  F  F20  1  0.67521300  0.61433767  0.13495062  1
  F  F21  1  0.17521300  0.88566233  0.36504938  1
  F  F22  1  0.32478700  0.38566233  0.86504938  1
  F  F23  1  0.82478700  0.11433767  0.63495062  1
  F  F24  1  0.42595653  0.71451670  0.98609418  1
  F  F25  1  0.92595653  0.78548330  0.51390582  1
  F  F26  1  0.57404347  0.28548330  0.01390582  1
  F  F27  1  0.07404347  0.21451670  0.48609418  1
  Ru  Ru28  1  0.79084100  0.27513583  0.56381534  1
  Ru  Ru29  1  0.29084100  0.22486417  0.93618466  1
  Ru  Ru30  1  0.20915900  0.72486417  0.43618466  1
  Ru  Ru31  1  0.70915900  0.77513583  0.06381534  1
  Ag  Ag32  1  0.71027780  0.42930337  0.28980188  1
  Ag  Ag33  1  0.21027780  0.07069663  0.21019812  1
  Ag  Ag34  1  0.28972220  0.57069663  0.71019812  1
  Ag  Ag35  1  0.78972220  0.92930337  0.78980188  1
