# generated using pymatgen
data_SrGeO3
_symmetry_space_group_name_H-M   'P 1'
_cell_length_a   7.35544125
_cell_length_b   7.35544124
_cell_length_c   11.37107581
_cell_angle_alpha   71.57708747
_cell_angle_beta   71.57708749
_cell_angle_gamma   60.13940742
_symmetry_Int_Tables_number   1
_chemical_formula_structural   SrGeO3
_chemical_formula_sum   'Sr6 Ge6 O18'
_cell_volume   496.68287859
_cell_formula_units_Z   6
loop_
 _symmetry_equiv_pos_site_id
 _symmetry_equiv_pos_as_xyz
  1  'x, y, z'
loop_
 _atom_site_type_symbol
 _atom_site_label
 _atom_site_symmetry_multiplicity
 _atom_site_fract_x
 _atom_site_fract_y
 _atom_site_fract_z
 _atom_site_occupancy
  O  O0  1  0.65107076  0.34892924  0.25000000  1
  O  O1  1  0.34892924  0.65107076  0.75000000  1
  O  O2  1  0.11279665  0.98856804  0.10076973  1
  O  O3  1  0.01143196  0.88720335  0.39923027  1
  O  O4  1  0.88720335  0.01143196  0.89923027  1
  O  O5  1  0.98856804  0.11279665  0.60076973  1
  O  O6  1  0.41727605  0.81599479  0.25150297  1
  O  O7  1  0.18400521  0.58272395  0.24849703  1
  O  O8  1  0.58272395  0.18400521  0.74849703  1
  O  O9  1  0.81599479  0.41727605  0.75150297  1
  O  O10  1  0.82301296  0.63127402  0.10509558  1
  O  O11  1  0.36872598  0.17698704  0.39490442  1
  O  O12  1  0.53169991  0.71882478  0.90483878  1
  O  O13  1  0.28117522  0.46830009  0.59516122  1
  O  O14  1  0.46830009  0.28117522  0.09516122  1
  O  O15  1  0.71882478  0.53169991  0.40483878  1
  O  O16  1  0.63127402  0.82301296  0.60509558  1
  O  O17  1  0.17698704  0.36872598  0.89490442  1
  Ge  Ge18  1  0.15733698  0.84266302  0.25000000  1
  Ge  Ge19  1  0.84266302  0.15733698  0.75000000  1
  Ge  Ge20  1  0.67690073  0.58180315  0.25367515  1
  Ge  Ge21  1  0.41819685  0.32309927  0.24632485  1
  Ge  Ge22  1  0.32309927  0.41819685  0.74632485  1
  Ge  Ge23  1  0.58180315  0.67690073  0.75367515  1
  Sr  Sr24  1  0.00000000  0.50000000  0.50000000  1
  Sr  Sr25  1  0.50000000  0.00000000  0.00000000  1
  Sr  Sr26  1  0.84417724  0.32852400  0.00068349  1
  Sr  Sr27  1  0.67147600  0.15582276  0.49931651  1
  Sr  Sr28  1  0.15582276  0.67147600  0.99931651  1
  Sr  Sr29  1  0.32852400  0.84417724  0.50068349  1
