# generated using pymatgen
data_Rb5SiAs3
_symmetry_space_group_name_H-M   'P 1'
_cell_length_a   5.72284846
_cell_length_b   14.42962189
_cell_length_c   15.87823483
_cell_angle_alpha   90.00000000
_cell_angle_beta   90.00000000
_cell_angle_gamma   90.00000000
_symmetry_Int_Tables_number   1
_chemical_formula_structural   Rb5SiAs3
_chemical_formula_sum   'Rb20 Si4 As12'
_cell_volume   1311.20144070
_cell_formula_units_Z   4
loop_
 _symmetry_equiv_pos_site_id
 _symmetry_equiv_pos_as_xyz
  1  'x, y, z'
loop_
 _atom_site_type_symbol
 _atom_site_label
 _atom_site_symmetry_multiplicity
 _atom_site_fract_x
 _atom_site_fract_y
 _atom_site_fract_z
 _atom_site_occupancy
  Si  Si0  1  0.75000000  0.73881290  0.42452566  1
  Si  Si1  1  0.25000000  0.26118710  0.57547434  1
  Si  Si2  1  0.75000000  0.23881290  0.07547434  1
  Si  Si3  1  0.25000000  0.76118710  0.92452566  1
  As  As4  1  0.25000000  0.81262818  0.06313454  1
  As  As5  1  0.75000000  0.18737182  0.93686546  1
  As  As6  1  0.25000000  0.31262818  0.43686546  1
  As  As7  1  0.75000000  0.68737182  0.56313454  1
  As  As8  1  0.25000000  0.60185705  0.90309073  1
  As  As9  1  0.75000000  0.39814295  0.09690927  1
  As  As10  1  0.25000000  0.10185705  0.59690927  1
  As  As11  1  0.75000000  0.89814295  0.40309073  1
  As  As12  1  0.75000000  0.63499610  0.31183847  1
  As  As13  1  0.25000000  0.36500390  0.68816153  1
  As  As14  1  0.75000000  0.13499610  0.18816153  1
  As  As15  1  0.25000000  0.86500390  0.81183847  1
  Rb  Rb16  1  0.75000000  0.94764596  0.64739749  1
  Rb  Rb17  1  0.25000000  0.05235404  0.35260251  1
  Rb  Rb18  1  0.75000000  0.44764596  0.85260251  1
  Rb  Rb19  1  0.25000000  0.55235404  0.14739749  1
  Rb  Rb20  1  0.25000000  0.77670729  0.28533069  1
  Rb  Rb21  1  0.75000000  0.22329271  0.71466931  1
  Rb  Rb22  1  0.25000000  0.27670729  0.21466931  1
  Rb  Rb23  1  0.75000000  0.72329271  0.78533069  1
  Rb  Rb24  1  0.25000000  0.35034034  0.96142534  1
  Rb  Rb25  1  0.75000000  0.64965966  0.03857466  1
  Rb  Rb26  1  0.25000000  0.85034034  0.53857466  1
  Rb  Rb27  1  0.75000000  0.14965966  0.46142534  1
  Rb  Rb28  1  0.25000000  0.11276295  0.81890136  1
  Rb  Rb29  1  0.75000000  0.88723705  0.18109864  1
  Rb  Rb30  1  0.25000000  0.61276295  0.68109864  1
  Rb  Rb31  1  0.75000000  0.38723705  0.31890136  1
  Rb  Rb32  1  0.25000000  0.06710811  0.05805371  1
  Rb  Rb33  1  0.75000000  0.93289189  0.94194629  1
  Rb  Rb34  1  0.25000000  0.56710811  0.44194629  1
  Rb  Rb35  1  0.75000000  0.43289189  0.55805371  1
