# generated using pymatgen
data_Na4PbO4
_symmetry_space_group_name_H-M   'P 1'
_cell_length_a   6.03318458
_cell_length_b   6.02939216
_cell_length_c   9.10142480
_cell_angle_alpha   70.99816541
_cell_angle_beta   82.83317199
_cell_angle_gamma   68.93518642
_symmetry_Int_Tables_number   1
_chemical_formula_structural   Na4PbO4
_chemical_formula_sum   'Na8 Pb2 O8'
_cell_volume   292.10633084
_cell_formula_units_Z   2
loop_
 _symmetry_equiv_pos_site_id
 _symmetry_equiv_pos_as_xyz
  1  'x, y, z'
loop_
 _atom_site_type_symbol
 _atom_site_label
 _atom_site_symmetry_multiplicity
 _atom_site_fract_x
 _atom_site_fract_y
 _atom_site_fract_z
 _atom_site_occupancy
  O  O0  1  0.48876595  0.88117526  0.19487007  1
  O  O1  1  0.51123405  0.11882474  0.80512993  1
  O  O2  1  0.51833488  0.68665694  0.62355529  1
  O  O3  1  0.48166512  0.31334306  0.37644471  1
  O  O4  1  0.00978381  0.80022561  0.38378957  1
  O  O5  1  0.99021619  0.19977439  0.61621043  1
  O  O6  1  0.15744435  0.65171685  0.02564056  1
  O  O7  1  0.84255565  0.34828315  0.97435944  1
  Na  Na8  1  0.24804963  0.25202651  0.00535422  1
  Na  Na9  1  0.75195037  0.74797349  0.99464578  1
  Na  Na10  1  0.74516764  0.56399852  0.40963885  1
  Na  Na11  1  0.25483236  0.43600148  0.59036115  1
  Na  Na12  1  0.73656078  0.98250090  0.56757556  1
  Na  Na13  1  0.26343922  0.01749910  0.43242444  1
  Na  Na14  1  0.72153453  0.11254569  0.20495121  1
  Na  Na15  1  0.27846547  0.88745431  0.79504879  1
  Pb  Pb16  1  0.27283454  0.65953288  0.22830057  1
  Pb  Pb17  1  0.72716546  0.34046712  0.77169943  1
