# generated using pymatgen
data_LiFeF4
_symmetry_space_group_name_H-M   'P 1'
_cell_length_a   5.32939019
_cell_length_b   18.32823193
_cell_length_c   7.36962869
_cell_angle_alpha   90.00000000
_cell_angle_beta   91.97112099
_cell_angle_gamma   90.00000000
_symmetry_Int_Tables_number   1
_chemical_formula_structural   LiFeF4
_chemical_formula_sum   'Li8 Fe8 F32'
_cell_volume   719.42685446
_cell_formula_units_Z   8
loop_
 _symmetry_equiv_pos_site_id
 _symmetry_equiv_pos_as_xyz
  1  'x, y, z'
loop_
 _atom_site_type_symbol
 _atom_site_label
 _atom_site_symmetry_multiplicity
 _atom_site_fract_x
 _atom_site_fract_y
 _atom_site_fract_z
 _atom_site_occupancy
  Li  Li0  1  0.88691156  0.05388206  0.65053930  1
  Li  Li1  1  0.88691156  0.44611794  0.15053930  1
  Li  Li2  1  0.63373909  0.67914141  0.74714104  1
  Li  Li3  1  0.63373909  0.82085859  0.24714104  1
  Li  Li4  1  0.36626091  0.17914141  0.75285896  1
  Li  Li5  1  0.36626091  0.32085859  0.25285896  1
  Li  Li6  1  0.11308844  0.55388206  0.84946070  1
  Li  Li7  1  0.11308844  0.94611794  0.34946070  1
  Fe  Fe8  1  0.15641239  0.87035018  0.99428375  1
  Fe  Fe9  1  0.34980355  0.37157184  0.88485377  1
  Fe  Fe10  1  0.15641239  0.62964982  0.49428375  1
  Fe  Fe11  1  0.34980355  0.12842816  0.38485377  1
  Fe  Fe12  1  0.65019645  0.87157184  0.61514623  1
  Fe  Fe13  1  0.84358761  0.37035018  0.50571625  1
  Fe  Fe14  1  0.65019645  0.62842816  0.11514623  1
  Fe  Fe15  1  0.84358761  0.12964982  0.00571625  1
  F  F16  1  0.10870487  0.34713794  0.68194690  1
  F  F17  1  0.10870487  0.15286206  0.18194690  1
  F  F18  1  0.08066125  0.12600251  0.81308282  1
  F  F19  1  0.08066125  0.37399749  0.31308282  1
  F  F20  1  0.35101613  0.79673007  0.10254446  1
  F  F21  1  0.35101613  0.70326993  0.60254446  1
  F  F22  1  0.25599432  0.96172631  0.07322569  1
  F  F23  1  0.14526494  0.45202363  0.93835002  1
  F  F24  1  0.25599432  0.53827369  0.57322569  1
  F  F25  1  0.14526494  0.04797637  0.43835002  1
  F  F26  1  0.24686012  0.28973921  0.01221128  1
  F  F27  1  0.24686012  0.21026079  0.51221128  1
  F  F28  1  0.42117627  0.89322119  0.41699428  1
  F  F29  1  0.42117627  0.60677881  0.91699428  1
  F  F30  1  0.38728873  0.87196278  0.78469648  1
  F  F31  1  0.61271127  0.37196278  0.71530352  1
  F  F32  1  0.38728873  0.62803722  0.28469648  1
  F  F33  1  0.61271127  0.12803722  0.21530352  1
  F  F34  1  0.57882373  0.39322119  0.08300572  1
  F  F35  1  0.57882373  0.10677881  0.58300572  1
  F  F36  1  0.75313988  0.78973921  0.48778872  1
  F  F37  1  0.75313988  0.71026079  0.98778872  1
  F  F38  1  0.85473506  0.95202363  0.56164998  1
  F  F39  1  0.74400568  0.46172631  0.42677431  1
  F  F40  1  0.85473506  0.54797637  0.06164998  1
  F  F41  1  0.74400568  0.03827369  0.92677431  1
  F  F42  1  0.64898387  0.29673007  0.39745554  1
  F  F43  1  0.64898387  0.20326993  0.89745554  1
  F  F44  1  0.91933875  0.62600251  0.68691718  1
  F  F45  1  0.91933875  0.87399749  0.18691718  1
  F  F46  1  0.89129513  0.84713794  0.81805310  1
  F  F47  1  0.89129513  0.65286206  0.31805310  1
