# generated using pymatgen
data_CaIn4Pd
_symmetry_space_group_name_H-M   'P 1'
_cell_length_a   4.51981835
_cell_length_b   7.64444681
_cell_length_c   8.75471056
_cell_angle_alpha   90.00000000
_cell_angle_beta   104.95950938
_cell_angle_gamma   90.00000000
_symmetry_Int_Tables_number   1
_chemical_formula_structural   CaIn4Pd
_chemical_formula_sum   'Ca2 In8 Pd2'
_cell_volume   292.23668699
_cell_formula_units_Z   2
loop_
 _symmetry_equiv_pos_site_id
 _symmetry_equiv_pos_as_xyz
  1  'x, y, z'
loop_
 _atom_site_type_symbol
 _atom_site_label
 _atom_site_symmetry_multiplicity
 _atom_site_fract_x
 _atom_site_fract_y
 _atom_site_fract_z
 _atom_site_occupancy
  Ca  Ca0  1  0.87245839  0.25000000  0.74491678  1
  Ca  Ca1  1  0.12754161  0.75000000  0.25508322  1
  Pd  Pd2  1  0.22746168  0.25000000  0.45492335  1
  Pd  Pd3  1  0.77253832  0.75000000  0.54507665  1
  In  In4  1  0.68271473  0.04969787  0.36542947  1
  In  In5  1  0.31728527  0.95030213  0.63457053  1
  In  In6  1  0.31728527  0.54969787  0.63457053  1
  In  In7  1  0.68271473  0.45030213  0.36542947  1
  In  In8  1  0.06575606  0.25000000  0.13151213  1
  In  In9  1  0.93424394  0.75000000  0.86848787  1
  In  In10  1  0.50000000  0.00000000  0.00000000  1
  In  In11  1  0.50000000  0.50000000  0.00000000  1
