# generated using pymatgen
data_SmPtF7
_symmetry_space_group_name_H-M   'P 1'
_cell_length_a   5.63097437
_cell_length_b   9.07580027
_cell_length_c   11.28940352
_cell_angle_alpha   107.38957540
_cell_angle_beta   90.00000000
_cell_angle_gamma   90.00000000
_symmetry_Int_Tables_number   1
_chemical_formula_structural   SmPtF7
_chemical_formula_sum   'Sm4 Pt4 F28'
_cell_volume   550.58198668
_cell_formula_units_Z   4
loop_
 _symmetry_equiv_pos_site_id
 _symmetry_equiv_pos_as_xyz
  1  'x, y, z'
loop_
 _atom_site_type_symbol
 _atom_site_label
 _atom_site_symmetry_multiplicity
 _atom_site_fract_x
 _atom_site_fract_y
 _atom_site_fract_z
 _atom_site_occupancy
  F  F0  1  0.56562720  0.37867477  0.08399513  1
  F  F1  1  0.06562720  0.12132523  0.41600487  1
  F  F2  1  0.43437280  0.62132523  0.91600487  1
  F  F3  1  0.93437280  0.87867477  0.58399513  1
  F  F4  1  0.55363761  0.17836650  0.45901774  1
  F  F5  1  0.05363761  0.32163350  0.04098226  1
  F  F6  1  0.44636239  0.82163350  0.54098226  1
  F  F7  1  0.94636239  0.67836650  0.95901774  1
  F  F8  1  0.23063834  0.62222874  0.14001757  1
  F  F9  1  0.73063834  0.87777126  0.35998243  1
  F  F10  1  0.76936166  0.37777126  0.85998243  1
  F  F11  1  0.26936166  0.12222874  0.64001757  1
  F  F12  1  0.24402245  0.92208780  0.95026363  1
  F  F13  1  0.74402245  0.57791220  0.54973637  1
  F  F14  1  0.75597755  0.07791220  0.04973637  1
  F  F15  1  0.25597755  0.42208780  0.45026363  1
  F  F16  1  0.03267998  0.64028862  0.36739270  1
  F  F17  1  0.53267998  0.85971138  0.13260730  1
  F  F18  1  0.96732002  0.35971138  0.63260730  1
  F  F19  1  0.46732002  0.14028862  0.86739270  1
  F  F20  1  0.94450258  0.08326691  0.82696292  1
  F  F21  1  0.44450258  0.41673309  0.67303708  1
  F  F22  1  0.05549742  0.91673309  0.17303708  1
  F  F23  1  0.55549742  0.58326691  0.32696292  1
  F  F24  1  0.58970468  0.80016431  0.76828043  1
  F  F25  1  0.08970468  0.69983569  0.73171957  1
  F  F26  1  0.41029532  0.19983569  0.23171957  1
  F  F27  1  0.91029532  0.30016431  0.26828043  1
  Sm  Sm28  1  0.23945731  0.42335683  0.23568184  1
  Sm  Sm29  1  0.73945731  0.07664317  0.26431816  1
  Sm  Sm30  1  0.76054269  0.57664317  0.76431816  1
  Sm  Sm31  1  0.26054269  0.92335683  0.73568184  1
  Pt  Pt32  1  0.24258526  0.76968345  0.04269475  1
  Pt  Pt33  1  0.74258526  0.73031655  0.45730525  1
  Pt  Pt34  1  0.75741474  0.23031655  0.95730525  1
  Pt  Pt35  1  0.25741474  0.26968345  0.54269475  1
