# generated using pymatgen
data_Na2Al2As3
_symmetry_space_group_name_H-M   'P 1'
_cell_length_a   6.77976231
_cell_length_b   13.22216534
_cell_length_c   14.59357260
_cell_angle_alpha   89.66936975
_cell_angle_beta   90.00000000
_cell_angle_gamma   90.00000000
_symmetry_Int_Tables_number   1
_chemical_formula_structural   Na2Al2As3
_chemical_formula_sum   'Na16 Al16 As24'
_cell_volume   1308.19186499
_cell_formula_units_Z   8
loop_
 _symmetry_equiv_pos_site_id
 _symmetry_equiv_pos_as_xyz
  1  'x, y, z'
loop_
 _atom_site_type_symbol
 _atom_site_label
 _atom_site_symmetry_multiplicity
 _atom_site_fract_x
 _atom_site_fract_y
 _atom_site_fract_z
 _atom_site_occupancy
  Na  Na0  1  0.94550020  0.13848446  0.99084002  1
  Na  Na1  1  0.44550020  0.86151554  0.50915998  1
  Na  Na2  1  0.05449980  0.86151554  0.00915998  1
  Na  Na3  1  0.55449980  0.13848446  0.49084002  1
  Na  Na4  1  0.58914861  0.64954335  0.01887014  1
  Na  Na5  1  0.08914861  0.35045665  0.48112986  1
  Na  Na6  1  0.41085139  0.35045665  0.98112986  1
  Na  Na7  1  0.91085139  0.64954335  0.51887014  1
  Na  Na8  1  0.54770819  0.91395061  0.10721326  1
  Na  Na9  1  0.04770819  0.08604939  0.39278674  1
  Na  Na10  1  0.45229181  0.08604939  0.89278674  1
  Na  Na11  1  0.95229181  0.91395061  0.60721326  1
  Na  Na12  1  0.90085019  0.43375646  0.91475315  1
  Na  Na13  1  0.40085019  0.56624354  0.58524685  1
  Na  Na14  1  0.09914981  0.56624354  0.08524685  1
  Na  Na15  1  0.59914981  0.43375646  0.41475315  1
  Al  Al16  1  0.28799234  0.68435375  0.83440577  1
  Al  Al17  1  0.78799234  0.31564625  0.66559423  1
  Al  Al18  1  0.71200766  0.31564625  0.16559423  1
  Al  Al19  1  0.21200766  0.68435375  0.33440577  1
  Al  Al20  1  0.79670047  0.09386416  0.73001548  1
  Al  Al21  1  0.29670047  0.90613584  0.76998452  1
  Al  Al22  1  0.20329953  0.90613584  0.26998452  1
  Al  Al23  1  0.70329953  0.09386416  0.23001548  1
  Al  Al24  1  0.76308651  0.81086903  0.82733208  1
  Al  Al25  1  0.26308651  0.18913097  0.67266792  1
  Al  Al26  1  0.23691349  0.18913097  0.17266792  1
  Al  Al27  1  0.73691349  0.81086903  0.32733208  1
  Al  Al28  1  0.76369263  0.58916220  0.75947788  1
  Al  Al29  1  0.26369263  0.41083780  0.74052212  1
  Al  Al30  1  0.23630737  0.41083780  0.24052212  1
  Al  Al31  1  0.73630737  0.58916220  0.25947788  1
  As  As32  1  0.97046059  0.96632739  0.82667755  1
  As  As33  1  0.47046059  0.03367261  0.67332245  1
  As  As34  1  0.02953941  0.03367261  0.17332245  1
  As  As35  1  0.52953941  0.96632739  0.32667755  1
  As  As36  1  0.45387750  0.83816264  0.91358151  1
  As  As37  1  0.95387750  0.16183736  0.58641849  1
  As  As38  1  0.54612250  0.16183736  0.08641849  1
  As  As39  1  0.04612250  0.83816264  0.41358151  1
  As  As40  1  0.95071557  0.66054492  0.89513850  1
  As  As41  1  0.45071557  0.33945508  0.60486150  1
  As  As42  1  0.04928443  0.33945508  0.10486150  1
  As  As43  1  0.54928443  0.66054492  0.39513850  1
  As  As44  1  0.83685886  0.74702559  0.17031125  1
  As  As45  1  0.33685886  0.25297441  0.32968875  1
  As  As46  1  0.16314114  0.25297441  0.82968875  1
  As  As47  1  0.66314114  0.74702559  0.67031125  1
  As  As48  1  0.46958359  0.52037727  0.84261785  1
  As  As49  1  0.96958359  0.47962273  0.65738215  1
  As  As50  1  0.53041641  0.47962273  0.15738215  1
  As  As51  1  0.03041641  0.52037727  0.34261785  1
  As  As52  1  0.21078683  0.75006937  0.17423216  1
  As  As53  1  0.71078683  0.24993063  0.32576784  1
  As  As54  1  0.78921317  0.24993063  0.82576784  1
  As  As55  1  0.28921317  0.75006937  0.67423216  1
