# generated using pymatgen
data_Ba2LiGe3
_symmetry_space_group_name_H-M   'P 1'
_cell_length_a   8.95723812
_cell_length_b   8.98162641
_cell_length_c   10.83334683
_cell_angle_alpha   78.10352646
_cell_angle_beta   65.58074362
_cell_angle_gamma   60.08978259
_symmetry_Int_Tables_number   1
_chemical_formula_structural   Ba2LiGe3
_chemical_formula_sum   'Ba8 Li4 Ge12'
_cell_volume   687.88507903
_cell_formula_units_Z   4
loop_
 _symmetry_equiv_pos_site_id
 _symmetry_equiv_pos_as_xyz
  1  'x, y, z'
loop_
 _atom_site_type_symbol
 _atom_site_label
 _atom_site_symmetry_multiplicity
 _atom_site_fract_x
 _atom_site_fract_y
 _atom_site_fract_z
 _atom_site_occupancy
  Li  Li0  1  0.45699325  0.08601349  0.75000000  1
  Li  Li1  1  0.79300675  0.41398651  0.75000000  1
  Li  Li2  1  0.54300675  0.91398651  0.25000000  1
  Li  Li3  1  0.20699325  0.58601349  0.25000000  1
  Ge  Ge4  1  0.96529877  0.58652380  0.74214316  1
  Ge  Ge5  1  0.79396574  0.91347620  0.75785684  1
  Ge  Ge6  1  0.44817743  0.58652380  0.75785684  1
  Ge  Ge7  1  0.29255806  0.91347620  0.74214316  1
  Ge  Ge8  1  0.03857311  0.92285377  0.25000000  1
  Ge  Ge9  1  0.71142689  0.57714623  0.25000000  1
  Ge  Ge10  1  0.96142689  0.07714623  0.75000000  1
  Ge  Ge11  1  0.28857311  0.42285377  0.75000000  1
  Ge  Ge12  1  0.70744194  0.08652380  0.25785684  1
  Ge  Ge13  1  0.55182257  0.41347620  0.24214316  1
  Ge  Ge14  1  0.20603426  0.08652380  0.24214316  1
  Ge  Ge15  1  0.03470123  0.41347620  0.25785684  1
  Ba  Ba16  1  0.74901671  0.75000000  0.50196659  1
  Ba  Ba17  1  0.50098329  0.75000000  0.99803341  1
  Ba  Ba18  1  0.25098329  0.25000000  0.49803341  1
  Ba  Ba19  1  0.49901671  0.25000000  0.00196659  1
  Ba  Ba20  1  0.00272007  0.75000000  0.99455985  1
  Ba  Ba21  1  0.24727993  0.75000000  0.50544015  1
  Ba  Ba22  1  0.99727993  0.25000000  0.00544015  1
  Ba  Ba23  1  0.75272007  0.25000000  0.49455985  1
