# generated using pymatgen
data_YbGa7Au3
_symmetry_space_group_name_H-M   'P 1'
_cell_length_a   8.56858324
_cell_length_b   8.56858324
_cell_length_c   8.56858324
_cell_angle_alpha   57.62889594
_cell_angle_beta   57.62889592
_cell_angle_gamma   57.62889591
_symmetry_Int_Tables_number   1
_chemical_formula_structural   YbGa7Au3
_chemical_formula_sum   'Yb2 Ga14 Au6'
_cell_volume   420.60524653
_cell_formula_units_Z   2
loop_
 _symmetry_equiv_pos_site_id
 _symmetry_equiv_pos_as_xyz
  1  'x, y, z'
loop_
 _atom_site_type_symbol
 _atom_site_label
 _atom_site_symmetry_multiplicity
 _atom_site_fract_x
 _atom_site_fract_y
 _atom_site_fract_z
 _atom_site_occupancy
  Ga  Ga0  1  0.42706067  0.64686891  0.83054191  1
  Ga  Ga1  1  0.64686891  0.83054191  0.42706067  1
  Ga  Ga2  1  0.83054191  0.42706067  0.64686891  1
  Ga  Ga3  1  0.66945809  0.85313109  0.07293933  1
  Ga  Ga4  1  0.85313109  0.07293933  0.66945809  1
  Ga  Ga5  1  0.07293933  0.66945809  0.85313109  1
  Ga  Ga6  1  0.57293933  0.35313109  0.16945809  1
  Ga  Ga7  1  0.35313109  0.16945809  0.57293933  1
  Ga  Ga8  1  0.25000000  0.25000000  0.25000000  1
  Ga  Ga9  1  0.75000000  0.75000000  0.75000000  1
  Ga  Ga10  1  0.92706067  0.33054191  0.14686891  1
  Ga  Ga11  1  0.14686891  0.92706067  0.33054191  1
  Ga  Ga12  1  0.33054191  0.14686891  0.92706067  1
  Ga  Ga13  1  0.16945809  0.57293933  0.35313109  1
  Yb  Yb14  1  0.00000000  0.00000000  0.00000000  1
  Yb  Yb15  1  0.50000000  0.50000000  0.50000000  1
  Au  Au16  1  0.06820896  0.43179104  0.75000000  1
  Au  Au17  1  0.56820896  0.25000000  0.93179104  1
  Au  Au18  1  0.25000000  0.93179104  0.56820896  1
  Au  Au19  1  0.93179104  0.56820896  0.25000000  1
  Au  Au20  1  0.75000000  0.06820896  0.43179104  1
  Au  Au21  1  0.43179104  0.75000000  0.06820896  1
