# generated using pymatgen
data_LiCa2Si3
_symmetry_space_group_name_H-M   'P 1'
_cell_length_a   4.37973429
_cell_length_b   10.51417029
_cell_length_c   11.23510583
_cell_angle_alpha   90.00000000
_cell_angle_beta   90.00000000
_cell_angle_gamma   90.00000000
_symmetry_Int_Tables_number   1
_chemical_formula_structural   LiCa2Si3
_chemical_formula_sum   'Li4 Ca8 Si12'
_cell_volume   517.36844600
_cell_formula_units_Z   4
loop_
 _symmetry_equiv_pos_site_id
 _symmetry_equiv_pos_as_xyz
  1  'x, y, z'
loop_
 _atom_site_type_symbol
 _atom_site_label
 _atom_site_symmetry_multiplicity
 _atom_site_fract_x
 _atom_site_fract_y
 _atom_site_fract_z
 _atom_site_occupancy
  Li  Li0  1  0.50000000  0.86183152  0.28199643  1
  Li  Li1  1  0.50000000  0.13816848  0.71800357  1
  Li  Li2  1  0.00000000  0.36183152  0.21800357  1
  Li  Li3  1  0.00000000  0.63816848  0.78199643  1
  Si  Si4  1  0.50000000  0.89157331  0.04002494  1
  Si  Si5  1  0.50000000  0.10842669  0.95997506  1
  Si  Si6  1  0.00000000  0.39157331  0.45997506  1
  Si  Si7  1  0.00000000  0.60842669  0.54002494  1
  Si  Si8  1  0.00000000  0.96590264  0.40072068  1
  Si  Si9  1  0.00000000  0.03409736  0.59927932  1
  Si  Si10  1  0.50000000  0.46590264  0.09927932  1
  Si  Si11  1  0.50000000  0.53409736  0.90072068  1
  Si  Si12  1  0.00000000  0.25544920  0.63373297  1
  Si  Si13  1  0.00000000  0.74455080  0.36626703  1
  Si  Si14  1  0.50000000  0.75544920  0.86626703  1
  Si  Si15  1  0.50000000  0.24455080  0.13373297  1
  Ca  Ca16  1  0.50000000  0.55111591  0.34944439  1
  Ca  Ca17  1  0.50000000  0.44888409  0.65055561  1
  Ca  Ca18  1  0.00000000  0.05111591  0.15055561  1
  Ca  Ca19  1  0.00000000  0.94888409  0.84944439  1
  Ca  Ca20  1  0.50000000  0.82202269  0.57424954  1
  Ca  Ca21  1  0.50000000  0.17797731  0.42575046  1
  Ca  Ca22  1  0.00000000  0.32202269  0.92575046  1
  Ca  Ca23  1  0.00000000  0.67797731  0.07424954  1
