# generated using pymatgen
data_NaPr2OsO6
_symmetry_space_group_name_H-M   'P 1'
_cell_length_a   5.60208511
_cell_length_b   6.01225434
_cell_length_c   8.07479280
_cell_angle_alpha   90.00000000
_cell_angle_beta   90.92360389
_cell_angle_gamma   90.00000000
_symmetry_Int_Tables_number   1
_chemical_formula_structural   NaPr2OsO6
_chemical_formula_sum   'Na2 Pr4 Os2 O12'
_cell_volume   271.93305738
_cell_formula_units_Z   2
loop_
 _symmetry_equiv_pos_site_id
 _symmetry_equiv_pos_as_xyz
  1  'x, y, z'
loop_
 _atom_site_type_symbol
 _atom_site_label
 _atom_site_symmetry_multiplicity
 _atom_site_fract_x
 _atom_site_fract_y
 _atom_site_fract_z
 _atom_site_occupancy
  O  O0  1  0.83580405  0.71922053  0.56811816  1
  O  O1  1  0.66419595  0.21922053  0.93188184  1
  O  O2  1  0.16419595  0.28077947  0.43188184  1
  O  O3  1  0.33580405  0.78077947  0.06811816  1
  O  O4  1  0.11844540  0.04961220  0.73053148  1
  O  O5  1  0.38155460  0.54961220  0.76946852  1
  O  O6  1  0.88155460  0.95038780  0.26946852  1
  O  O7  1  0.61844540  0.45038780  0.23053148  1
  O  O8  1  0.20791322  0.32672307  0.05141901  1
  O  O9  1  0.29208678  0.82672307  0.44858099  1
  O  O10  1  0.79208678  0.67327693  0.94858099  1
  O  O11  1  0.70791322  0.17327693  0.55141901  1
  Na  Na12  1  0.50000000  0.50000000  0.50000000  1
  Na  Na13  1  0.00000000  0.00000000  0.00000000  1
  Pr  Pr14  1  0.97969643  0.42956886  0.75342893  1
  Pr  Pr15  1  0.47969643  0.07043114  0.25342893  1
  Pr  Pr16  1  0.52030357  0.92956886  0.74657107  1
  Pr  Pr17  1  0.02030357  0.57043114  0.24657107  1
  Os  Os18  1  0.00000000  0.00000000  0.50000000  1
  Os  Os19  1  0.50000000  0.50000000  0.00000000  1
