# generated using pymatgen
data_Zn(AuF4)2
_symmetry_space_group_name_H-M   'P 1'
_cell_length_a   5.63970749
_cell_length_b   5.77367261
_cell_length_c   10.63255903
_cell_angle_alpha   90.00000000
_cell_angle_beta   100.13796005
_cell_angle_gamma   90.00000000
_symmetry_Int_Tables_number   1
_chemical_formula_structural   Zn(AuF4)2
_chemical_formula_sum   'Zn2 Au4 F16'
_cell_volume   340.80998324
_cell_formula_units_Z   2
loop_
 _symmetry_equiv_pos_site_id
 _symmetry_equiv_pos_as_xyz
  1  'x, y, z'
loop_
 _atom_site_type_symbol
 _atom_site_label
 _atom_site_symmetry_multiplicity
 _atom_site_fract_x
 _atom_site_fract_y
 _atom_site_fract_z
 _atom_site_occupancy
  F  F0  1  0.61702510  0.62425625  0.18498245  1
  F  F1  1  0.88297490  0.12425625  0.31501755  1
  F  F2  1  0.38297490  0.37574375  0.81501755  1
  F  F3  1  0.11702510  0.87574375  0.68498245  1
  F  F4  1  0.80404147  0.68689505  0.97422038  1
  F  F5  1  0.69595853  0.18689505  0.52577962  1
  F  F6  1  0.28413410  0.77853746  0.94619446  1
  F  F7  1  0.21586590  0.27853746  0.55380554  1
  F  F8  1  0.71586590  0.22146254  0.05380554  1
  F  F9  1  0.78413410  0.72146254  0.44619446  1
  F  F10  1  0.65227127  0.78534382  0.71854805  1
  F  F11  1  0.84772873  0.28534382  0.78145195  1
  F  F12  1  0.34772873  0.21465618  0.28145195  1
  F  F13  1  0.15227127  0.71465618  0.21854805  1
  F  F14  1  0.30404147  0.81310495  0.47422038  1
  F  F15  1  0.19595853  0.31310495  0.02577962  1
  Zn  Zn16  1  0.50000000  0.50000000  0.00000000  1
  Zn  Zn17  1  0.00000000  0.00000000  0.50000000  1
  Au  Au18  1  0.46348588  0.72125137  0.33024782  1
  Au  Au19  1  0.03651412  0.22125137  0.16975218  1
  Au  Au20  1  0.53651412  0.27874863  0.66975218  1
  Au  Au21  1  0.96348588  0.77874863  0.83024782  1
