# generated using pymatgen
data_Ba2SiO4
_symmetry_space_group_name_H-M   'P 1'
_cell_length_a   5.88373752
_cell_length_b   7.60173015
_cell_length_c   10.41336660
_cell_angle_alpha   90.00000000
_cell_angle_beta   90.00000000
_cell_angle_gamma   90.00000000
_symmetry_Int_Tables_number   1
_chemical_formula_structural   Ba2SiO4
_chemical_formula_sum   'Ba8 Si4 O16'
_cell_volume   465.75432533
_cell_formula_units_Z   4
loop_
 _symmetry_equiv_pos_site_id
 _symmetry_equiv_pos_as_xyz
  1  'x, y, z'
loop_
 _atom_site_type_symbol
 _atom_site_label
 _atom_site_symmetry_multiplicity
 _atom_site_fract_x
 _atom_site_fract_y
 _atom_site_fract_z
 _atom_site_occupancy
  O  O0  1  0.98075746  0.19454048  0.85010453  1
  O  O1  1  0.48075746  0.80545952  0.14989547  1
  O  O2  1  0.51924254  0.69454048  0.64989547  1
  O  O3  1  0.01924254  0.30545952  0.35010453  1
  O  O4  1  0.01924254  0.80545952  0.14989547  1
  O  O5  1  0.51924254  0.19454048  0.85010453  1
  O  O6  1  0.48075746  0.30545952  0.35010453  1
  O  O7  1  0.98075746  0.69454048  0.64989547  1
  O  O8  1  0.25000000  0.80694292  0.93006072  1
  O  O9  1  0.75000000  0.19305708  0.06993928  1
  O  O10  1  0.25000000  0.30694292  0.56993928  1
  O  O11  1  0.75000000  0.69305708  0.43006072  1
  O  O12  1  0.75000000  0.98920836  0.58200793  1
  O  O13  1  0.25000000  0.01079164  0.41799207  1
  O  O14  1  0.75000000  0.48920836  0.91799207  1
  O  O15  1  0.25000000  0.51079164  0.08200793  1
  Si  Si16  1  0.25000000  0.72727878  0.07948716  1
  Si  Si17  1  0.75000000  0.27272122  0.92051284  1
  Si  Si18  1  0.25000000  0.22727878  0.42051284  1
  Si  Si19  1  0.75000000  0.77272122  0.57948716  1
  Ba  Ba20  1  0.25000000  0.49349390  0.80567113  1
  Ba  Ba21  1  0.75000000  0.50650610  0.19432887  1
  Ba  Ba22  1  0.25000000  0.99349390  0.69432887  1
  Ba  Ba23  1  0.75000000  0.00650610  0.30567113  1
  Ba  Ba24  1  0.25000000  0.66139435  0.41838834  1
  Ba  Ba25  1  0.75000000  0.33860565  0.58161166  1
  Ba  Ba26  1  0.25000000  0.16139435  0.08161166  1
  Ba  Ba27  1  0.75000000  0.83860565  0.91838834  1
