# generated using pymatgen
data_Sr3(GeAs2)2
_symmetry_space_group_name_H-M   'P 1'
_cell_length_a   7.55979599
_cell_length_b   7.71029588
_cell_length_c   18.76899817
_cell_angle_alpha   90.00000000
_cell_angle_beta   90.00000000
_cell_angle_gamma   111.87512201
_symmetry_Int_Tables_number   1
_chemical_formula_structural   Sr3(GeAs2)2
_chemical_formula_sum   'Sr12 Ge8 As16'
_cell_volume   1015.24137313
_cell_formula_units_Z   4
loop_
 _symmetry_equiv_pos_site_id
 _symmetry_equiv_pos_as_xyz
  1  'x, y, z'
loop_
 _atom_site_type_symbol
 _atom_site_label
 _atom_site_symmetry_multiplicity
 _atom_site_fract_x
 _atom_site_fract_y
 _atom_site_fract_z
 _atom_site_occupancy
  Ge  Ge0  1  0.52798958  0.21250574  0.62852884  1
  Ge  Ge1  1  0.97201042  0.78749426  0.12852884  1
  Ge  Ge2  1  0.02798958  0.21250574  0.87147116  1
  Ge  Ge3  1  0.47201042  0.78749426  0.37147116  1
  Ge  Ge4  1  0.91460980  0.31476402  0.75965597  1
  Ge  Ge5  1  0.58539020  0.68523598  0.25965597  1
  Ge  Ge6  1  0.08539020  0.68523598  0.24034403  1
  Ge  Ge7  1  0.41460980  0.31476402  0.74034403  1
  As  As8  1  0.21912163  0.04045163  0.81405694  1
  As  As9  1  0.28087837  0.95954837  0.31405694  1
  As  As10  1  0.78087837  0.95954837  0.18594306  1
  As  As11  1  0.71912163  0.04045163  0.68594306  1
  As  As12  1  0.75215979  0.00795832  0.93932967  1
  As  As13  1  0.74784021  0.99204168  0.43932967  1
  As  As14  1  0.24784021  0.99204168  0.06067033  1
  As  As15  1  0.25215979  0.00795832  0.56067033  1
  As  As16  1  0.24138340  0.49684305  0.93212614  1
  As  As17  1  0.25861660  0.50315695  0.43212614  1
  As  As18  1  0.74138340  0.49684305  0.56787386  1
  As  As19  1  0.75861660  0.50315695  0.06787386  1
  As  As20  1  0.72356693  0.50220239  0.80188533  1
  As  As21  1  0.77643307  0.49779761  0.30188533  1
  As  As22  1  0.27643307  0.49779761  0.19811467  1
  As  As23  1  0.22356693  0.50220239  0.69811467  1
  Sr  Sr24  1  0.98743343  0.78210004  0.68454538  1
  Sr  Sr25  1  0.51256657  0.21789996  0.18454538  1
  Sr  Sr26  1  0.01256657  0.21789996  0.31545462  1
  Sr  Sr27  1  0.48743343  0.78210004  0.81545462  1
  Sr  Sr28  1  0.00231793  0.26085186  0.56022991  1
  Sr  Sr29  1  0.49768207  0.73914814  0.06022991  1
  Sr  Sr30  1  0.99768207  0.73914814  0.43977009  1
  Sr  Sr31  1  0.50231793  0.26085186  0.93977009  1
  Sr  Sr32  1  0.48841271  0.74485025  0.56133949  1
  Sr  Sr33  1  0.01158729  0.25514975  0.06133949  1
  Sr  Sr34  1  0.51158729  0.25514975  0.43866051  1
  Sr  Sr35  1  0.98841271  0.74485025  0.93866051  1
