# generated using pymatgen
data_CeCrSe3
_symmetry_space_group_name_H-M   'P 1'
_cell_length_a   3.97624830
_cell_length_b   8.14979819
_cell_length_c   13.64741779
_cell_angle_alpha   90.00000000
_cell_angle_beta   90.00000000
_cell_angle_gamma   90.00000000
_symmetry_Int_Tables_number   1
_chemical_formula_structural   CeCrSe3
_chemical_formula_sum   'Ce4 Cr4 Se12'
_cell_volume   442.25305124
_cell_formula_units_Z   4
loop_
 _symmetry_equiv_pos_site_id
 _symmetry_equiv_pos_as_xyz
  1  'x, y, z'
loop_
 _atom_site_type_symbol
 _atom_site_label
 _atom_site_symmetry_multiplicity
 _atom_site_fract_x
 _atom_site_fract_y
 _atom_site_fract_z
 _atom_site_occupancy
  Cr  Cr0  1  0.25000000  0.83871164  0.44800202  1
  Cr  Cr1  1  0.75000000  0.16128836  0.55199798  1
  Cr  Cr2  1  0.25000000  0.33871164  0.05199798  1
  Cr  Cr3  1  0.75000000  0.66128836  0.94800202  1
  Se  Se4  1  0.75000000  0.51440463  0.10932259  1
  Se  Se5  1  0.25000000  0.48559537  0.89067741  1
  Se  Se6  1  0.75000000  0.01440463  0.39067741  1
  Se  Se7  1  0.25000000  0.98559537  0.60932259  1
  Se  Se8  1  0.75000000  0.81152255  0.78645106  1
  Se  Se9  1  0.25000000  0.18847745  0.21354894  1
  Se  Se10  1  0.75000000  0.31152255  0.71354894  1
  Se  Se11  1  0.25000000  0.68847745  0.28645106  1
  Se  Se12  1  0.75000000  0.65703428  0.50560332  1
  Se  Se13  1  0.25000000  0.34296572  0.49439668  1
  Se  Se14  1  0.75000000  0.15703428  0.99439668  1
  Se  Se15  1  0.25000000  0.84296572  0.00560332  1
  Ce  Ce16  1  0.25000000  0.59433720  0.67195442  1
  Ce  Ce17  1  0.75000000  0.40566280  0.32804558  1
  Ce  Ce18  1  0.25000000  0.09433720  0.82804558  1
  Ce  Ce19  1  0.75000000  0.90566280  0.17195442  1
