# generated using pymatgen
data_LiFeF4
_symmetry_space_group_name_H-M   'P 1'
_cell_length_a   7.03122584
_cell_length_b   7.03122584
_cell_length_c   7.14595079
_cell_angle_alpha   76.13530290
_cell_angle_beta   103.86469710
_cell_angle_gamma   96.82173623
_symmetry_Int_Tables_number   1
_chemical_formula_structural   LiFeF4
_chemical_formula_sum   'Li4 Fe4 F16'
_cell_volume   332.28984869
_cell_formula_units_Z   4
loop_
 _symmetry_equiv_pos_site_id
 _symmetry_equiv_pos_as_xyz
  1  'x, y, z'
loop_
 _atom_site_type_symbol
 _atom_site_label
 _atom_site_symmetry_multiplicity
 _atom_site_fract_x
 _atom_site_fract_y
 _atom_site_fract_z
 _atom_site_occupancy
  Li  Li0  1  0.20289368  0.79710632  0.85776243  1
  Li  Li1  1  0.18140556  0.18140556  0.50000000  1
  Li  Li2  1  0.81859444  0.81859444  0.50000000  1
  Li  Li3  1  0.79710632  0.20289368  0.14223757  1
  Fe  Fe4  1  0.26946453  0.73053547  0.40875647  1
  Fe  Fe5  1  0.24708724  0.24708724  0.00000000  1
  Fe  Fe6  1  0.75291276  0.75291276  0.00000000  1
  Fe  Fe7  1  0.73053547  0.26946453  0.59124353  1
  F  F8  1  0.14138137  0.85861863  0.54023886  1
  F  F9  1  0.19370765  0.80629235  0.13553846  1
  F  F10  1  0.49377292  0.79565319  0.88623173  1
  F  F11  1  0.20434681  0.50622708  0.88623173  1
  F  F12  1  0.53196428  0.79828197  0.47441836  1
  F  F13  1  0.20171803  0.46803572  0.47441836  1
  F  F14  1  0.19325649  0.11198388  0.79631285  1
  F  F15  1  0.88801612  0.80674351  0.79631285  1
  F  F16  1  0.11198388  0.19325649  0.20368715  1
  F  F17  1  0.80674351  0.88801612  0.20368715  1
  F  F18  1  0.46803572  0.20171803  0.52558164  1
  F  F19  1  0.79828197  0.53196428  0.52558164  1
  F  F20  1  0.79565319  0.49377292  0.11376827  1
  F  F21  1  0.50622708  0.20434681  0.11376827  1
  F  F22  1  0.80629235  0.19370765  0.86446154  1
  F  F23  1  0.85861863  0.14138137  0.45976114  1
