# generated using pymatgen
data_La6UO12
_symmetry_space_group_name_H-M   'P 1'
_cell_length_a   6.93098636
_cell_length_b   6.93098705
_cell_length_c   6.93098637
_cell_angle_alpha   98.68649948
_cell_angle_beta   98.68650035
_cell_angle_gamma   98.68650629
_symmetry_Int_Tables_number   1
_chemical_formula_structural   La6UO12
_chemical_formula_sum   'La6 U1 O12'
_cell_volume   320.17053926
_cell_formula_units_Z   1
loop_
 _symmetry_equiv_pos_site_id
 _symmetry_equiv_pos_as_xyz
  1  'x, y, z'
loop_
 _atom_site_type_symbol
 _atom_site_label
 _atom_site_symmetry_multiplicity
 _atom_site_fract_x
 _atom_site_fract_y
 _atom_site_fract_z
 _atom_site_occupancy
  La  La0  1  0.85583810  0.68923056  0.39405055  1
  La  La1  1  0.68923056  0.39405055  0.85583810  1
  La  La2  1  0.31076944  0.60594945  0.14416190  1
  La  La3  1  0.14416190  0.31076944  0.60594945  1
  La  La4  1  0.60594945  0.14416190  0.31076944  1
  La  La5  1  0.39405055  0.85583810  0.68923056  1
  U  U6  1  0.00000000  0.00000000  0.00000000  1
  O  O7  1  0.40739610  0.56337900  0.82275859  1
  O  O8  1  0.95582915  0.07079243  0.29522951  1
  O  O9  1  0.56337900  0.82275859  0.40739610  1
  O  O10  1  0.43662100  0.17724141  0.59260390  1
  O  O11  1  0.59260390  0.43662100  0.17724141  1
  O  O12  1  0.82275859  0.40739610  0.56337900  1
  O  O13  1  0.17724141  0.59260390  0.43662100  1
  O  O14  1  0.70477049  0.04417085  0.92920757  1
  O  O15  1  0.29522951  0.95582915  0.07079243  1
  O  O16  1  0.07079243  0.29522951  0.95582915  1
  O  O17  1  0.04417085  0.92920757  0.70477049  1
  O  O18  1  0.92920757  0.70477049  0.04417085  1
