# generated using pymatgen
data_Cs2RuO4
_symmetry_space_group_name_H-M   'P 1'
_cell_length_a   6.61790067
_cell_length_b   8.66416407
_cell_length_c   11.76094988
_cell_angle_alpha   90.00000000
_cell_angle_beta   90.00000000
_cell_angle_gamma   90.00000000
_symmetry_Int_Tables_number   1
_chemical_formula_structural   Cs2RuO4
_chemical_formula_sum   'Cs8 Ru4 O16'
_cell_volume   674.35613268
_cell_formula_units_Z   4
loop_
 _symmetry_equiv_pos_site_id
 _symmetry_equiv_pos_as_xyz
  1  'x, y, z'
loop_
 _atom_site_type_symbol
 _atom_site_label
 _atom_site_symmetry_multiplicity
 _atom_site_fract_x
 _atom_site_fract_y
 _atom_site_fract_z
 _atom_site_occupancy
  O  O0  1  0.52689822  0.20248580  0.85191364  1
  O  O1  1  0.02689822  0.79751420  0.14808636  1
  O  O2  1  0.97310178  0.70248580  0.64808636  1
  O  O3  1  0.47310178  0.29751420  0.35191364  1
  O  O4  1  0.47310178  0.79751420  0.14808636  1
  O  O5  1  0.97310178  0.20248580  0.85191364  1
  O  O6  1  0.02689822  0.29751420  0.35191364  1
  O  O7  1  0.52689822  0.70248580  0.64808636  1
  O  O8  1  0.25000000  0.51718915  0.07952205  1
  O  O9  1  0.75000000  0.48281085  0.92047795  1
  O  O10  1  0.25000000  0.01718915  0.42047795  1
  O  O11  1  0.75000000  0.98281085  0.57952205  1
  O  O12  1  0.75000000  0.70286667  0.43493254  1
  O  O13  1  0.25000000  0.29713333  0.56506746  1
  O  O14  1  0.75000000  0.20286667  0.06506746  1
  O  O15  1  0.25000000  0.79713333  0.93493254  1
  Ru  Ru16  1  0.75000000  0.77619821  0.57906096  1
  Ru  Ru17  1  0.25000000  0.22380179  0.42093904  1
  Ru  Ru18  1  0.75000000  0.27619821  0.92093904  1
  Ru  Ru19  1  0.25000000  0.72380179  0.07906096  1
  Cs  Cs20  1  0.25000000  0.16882989  0.08072499  1
  Cs  Cs21  1  0.75000000  0.83117011  0.91927501  1
  Cs  Cs22  1  0.25000000  0.66882989  0.41927501  1
  Cs  Cs23  1  0.75000000  0.33117011  0.58072499  1
  Cs  Cs24  1  0.75000000  0.50691056  0.20415087  1
  Cs  Cs25  1  0.25000000  0.49308944  0.79584913  1
  Cs  Cs26  1  0.75000000  0.00691056  0.29584913  1
  Cs  Cs27  1  0.25000000  0.99308944  0.70415087  1
