# generated using pymatgen
data_EuIn2Ni
_symmetry_space_group_name_H-M   'P 1'
_cell_length_a   4.40162535
_cell_length_b   5.80128736
_cell_length_c   7.79388378
_cell_angle_alpha   90.00000000
_cell_angle_beta   90.00000000
_cell_angle_gamma   112.29443276
_symmetry_Int_Tables_number   1
_chemical_formula_structural   EuIn2Ni
_chemical_formula_sum   'Eu2 In4 Ni2'
_cell_volume   184.14030956
_cell_formula_units_Z   2
loop_
 _symmetry_equiv_pos_site_id
 _symmetry_equiv_pos_as_xyz
  1  'x, y, z'
loop_
 _atom_site_type_symbol
 _atom_site_label
 _atom_site_symmetry_multiplicity
 _atom_site_fract_x
 _atom_site_fract_y
 _atom_site_fract_z
 _atom_site_occupancy
  Ni  Ni0  1  0.22120202  0.44240404  0.25000000  1
  Ni  Ni1  1  0.77879798  0.55759596  0.75000000  1
  In  In2  1  0.34624449  0.69248897  0.94693685  1
  In  In3  1  0.65375551  0.30751103  0.05306315  1
  In  In4  1  0.65375551  0.30751103  0.44693685  1
  In  In5  1  0.34624449  0.69248897  0.55306315  1
  Eu  Eu6  1  0.94262424  0.88524849  0.25000000  1
  Eu  Eu7  1  0.05737576  0.11475151  0.75000000  1
