# generated using pymatgen
data_Hf5Sb3
_symmetry_space_group_name_H-M   'P 1'
_cell_length_a   7.45871753
_cell_length_b   8.82043054
_cell_length_c   10.79161503
_cell_angle_alpha   90.00000000
_cell_angle_beta   90.00000000
_cell_angle_gamma   90.00000000
_symmetry_Int_Tables_number   1
_chemical_formula_structural   Hf5Sb3
_chemical_formula_sum   'Hf20 Sb12'
_cell_volume   709.97063919
_cell_formula_units_Z   4
loop_
 _symmetry_equiv_pos_site_id
 _symmetry_equiv_pos_as_xyz
  1  'x, y, z'
loop_
 _atom_site_type_symbol
 _atom_site_label
 _atom_site_symmetry_multiplicity
 _atom_site_fract_x
 _atom_site_fract_y
 _atom_site_fract_z
 _atom_site_occupancy
  Sb  Sb0  1  0.41762920  0.75000000  0.95542187  1
  Sb  Sb1  1  0.91762920  0.75000000  0.54457813  1
  Sb  Sb2  1  0.58237080  0.25000000  0.04457813  1
  Sb  Sb3  1  0.08237080  0.25000000  0.45542187  1
  Sb  Sb4  1  0.57418889  0.99209257  0.32491024  1
  Sb  Sb5  1  0.07418889  0.50790743  0.17508976  1
  Sb  Sb6  1  0.42581111  0.49209257  0.67508976  1
  Sb  Sb7  1  0.92581111  0.00790743  0.82491024  1
  Sb  Sb8  1  0.42581111  0.00790743  0.67508976  1
  Sb  Sb9  1  0.92581111  0.49209257  0.82491024  1
  Sb  Sb10  1  0.57418889  0.50790743  0.32491024  1
  Sb  Sb11  1  0.07418889  0.99209257  0.17508976  1
  Hf  Hf12  1  0.80187915  0.44234681  0.55990185  1
  Hf  Hf13  1  0.30187915  0.05765319  0.94009815  1
  Hf  Hf14  1  0.19812085  0.94234681  0.44009815  1
  Hf  Hf15  1  0.69812085  0.55765319  0.05990185  1
  Hf  Hf16  1  0.14064588  0.25000000  0.71613740  1
  Hf  Hf17  1  0.64064588  0.25000000  0.78386260  1
  Hf  Hf18  1  0.85935412  0.75000000  0.28386260  1
  Hf  Hf19  1  0.35935412  0.75000000  0.21613740  1
  Hf  Hf20  1  0.30187915  0.44234681  0.94009815  1
  Hf  Hf21  1  0.80187915  0.05765319  0.55990185  1
  Hf  Hf22  1  0.69812085  0.94234681  0.05990185  1
  Hf  Hf23  1  0.19812085  0.55765319  0.44009815  1
  Hf  Hf24  1  0.19470199  0.75000000  0.72317454  1
  Hf  Hf25  1  0.69470199  0.75000000  0.77682546  1
  Hf  Hf26  1  0.80529801  0.25000000  0.27682546  1
  Hf  Hf27  1  0.30529801  0.25000000  0.22317454  1
  Hf  Hf28  1  0.02695980  0.75000000  0.98933950  1
  Hf  Hf29  1  0.52695980  0.75000000  0.51066050  1
  Hf  Hf30  1  0.97304020  0.25000000  0.01066050  1
  Hf  Hf31  1  0.47304020  0.25000000  0.48933950  1
