# generated using pymatgen
data_CdS2O7
_symmetry_space_group_name_H-M   'P 1'
_cell_length_a   5.32554483
_cell_length_b   8.51493355
_cell_length_c   13.26315910
_cell_angle_alpha   90.00000000
_cell_angle_beta   90.00000000
_cell_angle_gamma   91.17961452
_symmetry_Int_Tables_number   1
_chemical_formula_structural   CdS2O7
_chemical_formula_sum   'Cd4 S8 O28'
_cell_volume   601.31250855
_cell_formula_units_Z   4
loop_
 _symmetry_equiv_pos_site_id
 _symmetry_equiv_pos_as_xyz
  1  'x, y, z'
loop_
 _atom_site_type_symbol
 _atom_site_label
 _atom_site_symmetry_multiplicity
 _atom_site_fract_x
 _atom_site_fract_y
 _atom_site_fract_z
 _atom_site_occupancy
  O  O0  1  0.85034436  0.35934847  0.55445304  1
  O  O1  1  0.64965564  0.14065153  0.05445304  1
  O  O2  1  0.14965564  0.64065153  0.44554696  1
  O  O3  1  0.35034436  0.85934847  0.94554696  1
  O  O4  1  0.66618964  0.41605025  0.38941493  1
  O  O5  1  0.83381036  0.08394975  0.88941493  1
  O  O6  1  0.33381036  0.58394975  0.61058507  1
  O  O7  1  0.16618964  0.91605025  0.11058507  1
  O  O8  1  0.40619670  0.43093895  0.17494438  1
  O  O9  1  0.09380330  0.06906105  0.67494438  1
  O  O10  1  0.59380330  0.56906105  0.82505562  1
  O  O11  1  0.90619670  0.93093895  0.32505562  1
  O  O12  1  0.18072852  0.85105771  0.56778201  1
  O  O13  1  0.31927148  0.64894229  0.06778201  1
  O  O14  1  0.81927148  0.14894229  0.43221799  1
  O  O15  1  0.68072852  0.35105771  0.93221799  1
  O  O16  1  0.56395445  0.74839735  0.48994465  1
  O  O17  1  0.93604555  0.75160265  0.98994465  1
  O  O18  1  0.43604555  0.25160265  0.51005535  1
  O  O19  1  0.06395445  0.24839735  0.01005535  1
  O  O20  1  0.46428343  0.91097390  0.71299800  1
  O  O21  1  0.03571657  0.58902610  0.21299800  1
  O  O22  1  0.53571657  0.08902610  0.28700200  1
  O  O23  1  0.96428343  0.41097390  0.78700200  1
  O  O24  1  0.03968944  0.80502177  0.74367471  1
  O  O25  1  0.46031056  0.69497823  0.24367471  1
  O  O26  1  0.96031056  0.19497823  0.25632529  1
  O  O27  1  0.53968944  0.30502177  0.75632529  1
  S  S28  1  0.68119398  0.30776014  0.47439826  1
  S  S29  1  0.81880602  0.19223986  0.97439826  1
  S  S30  1  0.31880602  0.69223986  0.52560174  1
  S  S31  1  0.18119398  0.80776014  0.02560174  1
  S  S32  1  0.69896121  0.41380887  0.81400769  1
  S  S33  1  0.80103879  0.08619113  0.31400769  1
  S  S34  1  0.30103879  0.58619113  0.18599231  1
  S  S35  1  0.19896121  0.91380887  0.68599231  1
  Cd  Cd36  1  0.20349194  0.32831937  0.65029265  1
  Cd  Cd37  1  0.29650806  0.17168063  0.15029265  1
  Cd  Cd38  1  0.79650806  0.67168063  0.34970735  1
  Cd  Cd39  1  0.70349194  0.82831937  0.84970735  1
