# generated using pymatgen
data_Ba5P4
_symmetry_space_group_name_H-M   'P 1'
_cell_length_a   8.43656922
_cell_length_b   8.52545881
_cell_length_c   16.73818253
_cell_angle_alpha   90.00000000
_cell_angle_beta   90.00000000
_cell_angle_gamma   90.00000000
_symmetry_Int_Tables_number   1
_chemical_formula_structural   Ba5P4
_chemical_formula_sum   'Ba20 P16'
_cell_volume   1203.90421277
_cell_formula_units_Z   4
loop_
 _symmetry_equiv_pos_site_id
 _symmetry_equiv_pos_as_xyz
  1  'x, y, z'
loop_
 _atom_site_type_symbol
 _atom_site_label
 _atom_site_symmetry_multiplicity
 _atom_site_fract_x
 _atom_site_fract_y
 _atom_site_fract_z
 _atom_site_occupancy
  P  P0  1  0.35251036  0.41160508  0.25000000  1
  P  P1  1  0.85251036  0.08839492  0.25000000  1
  P  P2  1  0.14748964  0.91160508  0.75000000  1
  P  P3  1  0.64748964  0.58839492  0.75000000  1
  P  P4  1  0.15813622  0.60112394  0.25000000  1
  P  P5  1  0.65813622  0.89887606  0.25000000  1
  P  P6  1  0.34186378  0.10112394  0.75000000  1
  P  P7  1  0.84186378  0.39887606  0.75000000  1
  P  P8  1  0.74653122  0.99341033  0.94655826  1
  P  P9  1  0.24653122  0.50658967  0.55344174  1
  P  P10  1  0.75346878  0.49341033  0.05344174  1
  P  P11  1  0.25346878  0.00658967  0.44655826  1
  P  P12  1  0.25346878  0.00658967  0.05344174  1
  P  P13  1  0.75346878  0.49341033  0.44655826  1
  P  P14  1  0.24653122  0.50658967  0.94655826  1
  P  P15  1  0.74653122  0.99341033  0.55344174  1
  Ba  Ba16  1  0.74587147  0.99500419  0.75000000  1
  Ba  Ba17  1  0.24587147  0.50499581  0.75000000  1
  Ba  Ba18  1  0.75412853  0.49500419  0.25000000  1
  Ba  Ba19  1  0.25412853  0.00499581  0.25000000  1
  Ba  Ba20  1  0.57395517  0.33428481  0.89736566  1
  Ba  Ba21  1  0.07395517  0.16571519  0.60263434  1
  Ba  Ba22  1  0.92604483  0.83428481  0.10263434  1
  Ba  Ba23  1  0.42604483  0.66571519  0.39736566  1
  Ba  Ba24  1  0.42604483  0.66571519  0.10263434  1
  Ba  Ba25  1  0.92604483  0.83428481  0.39736566  1
  Ba  Ba26  1  0.07395517  0.16571519  0.89736566  1
  Ba  Ba27  1  0.57395517  0.33428481  0.60263434  1
  Ba  Ba28  1  0.40834643  0.84260849  0.60265558  1
  Ba  Ba29  1  0.90834643  0.65739151  0.89734442  1
  Ba  Ba30  1  0.09165357  0.34260849  0.39734442  1
  Ba  Ba31  1  0.59165357  0.15739151  0.10265558  1
  Ba  Ba32  1  0.59165357  0.15739151  0.39734442  1
  Ba  Ba33  1  0.09165357  0.34260849  0.10265558  1
  Ba  Ba34  1  0.90834643  0.65739151  0.60265558  1
  Ba  Ba35  1  0.40834643  0.84260849  0.89734442  1
