# generated using pymatgen
data_Ba3CaIr2O9
_symmetry_space_group_name_H-M   'P 1'
_cell_length_a   5.96790756
_cell_length_b   5.96790756
_cell_length_c   14.75669669
_cell_angle_alpha   90.64609520
_cell_angle_beta   90.64609519
_cell_angle_gamma   119.90983869
_symmetry_Int_Tables_number   1
_chemical_formula_structural   Ba3CaIr2O9
_chemical_formula_sum   'Ba6 Ca2 Ir4 O18'
_cell_volume   455.45726749
_cell_formula_units_Z   2
loop_
 _symmetry_equiv_pos_site_id
 _symmetry_equiv_pos_as_xyz
  1  'x, y, z'
loop_
 _atom_site_type_symbol
 _atom_site_label
 _atom_site_symmetry_multiplicity
 _atom_site_fract_x
 _atom_site_fract_y
 _atom_site_fract_z
 _atom_site_occupancy
  O  O0  1  0.33995165  0.16108270  0.40562197  1
  O  O1  1  0.83891730  0.66004835  0.09437803  1
  O  O2  1  0.66004835  0.83891730  0.59437803  1
  O  O3  1  0.16108270  0.33995165  0.90562197  1
  O  O4  1  0.80366951  0.62354608  0.41847074  1
  O  O5  1  0.37645392  0.19633049  0.08152926  1
  O  O6  1  0.19633049  0.37645392  0.58152926  1
  O  O7  1  0.62354608  0.80366951  0.91847074  1
  O  O8  1  0.80435651  0.16124752  0.41124616  1
  O  O9  1  0.83875248  0.19564349  0.08875384  1
  O  O10  1  0.19564349  0.83875248  0.58875384  1
  O  O11  1  0.16124752  0.80435651  0.91124616  1
  O  O12  1  0.48881354  0.51118646  0.75000000  1
  O  O13  1  0.51118646  0.48881354  0.25000000  1
  O  O14  1  0.48945819  0.97588879  0.75642789  1
  O  O15  1  0.02411121  0.51054181  0.74357211  1
  O  O16  1  0.51054181  0.02411121  0.24357211  1
  O  O17  1  0.97588879  0.48945819  0.25642789  1
  Ca  Ca18  1  0.00000000  0.00000000  0.50000000  1
  Ca  Ca19  1  0.00000000  0.00000000  0.00000000  1
  Ba  Ba20  1  0.66277693  0.32908134  0.91359955  1
  Ba  Ba21  1  0.67091866  0.33722307  0.58640045  1
  Ba  Ba22  1  0.00147102  0.99852898  0.75000000  1
  Ba  Ba23  1  0.99852898  0.00147102  0.25000000  1
  Ba  Ba24  1  0.32908134  0.66277693  0.41359955  1
  Ba  Ba25  1  0.33722307  0.67091866  0.08640045  1
  Ir  Ir26  1  0.67554699  0.34276882  0.16340763  1
  Ir  Ir27  1  0.65723118  0.32445301  0.33659237  1
  Ir  Ir28  1  0.32445301  0.65723118  0.83659237  1
  Ir  Ir29  1  0.34276882  0.67554699  0.66340763  1
