# generated using pymatgen
data_Th2S3
_symmetry_space_group_name_H-M   'P 1'
_cell_length_a   3.93877800
_cell_length_b   10.87890590
_cell_length_c   10.89326091
_cell_angle_alpha   90.00000000
_cell_angle_beta   90.00000000
_cell_angle_gamma   90.00000000
_symmetry_Int_Tables_number   1
_chemical_formula_structural   Th2S3
_chemical_formula_sum   'Th8 S12'
_cell_volume   466.77182065
_cell_formula_units_Z   4
loop_
 _symmetry_equiv_pos_site_id
 _symmetry_equiv_pos_as_xyz
  1  'x, y, z'
loop_
 _atom_site_type_symbol
 _atom_site_label
 _atom_site_symmetry_multiplicity
 _atom_site_fract_x
 _atom_site_fract_y
 _atom_site_fract_z
 _atom_site_occupancy
  S  S0  1  0.25000000  0.05625039  0.87500897  1
  S  S1  1  0.75000000  0.94374961  0.12499103  1
  S  S2  1  0.75000000  0.55625039  0.62499103  1
  S  S3  1  0.25000000  0.44374961  0.37500897  1
  S  S4  1  0.25000000  0.12399666  0.55221880  1
  S  S5  1  0.75000000  0.87600334  0.44778120  1
  S  S6  1  0.75000000  0.62399666  0.94778120  1
  S  S7  1  0.25000000  0.37600334  0.05221880  1
  S  S8  1  0.25000000  0.70317874  0.22220992  1
  S  S9  1  0.75000000  0.29682126  0.77779008  1
  S  S10  1  0.75000000  0.20317874  0.27779008  1
  S  S11  1  0.25000000  0.79682126  0.72220992  1
  Th  Th12  1  0.25000000  0.01226250  0.30428987  1
  Th  Th13  1  0.75000000  0.98773750  0.69571013  1
  Th  Th14  1  0.75000000  0.51226250  0.19571013  1
  Th  Th15  1  0.25000000  0.48773750  0.80428987  1
  Th  Th16  1  0.25000000  0.68376798  0.48466139  1
  Th  Th17  1  0.75000000  0.31623202  0.51533861  1
  Th  Th18  1  0.75000000  0.18376798  0.01533861  1
  Th  Th19  1  0.25000000  0.81623202  0.98466139  1
