# generated using pymatgen
data_Y2TiO5
_symmetry_space_group_name_H-M   'P 1'
_cell_length_a   3.71858010
_cell_length_b   10.44709696
_cell_length_c   11.35145834
_cell_angle_alpha   90.00000000
_cell_angle_beta   90.00000000
_cell_angle_gamma   90.00000000
_symmetry_Int_Tables_number   1
_chemical_formula_structural   Y2TiO5
_chemical_formula_sum   'Y8 Ti4 O20'
_cell_volume   440.98561797
_cell_formula_units_Z   4
loop_
 _symmetry_equiv_pos_site_id
 _symmetry_equiv_pos_as_xyz
  1  'x, y, z'
loop_
 _atom_site_type_symbol
 _atom_site_label
 _atom_site_symmetry_multiplicity
 _atom_site_fract_x
 _atom_site_fract_y
 _atom_site_fract_z
 _atom_site_occupancy
  O  O0  1  0.25000000  0.76404104  0.11692844  1
  O  O1  1  0.75000000  0.23595896  0.88307156  1
  O  O2  1  0.25000000  0.26404104  0.38307156  1
  O  O3  1  0.75000000  0.73595896  0.61692844  1
  O  O4  1  0.25000000  0.00737320  0.84548937  1
  O  O5  1  0.75000000  0.99262680  0.15451063  1
  O  O6  1  0.25000000  0.50737320  0.65451063  1
  O  O7  1  0.75000000  0.49262680  0.34548937  1
  O  O8  1  0.25000000  0.75679819  0.77068650  1
  O  O9  1  0.75000000  0.24320181  0.22931350  1
  O  O10  1  0.25000000  0.25679819  0.72931350  1
  O  O11  1  0.75000000  0.74320181  0.27068650  1
  O  O12  1  0.75000000  0.50611385  0.89493215  1
  O  O13  1  0.25000000  0.49388615  0.10506785  1
  O  O14  1  0.75000000  0.00611385  0.60506785  1
  O  O15  1  0.25000000  0.99388615  0.39493215  1
  O  O16  1  0.75000000  0.77580279  0.95759941  1
  O  O17  1  0.25000000  0.22419721  0.04240059  1
  O  O18  1  0.75000000  0.27580279  0.54240059  1
  O  O19  1  0.25000000  0.72419721  0.45759941  1
  Ti  Ti20  1  0.25000000  0.67417044  0.61964664  1
  Ti  Ti21  1  0.75000000  0.32582956  0.38035336  1
  Ti  Ti22  1  0.25000000  0.17417044  0.88035336  1
  Ti  Ti23  1  0.75000000  0.82582956  0.11964664  1
  Y  Y24  1  0.25000000  0.63627035  0.94426714  1
  Y  Y25  1  0.75000000  0.36372965  0.05573286  1
  Y  Y26  1  0.25000000  0.13627035  0.55573286  1
  Y  Y27  1  0.75000000  0.86372965  0.44426714  1
  Y  Y28  1  0.25000000  0.61542001  0.27665886  1
  Y  Y29  1  0.75000000  0.38457999  0.72334114  1
  Y  Y30  1  0.25000000  0.11542001  0.22334114  1
  Y  Y31  1  0.75000000  0.88457999  0.77665886  1
