# generated using pymatgen
data_Sr3AlSb3
_symmetry_space_group_name_H-M   'P 1'
_cell_length_a   6.96511392
_cell_length_b   10.88815813
_cell_length_c   13.63881423
_cell_angle_alpha   90.00000000
_cell_angle_beta   90.00000000
_cell_angle_gamma   108.65374036
_symmetry_Int_Tables_number   1
_chemical_formula_structural   Sr3AlSb3
_chemical_formula_sum   'Sr12 Al4 Sb12'
_cell_volume   979.99573940
_cell_formula_units_Z   4
loop_
 _symmetry_equiv_pos_site_id
 _symmetry_equiv_pos_as_xyz
  1  'x, y, z'
loop_
 _atom_site_type_symbol
 _atom_site_label
 _atom_site_symmetry_multiplicity
 _atom_site_fract_x
 _atom_site_fract_y
 _atom_site_fract_z
 _atom_site_occupancy
  Al  Al0  1  0.91371336  0.82742672  0.00000000  1
  Al  Al1  1  0.58628664  0.17257328  0.50000000  1
  Al  Al2  1  0.08628664  0.17257328  0.00000000  1
  Al  Al3  1  0.41371336  0.82742672  0.50000000  1
  Sr  Sr4  1  0.81013594  0.00000000  0.64589952  1
  Sr  Sr5  1  0.31013594  0.00000000  0.85410048  1
  Sr  Sr6  1  0.68986406  0.00000000  0.14589952  1
  Sr  Sr7  1  0.18986406  0.00000000  0.35410048  1
  Sr  Sr8  1  0.12674365  0.64810063  0.12911325  1
  Sr  Sr9  1  0.97864302  0.35189937  0.37088675  1
  Sr  Sr10  1  0.37325635  0.35189937  0.62911325  1
  Sr  Sr11  1  0.52135698  0.64810063  0.87088675  1
  Sr  Sr12  1  0.87325635  0.35189937  0.87088675  1
  Sr  Sr13  1  0.02135698  0.64810063  0.62911325  1
  Sr  Sr14  1  0.62674365  0.64810063  0.37088675  1
  Sr  Sr15  1  0.47864302  0.35189937  0.12911325  1
  Sb  Sb16  1  0.28793794  0.00000000  0.60758668  1
  Sb  Sb17  1  0.78793794  0.00000000  0.89241332  1
  Sb  Sb18  1  0.21206206  0.00000000  0.10758668  1
  Sb  Sb19  1  0.71206206  0.00000000  0.39241332  1
  Sb  Sb20  1  0.62748763  0.67886778  0.12276976  1
  Sb  Sb21  1  0.44861985  0.32113222  0.37723024  1
  Sb  Sb22  1  0.87251237  0.32113222  0.62276976  1
  Sb  Sb23  1  0.05138015  0.67886778  0.87723024  1
  Sb  Sb24  1  0.37251237  0.32113222  0.87723024  1
  Sb  Sb25  1  0.55138015  0.67886778  0.62276976  1
  Sb  Sb26  1  0.12748763  0.67886778  0.37723024  1
  Sb  Sb27  1  0.94861985  0.32113222  0.12276976  1
