# generated using pymatgen
data_Ho2Si3Rh
_symmetry_space_group_name_H-M   'P 1'
_cell_length_a   7.85895099
_cell_length_b   8.16080571
_cell_length_c   8.16080571
_cell_angle_alpha   120.00375084
_cell_angle_beta   90.00000000
_cell_angle_gamma   90.00000000
_symmetry_Int_Tables_number   1
_chemical_formula_structural   Ho2Si3Rh
_chemical_formula_sum   'Ho8 Si12 Rh4'
_cell_volume   453.25736894
_cell_formula_units_Z   4
loop_
 _symmetry_equiv_pos_site_id
 _symmetry_equiv_pos_as_xyz
  1  'x, y, z'
loop_
 _atom_site_type_symbol
 _atom_site_label
 _atom_site_symmetry_multiplicity
 _atom_site_fract_x
 _atom_site_fract_y
 _atom_site_fract_z
 _atom_site_occupancy
  Ho  Ho0  1  0.75000000  0.00000470  0.99999530  1
  Ho  Ho1  1  0.25000000  0.99999530  0.00000470  1
  Ho  Ho2  1  0.75000000  0.49104156  0.98210306  1
  Ho  Ho3  1  0.75000000  0.49104964  0.50895036  1
  Ho  Ho4  1  0.75000000  0.01789694  0.50895844  1
  Ho  Ho5  1  0.25000000  0.50895844  0.01789694  1
  Ho  Ho6  1  0.25000000  0.50895036  0.49104964  1
  Ho  Ho7  1  0.25000000  0.98210306  0.49104156  1
  Si  Si8  1  0.50067872  0.83317070  0.66634772  1
  Si  Si9  1  0.50066893  0.83318114  0.16681886  1
  Si  Si10  1  0.50067872  0.33365228  0.16682930  1
  Si  Si11  1  0.49932128  0.16682930  0.33365228  1
  Si  Si12  1  0.49933107  0.16681886  0.83318114  1
  Si  Si13  1  0.49932128  0.66634772  0.83317070  1
  Si  Si14  1  0.00067872  0.16682930  0.33365228  1
  Si  Si15  1  0.00066893  0.16681886  0.83318114  1
  Si  Si16  1  0.00067872  0.66634772  0.83317070  1
  Si  Si17  1  0.99932128  0.83317070  0.66634772  1
  Si  Si18  1  0.99933107  0.83318114  0.16681886  1
  Si  Si19  1  0.99932128  0.33365228  0.16682930  1
  Rh  Rh20  1  0.53332010  0.66667436  0.33332564  1
  Rh  Rh21  1  0.46667990  0.33332564  0.66667436  1
  Rh  Rh22  1  0.03332010  0.33332564  0.66667436  1
  Rh  Rh23  1  0.96667990  0.66667436  0.33332564  1
