# generated using pymatgen
data_Gd2TeO6
_symmetry_space_group_name_H-M   'P 1'
_cell_length_a   5.37822267
_cell_length_b   9.26555130
_cell_length_c   10.15650108
_cell_angle_alpha   90.00000000
_cell_angle_beta   90.00000000
_cell_angle_gamma   90.00000000
_symmetry_Int_Tables_number   1
_chemical_formula_structural   Gd2TeO6
_chemical_formula_sum   'Gd8 Te4 O24'
_cell_volume   506.12077333
_cell_formula_units_Z   4
loop_
 _symmetry_equiv_pos_site_id
 _symmetry_equiv_pos_as_xyz
  1  'x, y, z'
loop_
 _atom_site_type_symbol
 _atom_site_label
 _atom_site_symmetry_multiplicity
 _atom_site_fract_x
 _atom_site_fract_y
 _atom_site_fract_z
 _atom_site_occupancy
  O  O0  1  0.24336652  0.58524887  0.50632522  1
  O  O1  1  0.74336652  0.91475113  0.49367478  1
  O  O2  1  0.75663348  0.08524887  0.99367478  1
  O  O3  1  0.25663348  0.41475113  0.00632522  1
  O  O4  1  0.27038587  0.88637566  0.43199434  1
  O  O5  1  0.77038587  0.61362434  0.56800566  1
  O  O6  1  0.72961413  0.38637566  0.06800566  1
  O  O7  1  0.22961413  0.11362434  0.93199434  1
  O  O8  1  0.18534460  0.63930853  0.17781231  1
  O  O9  1  0.68534460  0.86069147  0.82218769  1
  O  O10  1  0.81465540  0.13930853  0.32218769  1
  O  O11  1  0.31465540  0.36069147  0.67781231  1
  O  O12  1  0.31534204  0.36023316  0.25987148  1
  O  O13  1  0.81534204  0.13976684  0.74012852  1
  O  O14  1  0.68465796  0.86023316  0.24012852  1
  O  O15  1  0.18465796  0.63976684  0.75987148  1
  O  O16  1  0.33211712  0.05119204  0.20421027  1
  O  O17  1  0.83211712  0.44880796  0.79578973  1
  O  O18  1  0.66788288  0.55119204  0.29578973  1
  O  O19  1  0.16788288  0.94880796  0.70421027  1
  O  O20  1  0.41548648  0.15378951  0.47145631  1
  O  O21  1  0.91548648  0.34621049  0.52854369  1
  O  O22  1  0.58451352  0.65378951  0.02854369  1
  O  O23  1  0.08451352  0.84621049  0.97145631  1
  Te  Te24  1  0.96135415  0.99535355  0.85331441  1
  Te  Te25  1  0.46135415  0.50464645  0.14668559  1
  Te  Te26  1  0.03864585  0.49535355  0.64668559  1
  Te  Te27  1  0.53864585  0.00464645  0.35331441  1
  Gd  Gd28  1  0.47948267  0.89636584  0.03909643  1
  Gd  Gd29  1  0.97948267  0.60363416  0.96090357  1
  Gd  Gd30  1  0.52051733  0.39636584  0.46090357  1
  Gd  Gd31  1  0.02051733  0.10363416  0.53909643  1
  Gd  Gd32  1  0.46323251  0.78316001  0.63633297  1
  Gd  Gd33  1  0.96323251  0.71683999  0.36366703  1
  Gd  Gd34  1  0.53676749  0.28316001  0.86366703  1
  Gd  Gd35  1  0.03676749  0.21683999  0.13633297  1
