# generated using pymatgen
data_Ba6YCl15
_symmetry_space_group_name_H-M   'P 1'
_cell_length_a   10.84400199
_cell_length_b   10.84400199
_cell_length_c   31.05594652
_cell_angle_alpha   89.94072475
_cell_angle_beta   90.05927525
_cell_angle_gamma   88.06315221
_symmetry_Int_Tables_number   1
_chemical_formula_structural   Ba6YCl15
_chemical_formula_sum   'Ba24 Y4 Cl60'
_cell_volume   3649.85219024
_cell_formula_units_Z   4
loop_
 _symmetry_equiv_pos_site_id
 _symmetry_equiv_pos_as_xyz
  1  'x, y, z'
loop_
 _atom_site_type_symbol
 _atom_site_label
 _atom_site_symmetry_multiplicity
 _atom_site_fract_x
 _atom_site_fract_y
 _atom_site_fract_z
 _atom_site_occupancy
  Ba  Ba0  1  0.02430829  0.99653168  0.61343739  1
  Ba  Ba1  1  0.00346832  0.97569171  0.11343739  1
  Ba  Ba2  1  0.45290386  0.06031470  0.63772249  1
  Ba  Ba3  1  0.23878765  0.81586168  0.74312625  1
  Ba  Ba4  1  0.93968530  0.54709614  0.13772249  1
  Ba  Ba5  1  0.18413832  0.76121235  0.24312625  1
  Ba  Ba6  1  0.08241508  0.55735290  0.62795778  1
  Ba  Ba7  1  0.32874013  0.77759916  0.52273396  1
  Ba  Ba8  1  0.44264710  0.91758492  0.12795778  1
  Ba  Ba9  1  0.22240084  0.67125987  0.02273396  1
  Ba  Ba10  1  0.54081648  0.60847284  0.64650181  1
  Ba  Ba11  1  0.39152716  0.45918352  0.14650181  1
  Ba  Ba12  1  0.60847284  0.54081648  0.85349819  1
  Ba  Ba13  1  0.45918352  0.39152716  0.35349819  1
  Ba  Ba14  1  0.77759916  0.32874013  0.97726604  1
  Ba  Ba15  1  0.55735290  0.08241508  0.87204222  1
  Ba  Ba16  1  0.67125987  0.22240084  0.47726604  1
  Ba  Ba17  1  0.91758492  0.44264710  0.37204222  1
  Ba  Ba18  1  0.81586168  0.23878765  0.75687375  1
  Ba  Ba19  1  0.06031470  0.45290386  0.86227751  1
  Ba  Ba20  1  0.76121235  0.18413832  0.25687375  1
  Ba  Ba21  1  0.54709614  0.93968530  0.36227751  1
  Ba  Ba22  1  0.99653168  0.02430829  0.88656261  1
  Ba  Ba23  1  0.97569171  0.00346832  0.38656261  1
  Y  Y24  1  0.29644023  0.75209987  0.88657659  1
  Y  Y25  1  0.24790013  0.70355977  0.38657659  1
  Y  Y26  1  0.75209987  0.29644023  0.61342341  1
  Y  Y27  1  0.70355977  0.24790013  0.11342241  1
  Cl  Cl28  1  0.12334429  0.82979354  0.94561751  1
  Cl  Cl29  1  0.17020646  0.87665571  0.44561751  1
  Cl  Cl30  1  0.09721772  0.78405545  0.83137526  1
  Cl  Cl31  1  0.06119634  0.75713104  0.55958659  1
  Cl  Cl32  1  0.21594455  0.90278228  0.33137526  1
  Cl  Cl33  1  0.24286896  0.93880366  0.05958659  1
  Cl  Cl34  1  0.23451500  0.54488350  0.93327496  1
  Cl  Cl35  1  0.49404047  0.84533995  0.70277643  1
  Cl  Cl36  1  0.45511650  0.76548500  0.43327496  1
  Cl  Cl37  1  0.00683155  0.29057463  0.61764169  1
  Cl  Cl38  1  0.15466005  0.50595953  0.20277643  1
  Cl  Cl39  1  0.31947242  0.55207723  0.83086264  1
  Cl  Cl40  1  0.70942537  0.99316845  0.11764169  1
  Cl  Cl41  1  0.54644046  0.83156057  0.58488415  1
  Cl  Cl42  1  0.28887728  0.57352500  0.69701085  1
  Cl  Cl43  1  0.48936337  0.73335980  0.93549123  1
  Cl  Cl44  1  0.03028920  0.26546045  0.93510052  1
  Cl  Cl45  1  0.78635983  0.01307890  0.81819389  1
  Cl  Cl46  1  0.44792277  0.68052758  0.33086264  1
  Cl  Cl47  1  0.16843943  0.45355954  0.08488415  1
  Cl  Cl48  1  0.42647500  0.71112272  0.19701085  1
  Cl  Cl49  1  0.26664020  0.51063663  0.43549123  1
  Cl  Cl50  1  0.73453955  0.96971080  0.43510052  1
  Cl  Cl51  1  0.98692110  0.21364017  0.31819389  1
  Cl  Cl52  1  0.47517835  0.80928463  0.82573778  1
  Cl  Cl53  1  0.33790803  0.55023773  0.58101627  1
  Cl  Cl54  1  0.05628952  0.20825322  0.81102122  1
  Cl  Cl55  1  0.19071537  0.52482165  0.32573778  1
  Cl  Cl56  1  0.44976227  0.66209197  0.08101627  1
  Cl  Cl57  1  0.79174678  0.94371048  0.31102122  1
  Cl  Cl58  1  0.20825322  0.05628952  0.68897878  1
  Cl  Cl59  1  0.55023773  0.33790803  0.91898373  1
  Cl  Cl60  1  0.80928463  0.47517835  0.67426222  1
  Cl  Cl61  1  0.94371048  0.79174678  0.18897878  1
  Cl  Cl62  1  0.66209197  0.44976227  0.41898373  1
  Cl  Cl63  1  0.52482165  0.19071537  0.17426222  1
  Cl  Cl64  1  0.01307890  0.78635983  0.68180611  1
  Cl  Cl65  1  0.26546045  0.03028920  0.56489948  1
  Cl  Cl66  1  0.73335980  0.48936337  0.56450877  1
  Cl  Cl67  1  0.57352500  0.28887728  0.80298915  1
  Cl  Cl68  1  0.83156057  0.54644046  0.91511585  1
  Cl  Cl69  1  0.55207723  0.31947242  0.66913736  1
  Cl  Cl70  1  0.21364017  0.98692110  0.18180611  1
  Cl  Cl71  1  0.96971080  0.73453955  0.06489948  1
  Cl  Cl72  1  0.51063663  0.26664020  0.06450877  1
  Cl  Cl73  1  0.71112272  0.42647500  0.30298915  1
  Cl  Cl74  1  0.45355954  0.16843943  0.41511585  1
  Cl  Cl75  1  0.29057463  0.00683155  0.88235831  1
  Cl  Cl76  1  0.68052758  0.44792277  0.16913736  1
  Cl  Cl77  1  0.84533995  0.49404047  0.79722357  1
  Cl  Cl78  1  0.99316845  0.70942537  0.38235831  1
  Cl  Cl79  1  0.54488350  0.23451500  0.56672504  1
  Cl  Cl80  1  0.50595953  0.15466005  0.29722357  1
  Cl  Cl81  1  0.76548500  0.45511650  0.06672504  1
  Cl  Cl82  1  0.75713104  0.06119634  0.94041341  1
  Cl  Cl83  1  0.78405545  0.09721772  0.66862474  1
  Cl  Cl84  1  0.93880366  0.24286896  0.44041341  1
  Cl  Cl85  1  0.90278228  0.21594455  0.16862474  1
  Cl  Cl86  1  0.82979354  0.12334429  0.55438249  1
  Cl  Cl87  1  0.87665571  0.17020646  0.05438249  1
