# generated using pymatgen
data_CsReO4
_symmetry_space_group_name_H-M   'P 1'
_cell_length_a   5.96430516
_cell_length_b   6.16253430
_cell_length_c   14.66572207
_cell_angle_alpha   90.00000000
_cell_angle_beta   90.00000000
_cell_angle_gamma   90.00000000
_symmetry_Int_Tables_number   1
_chemical_formula_structural   CsReO4
_chemical_formula_sum   'Cs4 Re4 O16'
_cell_volume   539.04206295
_cell_formula_units_Z   4
loop_
 _symmetry_equiv_pos_site_id
 _symmetry_equiv_pos_as_xyz
  1  'x, y, z'
loop_
 _atom_site_type_symbol
 _atom_site_label
 _atom_site_symmetry_multiplicity
 _atom_site_fract_x
 _atom_site_fract_y
 _atom_site_fract_z
 _atom_site_occupancy
  O  O0  1  0.51717382  0.51716442  0.81504014  1
  O  O1  1  0.01717382  0.98283558  0.68495986  1
  O  O2  1  0.48282618  0.01716442  0.18495986  1
  O  O3  1  0.98282618  0.48283558  0.31504014  1
  O  O4  1  0.48282618  0.48283558  0.18495986  1
  O  O5  1  0.98282618  0.01716442  0.31504014  1
  O  O6  1  0.51717382  0.98283558  0.81504014  1
  O  O7  1  0.01717382  0.51716442  0.68495986  1
  O  O8  1  0.81493646  0.25000000  0.08244935  1
  O  O9  1  0.31493646  0.25000000  0.41755065  1
  O  O10  1  0.18506354  0.75000000  0.91755065  1
  O  O11  1  0.68506354  0.75000000  0.58244935  1
  O  O12  1  0.85420907  0.25000000  0.47541815  1
  O  O13  1  0.35420907  0.25000000  0.02458185  1
  O  O14  1  0.14579093  0.75000000  0.52458185  1
  O  O15  1  0.64579093  0.75000000  0.97541815  1
  Cs  Cs16  1  0.47719580  0.25000000  0.62812663  1
  Cs  Cs17  1  0.97719580  0.25000000  0.87187337  1
  Cs  Cs18  1  0.52280420  0.75000000  0.37187337  1
  Cs  Cs19  1  0.02280420  0.75000000  0.12812663  1
  Re  Re20  1  0.46602908  0.75000000  0.88083020  1
  Re  Re21  1  0.96602908  0.75000000  0.61916980  1
  Re  Re22  1  0.53397092  0.25000000  0.11916980  1
  Re  Re23  1  0.03397092  0.25000000  0.38083020  1
