# generated using pymatgen
data_Co2O3F
_symmetry_space_group_name_H-M   'P 1'
_cell_length_a   4.37704042
_cell_length_b   9.23514731
_cell_length_c   5.93081653
_cell_angle_alpha   71.27052262
_cell_angle_beta   90.00000000
_cell_angle_gamma   87.45961810
_symmetry_Int_Tables_number   1
_chemical_formula_structural   Co2O3F
_chemical_formula_sum   'Co8 O12 F4'
_cell_volume   226.79496999
_cell_formula_units_Z   4
loop_
 _symmetry_equiv_pos_site_id
 _symmetry_equiv_pos_as_xyz
  1  'x, y, z'
loop_
 _atom_site_type_symbol
 _atom_site_label
 _atom_site_symmetry_multiplicity
 _atom_site_fract_x
 _atom_site_fract_y
 _atom_site_fract_z
 _atom_site_occupancy
  Co  Co0  1  0.47730111  0.23805065  0.63097417  1
  Co  Co1  1  0.52715260  0.26354013  0.11823044  1
  Co  Co2  1  0.47284740  0.73645987  0.38176956  1
  Co  Co3  1  0.52269889  0.76194935  0.86902583  1
  Co  Co4  1  0.00000000  0.00000000  0.50586806  1
  Co  Co5  1  0.00000000  0.50000000  0.75000000  1
  Co  Co6  1  0.00000000  0.00000000  0.99413194  1
  Co  Co7  1  0.00000000  0.50000000  0.25000000  1
  O  O8  1  0.80731650  0.40402465  0.04798768  1
  O  O9  1  0.80547433  0.90388416  0.79805792  1
  O  O10  1  0.69298522  0.15047848  0.92585799  1
  O  O11  1  0.69417912  0.65343201  0.17466337  1
  O  O12  1  0.69298522  0.15047848  0.42366353  1
  O  O13  1  0.69417912  0.65343201  0.67190361  1
  O  O14  1  0.30701478  0.84952152  0.07633647  1
  O  O15  1  0.30582088  0.34656799  0.82809639  1
  O  O16  1  0.30582088  0.34656799  0.32533663  1
  O  O17  1  0.30701478  0.84952152  0.57414201  1
  O  O18  1  0.19268350  0.59597535  0.45201232  1
  O  O19  1  0.19452567  0.09611584  0.70194208  1
  F  F20  1  0.78390150  0.38984888  0.55507556  1
  F  F21  1  0.79964263  0.89652787  0.30173607  1
  F  F22  1  0.21609850  0.61015112  0.94492444  1
  F  F23  1  0.20035737  0.10347213  0.19826393  1
