# generated using pymatgen
data_SrPrCuSe3
_symmetry_space_group_name_H-M   'P 1'
_cell_length_a   4.18116047
_cell_length_b   11.10425299
_cell_length_c   13.64281665
_cell_angle_alpha   90.00000000
_cell_angle_beta   90.00000000
_cell_angle_gamma   90.00000000
_symmetry_Int_Tables_number   1
_chemical_formula_structural   SrPrCuSe3
_chemical_formula_sum   'Sr4 Pr4 Cu4 Se12'
_cell_volume   633.41774549
_cell_formula_units_Z   4
loop_
 _symmetry_equiv_pos_site_id
 _symmetry_equiv_pos_as_xyz
  1  'x, y, z'
loop_
 _atom_site_type_symbol
 _atom_site_label
 _atom_site_symmetry_multiplicity
 _atom_site_fract_x
 _atom_site_fract_y
 _atom_site_fract_z
 _atom_site_occupancy
  Cu  Cu0  1  0.25000000  0.73384155  0.77664338  1
  Cu  Cu1  1  0.75000000  0.26615845  0.22335662  1
  Cu  Cu2  1  0.25000000  0.23384155  0.72335662  1
  Cu  Cu3  1  0.75000000  0.76615845  0.27664338  1
  Se  Se4  1  0.75000000  0.60283587  0.39921069  1
  Se  Se5  1  0.25000000  0.39716413  0.60078931  1
  Se  Se6  1  0.75000000  0.10283587  0.10078931  1
  Se  Se7  1  0.25000000  0.89716413  0.89921069  1
  Se  Se8  1  0.25000000  0.55226081  0.88413519  1
  Se  Se9  1  0.75000000  0.44773919  0.11586481  1
  Se  Se10  1  0.25000000  0.05226081  0.61586481  1
  Se  Se11  1  0.75000000  0.94773919  0.38413519  1
  Se  Se12  1  0.75000000  0.73742859  0.67014656  1
  Se  Se13  1  0.25000000  0.26257141  0.32985344  1
  Se  Se14  1  0.75000000  0.23742859  0.82985344  1
  Se  Se15  1  0.25000000  0.76257141  0.17014656  1
  Sr  Sr16  1  0.75000000  0.71547542  0.00014805  1
  Sr  Sr17  1  0.25000000  0.28452458  0.99985195  1
  Sr  Sr18  1  0.75000000  0.21547542  0.49985195  1
  Sr  Sr19  1  0.25000000  0.78452458  0.50014805  1
  Pr  Pr20  1  0.75000000  0.98101652  0.76281842  1
  Pr  Pr21  1  0.25000000  0.01898348  0.23718158  1
  Pr  Pr22  1  0.75000000  0.48101652  0.73718158  1
  Pr  Pr23  1  0.25000000  0.51898348  0.26281842  1
