# generated using pymatgen
data_Na5OsO6
_symmetry_space_group_name_H-M   'P 1'
_cell_length_a   5.65379162
_cell_length_b   5.69707394
_cell_length_c   5.69707394
_cell_angle_alpha   119.42920967
_cell_angle_beta   100.39180301
_cell_angle_gamma   100.39180297
_symmetry_Int_Tables_number   1
_chemical_formula_structural   Na5OsO6
_chemical_formula_sum   'Na5 Os1 O6'
_cell_volume   149.25148888
_cell_formula_units_Z   1
loop_
 _symmetry_equiv_pos_site_id
 _symmetry_equiv_pos_as_xyz
  1  'x, y, z'
loop_
 _atom_site_type_symbol
 _atom_site_label
 _atom_site_symmetry_multiplicity
 _atom_site_fract_x
 _atom_site_fract_y
 _atom_site_fract_z
 _atom_site_occupancy
  O  O0  1  0.20331809  0.79850886  0.79850886  1
  O  O1  1  0.79668191  0.20149114  0.20149114  1
  O  O2  1  0.21584524  0.07092853  0.34947026  1
  O  O3  1  0.78415476  0.65052974  0.92907147  1
  O  O4  1  0.78415476  0.92907147  0.65052974  1
  O  O5  1  0.21584524  0.34947026  0.07092853  1
  Na  Na6  1  0.00000000  0.66702481  0.33297519  1
  Na  Na7  1  0.50000000  0.17404414  0.82595586  1
  Na  Na8  1  0.50000000  0.50000000  0.50000000  1
  Na  Na9  1  0.00000000  0.33297519  0.66702481  1
  Na  Na10  1  0.50000000  0.82595586  0.17404414  1
  Os  Os11  1  0.00000000  0.00000000  0.00000000  1
