# generated using pymatgen
data_UFeSi
_symmetry_space_group_name_H-M   'P 1'
_cell_length_a   3.99257729
_cell_length_b   6.39038184
_cell_length_c   7.25923816
_cell_angle_alpha   90.00000000
_cell_angle_beta   90.00000000
_cell_angle_gamma   90.00000000
_symmetry_Int_Tables_number   1
_chemical_formula_structural   UFeSi
_chemical_formula_sum   'U4 Fe4 Si4'
_cell_volume   185.21288049
_cell_formula_units_Z   4
loop_
 _symmetry_equiv_pos_site_id
 _symmetry_equiv_pos_as_xyz
  1  'x, y, z'
loop_
 _atom_site_type_symbol
 _atom_site_label
 _atom_site_symmetry_multiplicity
 _atom_site_fract_x
 _atom_site_fract_y
 _atom_site_fract_z
 _atom_site_occupancy
  Si  Si0  1  0.25000000  0.38382169  0.69806012  1
  Si  Si1  1  0.75000000  0.61617831  0.30193988  1
  Si  Si2  1  0.75000000  0.88382169  0.80193988  1
  Si  Si3  1  0.25000000  0.11617831  0.19806012  1
  Fe  Fe4  1  0.25000000  0.44182994  0.37533489  1
  Fe  Fe5  1  0.75000000  0.55817006  0.62466511  1
  Fe  Fe6  1  0.75000000  0.94182994  0.12466511  1
  Fe  Fe7  1  0.25000000  0.05817006  0.87533489  1
  U  U8  1  0.25000000  0.84052534  0.51131961  1
  U  U9  1  0.75000000  0.15947466  0.48868039  1
  U  U10  1  0.75000000  0.34052534  0.98868039  1
  U  U11  1  0.25000000  0.65947466  0.01131961  1
