# generated using pymatgen
data_GdPtF7
_symmetry_space_group_name_H-M   'P 1'
_cell_length_a   5.60576347
_cell_length_b   9.01833443
_cell_length_c   11.25877765
_cell_angle_alpha   107.39913811
_cell_angle_beta   90.00000000
_cell_angle_gamma   90.00000000
_symmetry_Int_Tables_number   1
_chemical_formula_structural   GdPtF7
_chemical_formula_sum   'Gd4 Pt4 F28'
_cell_volume   543.14046753
_cell_formula_units_Z   4
loop_
 _symmetry_equiv_pos_site_id
 _symmetry_equiv_pos_as_xyz
  1  'x, y, z'
loop_
 _atom_site_type_symbol
 _atom_site_label
 _atom_site_symmetry_multiplicity
 _atom_site_fract_x
 _atom_site_fract_y
 _atom_site_fract_z
 _atom_site_occupancy
  F  F0  1  0.56647375  0.37960945  0.08417444  1
  F  F1  1  0.06647375  0.12039055  0.41582556  1
  F  F2  1  0.43352625  0.62039055  0.91582556  1
  F  F3  1  0.93352625  0.87960945  0.58417444  1
  F  F4  1  0.55635218  0.17990961  0.45875055  1
  F  F5  1  0.05635218  0.32009039  0.04124945  1
  F  F6  1  0.44364782  0.82009039  0.54124945  1
  F  F7  1  0.94364782  0.67990961  0.95875055  1
  F  F8  1  0.22787262  0.62145165  0.14018270  1
  F  F9  1  0.72787262  0.87854835  0.35981730  1
  F  F10  1  0.77212738  0.37854835  0.85981730  1
  F  F11  1  0.27212738  0.12145165  0.64018270  1
  F  F12  1  0.24509932  0.92366129  0.95039895  1
  F  F13  1  0.74509932  0.57633871  0.54960105  1
  F  F14  1  0.75490068  0.07633871  0.04960105  1
  F  F15  1  0.25490068  0.42366129  0.45039895  1
  F  F16  1  0.03360867  0.64056635  0.36650996  1
  F  F17  1  0.53360867  0.85943365  0.13349004  1
  F  F18  1  0.96639133  0.35943365  0.63349004  1
  F  F19  1  0.46639133  0.14056635  0.86650996  1
  F  F20  1  0.94459490  0.08129560  0.82580805  1
  F  F21  1  0.44459490  0.41870440  0.67419195  1
  F  F22  1  0.05540510  0.91870440  0.17419195  1
  F  F23  1  0.55540510  0.58129560  0.32580805  1
  F  F24  1  0.58876527  0.79939524  0.76811922  1
  F  F25  1  0.08876527  0.70060476  0.73188078  1
  F  F26  1  0.41123473  0.20060476  0.23188078  1
  F  F27  1  0.91123473  0.29939524  0.26811922  1
  Gd  Gd28  1  0.23901566  0.42294331  0.23572263  1
  Gd  Gd29  1  0.73901566  0.07705669  0.26427737  1
  Gd  Gd30  1  0.76098434  0.57705669  0.76427737  1
  Gd  Gd31  1  0.26098434  0.92294331  0.73572263  1
  Pt  Pt32  1  0.24190129  0.77017885  0.04290801  1
  Pt  Pt33  1  0.74190129  0.72982115  0.45709199  1
  Pt  Pt34  1  0.75809871  0.22982115  0.95709199  1
  Pt  Pt35  1  0.25809871  0.27017885  0.54290801  1
