# generated using pymatgen
data_NaErGeO4
_symmetry_space_group_name_H-M   'P 1'
_cell_length_a   5.31325605
_cell_length_b   6.45840288
_cell_length_c   11.43935858
_cell_angle_alpha   90.00000000
_cell_angle_beta   90.00000000
_cell_angle_gamma   90.00000000
_symmetry_Int_Tables_number   1
_chemical_formula_structural   NaErGeO4
_chemical_formula_sum   'Na4 Er4 Ge4 O16'
_cell_volume   392.54328471
_cell_formula_units_Z   4
loop_
 _symmetry_equiv_pos_site_id
 _symmetry_equiv_pos_as_xyz
  1  'x, y, z'
loop_
 _atom_site_type_symbol
 _atom_site_label
 _atom_site_symmetry_multiplicity
 _atom_site_fract_x
 _atom_site_fract_y
 _atom_site_fract_z
 _atom_site_occupancy
  O  O0  1  0.79220074  0.04135094  0.17547603  1
  O  O1  1  0.29220074  0.95864906  0.32452397  1
  O  O2  1  0.20779926  0.54135094  0.82452397  1
  O  O3  1  0.70779926  0.45864906  0.67547603  1
  O  O4  1  0.20779926  0.95864906  0.82452397  1
  O  O5  1  0.70779926  0.04135094  0.67547603  1
  O  O6  1  0.79220074  0.45864906  0.17547603  1
  O  O7  1  0.29220074  0.54135094  0.32452397  1
  O  O8  1  0.17066693  0.75000000  0.04598033  1
  O  O9  1  0.67066693  0.25000000  0.45401967  1
  O  O10  1  0.82933307  0.25000000  0.95401967  1
  O  O11  1  0.32933307  0.75000000  0.54598033  1
  O  O12  1  0.77464988  0.75000000  0.38815397  1
  O  O13  1  0.27464988  0.25000000  0.11184603  1
  O  O14  1  0.22535012  0.25000000  0.61184603  1
  O  O15  1  0.72535012  0.75000000  0.88815397  1
  Na  Na16  1  0.50000000  0.00000000  0.00000000  1
  Na  Na17  1  0.00000000  0.00000000  0.50000000  1
  Na  Na18  1  0.50000000  0.50000000  0.00000000  1
  Na  Na19  1  0.00000000  0.50000000  0.50000000  1
  Ge  Ge20  1  0.05260181  0.75000000  0.90190613  1
  Ge  Ge21  1  0.55260181  0.25000000  0.59809387  1
  Ge  Ge22  1  0.94739819  0.25000000  0.09809387  1
  Ge  Ge23  1  0.44739819  0.75000000  0.40190613  1
  Er  Er24  1  0.00532733  0.75000000  0.22290109  1
  Er  Er25  1  0.50532733  0.25000000  0.27709891  1
  Er  Er26  1  0.99467267  0.25000000  0.77709891  1
  Er  Er27  1  0.49467267  0.75000000  0.72290109  1
