# generated using pymatgen
data_SiO2
_symmetry_space_group_name_H-M   'P 1'
_cell_length_a   11.74119092
_cell_length_b   11.74119099
_cell_length_c   4.44708411
_cell_angle_alpha   90.00000000
_cell_angle_beta   90.00000000
_cell_angle_gamma   119.99999980
_symmetry_Int_Tables_number   1
_chemical_formula_structural   SiO2
_chemical_formula_sum   'Si12 O24'
_cell_volume   530.92145861
_cell_formula_units_Z   12
loop_
 _symmetry_equiv_pos_site_id
 _symmetry_equiv_pos_as_xyz
  1  'x, y, z'
loop_
 _atom_site_type_symbol
 _atom_site_label
 _atom_site_symmetry_multiplicity
 _atom_site_fract_x
 _atom_site_fract_y
 _atom_site_fract_z
 _atom_site_occupancy
  Si  Si0  1  0.85027156  0.53882549  0.78300233  1
  Si  Si1  1  0.68855393  0.53882549  0.21699767  1
  Si  Si2  1  0.31144607  0.85027156  0.21699767  1
  Si  Si3  1  0.68855393  0.14972844  0.78300233  1
  Si  Si4  1  0.14972844  0.68855393  0.78300233  1
  Si  Si5  1  0.53882549  0.68855393  0.21699767  1
  Si  Si6  1  0.46117451  0.14972844  0.21699767  1
  Si  Si7  1  0.31144607  0.46117451  0.78300233  1
  Si  Si8  1  0.14972844  0.46117451  0.21699767  1
  Si  Si9  1  0.53882549  0.85027156  0.78300233  1
  Si  Si10  1  0.85027156  0.31144607  0.21699767  1
  Si  Si11  1  0.46117451  0.31144607  0.78300233  1
  O  O12  1  0.58148670  0.41851330  0.00000000  1
  O  O13  1  0.41851330  0.58148670  0.00000000  1
  O  O14  1  0.25267691  0.74732309  0.50000000  1
  O  O15  1  0.00000000  0.37848803  0.34555243  1
  O  O16  1  0.62151197  0.00000000  0.65444757  1
  O  O17  1  0.83702660  0.41851330  0.00000000  1
  O  O18  1  0.37020920  0.18510460  0.00000000  1
  O  O19  1  0.74732309  0.25267691  0.50000000  1
  O  O20  1  0.58148670  0.16297340  0.00000000  1
  O  O21  1  0.62979080  0.81489540  0.00000000  1
  O  O22  1  0.62151197  0.62151197  0.34555243  1
  O  O23  1  0.49464618  0.74732309  0.50000000  1
  O  O24  1  0.81489540  0.62979080  0.00000000  1
  O  O25  1  0.37848803  0.37848803  0.65444757  1
  O  O26  1  0.74732309  0.49464618  0.50000000  1
  O  O27  1  0.41851330  0.83702660  0.00000000  1
  O  O28  1  1.00000000  0.62151197  0.65444757  1
  O  O29  1  0.37848803  0.00000000  0.34555243  1
  O  O30  1  0.25267691  0.50535382  0.50000000  1
  O  O31  1  0.18510460  0.37020920  0.00000000  1
  O  O32  1  0.81489540  0.18510460  0.00000000  1
  O  O33  1  0.16297340  0.58148670  0.00000000  1
  O  O34  1  0.50535382  0.25267691  0.50000000  1
  O  O35  1  0.18510460  0.81489540  0.00000000  1
