# generated using pymatgen
data_Ba2InO3F
_symmetry_space_group_name_H-M   'P 1'
_cell_length_a   4.22909940
_cell_length_b   4.22909940
_cell_length_c   14.17652216
_cell_angle_alpha   90.00000000
_cell_angle_beta   90.00000000
_cell_angle_gamma   90.00000000
_symmetry_Int_Tables_number   1
_chemical_formula_structural   Ba2InO3F
_chemical_formula_sum   'Ba4 In2 O6 F2'
_cell_volume   253.55109286
_cell_formula_units_Z   2
loop_
 _symmetry_equiv_pos_site_id
 _symmetry_equiv_pos_as_xyz
  1  'x, y, z'
loop_
 _atom_site_type_symbol
 _atom_site_label
 _atom_site_symmetry_multiplicity
 _atom_site_fract_x
 _atom_site_fract_y
 _atom_site_fract_z
 _atom_site_occupancy
  O  O0  1  0.25000000  0.75000000  0.25837444  1
  O  O1  1  0.75000000  0.25000000  0.25837444  1
  O  O2  1  0.25000000  0.25000000  0.91857886  1
  O  O3  1  0.75000000  0.75000000  0.08142114  1
  O  O4  1  0.75000000  0.25000000  0.74162556  1
  O  O5  1  0.25000000  0.75000000  0.74162556  1
  F  F6  1  0.75000000  0.75000000  0.42783448  1
  F  F7  1  0.25000000  0.25000000  0.57216552  1
  In  In8  1  0.25000000  0.25000000  0.76801887  1
  In  In9  1  0.75000000  0.75000000  0.23198113  1
  Ba  Ba10  1  0.75000000  0.75000000  0.89799761  1
  Ba  Ba11  1  0.25000000  0.25000000  0.10200239  1
  Ba  Ba12  1  0.75000000  0.75000000  0.62053027  1
  Ba  Ba13  1  0.25000000  0.25000000  0.37946973  1
