# generated using pymatgen
data_Ba3(SnAs2)2
_symmetry_space_group_name_H-M   'P 1'
_cell_length_a   8.06699706
_cell_length_b   8.18103408
_cell_length_c   20.15552175
_cell_angle_alpha   90.00000000
_cell_angle_beta   90.00000000
_cell_angle_gamma   112.23367186
_symmetry_Int_Tables_number   1
_chemical_formula_structural   Ba3(SnAs2)2
_chemical_formula_sum   'Ba12 Sn8 As16'
_cell_volume   1231.28953433
_cell_formula_units_Z   4
loop_
 _symmetry_equiv_pos_site_id
 _symmetry_equiv_pos_as_xyz
  1  'x, y, z'
loop_
 _atom_site_type_symbol
 _atom_site_label
 _atom_site_symmetry_multiplicity
 _atom_site_fract_x
 _atom_site_fract_y
 _atom_site_fract_z
 _atom_site_occupancy
  As  As0  1  0.74614675  0.49815117  0.56420344  1
  As  As1  1  0.75385325  0.50184883  0.06420344  1
  As  As2  1  0.25385325  0.50184883  0.43579656  1
  As  As3  1  0.24614675  0.49815117  0.93579656  1
  As  As4  1  0.24941147  0.00101551  0.55481928  1
  As  As5  1  0.25058853  0.99898449  0.05481928  1
  As  As6  1  0.75058853  0.99898449  0.44518072  1
  As  As7  1  0.74941147  0.00101551  0.94518072  1
  As  As8  1  0.21588312  0.03537818  0.81712480  1
  As  As9  1  0.28411688  0.96462182  0.31712480  1
  As  As10  1  0.78411688  0.96462182  0.18287520  1
  As  As11  1  0.71588312  0.03537818  0.68287520  1
  As  As12  1  0.28454419  0.48765791  0.19906642  1
  As  As13  1  0.78454419  0.48765791  0.30093358  1
  As  As14  1  0.71545581  0.51234209  0.80093358  1
  As  As15  1  0.21545581  0.51234209  0.69906642  1
  Sn  Sn16  1  0.47428052  0.78994264  0.37670328  1
  Sn  Sn17  1  0.02571948  0.21005736  0.87670328  1
  Sn  Sn18  1  0.52571948  0.21005736  0.62329672  1
  Sn  Sn19  1  0.97428052  0.78994264  0.12329672  1
  Sn  Sn20  1  0.59934064  0.68338104  0.25809524  1
  Sn  Sn21  1  0.09934064  0.68338104  0.24190476  1
  Sn  Sn22  1  0.40065936  0.31661896  0.74190476  1
  Sn  Sn23  1  0.90065936  0.31661896  0.75809524  1
  Ba  Ba24  1  0.99064994  0.78690865  0.68295420  1
  Ba  Ba25  1  0.50935006  0.21309135  0.18295420  1
  Ba  Ba26  1  0.00935006  0.21309135  0.31704580  1
  Ba  Ba27  1  0.49064994  0.78690865  0.81704580  1
  Ba  Ba28  1  0.00509266  0.26167510  0.56071216  1
  Ba  Ba29  1  0.49490734  0.73832490  0.06071216  1
  Ba  Ba30  1  0.99490734  0.73832490  0.43928784  1
  Ba  Ba31  1  0.50509266  0.26167510  0.93928784  1
  Ba  Ba32  1  0.48880468  0.74259257  0.56319884  1
  Ba  Ba33  1  0.01119532  0.25740743  0.06319884  1
  Ba  Ba34  1  0.51119532  0.25740743  0.43680116  1
  Ba  Ba35  1  0.98880468  0.74259257  0.93680116  1
