# generated using pymatgen
data_Li4V2Ni3Sn3O16
_symmetry_space_group_name_H-M   'P 1'
_cell_length_a   6.09309828
_cell_length_b   6.07086022
_cell_length_c   9.61041955
_cell_angle_alpha   90.00589687
_cell_angle_beta   89.87655976
_cell_angle_gamma   119.87859189
_symmetry_Int_Tables_number   1
_chemical_formula_structural   Li4V2Ni3Sn3O16
_chemical_formula_sum   'Li4 V2 Ni3 Sn3 O16'
_cell_volume   308.24080339
_cell_formula_units_Z   1
loop_
 _symmetry_equiv_pos_site_id
 _symmetry_equiv_pos_as_xyz
  1  'x, y, z'
loop_
 _atom_site_type_symbol
 _atom_site_label
 _atom_site_symmetry_multiplicity
 _atom_site_fract_x
 _atom_site_fract_y
 _atom_site_fract_z
 _atom_site_occupancy
  Li  Li0  1  0.36218742  0.68112202  0.89927435  1
  Li  Li1  1  0.96493116  0.98246913  0.98355618  1
  Li  Li2  1  0.98041824  0.99024677  0.50023719  1
  Li  Li3  1  0.66413266  0.33207651  0.40517680  1
  V  V4  1  0.35082509  0.67541514  0.49907262  1
  V  V5  1  0.71840721  0.35921012  0.97432694  1
  Ni  Ni6  1  0.65104693  0.82550446  0.21656750  1
  Ni  Ni7  1  0.83569916  0.66020595  0.71074965  1
  Ni  Ni8  1  0.83570200  0.17549438  0.71069251  1
  Sn  Sn9  1  0.16942553  0.83175156  0.21511167  1
  Sn  Sn10  1  0.16940190  0.33769544  0.21508991  1
  Sn  Sn11  1  0.34953683  0.17476921  0.71619045  1
  O  O12  1  0.18097024  0.82562696  0.58682034  1
  O  O13  1  0.02545225  0.51275376  0.34374392  1
  O  O14  1  0.33308425  0.66653527  0.09982335  1
  O  O15  1  0.98312385  0.99160199  0.31240877  1
  O  O16  1  0.99950059  0.99977173  0.79594253  1
  O  O17  1  0.18099975  0.35538255  0.58682972  1
  O  O18  1  0.47062394  0.95098811  0.35365509  1
  O  O19  1  0.47060861  0.51966502  0.35365020  1
  O  O20  1  0.30930302  0.15463917  0.09203463  1
  O  O21  1  0.63754687  0.81879826  0.58862673  1
  O  O22  1  0.53250284  0.48090470  0.85532224  1
  O  O23  1  0.53249548  0.05160818  0.85529343  1
  O  O24  1  0.67282182  0.33641928  0.60596638  1
  O  O25  1  0.82262396  0.64406123  0.08740540  1
  O  O26  1  0.97402007  0.48700373  0.85687674  1
  O  O27  1  0.82260632  0.17857937  0.08739575  1
