# generated using pymatgen
data_LaCuO2
_symmetry_space_group_name_H-M   'P 1'
_cell_length_a   6.09448658
_cell_length_b   6.09448658
_cell_length_c   6.09448658
_cell_angle_alpha   36.90350315
_cell_angle_beta   36.90350311
_cell_angle_gamma   36.90350316
_symmetry_Int_Tables_number   1
_chemical_formula_structural   LaCuO2
_chemical_formula_sum   'La1 Cu1 O2'
_cell_volume   73.11946978
_cell_formula_units_Z   1
loop_
 _symmetry_equiv_pos_site_id
 _symmetry_equiv_pos_as_xyz
  1  'x, y, z'
loop_
 _atom_site_type_symbol
 _atom_site_label
 _atom_site_symmetry_multiplicity
 _atom_site_fract_x
 _atom_site_fract_y
 _atom_site_fract_z
 _atom_site_occupancy
  O  O0  1  0.89332063  0.89332063  0.89332063  1
  O  O1  1  0.10667937  0.10667937  0.10667937  1
  Cu  Cu2  1  0.00000000  0.00000000  0.00000000  1
  La  La3  1  0.50000000  0.50000000  0.50000000  1
