# generated using pymatgen
data_Ce2(ZnGe2)3
_symmetry_space_group_name_H-M   'P 1'
_cell_length_a   5.99453719
_cell_length_b   5.99735217
_cell_length_c   12.53333615
_cell_angle_alpha   103.84263405
_cell_angle_beta   90.00000000
_cell_angle_gamma   90.00000000
_symmetry_Int_Tables_number   1
_chemical_formula_structural   Ce2(ZnGe2)3
_chemical_formula_sum   'Ce4 Zn6 Ge12'
_cell_volume   437.50364879
_cell_formula_units_Z   2
loop_
 _symmetry_equiv_pos_site_id
 _symmetry_equiv_pos_as_xyz
  1  'x, y, z'
loop_
 _atom_site_type_symbol
 _atom_site_label
 _atom_site_symmetry_multiplicity
 _atom_site_fract_x
 _atom_site_fract_y
 _atom_site_fract_z
 _atom_site_occupancy
  Zn  Zn0  1  0.00000000  0.76898651  0.00000000  1
  Zn  Zn1  1  0.75000000  0.33948730  0.67897460  1
  Zn  Zn2  1  0.50000000  0.76898651  0.00000000  1
  Zn  Zn3  1  0.00000000  0.23101349  0.00000000  1
  Zn  Zn4  1  0.25000000  0.66051270  0.32102540  1
  Zn  Zn5  1  0.50000000  0.23101349  0.00000000  1
  Ge  Ge6  1  0.03387903  0.58378674  0.60019756  1
  Ge  Ge7  1  0.53387903  0.41621326  0.39980244  1
  Ge  Ge8  1  0.03387903  0.01641083  0.60019756  1
  Ge  Ge9  1  0.53387903  0.98358917  0.39980244  1
  Ge  Ge10  1  0.96612097  0.41621326  0.39980244  1
  Ge  Ge11  1  0.46612097  0.58378674  0.60019756  1
  Ge  Ge12  1  0.96612097  0.98358917  0.39980244  1
  Ge  Ge13  1  0.25000000  0.55744108  0.11488216  1
  Ge  Ge14  1  0.75000000  0.07221813  0.14443626  1
  Ge  Ge15  1  0.25000000  0.92778187  0.85556374  1
  Ge  Ge16  1  0.75000000  0.44255892  0.88511784  1
  Ge  Ge17  1  0.46612097  0.01641083  0.60019756  1
  Ce  Ce18  1  0.75000000  0.89343514  0.78687027  1
  Ce  Ce19  1  0.25000000  0.10656486  0.21312973  1
  Ce  Ce20  1  0.25000000  0.39431461  0.78862922  1
  Ce  Ce21  1  0.75000000  0.60568539  0.21137078  1
