# generated using pymatgen
data_DyGeRu
_symmetry_space_group_name_H-M   'P 1'
_cell_length_a   4.43461183
_cell_length_b   7.05262207
_cell_length_c   7.25242230
_cell_angle_alpha   90.00000000
_cell_angle_beta   90.00000000
_cell_angle_gamma   90.00000000
_symmetry_Int_Tables_number   1
_chemical_formula_structural   DyGeRu
_chemical_formula_sum   'Dy4 Ge4 Ru4'
_cell_volume   226.82415815
_cell_formula_units_Z   4
loop_
 _symmetry_equiv_pos_site_id
 _symmetry_equiv_pos_as_xyz
  1  'x, y, z'
loop_
 _atom_site_type_symbol
 _atom_site_label
 _atom_site_symmetry_multiplicity
 _atom_site_fract_x
 _atom_site_fract_y
 _atom_site_fract_z
 _atom_site_occupancy
  Ge  Ge0  1  0.25000000  0.29746980  0.89373978  1
  Ge  Ge1  1  0.75000000  0.70253020  0.10626022  1
  Ge  Ge2  1  0.25000000  0.79746980  0.60626022  1
  Ge  Ge3  1  0.75000000  0.20253020  0.39373978  1
  Ru  Ru4  1  0.75000000  0.84501389  0.43587467  1
  Ru  Ru5  1  0.25000000  0.15498611  0.56412533  1
  Ru  Ru6  1  0.75000000  0.34501389  0.06412533  1
  Ru  Ru7  1  0.25000000  0.65498611  0.93587467  1
  Dy  Dy8  1  0.25000000  0.98556316  0.19174786  1
  Dy  Dy9  1  0.75000000  0.01443684  0.80825214  1
  Dy  Dy10  1  0.25000000  0.48556316  0.30825214  1
  Dy  Dy11  1  0.75000000  0.51443684  0.69174786  1
