# generated using pymatgen
data_CeGeIr
_symmetry_space_group_name_H-M   'P 1'
_cell_length_a   4.39859823
_cell_length_b   7.03606335
_cell_length_c   7.67076504
_cell_angle_alpha   90.00000000
_cell_angle_beta   90.00000000
_cell_angle_gamma   90.00000000
_symmetry_Int_Tables_number   1
_chemical_formula_structural   CeGeIr
_chemical_formula_sum   'Ce4 Ge4 Ir4'
_cell_volume   237.40109425
_cell_formula_units_Z   4
loop_
 _symmetry_equiv_pos_site_id
 _symmetry_equiv_pos_as_xyz
  1  'x, y, z'
loop_
 _atom_site_type_symbol
 _atom_site_label
 _atom_site_symmetry_multiplicity
 _atom_site_fract_x
 _atom_site_fract_y
 _atom_site_fract_z
 _atom_site_occupancy
  Ge  Ge0  1  0.25000000  0.82143368  0.08238626  1
  Ge  Ge1  1  0.25000000  0.32143368  0.41761374  1
  Ge  Ge2  1  0.75000000  0.17856632  0.91761374  1
  Ge  Ge3  1  0.75000000  0.67856632  0.58238626  1
  Ce  Ce4  1  0.75000000  0.51354986  0.20010938  1
  Ce  Ce5  1  0.25000000  0.98645014  0.70010938  1
  Ce  Ce6  1  0.75000000  0.01354986  0.29989062  1
  Ce  Ce7  1  0.25000000  0.48645014  0.79989062  1
  Ir  Ir8  1  0.25000000  0.21832100  0.09030301  1
  Ir  Ir9  1  0.25000000  0.71832100  0.40969699  1
  Ir  Ir10  1  0.75000000  0.28167900  0.59030301  1
  Ir  Ir11  1  0.75000000  0.78167900  0.90969699  1
