# generated using pymatgen
data_Rb3SbSe4
_symmetry_space_group_name_H-M   'P 1'
_cell_length_a   10.03621522
_cell_length_b   10.63303939
_cell_length_c   11.70207399
_cell_angle_alpha   90.00000000
_cell_angle_beta   90.00000000
_cell_angle_gamma   90.00000000
_symmetry_Int_Tables_number   1
_chemical_formula_structural   Rb3SbSe4
_chemical_formula_sum   'Rb12 Sb4 Se16'
_cell_volume   1248.79234642
_cell_formula_units_Z   4
loop_
 _symmetry_equiv_pos_site_id
 _symmetry_equiv_pos_as_xyz
  1  'x, y, z'
loop_
 _atom_site_type_symbol
 _atom_site_label
 _atom_site_symmetry_multiplicity
 _atom_site_fract_x
 _atom_site_fract_y
 _atom_site_fract_z
 _atom_site_occupancy
  Se  Se0  1  0.64288970  0.47137516  0.92852504  1
  Se  Se1  1  0.14288970  0.02862484  0.57147496  1
  Se  Se2  1  0.85711030  0.97137516  0.07147496  1
  Se  Se3  1  0.35711030  0.52862484  0.42852504  1
  Se  Se4  1  0.35711030  0.52862484  0.07147496  1
  Se  Se5  1  0.85711030  0.97137516  0.42852504  1
  Se  Se6  1  0.14288970  0.02862484  0.92852504  1
  Se  Se7  1  0.64288970  0.47137516  0.57147496  1
  Se  Se8  1  0.00858392  0.59975210  0.25000000  1
  Se  Se9  1  0.50858392  0.90024790  0.25000000  1
  Se  Se10  1  0.49141608  0.09975210  0.75000000  1
  Se  Se11  1  0.99141608  0.40024790  0.75000000  1
  Se  Se12  1  0.17499356  0.24791419  0.25000000  1
  Se  Se13  1  0.82500644  0.75208581  0.75000000  1
  Se  Se14  1  0.32500644  0.74791419  0.75000000  1
  Se  Se15  1  0.67499356  0.25208581  0.25000000  1
  Rb  Rb16  1  0.92954002  0.30255350  0.04521054  1
  Rb  Rb17  1  0.42954002  0.19744650  0.04521054  1
  Rb  Rb18  1  0.57045998  0.80255350  0.54521054  1
  Rb  Rb19  1  0.07045998  0.69744650  0.95478946  1
  Rb  Rb20  1  0.13925320  0.92350486  0.25000000  1
  Rb  Rb21  1  0.63925320  0.57649514  0.25000000  1
  Rb  Rb22  1  0.36074680  0.42350486  0.75000000  1
  Rb  Rb23  1  0.86074680  0.07649514  0.75000000  1
  Rb  Rb24  1  0.07045998  0.69744650  0.54521054  1
  Rb  Rb25  1  0.42954002  0.19744650  0.45478946  1
  Rb  Rb26  1  0.57045998  0.80255350  0.95478946  1
  Rb  Rb27  1  0.92954002  0.30255350  0.45478946  1
  Sb  Sb28  1  0.77377526  0.52039316  0.75000000  1
  Sb  Sb29  1  0.27377526  0.97960684  0.75000000  1
  Sb  Sb30  1  0.72622474  0.02039316  0.25000000  1
  Sb  Sb31  1  0.22622474  0.47960684  0.25000000  1
