# generated using pymatgen
data_TlIn(PSe3)2
_symmetry_space_group_name_H-M   'P 1'
_cell_length_a   6.60561705
_cell_length_b   8.12034642
_cell_length_c   12.40746677
_cell_angle_alpha   102.34000452
_cell_angle_beta   93.42531569
_cell_angle_gamma   111.73381083
_symmetry_Int_Tables_number   1
_chemical_formula_structural   TlIn(PSe3)2
_chemical_formula_sum   'Tl2 In2 P4 Se12'
_cell_volume   596.82685035
_cell_formula_units_Z   2
loop_
 _symmetry_equiv_pos_site_id
 _symmetry_equiv_pos_as_xyz
  1  'x, y, z'
loop_
 _atom_site_type_symbol
 _atom_site_label
 _atom_site_symmetry_multiplicity
 _atom_site_fract_x
 _atom_site_fract_y
 _atom_site_fract_z
 _atom_site_occupancy
  P  P0  1  0.07926516  0.17006138  0.79502110  1
  P  P1  1  0.92073484  0.82993862  0.20497890  1
  P  P2  1  0.19854876  0.44217823  0.74597407  1
  P  P3  1  0.80145124  0.55782177  0.25402593  1
  Se  Se4  1  0.63283237  0.90362998  0.18459301  1
  Se  Se5  1  0.36716763  0.09637002  0.81540699  1
  Se  Se6  1  0.67173393  0.58868401  0.40918211  1
  Se  Se7  1  0.32826607  0.41131599  0.59081789  1
  Se  Se8  1  0.04409888  0.76909284  0.04000589  1
  Se  Se9  1  0.95590112  0.23090716  0.95999411  1
  Se  Se10  1  0.53927960  0.35758800  0.10999447  1
  Se  Se11  1  0.46072040  0.64241200  0.89000553  1
  Se  Se12  1  0.18075245  0.03595203  0.33281038  1
  Se  Se13  1  0.81924755  0.96404797  0.66718962  1
  Se  Se14  1  0.09470023  0.48927505  0.27299188  1
  Se  Se15  1  0.90529977  0.51072495  0.72700812  1
  In  In16  1  0.70812431  0.42996046  0.90853651  1
  In  In17  1  0.29187569  0.57003954  0.09146349  1
  Tl  Tl18  1  0.16950696  0.82468891  0.53692353  1
  Tl  Tl19  1  0.83049304  0.17531109  0.46307647  1
