# generated using pymatgen
data_Gd2Cu(SeO3)4
_symmetry_space_group_name_H-M   'P 1'
_cell_length_a   7.00755561
_cell_length_b   8.15707539
_cell_length_c   10.89918703
_cell_angle_alpha   109.68581465
_cell_angle_beta   90.00000000
_cell_angle_gamma   90.00000000
_symmetry_Int_Tables_number   1
_chemical_formula_structural   Gd2Cu(SeO3)4
_chemical_formula_sum   'Gd4 Cu2 Se8 O24'
_cell_volume   586.59769925
_cell_formula_units_Z   2
loop_
 _symmetry_equiv_pos_site_id
 _symmetry_equiv_pos_as_xyz
  1  'x, y, z'
loop_
 _atom_site_type_symbol
 _atom_site_label
 _atom_site_symmetry_multiplicity
 _atom_site_fract_x
 _atom_site_fract_y
 _atom_site_fract_z
 _atom_site_occupancy
  O  O0  1  0.65517256  0.08564683  0.55652115  1
  O  O1  1  0.15517256  0.41435317  0.44347885  1
  O  O2  1  0.34482744  0.91435317  0.44347885  1
  O  O3  1  0.84482744  0.58564683  0.55652115  1
  O  O4  1  0.88906201  0.92774949  0.66348005  1
  O  O5  1  0.38906201  0.57225051  0.33651995  1
  O  O6  1  0.11093799  0.07225051  0.33651995  1
  O  O7  1  0.61093799  0.42774949  0.66348005  1
  O  O8  1  0.49755713  0.28561587  0.40155193  1
  O  O9  1  0.99755713  0.21438413  0.59844807  1
  O  O10  1  0.22090901  0.53003759  0.69998931  1
  O  O11  1  0.72090901  0.96996241  0.30001069  1
  O  O12  1  0.77909099  0.46996241  0.30001069  1
  O  O13  1  0.27909099  0.03003759  0.69998931  1
  O  O14  1  0.11383968  0.82211821  0.84808758  1
  O  O15  1  0.61383968  0.67788179  0.15191242  1
  O  O16  1  0.88616032  0.17788179  0.15191242  1
  O  O17  1  0.38616032  0.32211821  0.84808758  1
  O  O18  1  0.10812004  0.17809651  0.94024730  1
  O  O19  1  0.60812004  0.32190349  0.05975270  1
  O  O20  1  0.89187996  0.82190349  0.05975270  1
  O  O21  1  0.39187996  0.67809651  0.94024730  1
  O  O22  1  0.50244287  0.71438413  0.59844807  1
  O  O23  1  0.00244287  0.78561587  0.40155193  1
  Cu  Cu24  1  0.50000000  0.50000000  0.00000000  1
  Cu  Cu25  1  0.00000000  0.00000000  0.00000000  1
  Se  Se26  1  0.17319714  0.86361781  0.31858145  1
  Se  Se27  1  0.67319714  0.63638219  0.68141855  1
  Se  Se28  1  0.32770793  0.12096980  0.86424738  1
  Se  Se29  1  0.82770793  0.37903020  0.13575262  1
  Se  Se30  1  0.67229207  0.87903020  0.13575262  1
  Se  Se31  1  0.17229207  0.62096980  0.86424738  1
  Se  Se32  1  0.32680286  0.36361781  0.31858145  1
  Se  Se33  1  0.82680286  0.13638219  0.68141855  1
  Gd  Gd34  1  0.34337973  0.23996531  0.58718378  1
  Gd  Gd35  1  0.84337973  0.26003469  0.41281622  1
  Gd  Gd36  1  0.65662027  0.76003469  0.41281622  1
  Gd  Gd37  1  0.15662027  0.73996531  0.58718378  1
