# generated using pymatgen
data_Lu5(Co2Si7)2
_symmetry_space_group_name_H-M   'P 1'
_cell_length_a   7.68398835
_cell_length_b   7.75548459
_cell_length_c   12.23803954
_cell_angle_alpha   90.00000000
_cell_angle_beta   98.86842046
_cell_angle_gamma   90.00000000
_symmetry_Int_Tables_number   1
_chemical_formula_structural   Lu5(Co2Si7)2
_chemical_formula_sum   'Lu10 Co8 Si28'
_cell_volume   720.58332528
_cell_formula_units_Z   2
loop_
 _symmetry_equiv_pos_site_id
 _symmetry_equiv_pos_as_xyz
  1  'x, y, z'
loop_
 _atom_site_type_symbol
 _atom_site_label
 _atom_site_symmetry_multiplicity
 _atom_site_fract_x
 _atom_site_fract_y
 _atom_site_fract_z
 _atom_site_occupancy
  Si  Si0  1  0.18147488  0.00593606  0.82091537  1
  Si  Si1  1  0.39014690  0.99942235  0.55966128  1
  Si  Si2  1  0.10985310  0.49942235  0.44033872  1
  Si  Si3  1  0.60985310  0.00057765  0.44033872  1
  Si  Si4  1  0.66601779  0.66652259  0.99980647  1
  Si  Si5  1  0.83398221  0.16652259  0.00019353  1
  Si  Si6  1  0.33398221  0.33347741  0.00019353  1
  Si  Si7  1  0.16601779  0.83347741  0.99980647  1
  Si  Si8  1  0.94974336  0.77341802  0.82179309  1
  Si  Si9  1  0.55025664  0.27341802  0.17820691  1
  Si  Si10  1  0.05025664  0.22658198  0.17820691  1
  Si  Si11  1  0.44974336  0.72658198  0.82179309  1
  Si  Si12  1  0.96181041  0.22650101  0.82188346  1
  Si  Si13  1  0.53818959  0.72650101  0.17811654  1
  Si  Si14  1  0.03818959  0.77349899  0.17811654  1
  Si  Si15  1  0.46181041  0.27349899  0.82188346  1
  Si  Si16  1  0.73095344  0.99426360  0.82123696  1
  Si  Si17  1  0.76904656  0.49426360  0.17876304  1
  Si  Si18  1  0.26904656  0.00573640  0.17876304  1
  Si  Si19  1  0.23095344  0.50573640  0.82123696  1
  Si  Si20  1  0.68147488  0.49406394  0.82091537  1
  Si  Si21  1  0.81852512  0.99406394  0.17908463  1
  Si  Si22  1  0.31852512  0.50593606  0.17908463  1
  Si  Si23  1  0.88892254  0.99973123  0.56073943  1
  Si  Si24  1  0.38892254  0.50026877  0.56073943  1
  Si  Si25  1  0.11107746  0.00026877  0.43926057  1
  Si  Si26  1  0.61107746  0.49973123  0.43926057  1
  Si  Si27  1  0.89014690  0.50057765  0.55966128  1
  Co  Co28  1  0.87201944  0.87348702  0.00020388  1
  Co  Co29  1  0.37201944  0.62651298  0.00020388  1
  Co  Co30  1  0.62798056  0.37348702  0.99979612  1
  Co  Co31  1  0.12798056  0.12651298  0.99979612  1
  Co  Co32  1  0.43896487  0.00028025  0.75012027  1
  Co  Co33  1  0.06103513  0.50028025  0.24987973  1
  Co  Co34  1  0.56103513  0.99971975  0.24987973  1
  Co  Co35  1  0.93896487  0.49971975  0.75012027  1
  Lu  Lu36  1  0.65772475  0.74834575  0.63453285  1
  Lu  Lu37  1  0.84227525  0.24834575  0.36546715  1
  Lu  Lu38  1  0.15772475  0.75165425  0.63453285  1
  Lu  Lu39  1  0.34227525  0.25165425  0.36546715  1
  Lu  Lu40  1  0.84029097  0.74915874  0.36575320  1
  Lu  Lu41  1  0.65970903  0.24915874  0.63424680  1
  Lu  Lu42  1  0.15970903  0.25084126  0.63424680  1
  Lu  Lu43  1  0.34029097  0.75084126  0.36575320  1
  Lu  Lu44  1  0.50000000  0.00000000  0.00000000  1
  Lu  Lu45  1  0.00000000  0.50000000  0.00000000  1
