# generated using pymatgen
data_KAsOF4
_symmetry_space_group_name_H-M   'P 1'
_cell_length_a   5.40248248
_cell_length_b   5.94945944
_cell_length_c   13.68305736
_cell_angle_alpha   90.00000000
_cell_angle_beta   92.38805429
_cell_angle_gamma   90.00000000
_symmetry_Int_Tables_number   1
_chemical_formula_structural   KAsOF4
_chemical_formula_sum   'K4 As4 O4 F16'
_cell_volume   439.41683458
_cell_formula_units_Z   4
loop_
 _symmetry_equiv_pos_site_id
 _symmetry_equiv_pos_as_xyz
  1  'x, y, z'
loop_
 _atom_site_type_symbol
 _atom_site_label
 _atom_site_symmetry_multiplicity
 _atom_site_fract_x
 _atom_site_fract_y
 _atom_site_fract_z
 _atom_site_occupancy
  O  O0  1  0.68315658  0.61876188  0.51548849  1
  O  O1  1  0.81684342  0.11876188  0.98451151  1
  O  O2  1  0.31684342  0.38123812  0.48451151  1
  O  O3  1  0.18315658  0.88123812  0.01548849  1
  F  F4  1  0.74743384  0.17534228  0.52578459  1
  F  F5  1  0.75256616  0.67534228  0.97421541  1
  F  F6  1  0.25256616  0.82465772  0.47421541  1
  F  F7  1  0.24743384  0.32465772  0.02578459  1
  F  F8  1  0.88142221  0.93557270  0.16142325  1
  F  F9  1  0.61857779  0.43557270  0.33857675  1
  F  F10  1  0.11857779  0.06442730  0.83857675  1
  F  F11  1  0.38142221  0.56442730  0.66142325  1
  F  F12  1  0.29889849  0.09762253  0.17642738  1
  F  F13  1  0.20110151  0.59762253  0.32357262  1
  F  F14  1  0.70110151  0.90237747  0.82357262  1
  F  F15  1  0.79889849  0.40237747  0.67642738  1
  F  F16  1  0.91957257  0.34631170  0.14677175  1
  F  F17  1  0.58042743  0.84631170  0.35322825  1
  F  F18  1  0.08042743  0.65368830  0.85322825  1
  F  F19  1  0.41957257  0.15368830  0.64677175  1
  K  K20  1  0.50480111  0.63115757  0.14760902  1
  K  K21  1  0.99519889  0.13115757  0.35239098  1
  K  K22  1  0.49519889  0.36884243  0.85239098  1
  K  K23  1  0.00480111  0.86884243  0.64760902  1
  As  As24  1  0.05577864  0.11784810  0.08305158  1
  As  As25  1  0.44422136  0.61784810  0.41694842  1
  As  As26  1  0.94422136  0.88215190  0.91694842  1
  As  As27  1  0.55577864  0.38215190  0.58305158  1
