# generated using pymatgen
data_HoPtF7
_symmetry_space_group_name_H-M   'P 1'
_cell_length_a   5.53290255
_cell_length_b   8.85554933
_cell_length_c   11.12116810
_cell_angle_alpha   107.42706800
_cell_angle_beta   90.00000000
_cell_angle_gamma   90.00000000
_symmetry_Int_Tables_number   1
_chemical_formula_structural   HoPtF7
_chemical_formula_sum   'Ho4 Pt4 F28'
_cell_volume   519.89106043
_cell_formula_units_Z   4
loop_
 _symmetry_equiv_pos_site_id
 _symmetry_equiv_pos_as_xyz
  1  'x, y, z'
loop_
 _atom_site_type_symbol
 _atom_site_label
 _atom_site_symmetry_multiplicity
 _atom_site_fract_x
 _atom_site_fract_y
 _atom_site_fract_z
 _atom_site_occupancy
  F  F0  1  0.56327800  0.38161100  0.08463308  1
  F  F1  1  0.06327800  0.11838900  0.41536692  1
  F  F2  1  0.43672200  0.61838900  0.91536692  1
  F  F3  1  0.93672200  0.88161100  0.58463308  1
  F  F4  1  0.56069461  0.17931750  0.45695726  1
  F  F5  1  0.06069461  0.32068250  0.04304274  1
  F  F6  1  0.43930539  0.82068250  0.54304274  1
  F  F7  1  0.93930539  0.67931750  0.95695726  1
  F  F8  1  0.22503485  0.61963743  0.14179671  1
  F  F9  1  0.72503485  0.88036257  0.35820329  1
  F  F10  1  0.77496515  0.38036257  0.85820329  1
  F  F11  1  0.27496515  0.11963743  0.64179671  1
  F  F12  1  0.24586312  0.92676369  0.94941699  1
  F  F13  1  0.74586312  0.57323631  0.55058301  1
  F  F14  1  0.75413688  0.07323631  0.05058301  1
  F  F15  1  0.25413688  0.42676369  0.44941699  1
  F  F16  1  0.03454054  0.63822187  0.36334155  1
  F  F17  1  0.53454054  0.86177813  0.13665845  1
  F  F18  1  0.96545946  0.36177813  0.63665845  1
  F  F19  1  0.46545946  0.13822187  0.86334155  1
  F  F20  1  0.94897044  0.07811300  0.82422221  1
  F  F21  1  0.44897044  0.42188700  0.67577779  1
  F  F22  1  0.05102956  0.92188700  0.17577779  1
  F  F23  1  0.55102956  0.57811300  0.32422221  1
  F  F24  1  0.58405833  0.79708697  0.76727085  1
  F  F25  1  0.08405833  0.70291303  0.73272915  1
  F  F26  1  0.41594167  0.20291303  0.23272915  1
  F  F27  1  0.91594167  0.29708697  0.26727085  1
  Ho  Ho28  1  0.23899963  0.42144018  0.23566582  1
  Ho  Ho29  1  0.73899963  0.07855982  0.26433418  1
  Ho  Ho30  1  0.76100037  0.57855982  0.76433418  1
  Ho  Ho31  1  0.26100037  0.92144018  0.73566582  1
  Pt  Pt32  1  0.24097473  0.77079617  0.04312403  1
  Pt  Pt33  1  0.74097473  0.72920383  0.45687597  1
  Pt  Pt34  1  0.75902527  0.22920383  0.95687597  1
  Pt  Pt35  1  0.25902527  0.27079617  0.54312403  1
