# generated using pymatgen
data_K7Nb(SO4)6
_symmetry_space_group_name_H-M   'P 1'
_cell_length_a   9.46463479
_cell_length_b   9.46463478
_cell_length_c   9.46463478
_cell_angle_alpha   109.44687070
_cell_angle_beta   109.44687070
_cell_angle_gamma   109.44687069
_symmetry_Int_Tables_number   1
_chemical_formula_structural   K7Nb(SO4)6
_chemical_formula_sum   'K7 Nb1 S6 O24'
_cell_volume   653.25178370
_cell_formula_units_Z   1
loop_
 _symmetry_equiv_pos_site_id
 _symmetry_equiv_pos_as_xyz
  1  'x, y, z'
loop_
 _atom_site_type_symbol
 _atom_site_label
 _atom_site_symmetry_multiplicity
 _atom_site_fract_x
 _atom_site_fract_y
 _atom_site_fract_z
 _atom_site_occupancy
  O  O0  1  0.57220660  0.09023034  0.83364900  1
  O  O1  1  0.09023034  0.83364900  0.57220660  1
  O  O2  1  0.83364900  0.57220660  0.09023034  1
  O  O3  1  0.42779340  0.90976966  0.16635100  1
  O  O4  1  0.90976966  0.16635100  0.42779340  1
  O  O5  1  0.16635100  0.42779340  0.90976966  1
  O  O6  1  0.68580226  0.01503836  0.63908328  1
  O  O7  1  0.01503836  0.63908328  0.68580226  1
  O  O8  1  0.63908328  0.68580226  0.01503836  1
  O  O9  1  0.31419774  0.98496164  0.36091672  1
  O  O10  1  0.98496164  0.36091672  0.31419774  1
  O  O11  1  0.36091672  0.31419774  0.98496164  1
  O  O12  1  0.23309960  0.02228033  0.10768854  1
  O  O13  1  0.02228033  0.10768854  0.23309960  1
  O  O14  1  0.35254879  0.52462615  0.21265663  1
  O  O15  1  0.21265663  0.35254879  0.52462615  1
  O  O16  1  0.52462615  0.21265663  0.35254879  1
  O  O17  1  0.64745121  0.47537385  0.78734337  1
  O  O18  1  0.78734337  0.64745121  0.47537385  1
  O  O19  1  0.47537385  0.78734337  0.64745121  1
  O  O20  1  0.89231146  0.76690040  0.97771967  1
  O  O21  1  0.97771967  0.89231146  0.76690040  1
  O  O22  1  0.76690040  0.97771967  0.89231146  1
  O  O23  1  0.10768854  0.23309960  0.02228033  1
  S  S24  1  0.03184736  0.25525423  0.38247451  1
  S  S25  1  0.25525423  0.38247451  0.03184736  1
  S  S26  1  0.38247451  0.03184736  0.25525423  1
  S  S27  1  0.96815264  0.74474577  0.61752549  1
  S  S28  1  0.74474577  0.61752549  0.96815264  1
  S  S29  1  0.61752549  0.96815264  0.74474577  1
  K  K30  1  0.50000000  0.50000000  0.50000000  1
  K  K31  1  0.16251091  0.66481384  0.32228479  1
  K  K32  1  0.66481384  0.32228479  0.16251091  1
  K  K33  1  0.32228479  0.16251091  0.66481384  1
  K  K34  1  0.83748909  0.33518616  0.67771521  1
  K  K35  1  0.33518616  0.67771521  0.83748909  1
  K  K36  1  0.67771521  0.83748909  0.33518616  1
  Nb  Nb37  1  0.00000000  0.00000000  0.00000000  1
