# generated using pymatgen
data_Ho2Ge5Rh3
_symmetry_space_group_name_H-M   'P 1'
_cell_length_a   5.88265848
_cell_length_b   8.34830300
_cell_length_c   8.34830300
_cell_angle_alpha   94.40597096
_cell_angle_beta   108.63919800
_cell_angle_gamma   108.63919813
_symmetry_Int_Tables_number   1
_chemical_formula_structural   Ho2Ge5Rh3
_chemical_formula_sum   'Ho4 Ge10 Rh6'
_cell_volume   360.71988556
_cell_formula_units_Z   2
loop_
 _symmetry_equiv_pos_site_id
 _symmetry_equiv_pos_as_xyz
  1  'x, y, z'
loop_
 _atom_site_type_symbol
 _atom_site_label
 _atom_site_symmetry_multiplicity
 _atom_site_fract_x
 _atom_site_fract_y
 _atom_site_fract_z
 _atom_site_occupancy
  Ge  Ge0  1  0.25000000  0.98651734  0.01348266  1
  Ge  Ge1  1  0.75000000  0.01348266  0.98651734  1
  Ge  Ge2  1  0.25000000  0.29309802  0.70690198  1
  Ge  Ge3  1  0.75000000  0.70690198  0.29309802  1
  Ge  Ge4  1  0.25000000  0.72229757  0.27770243  1
  Ge  Ge5  1  0.75000000  0.27770243  0.72229757  1
  Ge  Ge6  1  0.16916205  0.76477694  0.57536781  1
  Ge  Ge7  1  0.66916205  0.57536781  0.76477694  1
  Ge  Ge8  1  0.83083795  0.23522306  0.42463219  1
  Ge  Ge9  1  0.33083795  0.42463219  0.23522306  1
  Rh  Rh10  1  0.87381377  0.76140102  0.04543596  1
  Rh  Rh11  1  0.75000000  0.50253840  0.49746160  1
  Rh  Rh12  1  0.37381377  0.04543596  0.76140102  1
  Rh  Rh13  1  0.12618623  0.23859898  0.95456404  1
  Rh  Rh14  1  0.62618623  0.95456404  0.23859898  1
  Rh  Rh15  1  0.25000000  0.49746160  0.50253840  1
  Ho  Ho16  1  0.23661918  0.09106911  0.37024045  1
  Ho  Ho17  1  0.26338082  0.62975955  0.90893089  1
  Ho  Ho18  1  0.76338082  0.90893089  0.62975955  1
  Ho  Ho19  1  0.73661918  0.37024045  0.09106911  1
