# generated using pymatgen
data_Li6Fe2O5F2
_symmetry_space_group_name_H-M   'P 1'
_cell_length_a   5.91737722
_cell_length_b   5.91689362
_cell_length_c   9.96991933
_cell_angle_alpha   82.94082556
_cell_angle_beta   93.19609633
_cell_angle_gamma   61.08937122
_symmetry_Int_Tables_number   1
_chemical_formula_structural   Li6Fe2O5F2
_chemical_formula_sum   'Li12 Fe4 O10 F4'
_cell_volume   300.57583103
_cell_formula_units_Z   2
loop_
 _symmetry_equiv_pos_site_id
 _symmetry_equiv_pos_as_xyz
  1  'x, y, z'
loop_
 _atom_site_type_symbol
 _atom_site_label
 _atom_site_symmetry_multiplicity
 _atom_site_fract_x
 _atom_site_fract_y
 _atom_site_fract_z
 _atom_site_occupancy
  Li  Li0  1  0.20851063  0.87355260  0.09212377  1
  Li  Li1  1  0.47513571  0.86466422  0.60645813  1
  Li  Li2  1  0.91922001  0.87741500  0.58236005  1
  Li  Li3  1  0.68288498  0.86943068  0.09877231  1
  Li  Li4  1  0.33592740  0.58510502  0.88868541  1
  Li  Li5  1  0.07316606  0.58625903  0.39286684  1
  Li  Li6  1  0.92683394  0.41374097  0.60713316  1
  Li  Li7  1  0.66407260  0.41489498  0.11131459  1
  Li  Li8  1  0.31711502  0.13056932  0.90122769  1
  Li  Li9  1  0.08077999  0.12258500  0.41763995  1
  Li  Li10  1  0.52486429  0.13533578  0.39354187  1
  Li  Li11  1  0.79148937  0.12644740  0.90787623  1
  Fe  Fe12  1  0.79129254  0.60965905  0.88525057  1
  Fe  Fe13  1  0.54617478  0.61858607  0.38124376  1
  Fe  Fe14  1  0.45382522  0.38141393  0.61875624  1
  Fe  Fe15  1  0.20870746  0.39034095  0.11474943  1
  O  O16  1  0.49493938  0.75999084  0.97920023  1
  O  O17  1  0.73680006  0.75496718  0.47149346  1
  O  O18  1  0.26006348  0.73842255  0.50162782  1
  O  O19  1  0.63420810  0.49038724  0.74931077  1
  O  O20  1  0.99645200  0.73584845  0.99608853  1
  O  O21  1  0.00354800  0.26415155  0.00391147  1
  O  O22  1  0.36579190  0.50961276  0.25068923  1
  O  O23  1  0.73993652  0.26157745  0.49837218  1
  O  O24  1  0.26319994  0.24503282  0.52850654  1
  O  O25  1  0.50506062  0.24000916  0.02079977  1
  F  F26  1  0.13547204  0.49342869  0.75425656  1
  F  F27  1  0.86452796  0.50657131  0.24574344  1
  F  F28  1  0.66834055  0.98365927  0.74672865  1
  F  F29  1  0.33165945  0.01634073  0.25327135  1
