# generated using pymatgen
data_ErGeRh
_symmetry_space_group_name_H-M   'P 1'
_cell_length_a   4.30203031
_cell_length_b   6.88502495
_cell_length_c   7.55363924
_cell_angle_alpha   90.00000000
_cell_angle_beta   90.00000000
_cell_angle_gamma   90.00000000
_symmetry_Int_Tables_number   1
_chemical_formula_structural   ErGeRh
_chemical_formula_sum   'Er4 Ge4 Rh4'
_cell_volume   223.73566723
_cell_formula_units_Z   4
loop_
 _symmetry_equiv_pos_site_id
 _symmetry_equiv_pos_as_xyz
  1  'x, y, z'
loop_
 _atom_site_type_symbol
 _atom_site_label
 _atom_site_symmetry_multiplicity
 _atom_site_fract_x
 _atom_site_fract_y
 _atom_site_fract_z
 _atom_site_occupancy
  Ge  Ge0  1  0.25000000  0.28646949  0.89399293  1
  Ge  Ge1  1  0.75000000  0.71353051  0.10600707  1
  Ge  Ge2  1  0.25000000  0.78646949  0.60600707  1
  Ge  Ge3  1  0.75000000  0.21353051  0.39399293  1
  Rh  Rh4  1  0.75000000  0.84369454  0.43256788  1
  Rh  Rh5  1  0.25000000  0.15630546  0.56743212  1
  Rh  Rh6  1  0.75000000  0.34369454  0.06743212  1
  Rh  Rh7  1  0.25000000  0.65630546  0.93256788  1
  Er  Er8  1  0.25000000  0.50324439  0.30447606  1
  Er  Er9  1  0.75000000  0.49675561  0.69552394  1
  Er  Er10  1  0.25000000  0.00324439  0.19552394  1
  Er  Er11  1  0.75000000  0.99675561  0.80447606  1
