# generated using pymatgen
data_ThCo9Si2
_symmetry_space_group_name_H-M   'P 1'
_cell_length_a   6.28916765
_cell_length_b   7.56448267
_cell_length_c   7.56448267
_cell_angle_alpha   80.04878399
_cell_angle_beta   65.43635714
_cell_angle_gamma   65.43635710
_symmetry_Int_Tables_number   1
_chemical_formula_structural   ThCo9Si2
_chemical_formula_sum   'Th2 Co18 Si4'
_cell_volume   297.68511309
_cell_formula_units_Z   2
loop_
 _symmetry_equiv_pos_site_id
 _symmetry_equiv_pos_as_xyz
  1  'x, y, z'
loop_
 _atom_site_type_symbol
 _atom_site_label
 _atom_site_symmetry_multiplicity
 _atom_site_fract_x
 _atom_site_fract_y
 _atom_site_fract_z
 _atom_site_occupancy
  Si  Si0  1  0.50000000  0.50000000  0.50000000  1
  Si  Si1  1  0.50000000  0.00000000  0.50000000  1
  Si  Si2  1  0.00000000  0.50000000  0.00000000  1
  Si  Si3  1  0.50000000  0.00000000  0.00000000  1
  Co  Co4  1  0.62500000  0.75000000  0.25000000  1
  Co  Co5  1  0.64236080  0.66834709  0.91931332  1
  Co  Co6  1  0.23002121  0.83165291  0.58068668  1
  Co  Co7  1  0.06167412  0.58068668  0.66834709  1
  Co  Co8  1  0.76997879  0.91931332  0.66834709  1
  Co  Co9  1  0.35763920  0.58068668  0.83165291  1
  Co  Co10  1  0.31070789  0.91931332  0.83165291  1
  Co  Co11  1  0.93832588  0.83165291  0.91931332  1
  Co  Co12  1  0.68929211  0.08068668  0.16834709  1
  Co  Co13  1  0.35763920  0.33165291  0.08068668  1
  Co  Co14  1  0.76997879  0.16834709  0.41931332  1
  Co  Co15  1  0.93832588  0.41931332  0.33165291  1
  Co  Co16  1  0.23002121  0.08068668  0.33165291  1
  Co  Co17  1  0.64236080  0.41931332  0.16834709  1
  Co  Co18  1  0.31070789  0.33165291  0.41931332  1
  Co  Co19  1  0.06167412  0.16834709  0.08068668  1
  Co  Co20  1  0.68929211  0.66834709  0.58068668  1
  Co  Co21  1  0.37500000  0.25000000  0.75000000  1
  Th  Th22  1  0.87500000  0.25000000  0.75000000  1
  Th  Th23  1  0.12500000  0.75000000  0.25000000  1
