# generated using pymatgen
data_K7Ta(SO4)6
_symmetry_space_group_name_H-M   'P 1'
_cell_length_a   9.46019927
_cell_length_b   9.46019928
_cell_length_c   9.46019928
_cell_angle_alpha   109.45409862
_cell_angle_beta   109.45409855
_cell_angle_gamma   109.45409863
_symmetry_Int_Tables_number   1
_chemical_formula_structural   K7Ta(SO4)6
_chemical_formula_sum   'K7 Ta1 S6 O24'
_cell_volume   652.15971718
_cell_formula_units_Z   1
loop_
 _symmetry_equiv_pos_site_id
 _symmetry_equiv_pos_as_xyz
  1  'x, y, z'
loop_
 _atom_site_type_symbol
 _atom_site_label
 _atom_site_symmetry_multiplicity
 _atom_site_fract_x
 _atom_site_fract_y
 _atom_site_fract_z
 _atom_site_occupancy
  O  O0  1  0.57388860  0.09071009  0.83569959  1
  O  O1  1  0.09071009  0.83569959  0.57388860  1
  O  O2  1  0.83569959  0.57388860  0.09071009  1
  O  O3  1  0.42611140  0.90928991  0.16430041  1
  O  O4  1  0.90928991  0.16430041  0.42611140  1
  O  O5  1  0.16430041  0.42611140  0.90928991  1
  O  O6  1  0.68595657  0.01521686  0.63960259  1
  O  O7  1  0.01521686  0.63960259  0.68595657  1
  O  O8  1  0.63960259  0.68595657  0.01521686  1
  O  O9  1  0.31404343  0.98478314  0.36039741  1
  O  O10  1  0.98478314  0.36039741  0.31404343  1
  O  O11  1  0.36039741  0.31404343  0.98478314  1
  O  O12  1  0.23114339  0.02201011  0.10710061  1
  O  O13  1  0.02201011  0.10710061  0.23114339  1
  O  O14  1  0.35095236  0.52354594  0.21238743  1
  O  O15  1  0.21238743  0.35095236  0.52354594  1
  O  O16  1  0.52354594  0.21238743  0.35095236  1
  O  O17  1  0.64904764  0.47645406  0.78761257  1
  O  O18  1  0.78761257  0.64904764  0.47645406  1
  O  O19  1  0.47645406  0.78761257  0.64904764  1
  O  O20  1  0.89289939  0.76885661  0.97798989  1
  O  O21  1  0.97798989  0.89289939  0.76885661  1
  O  O22  1  0.76885661  0.97798989  0.89289939  1
  O  O23  1  0.10710061  0.23114339  0.02201011  1
  S  S24  1  0.03150495  0.25405500  0.38136753  1
  S  S25  1  0.25405500  0.38136753  0.03150495  1
  S  S26  1  0.38136753  0.03150495  0.25405500  1
  S  S27  1  0.96849505  0.74594500  0.61863247  1
  S  S28  1  0.74594500  0.61863247  0.96849505  1
  S  S29  1  0.61863247  0.96849505  0.74594500  1
  K  K30  1  0.50000000  0.50000000  0.50000000  1
  K  K31  1  0.16316859  0.66560086  0.32411412  1
  K  K32  1  0.66560086  0.32411412  0.16316859  1
  K  K33  1  0.32411412  0.16316859  0.66560086  1
  K  K34  1  0.83683141  0.33439914  0.67588588  1
  K  K35  1  0.33439914  0.67588588  0.83683141  1
  K  K36  1  0.67588588  0.83683141  0.33439914  1
  Ta  Ta37  1  0.00000000  0.00000000  0.00000000  1
