# generated using pymatgen
data_TlSnF7
_symmetry_space_group_name_H-M   'P 1'
_cell_length_a   5.57003788
_cell_length_b   8.89643349
_cell_length_c   11.25967245
_cell_angle_alpha   107.26314280
_cell_angle_beta   90.00000000
_cell_angle_gamma   90.00000000
_symmetry_Int_Tables_number   1
_chemical_formula_structural   TlSnF7
_chemical_formula_sum   'Tl4 Sn4 F28'
_cell_volume   532.82100524
_cell_formula_units_Z   4
loop_
 _symmetry_equiv_pos_site_id
 _symmetry_equiv_pos_as_xyz
  1  'x, y, z'
loop_
 _atom_site_type_symbol
 _atom_site_label
 _atom_site_symmetry_multiplicity
 _atom_site_fract_x
 _atom_site_fract_y
 _atom_site_fract_z
 _atom_site_occupancy
  F  F0  1  0.07265856  0.81064601  0.54268912  1
  F  F1  1  0.57265856  0.68935399  0.95731088  1
  F  F2  1  0.92734144  0.18935399  0.45731088  1
  F  F3  1  0.42734144  0.31064601  0.04268912  1
  F  F4  1  0.93905717  0.37961472  0.08451595  1
  F  F5  1  0.43905717  0.12038528  0.41548405  1
  F  F6  1  0.06094283  0.62038528  0.91548405  1
  F  F7  1  0.56094283  0.87961472  0.58451595  1
  F  F8  1  0.29227180  0.61257618  0.13593709  1
  F  F9  1  0.79227180  0.88742382  0.36406291  1
  F  F10  1  0.70772820  0.38742382  0.86406291  1
  F  F11  1  0.20772820  0.11257618  0.63593709  1
  F  F12  1  0.25693632  0.93137382  0.95125192  1
  F  F13  1  0.75693632  0.56862618  0.54874808  1
  F  F14  1  0.74306368  0.06862618  0.04874808  1
  F  F15  1  0.24306368  0.43137382  0.45125192  1
  F  F16  1  0.95400735  0.58161883  0.31829854  1
  F  F17  1  0.45400735  0.91838117  0.18170146  1
  F  F18  1  0.04599265  0.41838117  0.68170146  1
  F  F19  1  0.54599265  0.08161883  0.81829854  1
  F  F20  1  0.97061771  0.86253228  0.14372074  1
  F  F21  1  0.47061771  0.63746772  0.35627926  1
  F  F22  1  0.02938229  0.13746772  0.85627926  1
  F  F23  1  0.52938229  0.36253228  0.64372074  1
  F  F24  1  0.89882465  0.80774360  0.77045552  1
  F  F25  1  0.39882465  0.69225640  0.72954448  1
  F  F26  1  0.10117535  0.19225640  0.22954448  1
  F  F27  1  0.60117535  0.30774360  0.27045552  1
  Sn  Sn28  1  0.76107495  0.72870421  0.45700741  1
  Sn  Sn29  1  0.26107495  0.77129579  0.04299259  1
  Sn  Sn30  1  0.23892505  0.27129579  0.54299259  1
  Sn  Sn31  1  0.73892505  0.22870421  0.95700741  1
  Tl  Tl32  1  0.24026586  0.92091992  0.73572773  1
  Tl  Tl33  1  0.74026586  0.57908008  0.76427227  1
  Tl  Tl34  1  0.75973414  0.07908008  0.26427227  1
  Tl  Tl35  1  0.25973414  0.42091992  0.23572773  1
