# generated using pymatgen
data_Ta5Ge3
_symmetry_space_group_name_H-M   'P 1'
_cell_length_a   6.67145286
_cell_length_b   6.67158692
_cell_length_c   7.67813992
_cell_angle_alpha   115.75399027
_cell_angle_beta   115.74995818
_cell_angle_gamma   90.00000000
_symmetry_Int_Tables_number   1
_chemical_formula_structural   Ta5Ge3
_chemical_formula_sum   'Ta10 Ge6'
_cell_volume   269.62587134
_cell_formula_units_Z   2
loop_
 _symmetry_equiv_pos_site_id
 _symmetry_equiv_pos_as_xyz
  1  'x, y, z'
loop_
 _atom_site_type_symbol
 _atom_site_label
 _atom_site_symmetry_multiplicity
 _atom_site_fract_x
 _atom_site_fract_y
 _atom_site_fract_z
 _atom_site_occupancy
  Ge  Ge0  1  0.63635614  0.13634689  0.99999737  1
  Ge  Ge1  1  0.86364124  0.63634689  0.99999737  1
  Ge  Ge2  1  0.13635876  0.36365311  0.00000263  1
  Ge  Ge3  1  0.36364386  0.86365311  0.00000263  1
  Ge  Ge4  1  0.74997780  0.75000000  0.50000000  1
  Ge  Ge5  1  0.25002220  0.25000000  0.50000000  1
  Ta  Ta6  1  0.18502772  0.00618800  0.69121052  1
  Ta  Ta7  1  0.00618280  0.50618800  0.69121052  1
  Ta  Ta8  1  0.68503486  0.18499567  0.69126574  1
  Ta  Ta9  1  0.99381720  0.49381200  0.30878948  1
  Ta  Ta10  1  0.50623087  0.68499567  0.69126574  1
  Ta  Ta11  1  0.81497228  0.99381200  0.30878948  1
  Ta  Ta12  1  0.49376913  0.31500433  0.30873426  1
  Ta  Ta13  1  0.31496514  0.81500433  0.30873426  1
  Ta  Ta14  1  0.50000000  0.50000000  0.00000000  1
  Ta  Ta15  1  0.00000000  0.00000000  0.00000000  1
