# generated using pymatgen
data_Mn15O32
_symmetry_space_group_name_H-M   'P 1'
_cell_length_a   5.81715130
_cell_length_b   5.81380619
_cell_length_c   19.32567080
_cell_angle_alpha   98.21571242
_cell_angle_beta   98.66508296
_cell_angle_gamma   59.97872336
_symmetry_Int_Tables_number   1
_chemical_formula_structural   Mn15O32
_chemical_formula_sum   'Mn15 O32'
_cell_volume   557.70155403
_cell_formula_units_Z   1
loop_
 _symmetry_equiv_pos_site_id
 _symmetry_equiv_pos_as_xyz
  1  'x, y, z'
loop_
 _atom_site_type_symbol
 _atom_site_label
 _atom_site_symmetry_multiplicity
 _atom_site_fract_x
 _atom_site_fract_y
 _atom_site_fract_z
 _atom_site_occupancy
  Mn  Mn0  1  0.12827228  0.61982877  0.87545526  1
  Mn  Mn1  1  0.37500000  0.87500000  0.62500000  1
  Mn  Mn2  1  0.12273078  0.62917145  0.37475377  1
  Mn  Mn3  1  0.62746830  0.61983161  0.87546801  1
  Mn  Mn4  1  0.75165386  0.74692940  0.75018615  1
  Mn  Mn5  1  0.87500000  0.87500000  0.62500000  1
  Mn  Mn6  1  0.24615191  0.25690742  0.24927906  1
  Mn  Mn7  1  0.12253170  0.13016839  0.37453199  1
  Mn  Mn8  1  0.37500000  0.37500000  0.12500000  1
  Mn  Mn9  1  0.50384809  0.49309258  0.00072094  1
  Mn  Mn10  1  0.62726922  0.12082855  0.87524623  1
  Mn  Mn11  1  0.87500000  0.37500000  0.62500000  1
  Mn  Mn12  1  0.62172772  0.13017123  0.37454474  1
  Mn  Mn13  1  0.87500000  0.37500000  0.12500000  1
  Mn  Mn14  1  0.99834614  0.00307060  0.49981385  1
  O  O15  1  0.16850196  0.72930576  0.56634934  1
  O  O16  1  0.02245424  0.57919408  0.68393456  1
  O  O17  1  0.26943991  0.83484366  0.43374620  1
  O  O18  1  0.48056009  0.91515634  0.81625380  1
  O  O19  1  0.33396755  0.76601312  0.93382912  1
  O  O20  1  0.07629833  0.53049227  0.18298155  1
  O  O21  1  0.22309451  0.63645285  0.05867704  1
  O  O22  1  0.69023373  0.69307584  0.57356697  1
  O  O23  1  0.81248995  0.80192091  0.92671015  1
  O  O24  1  0.92063229  0.91518447  0.81625522  1
  O  O25  1  0.33483494  0.32284146  0.93348828  1
  O  O26  1  0.44261651  0.43865701  0.82378794  1
  O  O27  1  0.58229850  0.57916951  0.68392942  1
  O  O28  1  0.05045248  0.11388917  0.19133265  1
  O  O29  1  0.16770150  0.17083049  0.56607058  1
  O  O30  1  0.82936771  0.83481553  0.43374478  1
  O  O31  1  0.30738349  0.31134299  0.42621206  1
  O  O32  1  0.41516506  0.42715854  0.31651172  1
  O  O33  1  0.18328210  0.20831827  0.07507965  1
  O  O34  1  0.93751005  0.94807909  0.32328985  1
  O  O35  1  0.05976627  0.05692416  0.67643303  1
  O  O36  1  0.56671790  0.54168173  0.17492035  1
  O  O37  1  0.69954752  0.63611083  0.05866735  1
  O  O38  1  0.92131917  0.47413317  0.81670701  1
  O  O39  1  0.77584218  0.32287853  0.93350538  1
  O  O40  1  0.52690549  0.11354715  0.19132296  1
  O  O41  1  0.41603245  0.98398688  0.31617088  1
  O  O42  1  0.67370167  0.21950773  0.06701845  1
  O  O43  1  0.72754576  0.17080592  0.56606544  1
  O  O44  1  0.58149804  0.02069424  0.68365066  1
  O  O45  1  0.97415782  0.42712147  0.31649462  1
  O  O46  1  0.82868083  0.27586683  0.43329299  1
