# generated using pymatgen
data_Ce4S3O4
_symmetry_space_group_name_H-M   'P 1'
_cell_length_a   3.95291891
_cell_length_b   6.84262692
_cell_length_c   14.78281261
_cell_angle_alpha   90.00000000
_cell_angle_beta   90.00000000
_cell_angle_gamma   90.00000000
_symmetry_Int_Tables_number   1
_chemical_formula_structural   Ce4S3O4
_chemical_formula_sum   'Ce8 S6 O8'
_cell_volume   399.85067979
_cell_formula_units_Z   2
loop_
 _symmetry_equiv_pos_site_id
 _symmetry_equiv_pos_as_xyz
  1  'x, y, z'
loop_
 _atom_site_type_symbol
 _atom_site_label
 _atom_site_symmetry_multiplicity
 _atom_site_fract_x
 _atom_site_fract_y
 _atom_site_fract_z
 _atom_site_occupancy
  O  O0  1  0.50000000  0.11749305  0.87652500  1
  O  O1  1  0.50000000  0.88250695  0.12347500  1
  O  O2  1  0.50000000  0.61749305  0.62347500  1
  O  O3  1  0.50000000  0.38250695  0.37652500  1
  O  O4  1  0.00000000  0.35891834  0.57325744  1
  O  O5  1  0.00000000  0.64108166  0.42674256  1
  O  O6  1  0.00000000  0.85891834  0.92674256  1
  O  O7  1  0.00000000  0.14108166  0.07325744  1
  S  S8  1  0.00000000  0.00164204  0.28001691  1
  S  S9  1  0.00000000  0.99835796  0.71998309  1
  S  S10  1  0.00000000  0.50164204  0.21998309  1
  S  S11  1  0.00000000  0.49835796  0.78001691  1
  S  S12  1  0.50000000  0.00000000  0.50000000  1
  S  S13  1  0.50000000  0.50000000  0.00000000  1
  Ce  Ce14  1  0.50000000  0.29247420  0.65736415  1
  Ce  Ce15  1  0.50000000  0.70752580  0.34263585  1
  Ce  Ce16  1  0.50000000  0.79247420  0.84263585  1
  Ce  Ce17  1  0.50000000  0.20752580  0.15736415  1
  Ce  Ce18  1  0.00000000  0.21901311  0.92218822  1
  Ce  Ce19  1  0.00000000  0.78098689  0.07781178  1
  Ce  Ce20  1  0.00000000  0.71901311  0.57781178  1
  Ce  Ce21  1  0.00000000  0.28098689  0.42218822  1
