# generated using pymatgen
data_TbGe2Pt
_symmetry_space_group_name_H-M   'P 1'
_cell_length_a   4.35617738
_cell_length_b   8.78005078
_cell_length_c   9.59131080
_cell_angle_alpha   117.23932253
_cell_angle_beta   103.12579537
_cell_angle_gamma   90.00000001
_symmetry_Int_Tables_number   1
_chemical_formula_structural   TbGe2Pt
_chemical_formula_sum   'Tb4 Ge8 Pt4'
_cell_volume   315.34300185
_cell_formula_units_Z   4
loop_
 _symmetry_equiv_pos_site_id
 _symmetry_equiv_pos_as_xyz
  1  'x, y, z'
loop_
 _atom_site_type_symbol
 _atom_site_label
 _atom_site_symmetry_multiplicity
 _atom_site_fract_x
 _atom_site_fract_y
 _atom_site_fract_z
 _atom_site_occupancy
  Ge  Ge0  1  0.19973000  0.04977455  0.39946001  1
  Ge  Ge1  1  0.80027000  0.95022545  0.60053999  1
  Ge  Ge2  1  0.80027011  0.65031441  0.60054021  1
  Ge  Ge3  1  0.19972989  0.34968559  0.39945979  1
  Ge  Ge4  1  0.57407086  0.57407009  0.14814171  1
  Ge  Ge5  1  0.42636289  0.92636243  0.85272578  1
  Ge  Ge6  1  0.57363711  0.07363757  0.14727422  1
  Ge  Ge7  1  0.42592914  0.42592991  0.85185829  1
  Tb  Tb8  1  0.20177393  0.70177281  0.40354786  1
  Tb  Tb9  1  0.00000041  0.26148187  0.00000082  1
  Tb  Tb10  1  0.79822607  0.29822719  0.59645214  1
  Tb  Tb11  1  0.99999959  0.73851813  0.99999918  1
  Pt  Pt12  1  0.35179628  0.60243662  0.70359256  1
  Pt  Pt13  1  0.64820372  0.39756338  0.29640744  1
  Pt  Pt14  1  0.64820227  0.89884246  0.29640455  1
  Pt  Pt15  1  0.35179773  0.10115754  0.70359545  1
