# generated using pymatgen
data_USO6
_symmetry_space_group_name_H-M   'P 1'
_cell_length_a   6.01857876
_cell_length_b   6.82681889
_cell_length_c   12.96566518
_cell_angle_alpha   103.26314302
_cell_angle_beta   90.00000000
_cell_angle_gamma   90.00000000
_symmetry_Int_Tables_number   1
_chemical_formula_structural   USO6
_chemical_formula_sum   'U4 S4 O24'
_cell_volume   518.52028355
_cell_formula_units_Z   4
loop_
 _symmetry_equiv_pos_site_id
 _symmetry_equiv_pos_as_xyz
  1  'x, y, z'
loop_
 _atom_site_type_symbol
 _atom_site_label
 _atom_site_symmetry_multiplicity
 _atom_site_fract_x
 _atom_site_fract_y
 _atom_site_fract_z
 _atom_site_occupancy
  O  O0  1  0.99667723  0.75338677  0.90609125  1
  O  O1  1  0.49667723  0.24661323  0.59390875  1
  O  O2  1  0.00332277  0.24661323  0.09390875  1
  O  O3  1  0.50332277  0.75338677  0.40609125  1
  O  O4  1  0.01422303  0.40983294  0.73101831  1
  O  O5  1  0.51422303  0.59016706  0.76898169  1
  O  O6  1  0.98577697  0.59016706  0.26898169  1
  O  O7  1  0.48577697  0.40983294  0.23101831  1
  O  O8  1  0.20704392  0.37978826  0.40083700  1
  O  O9  1  0.70704392  0.62021174  0.09916300  1
  O  O10  1  0.79295608  0.62021174  0.59916300  1
  O  O11  1  0.29295608  0.37978826  0.90083700  1
  O  O12  1  0.05483858  0.77458977  0.50012865  1
  O  O13  1  0.55483858  0.22541023  0.99987135  1
  O  O14  1  0.94516142  0.22541023  0.49987135  1
  O  O15  1  0.44516142  0.77458977  0.00012865  1
  O  O16  1  0.15501175  0.01959271  0.35661237  1
  O  O17  1  0.65501175  0.98040729  0.14338763  1
  O  O18  1  0.84498825  0.98040729  0.64338763  1
  O  O19  1  0.34498825  0.01959271  0.85661237  1
  O  O20  1  0.36121553  0.76462385  0.18101609  1
  O  O21  1  0.86121553  0.23537615  0.31898391  1
  O  O22  1  0.63878447  0.23537615  0.81898391  1
  O  O23  1  0.13878447  0.76462385  0.68101609  1
  S  S24  1  0.95823144  0.78515443  0.60614696  1
  S  S25  1  0.45823144  0.21484557  0.89385304  1
  S  S26  1  0.04176856  0.21484557  0.39385304  1
  S  S27  1  0.54176856  0.78515443  0.10614696  1
  U  U28  1  0.25347306  0.67821575  0.83929093  1
  U  U29  1  0.75347306  0.32178425  0.66070907  1
  U  U30  1  0.74652694  0.32178425  0.16070907  1
  U  U31  1  0.24652694  0.67821575  0.33929093  1
