# generated using pymatgen
data_K3SbSe3
_symmetry_space_group_name_H-M   'P 1'
_cell_length_a   9.98063954
_cell_length_b   9.98063954
_cell_length_c   9.98063954
_cell_angle_alpha   90.00000000
_cell_angle_beta   90.00000000
_cell_angle_gamma   90.00000000
_symmetry_Int_Tables_number   1
_chemical_formula_structural   K3SbSe3
_chemical_formula_sum   'K12 Sb4 Se12'
_cell_volume   994.20309957
_cell_formula_units_Z   4
loop_
 _symmetry_equiv_pos_site_id
 _symmetry_equiv_pos_as_xyz
  1  'x, y, z'
loop_
 _atom_site_type_symbol
 _atom_site_label
 _atom_site_symmetry_multiplicity
 _atom_site_fract_x
 _atom_site_fract_y
 _atom_site_fract_z
 _atom_site_occupancy
  K  K0  1  0.81737613  0.18262387  0.68262387  1
  K  K1  1  0.18785922  0.31214078  0.68785922  1
  K  K2  1  0.31214078  0.68785922  0.18785922  1
  K  K3  1  0.68785922  0.18785922  0.31214078  1
  K  K4  1  0.81214078  0.81214078  0.81214078  1
  K  K5  1  0.42165495  0.07834505  0.92165495  1
  K  K6  1  0.07834505  0.92165495  0.42165495  1
  K  K7  1  0.92165495  0.42165495  0.07834505  1
  K  K8  1  0.57834505  0.57834505  0.57834505  1
  K  K9  1  0.68262387  0.81737613  0.18262387  1
  K  K10  1  0.18262387  0.68262387  0.81737613  1
  K  K11  1  0.31737613  0.31737613  0.31737613  1
  Se  Se12  1  0.22083971  0.60239178  0.49737518  1
  Se  Se13  1  0.77916029  0.10239178  0.00262482  1
  Se  Se14  1  0.99737518  0.27916029  0.39760822  1
  Se  Se15  1  0.72083971  0.89760822  0.50262482  1
  Se  Se16  1  0.10239178  0.00262482  0.77916029  1
  Se  Se17  1  0.50262482  0.72083971  0.89760822  1
  Se  Se18  1  0.00262482  0.77916029  0.10239178  1
  Se  Se19  1  0.39760822  0.99737518  0.27916029  1
  Se  Se20  1  0.49737518  0.22083971  0.60239178  1
  Se  Se21  1  0.89760822  0.50262482  0.72083971  1
  Se  Se22  1  0.60239178  0.49737518  0.22083971  1
  Se  Se23  1  0.27916029  0.39760822  0.99737518  1
  Sb  Sb24  1  0.02770915  0.02770915  0.02770915  1
  Sb  Sb25  1  0.47229085  0.97229085  0.52770915  1
  Sb  Sb26  1  0.52770915  0.47229085  0.97229085  1
  Sb  Sb27  1  0.97229085  0.52770915  0.47229085  1
