# generated using pymatgen
data_U(Ni2P)2
_symmetry_space_group_name_H-M   'P 1'
_cell_length_a   3.65827367
_cell_length_b   7.02045989
_cell_length_c   7.02045989
_cell_angle_alpha   90.00000000
_cell_angle_beta   90.00000000
_cell_angle_gamma   90.00000000
_symmetry_Int_Tables_number   1
_chemical_formula_structural   U(Ni2P)2
_chemical_formula_sum   'U2 Ni8 P4'
_cell_volume   180.30481149
_cell_formula_units_Z   2
loop_
 _symmetry_equiv_pos_site_id
 _symmetry_equiv_pos_as_xyz
  1  'x, y, z'
loop_
 _atom_site_type_symbol
 _atom_site_label
 _atom_site_symmetry_multiplicity
 _atom_site_fract_x
 _atom_site_fract_y
 _atom_site_fract_z
 _atom_site_occupancy
  P  P0  1  0.00000000  0.78191720  0.21808280  1
  P  P1  1  0.50000000  0.28191720  0.28191720  1
  P  P2  1  0.50000000  0.71808280  0.71808280  1
  P  P3  1  0.00000000  0.21808280  0.78191720  1
  Ni  Ni4  1  0.50000000  0.16072172  0.59017001  1
  Ni  Ni5  1  0.50000000  0.83927828  0.40982999  1
  Ni  Ni6  1  0.50000000  0.59017001  0.16072172  1
  Ni  Ni7  1  0.50000000  0.40982999  0.83927828  1
  Ni  Ni8  1  0.00000000  0.33927828  0.09017001  1
  Ni  Ni9  1  0.00000000  0.66072172  0.90982999  1
  Ni  Ni10  1  0.00000000  0.90982999  0.66072172  1
  Ni  Ni11  1  0.00000000  0.09017001  0.33927828  1
  U  U12  1  0.00000000  0.50000000  0.50000000  1
  U  U13  1  0.50000000  0.00000000  0.00000000  1
