# generated using pymatgen
data_Co2O3F
_symmetry_space_group_name_H-M   'P 1'
_cell_length_a   4.54109336
_cell_length_b   4.54109336
_cell_length_c   14.65514410
_cell_angle_alpha   90.00000000
_cell_angle_beta   90.00000000
_cell_angle_gamma   94.84965113
_symmetry_Int_Tables_number   1
_chemical_formula_structural   Co2O3F
_chemical_formula_sum   'Co10 O15 F5'
_cell_volume   301.12955219
_cell_formula_units_Z   5
loop_
 _symmetry_equiv_pos_site_id
 _symmetry_equiv_pos_as_xyz
  1  'x, y, z'
loop_
 _atom_site_type_symbol
 _atom_site_label
 _atom_site_symmetry_multiplicity
 _atom_site_fract_x
 _atom_site_fract_y
 _atom_site_fract_z
 _atom_site_occupancy
  Co  Co0  1  0.00421831  0.99578169  -0.00002231  1
  Co  Co1  1  0.00421831  0.99578169  0.20002231  1
  Co  Co2  1  0.01403469  0.98596531  0.39989419  1
  Co  Co3  1  0.01408460  0.98591540  0.60000000  1
  Co  Co4  1  0.01403469  0.98596531  0.80010581  1
  Co  Co5  1  0.54161702  0.45838298  0.10000000  1
  Co  Co6  1  0.47587175  0.52412825  0.50133730  1
  Co  Co7  1  0.47294705  0.52705295  0.29851102  1
  Co  Co8  1  0.47294705  0.52705295  0.90148898  1
  Co  Co9  1  0.47587175  0.52412825  0.69866270  1
  O  O10  1  0.19086232  0.80913768  0.50597178  1
  O  O11  1  0.18726828  0.81273172  0.29733864  1
  O  O12  1  0.19086232  0.80913768  0.69402822  1
  O  O13  1  0.18726828  0.81273172  0.90266136  1
  O  O14  1  0.31165294  0.30303700  0.99927810  1
  O  O15  1  0.31165294  0.30303700  0.20072190  1
  O  O16  1  0.30540728  0.30361693  0.60000000  1
  O  O17  1  0.30208730  0.31243830  0.79943825  1
  O  O18  1  0.30208730  0.31243830  0.40056175  1
  O  O19  1  0.69696300  0.68834706  0.99927810  1
  O  O20  1  0.69696300  0.68834706  0.20072190  1
  O  O21  1  0.68756170  0.69791270  0.40056175  1
  O  O22  1  0.69638307  0.69459272  0.60000000  1
  O  O23  1  0.68756170  0.69791270  0.79943825  1
  O  O24  1  0.82352735  0.17647265  0.10000000  1
  F  F25  1  0.21276012  0.78723988  0.10000000  1
  F  F26  1  0.81202175  0.18797825  0.50494606  1
  F  F27  1  0.79762169  0.20237831  0.30316137  1
  F  F28  1  0.79762169  0.20237831  0.89683863  1
  F  F29  1  0.81202175  0.18797825  0.69505394  1
