# generated using pymatgen
data_Fe6O5F7
_symmetry_space_group_name_H-M   'P 1'
_cell_length_a   4.78165039
_cell_length_b   7.83073137
_cell_length_c   5.69718886
_cell_angle_alpha   94.60075264
_cell_angle_beta   91.12961780
_cell_angle_gamma   89.41118260
_symmetry_Int_Tables_number   1
_chemical_formula_structural   Fe6O5F7
_chemical_formula_sum   'Fe6 O5 F7'
_cell_volume   212.58772615
_cell_formula_units_Z   1
loop_
 _symmetry_equiv_pos_site_id
 _symmetry_equiv_pos_as_xyz
  1  'x, y, z'
loop_
 _atom_site_type_symbol
 _atom_site_label
 _atom_site_symmetry_multiplicity
 _atom_site_fract_x
 _atom_site_fract_y
 _atom_site_fract_z
 _atom_site_occupancy
  Fe  Fe0  1  0.53015838  0.67157610  0.15261197  1
  Fe  Fe1  1  0.53278290  0.00196751  0.49208481  1
  Fe  Fe2  1  0.45886113  0.34897203  0.81338855  1
  Fe  Fe3  1  0.98760232  0.67683156  0.67648036  1
  Fe  Fe4  1  0.00995414  0.31154993  0.34819007  1
  Fe  Fe5  1  0.97552708  0.99232736  0.01338330  1
  O  O6  1  0.79898311  0.76075834  0.95481695  1
  O  O7  1  0.80206493  0.10856233  0.30768218  1
  O  O8  1  0.69664684  0.76612516  0.45848867  1
  O  O9  1  0.29937806  0.56789380  0.87208379  1
  O  O10  1  0.30769798  0.22813684  0.53772727  1
  F  F11  1  0.80521996  0.43204240  0.63136445  1
  F  F12  1  0.68965961  0.11683686  0.79812390  1
  F  F13  1  0.70017583  0.42713153  0.12886407  1
  F  F14  1  0.31212722  0.89599496  0.20737206  1
  F  F15  1  0.20340560  0.23571019  0.03928236  1
  F  F16  1  0.18476202  0.55564797  0.37201907  1
  F  F17  1  0.20499490  0.90193414  0.69603518  1
