# generated using pymatgen
data_TiMnSi2
_symmetry_space_group_name_H-M   'P 1'
_cell_length_a   7.71938296
_cell_length_b   8.65931157
_cell_length_c   9.48169786
_cell_angle_alpha   90.00000000
_cell_angle_beta   90.00000000
_cell_angle_gamma   90.00000000
_symmetry_Int_Tables_number   1
_chemical_formula_structural   TiMnSi2
_chemical_formula_sum   'Ti12 Mn12 Si24'
_cell_volume   633.79975253
_cell_formula_units_Z   12
loop_
 _symmetry_equiv_pos_site_id
 _symmetry_equiv_pos_as_xyz
  1  'x, y, z'
loop_
 _atom_site_type_symbol
 _atom_site_label
 _atom_site_symmetry_multiplicity
 _atom_site_fract_x
 _atom_site_fract_y
 _atom_site_fract_z
 _atom_site_occupancy
  Si  Si0  1  0.50000000  0.03749090  0.37598245  1
  Si  Si1  1  0.00000000  0.46173193  0.87939216  1
  Si  Si2  1  0.00000000  0.53826807  0.12060784  1
  Si  Si3  1  0.00000000  0.96173193  0.62060784  1
  Si  Si4  1  0.00000000  0.03826807  0.37939216  1
  Si  Si5  1  0.00000000  0.37014058  0.60385868  1
  Si  Si6  1  0.00000000  0.62985942  0.39614132  1
  Si  Si7  1  0.00000000  0.87014058  0.89614132  1
  Si  Si8  1  0.50000000  0.37491375  0.59743379  1
  Si  Si9  1  0.50000000  0.62508625  0.40256621  1
  Si  Si10  1  0.50000000  0.87491375  0.90256621  1
  Si  Si11  1  0.50000000  0.12508625  0.09743379  1
  Si  Si12  1  0.50000000  0.46250910  0.87598245  1
  Si  Si13  1  0.50000000  0.53749090  0.12401755  1
  Si  Si14  1  0.50000000  0.96250910  0.62401755  1
  Si  Si15  1  0.00000000  0.12985942  0.10385868  1
  Si  Si16  1  0.34604219  0.33220378  0.31750314  1
  Si  Si17  1  0.65395781  0.83220378  0.18249686  1
  Si  Si18  1  0.34604219  0.83220378  0.18249686  1
  Si  Si19  1  0.65395781  0.16779622  0.81750314  1
  Si  Si20  1  0.65395781  0.66779622  0.68249686  1
  Si  Si21  1  0.65395781  0.33220378  0.31750314  1
  Si  Si22  1  0.34604219  0.16779622  0.81750314  1
  Si  Si23  1  0.34604219  0.66779622  0.68249686  1
  Ti  Ti24  1  0.00000000  0.16798911  0.82084948  1
  Ti  Ti25  1  0.23989094  0.17166804  0.54699922  1
  Ti  Ti26  1  0.76010906  0.32833196  0.04699922  1
  Ti  Ti27  1  0.76010906  0.67166804  0.95300078  1
  Ti  Ti28  1  0.76010906  0.17166804  0.54699922  1
  Ti  Ti29  1  0.76010906  0.82833196  0.45300078  1
  Ti  Ti30  1  0.23989094  0.67166804  0.95300078  1
  Ti  Ti31  1  0.23989094  0.32833196  0.04699922  1
  Ti  Ti32  1  0.00000000  0.33201089  0.32084948  1
  Ti  Ti33  1  0.00000000  0.66798911  0.67915052  1
  Ti  Ti34  1  0.00000000  0.83201089  0.17915052  1
  Ti  Ti35  1  0.23989094  0.82833196  0.45300078  1
  Mn  Mn36  1  0.24770319  0.08474543  0.25308615  1
  Mn  Mn37  1  0.24770319  0.58474543  0.24691385  1
  Mn  Mn38  1  0.24770319  0.41525457  0.75308615  1
  Mn  Mn39  1  0.75229681  0.08474543  0.25308615  1
  Mn  Mn40  1  0.75229681  0.91525457  0.74691385  1
  Mn  Mn41  1  0.75229681  0.41525457  0.75308615  1
  Mn  Mn42  1  0.75229681  0.58474543  0.24691385  1
  Mn  Mn43  1  0.24770319  0.91525457  0.74691385  1
  Mn  Mn44  1  0.24363754  0.00000000  0.00000000  1
  Mn  Mn45  1  0.75636246  0.50000000  0.50000000  1
  Mn  Mn46  1  0.75636246  0.00000000  0.00000000  1
  Mn  Mn47  1  0.24363754  0.50000000  0.50000000  1
