# generated using pymatgen
data_Rb2PbO3
_symmetry_space_group_name_H-M   'P 1'
_cell_length_a   6.15375705
_cell_length_b   7.53616413
_cell_length_c   11.08534357
_cell_angle_alpha   90.00000000
_cell_angle_beta   90.00000000
_cell_angle_gamma   90.00000000
_symmetry_Int_Tables_number   1
_chemical_formula_structural   Rb2PbO3
_chemical_formula_sum   'Rb8 Pb4 O12'
_cell_volume   514.09082437
_cell_formula_units_Z   4
loop_
 _symmetry_equiv_pos_site_id
 _symmetry_equiv_pos_as_xyz
  1  'x, y, z'
loop_
 _atom_site_type_symbol
 _atom_site_label
 _atom_site_symmetry_multiplicity
 _atom_site_fract_x
 _atom_site_fract_y
 _atom_site_fract_z
 _atom_site_occupancy
  Rb  Rb0  1  0.76406349  0.39185054  0.91255021  1
  Rb  Rb1  1  0.73593651  0.89185054  0.08744979  1
  Rb  Rb2  1  0.26406349  0.10814946  0.91255021  1
  Rb  Rb3  1  0.26406349  0.10814946  0.58744979  1
  Rb  Rb4  1  0.23593651  0.60814946  0.41255021  1
  Rb  Rb5  1  0.73593651  0.89185054  0.41255021  1
  Rb  Rb6  1  0.23593651  0.60814946  0.08744979  1
  Rb  Rb7  1  0.76406349  0.39185054  0.58744979  1
  Pb  Pb8  1  0.26213027  0.15770694  0.25000000  1
  Pb  Pb9  1  0.73786973  0.84229306  0.75000000  1
  Pb  Pb10  1  0.76213027  0.34229306  0.25000000  1
  Pb  Pb11  1  0.23786973  0.65770694  0.75000000  1
  O  O12  1  0.00445320  0.23183732  0.38019078  1
  O  O13  1  0.17643338  0.38916243  0.75000000  1
  O  O14  1  0.49554680  0.73183732  0.88019078  1
  O  O15  1  0.99554680  0.76816268  0.88019078  1
  O  O16  1  0.00445320  0.23183732  0.11980922  1
  O  O17  1  0.82356662  0.61083757  0.25000000  1
  O  O18  1  0.49554680  0.73183732  0.61980922  1
  O  O19  1  0.32356662  0.88916243  0.25000000  1
  O  O20  1  0.67643338  0.11083757  0.75000000  1
  O  O21  1  0.50445320  0.26816268  0.38019078  1
  O  O22  1  0.50445320  0.26816268  0.11980922  1
  O  O23  1  0.99554680  0.76816268  0.61980922  1
