# generated using pymatgen
data_Li5FeOF5
_symmetry_space_group_name_H-M   'P 1'
_cell_length_a   5.14354516
_cell_length_b   5.14354516
_cell_length_c   10.35391534
_cell_angle_alpha   79.83501980
_cell_angle_beta   100.16498020
_cell_angle_gamma   60.57181620
_symmetry_Int_Tables_number   1
_chemical_formula_structural   Li5FeOF5
_chemical_formula_sum   'Li10 Fe2 O2 F10'
_cell_volume   223.49454713
_cell_formula_units_Z   2
loop_
 _symmetry_equiv_pos_site_id
 _symmetry_equiv_pos_as_xyz
  1  'x, y, z'
loop_
 _atom_site_type_symbol
 _atom_site_label
 _atom_site_symmetry_multiplicity
 _atom_site_fract_x
 _atom_site_fract_y
 _atom_site_fract_z
 _atom_site_occupancy
  Li  Li0  1  0.16303528  0.19926953  0.74037688  1
  Li  Li1  1  0.48394974  0.50293922  0.74663282  1
  Li  Li2  1  0.85039712  0.81217381  0.74471478  1
  Li  Li3  1  0.32366140  0.34587644  0.50748493  1
  Li  Li4  1  0.68300666  0.66154109  0.50856298  1
  Li  Li5  1  0.18782619  0.14960288  0.24471478  1
  Li  Li6  1  0.80073047  0.83696472  0.24037688  1
  Li  Li7  1  0.49706078  0.51605026  0.24663282  1
  Li  Li8  1  0.33845891  0.31699334  0.00856298  1
  Li  Li9  1  0.65412356  0.67633860  0.00748493  1
  Fe  Fe10  1  0.00471659  0.97464695  0.50681137  1
  Fe  Fe11  1  0.02535305  0.99528341  0.00681137  1
  O  O12  1  0.08322462  0.59096901  0.62163993  1
  O  O13  1  0.40903099  0.91677538  0.12163993  1
  F  F14  1  0.25619259  0.74383711  0.87108900  1
  F  F15  1  0.42595417  0.92747260  0.62686156  1
  F  F16  1  0.25616289  0.74380741  0.37108900  1
  F  F17  1  0.07252740  0.57404583  0.12686156  1
  F  F18  1  0.90750414  0.43255072  0.86926089  1
  F  F19  1  0.60770776  0.07959135  0.88005513  1
  F  F20  1  0.74530199  0.26378522  0.62650973  1
  F  F21  1  0.92040865  0.39229224  0.38005513  1
  F  F22  1  0.56744928  0.09249586  0.36926089  1
  F  F23  1  0.73621478  0.25469801  0.12650973  1
