# generated using pymatgen
data_Tb(FeGe)6
_symmetry_space_group_name_H-M   'P 1'
_cell_length_a   5.13105083
_cell_length_b   8.17452651
_cell_length_c   9.76780359
_cell_angle_alpha   114.73628916
_cell_angle_beta   90.00000000
_cell_angle_gamma   90.00000000
_symmetry_Int_Tables_number   1
_chemical_formula_structural   Tb(FeGe)6
_chemical_formula_sum   'Tb2 Fe12 Ge12'
_cell_volume   372.10718869
_cell_formula_units_Z   2
loop_
 _symmetry_equiv_pos_site_id
 _symmetry_equiv_pos_as_xyz
  1  'x, y, z'
loop_
 _atom_site_type_symbol
 _atom_site_label
 _atom_site_symmetry_multiplicity
 _atom_site_fract_x
 _atom_site_fract_y
 _atom_site_fract_z
 _atom_site_occupancy
  Fe  Fe0  1  0.25000000  0.37530284  0.24998911  1
  Fe  Fe1  1  0.75000000  0.62469716  0.75001089  1
  Fe  Fe2  1  0.50000000  0.75041912  0.00000000  1
  Fe  Fe3  1  0.00000000  0.24958088  0.00000000  1
  Fe  Fe4  1  0.50000000  0.24958088  0.00000000  1
  Fe  Fe5  1  0.00000000  0.75041912  0.00000000  1
  Fe  Fe6  1  0.50000000  0.50000000  0.50000000  1
  Fe  Fe7  1  0.00000000  0.50000000  0.50000000  1
  Fe  Fe8  1  0.50000000  0.00000000  0.50000000  1
  Fe  Fe9  1  0.00000000  0.00000000  0.50000000  1
  Fe  Fe10  1  0.75000000  0.12531374  0.75001089  1
  Fe  Fe11  1  0.25000000  0.87468626  0.24998911  1
  Ge  Ge12  1  0.25000000  0.52891809  0.75148942  1
  Ge  Ge13  1  0.75000000  0.47108191  0.24851058  1
  Ge  Ge14  1  0.75000000  0.29543266  0.59086531  1
  Ge  Ge15  1  0.25000000  0.70456734  0.40913469  1
  Ge  Ge16  1  0.75000000  0.78848705  0.57697411  1
  Ge  Ge17  1  0.25000000  0.21151295  0.42302589  1
  Ge  Ge18  1  0.75000000  0.45932320  0.91864640  1
  Ge  Ge19  1  0.25000000  0.54067680  0.08135360  1
  Ge  Ge20  1  0.75000000  0.95796686  0.91593371  1
  Ge  Ge21  1  0.25000000  0.04203314  0.08406629  1
  Ge  Ge22  1  0.25000000  0.22257134  0.75148942  1
  Ge  Ge23  1  0.75000000  0.77742866  0.24851058  1
  Tb  Tb24  1  0.25000000  0.87277469  0.74554937  1
  Tb  Tb25  1  0.75000000  0.12722531  0.25445063  1
