# generated using pymatgen
data_Pr3InSe6
_symmetry_space_group_name_H-M   'P 1'
_cell_length_a   4.17467733
_cell_length_b   14.54541186
_cell_length_c   17.75633400
_cell_angle_alpha   90.00000000
_cell_angle_beta   90.00000000
_cell_angle_gamma   90.00000000
_symmetry_Int_Tables_number   1
_chemical_formula_structural   Pr3InSe6
_chemical_formula_sum   'Pr12 In4 Se24'
_cell_volume   1078.20723606
_cell_formula_units_Z   4
loop_
 _symmetry_equiv_pos_site_id
 _symmetry_equiv_pos_as_xyz
  1  'x, y, z'
loop_
 _atom_site_type_symbol
 _atom_site_label
 _atom_site_symmetry_multiplicity
 _atom_site_fract_x
 _atom_site_fract_y
 _atom_site_fract_z
 _atom_site_occupancy
  Se  Se0  1  0.00000000  0.97692985  0.10300327  1
  Se  Se1  1  0.00000000  0.02307015  0.89699673  1
  Se  Se2  1  0.50000000  0.47692985  0.39699673  1
  Se  Se3  1  0.50000000  0.52307015  0.60300327  1
  Se  Se4  1  0.00000000  0.68954743  0.48082495  1
  Se  Se5  1  0.00000000  0.31045257  0.51917505  1
  Se  Se6  1  0.50000000  0.18954743  0.01917505  1
  Se  Se7  1  0.50000000  0.81045257  0.98082495  1
  Se  Se8  1  0.50000000  0.88748953  0.38546114  1
  Se  Se9  1  0.50000000  0.11251047  0.61453886  1
  Se  Se10  1  0.00000000  0.38748953  0.11453886  1
  Se  Se11  1  0.00000000  0.61251047  0.88546114  1
  Se  Se12  1  0.00000000  0.61140379  0.25123300  1
  Se  Se13  1  0.00000000  0.38859621  0.74876700  1
  Se  Se14  1  0.50000000  0.11140379  0.24876700  1
  Se  Se15  1  0.50000000  0.88859621  0.75123300  1
  Se  Se16  1  0.00000000  0.90617245  0.58506186  1
  Se  Se17  1  0.00000000  0.09382755  0.41493814  1
  Se  Se18  1  0.50000000  0.40617245  0.91493814  1
  Se  Se19  1  0.50000000  0.59382755  0.08506186  1
  Se  Se20  1  0.00000000  0.68215428  0.71530453  1
  Se  Se21  1  0.00000000  0.31784572  0.28469547  1
  Se  Se22  1  0.50000000  0.18215428  0.78469547  1
  Se  Se23  1  0.50000000  0.81784572  0.21530453  1
  In  In24  1  0.00000000  0.50000000  0.00000000  1
  In  In25  1  0.50000000  0.00000000  0.50000000  1
  In  In26  1  0.00000000  0.50000000  0.50000000  1
  In  In27  1  0.50000000  0.00000000  0.00000000  1
  Pr  Pr28  1  0.50000000  0.68640519  0.35454893  1
  Pr  Pr29  1  0.50000000  0.31359481  0.64545107  1
  Pr  Pr30  1  0.00000000  0.18640519  0.14545107  1
  Pr  Pr31  1  0.00000000  0.81359481  0.85454893  1
  Pr  Pr32  1  0.00000000  0.74802069  0.10564738  1
  Pr  Pr33  1  0.00000000  0.25197931  0.89435262  1
  Pr  Pr34  1  0.50000000  0.24802069  0.39435262  1
  Pr  Pr35  1  0.50000000  0.75197931  0.60564738  1
  Pr  Pr36  1  0.00000000  0.95860866  0.27695863  1
  Pr  Pr37  1  0.00000000  0.04139134  0.72304137  1
  Pr  Pr38  1  0.50000000  0.45860866  0.22304137  1
  Pr  Pr39  1  0.50000000  0.54139134  0.77695863  1
