# generated using pymatgen
data_BaPb3
_symmetry_space_group_name_H-M   'P 1'
_cell_length_a   9.75840294
_cell_length_b   9.75840295
_cell_length_c   9.75840294
_cell_angle_alpha   44.81707402
_cell_angle_beta   44.81707400
_cell_angle_gamma   44.81707398
_symmetry_Int_Tables_number   1
_chemical_formula_structural   BaPb3
_chemical_formula_sum   'Ba3 Pb9'
_cell_volume   420.03305566
_cell_formula_units_Z   3
loop_
 _symmetry_equiv_pos_site_id
 _symmetry_equiv_pos_as_xyz
  1  'x, y, z'
loop_
 _atom_site_type_symbol
 _atom_site_label
 _atom_site_symmetry_multiplicity
 _atom_site_fract_x
 _atom_site_fract_y
 _atom_site_fract_z
 _atom_site_occupancy
  Ba  Ba0  1  0.78262346  0.78262346  0.78262346  1
  Ba  Ba1  1  0.21737654  0.21737654  0.21737654  1
  Ba  Ba2  1  0.00000000  0.00000000  0.00000000  1
  Pb  Pb3  1  0.73422120  0.29788731  0.29788731  1
  Pb  Pb4  1  0.29788731  0.73422120  0.29788731  1
  Pb  Pb5  1  0.29788731  0.29788731  0.73422120  1
  Pb  Pb6  1  0.50000000  0.50000000  0.00000000  1
  Pb  Pb7  1  0.00000000  0.50000000  0.50000000  1
  Pb  Pb8  1  0.50000000  0.00000000  0.50000000  1
  Pb  Pb9  1  0.26577880  0.70211269  0.70211269  1
  Pb  Pb10  1  0.70211269  0.70211269  0.26577880  1
  Pb  Pb11  1  0.70211269  0.26577880  0.70211269  1
