# generated using pymatgen
data_LiVF4
_symmetry_space_group_name_H-M   'P 1'
_cell_length_a   7.04726803
_cell_length_b   8.36618435
_cell_length_c   9.83268277
_cell_angle_alpha   96.34921046
_cell_angle_beta   106.54323941
_cell_angle_gamma   102.24980975
_symmetry_Int_Tables_number   1
_chemical_formula_structural   LiVF4
_chemical_formula_sum   'Li6 V6 F24'
_cell_volume   533.94747950
_cell_formula_units_Z   6
loop_
 _symmetry_equiv_pos_site_id
 _symmetry_equiv_pos_as_xyz
  1  'x, y, z'
loop_
 _atom_site_type_symbol
 _atom_site_label
 _atom_site_symmetry_multiplicity
 _atom_site_fract_x
 _atom_site_fract_y
 _atom_site_fract_z
 _atom_site_occupancy
  Li  Li0  1  0.01338842  0.00582202  0.26284725  1
  Li  Li1  1  0.18543061  0.59567113  0.35596208  1
  Li  Li2  1  0.48312330  0.68612499  0.85722445  1
  Li  Li3  1  0.51687670  0.31387501  0.14277555  1
  Li  Li4  1  0.81456939  0.40432887  0.64403792  1
  Li  Li5  1  0.98661158  0.99417798  0.73715275  1
  V  V6  1  0.02707106  0.69722685  0.99136777  1
  V  V7  1  0.23999703  0.29840891  0.58112772  1
  V  V8  1  0.46918640  0.88036137  0.21221910  1
  V  V9  1  0.53081360  0.11963863  0.78778090  1
  V  V10  1  0.76000297  0.70159109  0.41887228  1
  V  V11  1  0.97292894  0.30277315  0.00863223  1
  F  F12  1  0.05059418  0.84339969  0.86165218  1
  F  F13  1  0.03874065  0.71046347  0.43377577  1
  F  F14  1  0.04212843  0.53145255  0.13467040  1
  F  F15  1  0.16208041  0.87207634  0.17059782  1
  F  F16  1  0.24907762  0.13983272  0.74113868  1
  F  F17  1  0.34829993  0.48883905  0.73652865  1
  F  F18  1  0.48488058  0.89451136  0.78928817  1
  F  F19  1  0.18060057  0.09736208  0.44483373  1
  F  F20  1  0.26237877  0.42692415  0.43538591  1
  F  F21  1  0.44793832  0.74279258  0.35243173  1
  F  F22  1  0.34843454  0.72946053  0.02845410  1
  F  F23  1  0.24738151  0.30466253  0.02894567  1
  F  F24  1  0.75261849  0.69533747  0.97105433  1
  F  F25  1  0.65156546  0.27053947  0.97154590  1
  F  F26  1  0.55206168  0.25720742  0.64756827  1
  F  F27  1  0.73762123  0.57307585  0.56461409  1
  F  F28  1  0.81939943  0.90263792  0.55516627  1
  F  F29  1  0.51511942  0.10548864  0.21071183  1
  F  F30  1  0.65170007  0.51116095  0.26347135  1
  F  F31  1  0.75092238  0.86016728  0.25886132  1
  F  F32  1  0.83791959  0.12792366  0.82940218  1
  F  F33  1  0.95787157  0.46854745  0.86532960  1
  F  F34  1  0.96125935  0.28953653  0.56622423  1
  F  F35  1  0.94940582  0.15660031  0.13834782  1
