# generated using pymatgen
data_Fe3Co7O20
_symmetry_space_group_name_H-M   'P 1'
_cell_length_a   20.58771034
_cell_length_b   2.89538211
_cell_length_c   5.78963987
_cell_angle_alpha   89.99999944
_cell_angle_beta   82.24012857
_cell_angle_gamma   90.00000076
_symmetry_Int_Tables_number   1
_chemical_formula_structural   Fe3Co7O20
_chemical_formula_sum   'Fe3 Co7 O20'
_cell_volume   341.95596036
_cell_formula_units_Z   1
loop_
 _symmetry_equiv_pos_site_id
 _symmetry_equiv_pos_as_xyz
  1  'x, y, z'
loop_
 _atom_site_type_symbol
 _atom_site_label
 _atom_site_symmetry_multiplicity
 _atom_site_fract_x
 _atom_site_fract_y
 _atom_site_fract_z
 _atom_site_occupancy
  Fe  Fe0  1  0.80096243  0.00000000  0.10134371  1
  Fe  Fe1  1  0.60000000  0.00000000  0.70000000  1
  Fe  Fe2  1  0.39903757  1.00000000  0.29865629  1
  Co  Co3  1  0.90178939  0.50000000  0.30491448  1
  Co  Co4  1  0.70054458  0.50000000  0.89976888  1
  Co  Co5  1  0.49945542  0.50000000  0.50023112  1
  Co  Co6  1  0.19937683  1.00000000  0.89877500  1
  Co  Co7  1  0.29821061  0.50000000  0.09508552  1
  Co  Co8  1  0.10000000  0.50000000  0.70000000  1
  Co  Co9  1  0.00062317  0.00000000  0.50122500  1
  O  O10  1  0.90809417  1.00000000  0.51408721  1
  O  O11  1  0.99367800  0.50000000  0.29202658  1
  O  O12  1  0.79221739  0.50000000  0.87756854  1
  O  O13  1  0.89725628  0.00000000  0.09398510  1
  O  O14  1  0.80911221  0.50000000  0.32398825  1
  O  O15  1  0.69696338  0.00000000  0.68950219  1
  O  O16  1  0.70417538  1.00000000  0.11063787  1
  O  O17  1  0.60871596  0.50000000  0.92275263  1
  O  O18  1  0.50303662  1.00000000  0.71049781  1
  O  O19  1  0.59128404  0.50000000  0.47724737  1
  O  O20  1  0.49582462  0.00000000  0.28936213  1
  O  O21  1  0.40778261  0.50000000  0.52243146  1
  O  O22  1  0.29190583  0.00000000  0.88591279  1
  O  O23  1  0.39088779  0.50000000  0.07601175  1
  O  O24  1  0.30274372  1.00000000  0.30601490  1
  O  O25  1  0.10686225  1.00000000  0.90927791  1
  O  O26  1  0.19242453  0.50000000  0.68998705  1
  O  O27  1  0.20632200  0.50000000  0.10797342  1
  O  O28  1  0.09313775  0.00000000  0.49072209  1
  O  O29  1  0.00757547  0.50000000  0.71001295  1
