# generated using pymatgen
data_EuNb8O14
_symmetry_space_group_name_H-M   'P 1'
_cell_length_a   6.02347488
_cell_length_b   9.32952663
_cell_length_c   10.41730795
_cell_angle_alpha   90.00000000
_cell_angle_beta   90.00000000
_cell_angle_gamma   90.00000000
_symmetry_Int_Tables_number   1
_chemical_formula_structural   EuNb8O14
_chemical_formula_sum   'Eu2 Nb16 O28'
_cell_volume   585.41280119
_cell_formula_units_Z   2
loop_
 _symmetry_equiv_pos_site_id
 _symmetry_equiv_pos_as_xyz
  1  'x, y, z'
loop_
 _atom_site_type_symbol
 _atom_site_label
 _atom_site_symmetry_multiplicity
 _atom_site_fract_x
 _atom_site_fract_y
 _atom_site_fract_z
 _atom_site_occupancy
  O  O0  1  0.74555893  0.50405502  0.75282399  1
  O  O1  1  0.74555893  0.49594498  0.24717601  1
  O  O2  1  0.25444107  0.00405502  0.74717601  1
  O  O3  1  0.25444107  0.99594498  0.25282399  1
  O  O4  1  0.25444107  0.49594498  0.24717601  1
  O  O5  1  0.25444107  0.50405502  0.75282399  1
  O  O6  1  0.74555893  0.99594498  0.25282399  1
  O  O7  1  0.74555893  0.00405502  0.74717601  1
  O  O8  1  0.25604604  0.73728272  0.91452891  1
  O  O9  1  0.25604604  0.26271728  0.08547109  1
  O  O10  1  0.74395396  0.23728272  0.58547109  1
  O  O11  1  0.74395396  0.76271728  0.41452891  1
  O  O12  1  0.74395396  0.26271728  0.08547109  1
  O  O13  1  0.74395396  0.73728272  0.91452891  1
  O  O14  1  0.25604604  0.76271728  0.41452891  1
  O  O15  1  0.25604604  0.23728272  0.58547109  1
  O  O16  1  0.00000000  0.50000000  0.00000000  1
  O  O17  1  0.00000000  0.00000000  0.50000000  1
  O  O18  1  0.00000000  0.23508792  0.82031302  1
  O  O19  1  0.00000000  0.76491208  0.17968698  1
  O  O20  1  0.00000000  0.73508792  0.67968698  1
  O  O21  1  0.00000000  0.26491208  0.32031302  1
  O  O22  1  0.50000000  0.23434897  0.34953712  1
  O  O23  1  0.50000000  0.76565103  0.65046288  1
  O  O24  1  0.50000000  0.73434897  0.15046288  1
  O  O25  1  0.50000000  0.26565103  0.84953712  1
  O  O26  1  0.00000000  0.00000000  0.00000000  1
  O  O27  1  0.00000000  0.50000000  0.50000000  1
  Nb  Nb28  1  0.00000000  0.38515298  0.16409366  1
  Nb  Nb29  1  0.00000000  0.61484702  0.83590634  1
  Nb  Nb30  1  0.00000000  0.88515298  0.33590634  1
  Nb  Nb31  1  0.00000000  0.11484702  0.66409366  1
  Nb  Nb32  1  0.50000000  0.37957982  0.66400863  1
  Nb  Nb33  1  0.50000000  0.62042018  0.33599137  1
  Nb  Nb34  1  0.50000000  0.87957982  0.83599137  1
  Nb  Nb35  1  0.50000000  0.12042018  0.16400863  1
  Nb  Nb36  1  0.73164855  0.62588842  0.57683966  1
  Nb  Nb37  1  0.73164855  0.37411158  0.42316034  1
  Nb  Nb38  1  0.26835145  0.12588842  0.92316034  1
  Nb  Nb39  1  0.26835145  0.87411158  0.07683966  1
  Nb  Nb40  1  0.26835145  0.37411158  0.42316034  1
  Nb  Nb41  1  0.26835145  0.62588842  0.57683966  1
  Nb  Nb42  1  0.73164855  0.87411158  0.07683966  1
  Nb  Nb43  1  0.73164855  0.12588842  0.92316034  1
  Eu  Eu44  1  0.50000000  0.50000000  0.00000000  1
  Eu  Eu45  1  0.50000000  0.00000000  0.50000000  1
