# generated using pymatgen
data_Ga9Ni13
_symmetry_space_group_name_H-M   'P 1'
_cell_length_a   6.35373661
_cell_length_b   6.35373661
_cell_length_c   7.93568706
_cell_angle_alpha   107.87768835
_cell_angle_beta   108.19494525
_cell_angle_gamma   103.09612737
_symmetry_Int_Tables_number   1
_chemical_formula_structural   Ga9Ni13
_chemical_formula_sum   'Ga9 Ni13'
_cell_volume   270.60346297
_cell_formula_units_Z   1
loop_
 _symmetry_equiv_pos_site_id
 _symmetry_equiv_pos_as_xyz
  1  'x, y, z'
loop_
 _atom_site_type_symbol
 _atom_site_label
 _atom_site_symmetry_multiplicity
 _atom_site_fract_x
 _atom_site_fract_y
 _atom_site_fract_z
 _atom_site_occupancy
  Ni  Ni0  1  0.72608928  0.45774125  0.66091912  1
  Ni  Ni1  1  0.79682213  0.06517016  0.33908088  1
  Ni  Ni2  1  0.27391072  0.54225875  0.33908088  1
  Ni  Ni3  1  0.20317787  0.93482984  0.66091912  1
  Ni  Ni4  1  0.72962423  0.44912999  0.17875422  1
  Ni  Ni5  1  0.27037577  0.55087001  0.82124578  1
  Ni  Ni6  1  0.25416300  0.25820232  0.51236532  1
  Ni  Ni7  1  0.74583700  0.74179768  0.48763468  1
  Ni  Ni8  1  0.25990074  0.25990074  0.00000000  1
  Ni  Ni9  1  0.50000000  0.00000000  0.50000000  1
  Ni  Ni10  1  0.00000000  0.50000000  0.00000000  1
  Ni  Ni11  1  0.50000000  0.00000000  0.00000000  1
  Ni  Ni12  1  0.74009926  0.74009926  0.00000000  1
  Ga  Ga13  1  0.48038982  0.24933195  0.30895262  1
  Ga  Ga14  1  0.94037933  0.17143720  0.69104738  1
  Ga  Ga15  1  0.51961018  0.75066805  0.69104738  1
  Ga  Ga16  1  0.05962067  0.82856280  0.30895262  1
  Ga  Ga17  1  0.94233045  0.17042820  0.11275865  1
  Ga  Ga18  1  0.05766955  0.82957180  0.88724135  1
  Ga  Ga19  1  0.45925579  0.70808516  0.16734095  1
  Ga  Ga20  1  0.54074421  0.29191484  0.83265905  1
  Ga  Ga21  1  0.00000000  0.50000000  0.50000000  1
