# generated using pymatgen
data_Fe6O5F7
_symmetry_space_group_name_H-M   'P 1'
_cell_length_a   7.29677326
_cell_length_b   5.67947906
_cell_length_c   5.67947906
_cell_angle_alpha   75.47436167
_cell_angle_beta   72.78512700
_cell_angle_gamma   72.78512700
_symmetry_Int_Tables_number   1
_chemical_formula_structural   Fe6O5F7
_chemical_formula_sum   'Fe6 O5 F7'
_cell_volume   211.28809582
_cell_formula_units_Z   1
loop_
 _symmetry_equiv_pos_site_id
 _symmetry_equiv_pos_as_xyz
  1  'x, y, z'
loop_
 _atom_site_type_symbol
 _atom_site_label
 _atom_site_symmetry_multiplicity
 _atom_site_fract_x
 _atom_site_fract_y
 _atom_site_fract_z
 _atom_site_occupancy
  Fe  Fe0  1  0.83333300  0.66683377  0.66650023  1
  Fe  Fe1  1  0.69049814  0.33099374  0.33789079  1
  Fe  Fe2  1  0.33333300  0.68877601  0.64455699  1
  Fe  Fe3  1  0.17419741  0.30029127  0.31768748  1
  Fe  Fe4  1  0.49246859  0.01564652  0.03304173  1
  Fe  Fe5  1  0.97616886  0.99544221  0.00233926  1
  O  O6  1  0.96972898  0.21933849  0.22256796  1
  O  O7  1  0.63382685  0.56647748  0.56586086  1
  O  O8  1  0.03283915  0.76747214  0.76685652  1
  O  O9  1  0.69693802  0.11076604  0.11399451  1
  O  O10  1  0.33333300  0.96091840  0.37241460  1
  F  F11  1  0.66250113  0.02677764  0.64874910  1
  F  F12  1  0.33333300  0.38561084  0.94772216  1
  F  F13  1  0.29594426  0.90647903  0.90267754  1
  F  F14  1  0.37072174  0.43065646  0.42685397  1
  F  F15  1  0.66522441  0.63812693  0.02852387  1
  F  F16  1  0.00144259  0.30481013  0.69520707  1
  F  F17  1  0.00416587  0.68458490  0.30655536  1
