# generated using pymatgen
data_CuP2PbO7
_symmetry_space_group_name_H-M   'P 1'
_cell_length_a   5.53836356
_cell_length_b   8.28281578
_cell_length_c   12.69647397
_cell_angle_alpha   90.00000000
_cell_angle_beta   90.87796996
_cell_angle_gamma   90.00000000
_symmetry_Int_Tables_number   1
_chemical_formula_structural   CuP2PbO7
_chemical_formula_sum   'Cu4 P8 Pb4 O28'
_cell_volume   582.36008369
_cell_formula_units_Z   4
loop_
 _symmetry_equiv_pos_site_id
 _symmetry_equiv_pos_as_xyz
  1  'x, y, z'
loop_
 _atom_site_type_symbol
 _atom_site_label
 _atom_site_symmetry_multiplicity
 _atom_site_fract_x
 _atom_site_fract_y
 _atom_site_fract_z
 _atom_site_occupancy
  O  O0  1  0.02006169  0.94207044  0.19464530  1
  O  O1  1  0.47993831  0.44207044  0.30535470  1
  O  O2  1  0.97993831  0.05792956  0.80535470  1
  O  O3  1  0.52006169  0.55792956  0.69464530  1
  O  O4  1  0.57879583  0.87800782  0.23733048  1
  O  O5  1  0.92120417  0.37800782  0.26266952  1
  O  O6  1  0.42120417  0.12199218  0.76266952  1
  O  O7  1  0.07879583  0.62199218  0.73733048  1
  O  O8  1  0.67445085  0.13943693  0.15119031  1
  O  O9  1  0.82554915  0.63943693  0.34880969  1
  O  O10  1  0.32554915  0.86056307  0.84880969  1
  O  O11  1  0.17445085  0.36056307  0.65119031  1
  O  O12  1  0.72013450  0.88282876  0.04704568  1
  O  O13  1  0.77986550  0.38282876  0.45295432  1
  O  O14  1  0.27986550  0.11717124  0.95295432  1
  O  O15  1  0.22013450  0.61717124  0.54704568  1
  O  O16  1  0.90365817  0.83573491  0.51973701  1
  O  O17  1  0.59634183  0.33573491  0.98026299  1
  O  O18  1  0.09634183  0.16426509  0.48026299  1
  O  O19  1  0.40365817  0.66426509  0.01973701  1
  O  O20  1  0.28429718  0.81738392  0.40297934  1
  O  O21  1  0.21570282  0.31738392  0.09702066  1
  O  O22  1  0.71570282  0.18261608  0.59702066  1
  O  O23  1  0.78429718  0.68261608  0.90297934  1
  O  O24  1  0.31669731  0.90598098  0.59714093  1
  O  O25  1  0.18330269  0.40598098  0.90285907  1
  O  O26  1  0.68330269  0.09401902  0.40285907  1
  O  O27  1  0.81669731  0.59401902  0.09714093  1
  P  P28  1  0.75578012  0.96330046  0.16142123  1
  P  P29  1  0.74421988  0.46330046  0.33857877  1
  P  P30  1  0.24421988  0.03669954  0.83857877  1
  P  P31  1  0.25578012  0.53669954  0.66142123  1
  P  P32  1  0.67925741  0.69481943  0.01242590  1
  P  P33  1  0.82074259  0.19481943  0.48757410  1
  P  P34  1  0.32074259  0.30518057  0.98757410  1
  P  P35  1  0.17925741  0.80518057  0.51242590  1
  Cu  Cu36  1  0.21505207  0.64381503  0.88719924  1
  Cu  Cu37  1  0.28494793  0.14381503  0.61280076  1
  Cu  Cu38  1  0.78494793  0.35618497  0.11280076  1
  Cu  Cu39  1  0.71505207  0.85618497  0.38719924  1
  Pb  Pb40  1  0.70942650  0.83129184  0.72327802  1
  Pb  Pb41  1  0.79057350  0.33129184  0.77672198  1
  Pb  Pb42  1  0.29057350  0.16870816  0.27672198  1
  Pb  Pb43  1  0.20942650  0.66870816  0.22327802  1
