# generated using pymatgen
data_La(In2Au)2
_symmetry_space_group_name_H-M   'P 1'
_cell_length_a   4.79300914
_cell_length_b   7.46841371
_cell_length_c   18.92153828
_cell_angle_alpha   90.00000000
_cell_angle_beta   90.00000000
_cell_angle_gamma   90.00000000
_symmetry_Int_Tables_number   1
_chemical_formula_structural   La(In2Au)2
_chemical_formula_sum   'La4 In16 Au8'
_cell_volume   677.31869882
_cell_formula_units_Z   4
loop_
 _symmetry_equiv_pos_site_id
 _symmetry_equiv_pos_as_xyz
  1  'x, y, z'
loop_
 _atom_site_type_symbol
 _atom_site_label
 _atom_site_symmetry_multiplicity
 _atom_site_fract_x
 _atom_site_fract_y
 _atom_site_fract_z
 _atom_site_occupancy
  In  In0  1  0.25000000  0.27092355  0.68891446  1
  In  In1  1  0.75000000  0.72907645  0.31108554  1
  In  In2  1  0.75000000  0.77092355  0.81108554  1
  In  In3  1  0.25000000  0.22907645  0.18891446  1
  In  In4  1  0.25000000  0.68002806  0.68412471  1
  In  In5  1  0.75000000  0.31997194  0.31587529  1
  In  In6  1  0.75000000  0.18002806  0.81587529  1
  In  In7  1  0.25000000  0.81997194  0.18412471  1
  In  In8  1  0.25000000  0.15097106  0.53488329  1
  In  In9  1  0.75000000  0.84902894  0.46511671  1
  In  In10  1  0.75000000  0.65097106  0.96511671  1
  In  In11  1  0.25000000  0.34902894  0.03488329  1
  In  In12  1  0.25000000  0.48972897  0.43154820  1
  In  In13  1  0.75000000  0.51027103  0.56845180  1
  In  In14  1  0.75000000  0.98972897  0.06845180  1
  In  In15  1  0.25000000  0.01027103  0.93154820  1
  La  La16  1  0.75000000  0.98117700  0.64088597  1
  La  La17  1  0.25000000  0.01882300  0.35911403  1
  La  La18  1  0.25000000  0.48117700  0.85911403  1
  La  La19  1  0.75000000  0.51882300  0.14088597  1
  Au  Au20  1  0.25000000  0.76004147  0.53803569  1
  Au  Au21  1  0.75000000  0.23995853  0.46196431  1
  Au  Au22  1  0.75000000  0.26004147  0.96196431  1
  Au  Au23  1  0.25000000  0.73995853  0.03803569  1
  Au  Au24  1  0.25000000  0.97159935  0.78188995  1
  Au  Au25  1  0.75000000  0.02840065  0.21811005  1
  Au  Au26  1  0.75000000  0.47159935  0.71811005  1
  Au  Au27  1  0.25000000  0.52840065  0.28188995  1
