# generated using pymatgen
data_Li4V5Cu3O16
_symmetry_space_group_name_H-M   'P 1'
_cell_length_a   5.89967126
_cell_length_b   5.86293380
_cell_length_c   9.69993953
_cell_angle_alpha   89.98687468
_cell_angle_beta   87.28720560
_cell_angle_gamma   119.83796752
_symmetry_Int_Tables_number   1
_chemical_formula_structural   Li4V5Cu3O16
_chemical_formula_sum   'Li4 V5 Cu3 O16'
_cell_volume   290.60205241
_cell_formula_units_Z   1
loop_
 _symmetry_equiv_pos_site_id
 _symmetry_equiv_pos_as_xyz
  1  'x, y, z'
loop_
 _atom_site_type_symbol
 _atom_site_label
 _atom_site_symmetry_multiplicity
 _atom_site_fract_x
 _atom_site_fract_y
 _atom_site_fract_z
 _atom_site_occupancy
  Li  Li0  1  0.31977986  0.66046915  0.91209902  1
  Li  Li1  1  0.00460022  0.00251459  0.99056676  1
  Li  Li2  1  0.00163362  0.00062498  0.48187533  1
  Li  Li3  1  0.67974416  0.34006393  0.41268368  1
  V  V4  1  0.79922648  0.65102877  0.72482732  1
  V  V5  1  0.28196534  0.64104693  0.48865524  1
  V  V6  1  0.63580914  0.81787608  0.24225431  1
  V  V7  1  0.67813320  0.33905660  -0.00037684  1
  V  V8  1  0.80110913  0.14929664  0.72415039  1
  Cu  Cu9  1  0.16438977  0.82705432  0.19780133  1
  Cu  Cu10  1  0.16408884  0.33745700  0.19788109  1
  Cu  Cu11  1  0.33994079  0.16884684  0.70524939  1
  O  O12  1  0.16075062  0.81738751  0.58524041  1
  O  O13  1  0.05419676  0.52716997  0.35840048  1
  O  O14  1  0.37276285  0.68659570  0.11636055  1
  O  O15  1  0.98080301  0.99023699  0.28463136  1
  O  O16  1  0.00051247  -0.00012497  0.79957939  1
  O  O17  1  0.15916873  0.34323564  0.58590614  1
  O  O18  1  0.51737994  0.97463425  0.35570781  1
  O  O19  1  0.51632143  0.54207598  0.35569132  1
  O  O20  1  0.35221461  0.17566552  0.07361801  1
  O  O21  1  0.67866347  0.83897555  0.60585752  1
  O  O22  1  0.53282547  0.50288160  0.84799198  1
  O  O23  1  0.53437784  0.03055616  0.84744080  1
  O  O24  1  0.68533620  0.34301429  0.60919649  1
  O  O25  1  0.81312080  0.64451219  0.08402651  1
  O  O26  1  0.95753268  0.47929820  0.83662070  1
  O  O27  1  0.81361258  0.16885059  0.08390751  1
