# generated using pymatgen
data_SmAl3(PbO4)2
_symmetry_space_group_name_H-M   'P 1'
_cell_length_a   9.59916638
_cell_length_b   9.59916638
_cell_length_c   9.59916638
_cell_angle_alpha   90.00000000
_cell_angle_beta   90.00000000
_cell_angle_gamma   90.00000000
_symmetry_Int_Tables_number   1
_chemical_formula_structural   SmAl3(PbO4)2
_chemical_formula_sum   'Sm4 Al12 Pb8 O32'
_cell_volume   884.50554076
_cell_formula_units_Z   4
loop_
 _symmetry_equiv_pos_site_id
 _symmetry_equiv_pos_as_xyz
  1  'x, y, z'
loop_
 _atom_site_type_symbol
 _atom_site_label
 _atom_site_symmetry_multiplicity
 _atom_site_fract_x
 _atom_site_fract_y
 _atom_site_fract_z
 _atom_site_occupancy
  Sm  Sm0  1  0.50000000  0.50000000  0.00000000  1
  Sm  Sm1  1  0.50000000  0.00000000  0.50000000  1
  Sm  Sm2  1  0.00000000  0.00000000  0.00000000  1
  Sm  Sm3  1  0.00000000  0.50000000  0.50000000  1
  Al  Al4  1  0.75000000  0.25000000  0.50000000  1
  Al  Al5  1  0.75000000  0.50000000  0.25000000  1
  Al  Al6  1  0.75000000  0.00000000  0.25000000  1
  Al  Al7  1  0.00000000  0.25000000  0.75000000  1
  Al  Al8  1  0.25000000  0.00000000  0.75000000  1
  Al  Al9  1  0.50000000  0.75000000  0.25000000  1
  Al  Al10  1  0.50000000  0.25000000  0.75000000  1
  Al  Al11  1  0.25000000  0.75000000  0.00000000  1
  Al  Al12  1  0.75000000  0.25000000  0.00000000  1
  Al  Al13  1  0.25000000  0.50000000  0.75000000  1
  Al  Al14  1  0.00000000  0.75000000  0.25000000  1
  Al  Al15  1  0.25000000  0.75000000  0.50000000  1
  Pb  Pb16  1  0.61683197  0.61683197  0.61683197  1
  Pb  Pb17  1  0.38316803  0.38316803  0.38316803  1
  Pb  Pb18  1  0.11683197  0.38316803  0.11683197  1
  Pb  Pb19  1  0.38316803  0.11683197  0.11683197  1
  Pb  Pb20  1  0.88316803  0.88316803  0.61683197  1
  Pb  Pb21  1  0.61683197  0.88316803  0.88316803  1
  Pb  Pb22  1  0.88316803  0.61683197  0.88316803  1
  Pb  Pb23  1  0.11683197  0.11683197  0.38316803  1
  O  O24  1  0.90728797  0.90728797  0.23595554  1
  O  O25  1  0.63948060  0.86051940  0.63948060  1
  O  O26  1  0.13948060  0.36051940  0.36051940  1
  O  O27  1  0.59271203  0.90728797  0.26404446  1
  O  O28  1  0.40728797  0.40728797  0.76404446  1
  O  O29  1  0.73595554  0.40728797  0.09271203  1
  O  O30  1  0.90728797  0.59271203  0.26404446  1
  O  O31  1  0.09271203  0.40728797  0.73595554  1
  O  O32  1  0.76404446  0.40728797  0.40728797  1
  O  O33  1  0.09271203  0.73595554  0.40728797  1
  O  O34  1  0.63948060  0.63948060  0.86051940  1
  O  O35  1  0.59271203  0.59271203  0.23595554  1
  O  O36  1  0.26404446  0.59271203  0.90728797  1
  O  O37  1  0.36051940  0.13948060  0.36051940  1
  O  O38  1  0.59271203  0.26404446  0.90728797  1
  O  O39  1  0.36051940  0.36051940  0.13948060  1
  O  O40  1  0.86051940  0.86051940  0.86051940  1
  O  O41  1  0.09271203  0.76404446  0.09271203  1
  O  O42  1  0.23595554  0.90728797  0.90728797  1
  O  O43  1  0.73595554  0.09271203  0.40728797  1
  O  O44  1  0.40728797  0.76404446  0.40728797  1
  O  O45  1  0.23595554  0.59271203  0.59271203  1
  O  O46  1  0.59271203  0.23595554  0.59271203  1
  O  O47  1  0.40728797  0.09271203  0.73595554  1
  O  O48  1  0.90728797  0.26404446  0.59271203  1
  O  O49  1  0.76404446  0.09271203  0.09271203  1
  O  O50  1  0.90728797  0.23595554  0.90728797  1
  O  O51  1  0.09271203  0.09271203  0.76404446  1
  O  O52  1  0.13948060  0.13948060  0.13948060  1
  O  O53  1  0.86051940  0.63948060  0.63948060  1
  O  O54  1  0.26404446  0.90728797  0.59271203  1
  O  O55  1  0.40728797  0.73595554  0.09271203  1
