# generated using pymatgen
data_YbIn2Pd
_symmetry_space_group_name_H-M   'P 1'
_cell_length_a   4.48616300
_cell_length_b   5.59470069
_cell_length_c   7.95835300
_cell_angle_alpha   90.00000000
_cell_angle_beta   90.00000000
_cell_angle_gamma   113.63630949
_symmetry_Int_Tables_number   1
_chemical_formula_structural   YbIn2Pd
_chemical_formula_sum   'Yb2 In4 Pd2'
_cell_volume   182.98781754
_cell_formula_units_Z   2
loop_
 _symmetry_equiv_pos_site_id
 _symmetry_equiv_pos_as_xyz
  1  'x, y, z'
loop_
 _atom_site_type_symbol
 _atom_site_label
 _atom_site_symmetry_multiplicity
 _atom_site_fract_x
 _atom_site_fract_y
 _atom_site_fract_z
 _atom_site_occupancy
  Pd  Pd0  1  0.78270565  0.56541129  0.75000000  1
  Pd  Pd1  1  0.21729435  0.43458871  0.25000000  1
  In  In2  1  0.35644347  0.71288693  0.55285001  1
  In  In3  1  0.64355653  0.28711307  0.44714999  1
  In  In4  1  0.35644347  0.71288693  0.94714999  1
  In  In5  1  0.64355653  0.28711307  0.05285001  1
  Yb  Yb6  1  0.93332724  0.86665447  0.25000000  1
  Yb  Yb7  1  0.06667276  0.13334553  0.75000000  1
