# generated using pymatgen
data_Na3InSb2
_symmetry_space_group_name_H-M   'P 1'
_cell_length_a   8.03851804
_cell_length_b   10.46186195
_cell_length_c   16.83728488
_cell_angle_alpha   92.80328709
_cell_angle_beta   90.00000000
_cell_angle_gamma   90.00000000
_symmetry_Int_Tables_number   1
_chemical_formula_structural   Na3InSb2
_chemical_formula_sum   'Na24 In8 Sb16'
_cell_volume   1414.28527137
_cell_formula_units_Z   8
loop_
 _symmetry_equiv_pos_site_id
 _symmetry_equiv_pos_as_xyz
  1  'x, y, z'
loop_
 _atom_site_type_symbol
 _atom_site_label
 _atom_site_symmetry_multiplicity
 _atom_site_fract_x
 _atom_site_fract_y
 _atom_site_fract_z
 _atom_site_occupancy
  Na  Na0  1  0.15513167  0.12816210  0.70201009  1
  Na  Na1  1  0.65513167  0.87183790  0.79798991  1
  Na  Na2  1  0.84486833  0.87183790  0.29798991  1
  Na  Na3  1  0.34486833  0.12816210  0.20201009  1
  Na  Na4  1  0.49029081  0.43842408  0.10650896  1
  Na  Na5  1  0.99029081  0.56157592  0.39349104  1
  Na  Na6  1  0.50970919  0.56157592  0.89349104  1
  Na  Na7  1  0.00970919  0.43842408  0.60650896  1
  Na  Na8  1  0.97028201  0.81207614  0.64737384  1
  Na  Na9  1  0.47028201  0.18792386  0.85262616  1
  Na  Na10  1  0.02971799  0.18792386  0.35262616  1
  Na  Na11  1  0.52971799  0.81207614  0.14737384  1
  Na  Na12  1  0.84723063  0.61665360  0.04694819  1
  Na  Na13  1  0.34723063  0.38334640  0.45305181  1
  Na  Na14  1  0.15276937  0.38334640  0.95305181  1
  Na  Na15  1  0.65276937  0.61665360  0.54694819  1
  Na  Na16  1  0.96911679  0.07038385  0.89202487  1
  Na  Na17  1  0.46911679  0.92961615  0.60797513  1
  Na  Na18  1  0.03088321  0.92961615  0.10797513  1
  Na  Na19  1  0.53088321  0.07038385  0.39202487  1
  Na  Na20  1  0.01226087  0.67734009  0.86228550  1
  Na  Na21  1  0.51226087  0.32265991  0.63771450  1
  Na  Na22  1  0.98773913  0.32265991  0.13771450  1
  Na  Na23  1  0.48773913  0.67734009  0.36228550  1
  In  In24  1  0.85105904  0.36055109  0.79143425  1
  In  In25  1  0.35105904  0.63944891  0.70856575  1
  In  In26  1  0.14894096  0.63944891  0.20856575  1
  In  In27  1  0.64894096  0.36055109  0.29143425  1
  In  In28  1  0.86237441  0.12584298  0.54218253  1
  In  In29  1  0.36237441  0.87415702  0.95781747  1
  In  In30  1  0.13762559  0.87415702  0.45781747  1
  In  In31  1  0.63762559  0.12584298  0.04218253  1
  Sb  Sb32  1  0.76137833  0.35090295  0.96185872  1
  Sb  Sb33  1  0.26137833  0.64909705  0.53814128  1
  Sb  Sb34  1  0.23862167  0.64909705  0.03814128  1
  Sb  Sb35  1  0.73862167  0.35090295  0.46185872  1
  Sb  Sb36  1  0.75849545  0.12042463  0.70878574  1
  Sb  Sb37  1  0.25849545  0.87957537  0.79121426  1
  Sb  Sb38  1  0.24150455  0.87957537  0.29121426  1
  Sb  Sb39  1  0.74150455  0.12042463  0.20878574  1
  Sb  Sb40  1  0.78194213  0.59341996  0.22651139  1
  Sb  Sb41  1  0.28194213  0.40658004  0.27348861  1
  Sb  Sb42  1  0.21805787  0.40658004  0.77348861  1
  Sb  Sb43  1  0.71805787  0.59341996  0.72651139  1
  Sb  Sb44  1  0.27153291  0.12723238  0.02185627  1
  Sb  Sb45  1  0.77153291  0.87276762  0.47814373  1
  Sb  Sb46  1  0.72846709  0.87276762  0.97814373  1
  Sb  Sb47  1  0.22846709  0.12723238  0.52185627  1
