# generated using pymatgen
data_U2Si5Tc3
_symmetry_space_group_name_H-M   'P 1'
_cell_length_a   5.48956524
_cell_length_b   10.93305649
_cell_length_c   10.93305649
_cell_angle_alpha   90.00000000
_cell_angle_beta   90.00000000
_cell_angle_gamma   90.00000000
_symmetry_Int_Tables_number   1
_chemical_formula_structural   U2Si5Tc3
_chemical_formula_sum   'U8 Si20 Tc12'
_cell_volume   656.17719832
_cell_formula_units_Z   4
loop_
 _symmetry_equiv_pos_site_id
 _symmetry_equiv_pos_as_xyz
  1  'x, y, z'
loop_
 _atom_site_type_symbol
 _atom_site_label
 _atom_site_symmetry_multiplicity
 _atom_site_fract_x
 _atom_site_fract_y
 _atom_site_fract_z
 _atom_site_occupancy
  U  U0  1  0.50000000  0.07357150  0.23540999  1
  U  U1  1  0.50000000  0.92642850  0.76459001  1
  U  U2  1  0.50000000  0.23540999  0.92642850  1
  U  U3  1  0.50000000  0.76459001  0.07357150  1
  U  U4  1  0.00000000  0.73540999  0.57357150  1
  U  U5  1  0.00000000  0.42642850  0.73540999  1
  U  U6  1  -0.00000000  0.57357150  0.26459001  1
  U  U7  1  -0.00000000  0.26459001  0.42642850  1
  Si  Si8  1  0.76615385  0.50000000  0.50000000  1
  Si  Si9  1  0.73384615  -0.00000000  0.00000000  1
  Si  Si10  1  0.23384615  0.50000000  0.50000000  1
  Si  Si11  1  0.26615385  0.00000000  0.00000000  1
  Si  Si12  1  0.75000000  0.17415995  0.67415995  1
  Si  Si13  1  0.75000000  0.32584005  0.17415995  1
  Si  Si14  1  0.75000000  0.67415995  0.82584005  1
  Si  Si15  1  0.75000000  0.82584005  0.32584005  1
  Si  Si16  1  0.25000000  0.82584005  0.32584005  1
  Si  Si17  1  0.25000000  0.67415995  0.82584005  1
  Si  Si18  1  0.25000000  0.32584005  0.17415995  1
  Si  Si19  1  0.25000000  0.17415995  0.67415995  1
  Si  Si20  1  0.50000000  0.18429657  0.47543235  1
  Si  Si21  1  0.50000000  0.81570343  0.52456765  1
  Si  Si22  1  0.50000000  0.47543235  0.81570343  1
  Si  Si23  1  -0.00000000  0.02456765  0.31570343  1
  Si  Si24  1  0.00000000  0.97543235  0.68429657  1
  Si  Si25  1  0.00000000  0.31570343  0.97543235  1
  Si  Si26  1  -0.00000000  0.68429657  0.02456765  1
  Si  Si27  1  0.50000000  0.52456765  0.18429657  1
  Tc  Tc28  1  0.00000000  0.87533901  0.14215273  1
  Tc  Tc29  1  0.75000000  0.00000000  0.50000000  1
  Tc  Tc30  1  0.25000000  0.50000000  0.00000000  1
  Tc  Tc31  1  0.25000000  0.00000000  0.50000000  1
  Tc  Tc32  1  0.50000000  0.37533901  0.35784727  1
  Tc  Tc33  1  0.50000000  0.62466099  0.64215273  1
  Tc  Tc34  1  0.50000000  0.35784727  0.62466099  1
  Tc  Tc35  1  0.50000000  0.64215273  0.37533901  1
  Tc  Tc36  1  0.00000000  0.85784727  0.87533901  1
  Tc  Tc37  1  -0.00000000  0.12466099  0.85784727  1
  Tc  Tc38  1  -0.00000000  0.14215273  0.12466099  1
  Tc  Tc39  1  0.75000000  0.50000000  0.00000000  1
