# generated using pymatgen
data_RbPb
_symmetry_space_group_name_H-M   'P 1'
_cell_length_a   12.14596317
_cell_length_b   12.14596318
_cell_length_c   13.14704843
_cell_angle_alpha   117.51154767
_cell_angle_beta   117.51154768
_cell_angle_gamma   90.00000000
_symmetry_Int_Tables_number   1
_chemical_formula_structural   RbPb
_chemical_formula_sum   'Rb16 Pb16'
_cell_volume   1468.46220868
_cell_formula_units_Z   16
loop_
 _symmetry_equiv_pos_site_id
 _symmetry_equiv_pos_as_xyz
  1  'x, y, z'
loop_
 _atom_site_type_symbol
 _atom_site_label
 _atom_site_symmetry_multiplicity
 _atom_site_fract_x
 _atom_site_fract_y
 _atom_site_fract_z
 _atom_site_occupancy
  Rb  Rb0  1  0.11390034  0.25000000  0.50000000  1
  Rb  Rb1  1  0.75000000  0.11390034  0.00000000  1
  Rb  Rb2  1  0.25000000  0.38609966  0.00000000  1
  Rb  Rb3  1  0.38609966  0.75000000  0.50000000  1
  Rb  Rb4  1  0.88609966  0.75000000  0.50000000  1
  Rb  Rb5  1  0.25000000  0.88609966  0.00000000  1
  Rb  Rb6  1  0.75000000  0.61390034  0.00000000  1
  Rb  Rb7  1  0.61390034  0.25000000  0.50000000  1
  Rb  Rb8  1  0.50421295  0.75421295  0.25000000  1
  Rb  Rb9  1  0.99578705  0.50421295  0.75000000  1
  Rb  Rb10  1  0.75421295  0.74578705  0.75000000  1
  Rb  Rb11  1  0.74578705  0.99578705  0.25000000  1
  Rb  Rb12  1  0.49578705  0.24578705  0.75000000  1
  Rb  Rb13  1  0.00421295  0.49578705  0.25000000  1
  Rb  Rb14  1  0.24578705  0.25421295  0.25000000  1
  Rb  Rb15  1  0.25421295  0.00421295  0.75000000  1
  Pb  Pb16  1  0.99264184  0.06739792  0.86360654  1
  Pb  Pb17  1  0.29620863  0.99264184  0.36360654  1
  Pb  Pb18  1  0.06739792  0.87096471  0.36360654  1
  Pb  Pb19  1  0.62903529  0.43260208  0.13639346  1
  Pb  Pb20  1  0.50735816  0.20379137  0.13639346  1
  Pb  Pb21  1  0.20379137  0.62903529  0.63639346  1
  Pb  Pb22  1  0.43260208  0.50735816  0.63639346  1
  Pb  Pb23  1  0.87096471  0.29620863  0.86360654  1
  Pb  Pb24  1  0.00735816  0.93260208  0.13639346  1
  Pb  Pb25  1  0.70379137  0.00735816  0.63639346  1
  Pb  Pb26  1  0.93260208  0.12903529  0.63639346  1
  Pb  Pb27  1  0.37096471  0.56739792  0.86360654  1
  Pb  Pb28  1  0.49264184  0.79620863  0.86360654  1
  Pb  Pb29  1  0.79620863  0.37096471  0.36360654  1
  Pb  Pb30  1  0.56739792  0.49264184  0.36360654  1
  Pb  Pb31  1  0.12903529  0.70379137  0.13639346  1
