# generated using pymatgen
data_Na3InAs2
_symmetry_space_group_name_H-M   'P 1'
_cell_length_a   7.60370095
_cell_length_b   9.80204232
_cell_length_c   15.89126302
_cell_angle_alpha   92.83324730
_cell_angle_beta   90.00000000
_cell_angle_gamma   90.00000000
_symmetry_Int_Tables_number   1
_chemical_formula_structural   Na3InAs2
_chemical_formula_sum   'Na24 In8 As16'
_cell_volume   1182.95662463
_cell_formula_units_Z   8
loop_
 _symmetry_equiv_pos_site_id
 _symmetry_equiv_pos_as_xyz
  1  'x, y, z'
loop_
 _atom_site_type_symbol
 _atom_site_label
 _atom_site_symmetry_multiplicity
 _atom_site_fract_x
 _atom_site_fract_y
 _atom_site_fract_z
 _atom_site_occupancy
  Na  Na0  1  0.15132161  0.12613095  0.70302612  1
  Na  Na1  1  0.65132161  0.87386905  0.79697388  1
  Na  Na2  1  0.84867839  0.87386905  0.29697388  1
  Na  Na3  1  0.34867839  0.12613095  0.20302612  1
  Na  Na4  1  0.48887181  0.43933079  0.10534331  1
  Na  Na5  1  0.98887181  0.56066921  0.39465669  1
  Na  Na6  1  0.51112819  0.56066921  0.89465669  1
  Na  Na7  1  0.01112819  0.43933079  0.60534331  1
  Na  Na8  1  0.96815536  0.81240362  0.64880542  1
  Na  Na9  1  0.46815536  0.18759638  0.85119458  1
  Na  Na10  1  0.03184464  0.18759638  0.35119458  1
  Na  Na11  1  0.53184464  0.81240362  0.14880542  1
  Na  Na12  1  0.84735499  0.61677910  0.04674009  1
  Na  Na13  1  0.34735499  0.38322090  0.45325991  1
  Na  Na14  1  0.15264501  0.38322090  0.95325991  1
  Na  Na15  1  0.65264501  0.61677910  0.54674009  1
  Na  Na16  1  0.97390042  0.06677396  0.89454273  1
  Na  Na17  1  0.47390042  0.93322604  0.60545727  1
  Na  Na18  1  0.02609958  0.93322604  0.10545727  1
  Na  Na19  1  0.52609958  0.06677396  0.39454273  1
  Na  Na20  1  0.00832014  0.67903560  0.86205539  1
  Na  Na21  1  0.50832014  0.32096440  0.63794461  1
  Na  Na22  1  0.99167986  0.32096440  0.13794461  1
  Na  Na23  1  0.49167986  0.67903560  0.36205539  1
  As  As24  1  0.22186445  0.12830070  0.52299690  1
  As  As25  1  0.72186445  0.87169930  0.97700310  1
  As  As26  1  0.77813555  0.87169930  0.47700310  1
  As  As27  1  0.27813555  0.12830070  0.02299690  1
  As  As28  1  0.71038473  0.59344379  0.72600886  1
  As  As29  1  0.21038473  0.40655621  0.77399114  1
  As  As30  1  0.28961527  0.40655621  0.27399114  1
  As  As31  1  0.78961527  0.59344379  0.22600886  1
  As  As32  1  0.76296695  0.34877480  0.96011830  1
  As  As33  1  0.26296695  0.65122520  0.53988170  1
  As  As34  1  0.23703305  0.65122520  0.03988170  1
  As  As35  1  0.73703305  0.34877480  0.46011830  1
  As  As36  1  0.75802930  0.12217011  0.70721385  1
  As  As37  1  0.25802930  0.87782989  0.79278615  1
  As  As38  1  0.24197070  0.87782989  0.29278615  1
  As  As39  1  0.74197070  0.12217011  0.20721385  1
  In  In40  1  0.64036147  0.12520945  0.04145415  1
  In  In41  1  0.14036147  0.87479055  0.45854585  1
  In  In42  1  0.35963853  0.87479055  0.95854585  1
  In  In43  1  0.85963853  0.12520945  0.54145415  1
  In  In44  1  0.65378271  0.36215579  0.29048885  1
  In  In45  1  0.15378271  0.63784421  0.20951115  1
  In  In46  1  0.34621729  0.63784421  0.70951115  1
  In  In47  1  0.84621729  0.36215579  0.79048885  1
