# generated using pymatgen
data_GdInPd
_symmetry_space_group_name_H-M   'P 1'
_cell_length_a   7.75763215
_cell_length_b   7.75763214
_cell_length_c   3.90792293
_cell_angle_alpha   90.00000000
_cell_angle_beta   90.00000000
_cell_angle_gamma   119.99999999
_symmetry_Int_Tables_number   1
_chemical_formula_structural   GdInPd
_chemical_formula_sum   'Gd3 In3 Pd3'
_cell_volume   203.67371570
_cell_formula_units_Z   3
loop_
 _symmetry_equiv_pos_site_id
 _symmetry_equiv_pos_as_xyz
  1  'x, y, z'
loop_
 _atom_site_type_symbol
 _atom_site_label
 _atom_site_symmetry_multiplicity
 _atom_site_fract_x
 _atom_site_fract_y
 _atom_site_fract_z
 _atom_site_occupancy
  Pd  Pd0  1  0.33333333  0.66666667  0.00000000  1
  Pd  Pd1  1  0.00000000  0.00000000  0.50000000  1
  Pd  Pd2  1  0.66666667  0.33333333  0.00000000  1
  In  In3  1  0.74264188  0.74264188  0.00000000  1
  In  In4  1  0.00000000  0.25735812  0.00000000  1
  In  In5  1  0.25735812  0.00000000  0.00000000  1
  Gd  Gd6  1  0.00000000  0.59091678  0.50000000  1
  Gd  Gd7  1  0.40908322  0.40908322  0.50000000  1
  Gd  Gd8  1  0.59091678  0.00000000  0.50000000  1
