# generated using pymatgen
data_EuIn2Rh
_symmetry_space_group_name_H-M   'P 1'
_cell_length_a   4.33534485
_cell_length_b   5.71422015
_cell_length_c   8.23025435
_cell_angle_alpha   90.00000000
_cell_angle_beta   90.00000000
_cell_angle_gamma   112.29324184
_symmetry_Int_Tables_number   1
_chemical_formula_structural   EuIn2Rh
_chemical_formula_sum   'Eu2 In4 Rh2'
_cell_volume   188.64924233
_cell_formula_units_Z   2
loop_
 _symmetry_equiv_pos_site_id
 _symmetry_equiv_pos_as_xyz
  1  'x, y, z'
loop_
 _atom_site_type_symbol
 _atom_site_label
 _atom_site_symmetry_multiplicity
 _atom_site_fract_x
 _atom_site_fract_y
 _atom_site_fract_z
 _atom_site_occupancy
  Rh  Rh0  1  0.78169244  0.56338488  0.75000000  1
  Rh  Rh1  1  0.21830756  0.43661512  0.25000000  1
  In  In2  1  0.35106465  0.70212930  0.55127992  1
  In  In3  1  0.64893535  0.29787070  0.44872008  1
  In  In4  1  0.35106465  0.70212930  0.94872008  1
  In  In5  1  0.64893535  0.29787070  0.05127992  1
  Eu  Eu6  1  0.93669541  0.87339081  0.25000000  1
  Eu  Eu7  1  0.06330459  0.12660919  0.75000000  1
