# generated using pymatgen
data_CdAs2S18N12(OF2)6
_symmetry_space_group_name_H-M   'P 1'
_cell_length_a   9.35721480
_cell_length_b   10.56385742
_cell_length_c   11.41968953
_cell_angle_alpha   65.44478904
_cell_angle_beta   81.13970480
_cell_angle_gamma   87.09189432
_symmetry_Int_Tables_number   1
_chemical_formula_structural   CdAs2S18N12(OF2)6
_chemical_formula_sum   'Cd1 As2 S18 N12 O6 F12'
_cell_volume   1014.36514897
_cell_formula_units_Z   1
loop_
 _symmetry_equiv_pos_site_id
 _symmetry_equiv_pos_as_xyz
  1  'x, y, z'
loop_
 _atom_site_type_symbol
 _atom_site_label
 _atom_site_symmetry_multiplicity
 _atom_site_fract_x
 _atom_site_fract_y
 _atom_site_fract_z
 _atom_site_occupancy
  Cd  Cd0  1  0.00000000  0.00000000  0.00000000  1
  As  As1  1  0.71908877  0.69779472  0.64493155  1
  As  As2  1  0.28091123  0.30220528  0.35506845  1
  S  S3  1  0.90046986  0.68666033  0.97170084  1
  S  S4  1  0.65210722  0.33365732  0.60766996  1
  S  S5  1  0.83255183  0.11702550  0.61521090  1
  S  S6  1  0.76372814  0.11361630  0.31624541  1
  S  S7  1  0.89215903  0.56830647  0.24308678  1
  S  S8  1  0.66215622  0.26277155  0.08521173  1
  S  S9  1  0.10784097  0.43169353  0.75691322  1
  S  S10  1  0.16744817  0.88297450  0.38478910  1
  S  S11  1  0.67729526  0.97482472  0.23356276  1
  S  S12  1  0.32517973  0.35931839  0.90828046  1
  S  S13  1  0.67482027  0.64068161  0.09171954  1
  S  S14  1  0.27023378  0.90194796  0.18292227  1
  S  S15  1  0.09953014  0.31333967  0.02829916  1
  S  S16  1  0.72976622  0.09805204  0.81707773  1
  S  S17  1  0.34789278  0.66634268  0.39233004  1
  S  S18  1  0.33784378  0.73722845  0.91478827  1
  S  S19  1  0.32270474  0.02517528  0.76643724  1
  S  S20  1  0.23627186  0.88638370  0.68375459  1
  N  N21  1  0.72661806  0.59332746  0.23179953  1
  N  N22  1  0.76990889  0.26822574  0.53596515  1
  N  N23  1  0.27338194  0.40667254  0.76820047  1
  N  N24  1  0.39421815  0.89199032  0.87443771  1
  N  N25  1  0.75015310  0.25946130  0.19334630  1
  N  N26  1  0.97539335  0.59899226  0.10057065  1
  N  N27  1  0.61764489  0.22209185  0.75595963  1
  N  N28  1  0.38235511  0.77790815  0.24404037  1
  N  N29  1  0.24984690  0.74053870  0.80665370  1
  N  N30  1  0.02460665  0.40100774  0.89942935  1
  N  N31  1  0.23009111  0.73177426  0.46403485  1
  N  N32  1  0.60578185  0.10800968  0.12556229  1
  O  O33  1  0.92702432  0.84062958  0.92699653  1
  O  O34  1  0.84955322  0.15164514  0.86037975  1
  O  O35  1  0.19275834  0.07445255  0.83019673  1
  O  O36  1  0.07297568  0.15937042  0.07300347  1
  O  O37  1  0.80724166  0.92554745  0.16980327  1
  O  O38  1  0.15044678  0.84835486  0.13962025  1
  F  F39  1  0.44907082  0.37344862  0.35442389  1
  F  F40  1  0.65616517  0.69037021  0.80386737  1
  F  F41  1  0.34383483  0.30962979  0.19613263  1
  F  F42  1  0.11364832  0.23105426  0.35317525  1
  F  F43  1  0.88635168  0.76894574  0.64682475  1
  F  F44  1  0.35079722  0.13148024  0.42562991  1
  F  F45  1  0.78826748  0.52697316  0.71587473  1
  F  F46  1  0.21173252  0.47302684  0.28412527  1
  F  F47  1  0.64920278  0.86851976  0.57437009  1
  F  F48  1  0.55092918  0.62655138  0.64557611  1
  F  F49  1  0.78148659  0.70566645  0.48706012  1
  F  F50  1  0.21851341  0.29433355  0.51293988  1
