# generated using pymatgen
data_Ce2C3
_symmetry_space_group_name_H-M   'P 1'
_cell_length_a   7.27931057
_cell_length_b   7.27931057
_cell_length_c   7.27931056
_cell_angle_alpha   109.47122059
_cell_angle_beta   109.47122059
_cell_angle_gamma   109.47122068
_symmetry_Int_Tables_number   1
_chemical_formula_structural   Ce2C3
_chemical_formula_sum   'Ce8 C12'
_cell_volume   296.92642877
_cell_formula_units_Z   4
loop_
 _symmetry_equiv_pos_site_id
 _symmetry_equiv_pos_as_xyz
  1  'x, y, z'
loop_
 _atom_site_type_symbol
 _atom_site_label
 _atom_site_symmetry_multiplicity
 _atom_site_fract_x
 _atom_site_fract_y
 _atom_site_fract_z
 _atom_site_occupancy
  C  C0  1  0.75000000  0.79328096  0.04328096  1
  C  C1  1  0.75000000  0.95671904  0.20671904  1
  C  C2  1  0.29328096  0.25000000  0.54328096  1
  C  C3  1  0.54328096  0.29328096  0.25000000  1
  C  C4  1  0.20671904  0.75000000  0.95671904  1
  C  C5  1  0.95671904  0.20671904  0.75000000  1
  C  C6  1  0.25000000  0.70671904  0.45671904  1
  C  C7  1  0.70671904  0.45671904  0.25000000  1
  C  C8  1  0.25000000  0.54328096  0.29328096  1
  C  C9  1  0.45671904  0.25000000  0.70671904  1
  C  C10  1  0.04328096  0.75000000  0.79328096  1
  C  C11  1  0.79328096  0.04328096  0.75000000  1
  Ce  Ce12  1  0.59932917  0.59932917  0.59932917  1
  Ce  Ce13  1  0.40067083  0.50000000  0.00000000  1
  Ce  Ce14  1  0.50000000  0.00000000  0.40067083  1
  Ce  Ce15  1  0.00000000  0.40067083  0.50000000  1
  Ce  Ce16  1  0.50000000  0.00000000  0.90067083  1
  Ce  Ce17  1  0.00000000  0.90067083  0.50000000  1
  Ce  Ce18  1  0.90067083  0.50000000  0.00000000  1
  Ce  Ce19  1  0.09932917  0.09932917  0.09932917  1
