# generated using pymatgen
data_EuSnF7
_symmetry_space_group_name_H-M   'P 1'
_cell_length_a   5.75066950
_cell_length_b   9.19578480
_cell_length_c   11.42852786
_cell_angle_alpha   107.48734271
_cell_angle_beta   90.00000000
_cell_angle_gamma   90.00000000
_symmetry_Int_Tables_number   1
_chemical_formula_structural   EuSnF7
_chemical_formula_sum   'Eu4 Sn4 F28'
_cell_volume   576.43088111
_cell_formula_units_Z   4
loop_
 _symmetry_equiv_pos_site_id
 _symmetry_equiv_pos_as_xyz
  1  'x, y, z'
loop_
 _atom_site_type_symbol
 _atom_site_label
 _atom_site_symmetry_multiplicity
 _atom_site_fract_x
 _atom_site_fract_y
 _atom_site_fract_z
 _atom_site_occupancy
  F  F0  1  0.55036492  0.37076329  0.08110440  1
  F  F1  1  0.05036492  0.12923671  0.41889560  1
  F  F2  1  0.44963508  0.62923671  0.91889560  1
  F  F3  1  0.94963508  0.87076329  0.58110440  1
  F  F4  1  0.54615366  0.17349487  0.45504360  1
  F  F5  1  0.04615366  0.32650513  0.04495640  1
  F  F6  1  0.45384634  0.82650513  0.54495640  1
  F  F7  1  0.95384634  0.67349487  0.95504360  1
  F  F8  1  0.23030836  0.62181783  0.13988388  1
  F  F9  1  0.73030836  0.87818217  0.36011612  1
  F  F10  1  0.76969164  0.37818217  0.86011612  1
  F  F11  1  0.26969164  0.12181783  0.63988388  1
  F  F12  1  0.24062601  0.91813451  0.94659144  1
  F  F13  1  0.74062601  0.58186549  0.55340856  1
  F  F14  1  0.75937399  0.08186549  0.05340856  1
  F  F15  1  0.25937399  0.41813451  0.44659144  1
  F  F16  1  0.02009171  0.62940137  0.35946625  1
  F  F17  1  0.52009171  0.87059863  0.14053375  1
  F  F18  1  0.97990829  0.37059863  0.64053375  1
  F  F19  1  0.47990829  0.12940137  0.85946625  1
  F  F20  1  0.95423774  0.08509237  0.82904171  1
  F  F21  1  0.45423774  0.41490763  0.67095829  1
  F  F22  1  0.04576226  0.91490763  0.17095829  1
  F  F23  1  0.54576226  0.58509237  0.32904171  1
  F  F24  1  0.58547624  0.79785589  0.76665050  1
  F  F25  1  0.08547624  0.70214411  0.73334950  1
  F  F26  1  0.41452376  0.20214411  0.23334950  1
  F  F27  1  0.91452376  0.29785589  0.26665050  1
  Sn  Sn28  1  0.25645742  0.26956271  0.54340709  1
  Sn  Sn29  1  0.75645742  0.23043729  0.95659291  1
  Sn  Sn30  1  0.74354258  0.73043729  0.45659291  1
  Sn  Sn31  1  0.24354258  0.76956271  0.04340709  1
  Eu  Eu32  1  0.25843524  0.92300373  0.73515018  1
  Eu  Eu33  1  0.75843524  0.57699627  0.76484982  1
  Eu  Eu34  1  0.74156476  0.07699627  0.26484982  1
  Eu  Eu35  1  0.24156476  0.42300373  0.23515018  1
