# generated using pymatgen
data_Sr2NbInO6
_symmetry_space_group_name_H-M   'P 1'
_cell_length_a   5.79715078
_cell_length_b   5.85139438
_cell_length_c   8.21363413
_cell_angle_alpha   90.00000000
_cell_angle_beta   89.92704666
_cell_angle_gamma   90.00000000
_symmetry_Int_Tables_number   1
_chemical_formula_structural   Sr2NbInO6
_chemical_formula_sum   'Sr4 Nb2 In2 O12'
_cell_volume   278.61787015
_cell_formula_units_Z   2
loop_
 _symmetry_equiv_pos_site_id
 _symmetry_equiv_pos_as_xyz
  1  'x, y, z'
loop_
 _atom_site_type_symbol
 _atom_site_label
 _atom_site_symmetry_multiplicity
 _atom_site_fract_x
 _atom_site_fract_y
 _atom_site_fract_z
 _atom_site_occupancy
  O  O0  1  0.57560909  0.51938133  0.23966001  1
  O  O1  1  0.92439091  0.01938133  0.26033999  1
  O  O2  1  0.42439091  0.48061867  0.76033999  1
  O  O3  1  0.07560909  0.98061867  0.73966001  1
  O  O4  1  0.72432758  0.79541482  0.53829187  1
  O  O5  1  0.77567242  0.29541482  0.96170813  1
  O  O6  1  0.27567242  0.20458518  0.46170813  1
  O  O7  1  0.22432758  0.70458518  0.03829187  1
  O  O8  1  0.29731579  0.22406468  0.04137935  1
  O  O9  1  0.20268421  0.72406468  0.45862065  1
  O  O10  1  0.70268421  0.77593532  0.95862065  1
  O  O11  1  0.79731579  0.27593532  0.54137935  1
  Sr  Sr12  1  0.50727401  0.03405336  0.74919234  1
  Sr  Sr13  1  0.99272599  0.53405336  0.75080766  1
  Sr  Sr14  1  0.00727401  0.46594664  0.24919234  1
  Sr  Sr15  1  0.49272599  0.96594664  0.25080766  1
  Nb  Nb16  1  0.50000000  0.50000000  0.00000000  1
  Nb  Nb17  1  0.00000000  0.00000000  0.50000000  1
  In  In18  1  0.50000000  0.50000000  0.50000000  1
  In  In19  1  0.00000000  0.00000000  0.00000000  1
