# generated using pymatgen
data_Zn9Fe21O40
_symmetry_space_group_name_H-M   'P 1'
_cell_length_a   6.03843499
_cell_length_b   6.05913300
_cell_length_c   24.97704135
_cell_angle_alpha   90.09350015
_cell_angle_beta   96.72789404
_cell_angle_gamma   119.99884251
_symmetry_Int_Tables_number   1
_chemical_formula_structural   Zn9Fe21O40
_chemical_formula_sum   'Zn9 Fe21 O40'
_cell_volume   784.05016628
_cell_formula_units_Z   1
loop_
 _symmetry_equiv_pos_site_id
 _symmetry_equiv_pos_as_xyz
  1  'x, y, z'
loop_
 _atom_site_type_symbol
 _atom_site_label
 _atom_site_symmetry_multiplicity
 _atom_site_fract_x
 _atom_site_fract_y
 _atom_site_fract_z
 _atom_site_occupancy
  Zn  Zn0  1  0.25022760  0.87564003  0.12525139  1
  Zn  Zn1  1  0.74995494  0.87519180  0.12512553  1
  Zn  Zn2  1  0.04977240  0.27435997  0.32474861  1
  Zn  Zn3  1  0.55004506  0.27480820  0.32487447  1
  Zn  Zn4  1  0.85030128  0.67538577  0.52630610  1
  Zn  Zn5  1  0.74998628  0.87637634  0.62483256  1
  Zn  Zn6  1  0.65000000  0.07500000  0.72500000  1
  Zn  Zn7  1  0.44969872  0.47461423  0.92369390  1
  Zn  Zn8  1  0.55001372  0.27362366  0.82516744  1
  Fe  Fe9  1  0.35067400  0.67579582  0.02568683  1
  Fe  Fe10  1  0.00029868  0.00562203  0.00141948  1
  Fe  Fe11  1  0.24954836  0.37448494  0.12534980  1
  Fe  Fe12  1  0.05045164  0.77551506  0.32465020  1
  Fe  Fe13  1  0.69654015  0.34265339  0.04891500  1
  Fe  Fe14  1  0.49439325  0.74031759  0.24828339  1
  Fe  Fe15  1  0.15000000  0.07500000  0.22500000  1
  Fe  Fe16  1  0.60345985  0.80734661  0.40108500  1
  Fe  Fe17  1  0.80560675  0.40968241  0.20171661  1
  Fe  Fe18  1  0.35043777  0.67643609  0.52593035  1
  Fe  Fe19  1  0.10559655  0.54606284  0.65146486  1
  Fe  Fe20  1  0.29970132  0.14437797  0.44858052  1
  Fe  Fe21  1  0.94932600  0.47420418  0.42431317  1
  Fe  Fe22  1  0.19440345  0.60393716  0.79853514  1
  Fe  Fe23  1  0.39483336  0.20442780  0.59950448  1
  Fe  Fe24  1  0.84933947  0.17592917  0.52570584  1
  Fe  Fe25  1  0.15000000  0.07500000  0.72500000  1
  Fe  Fe26  1  0.45066053  0.97407083  0.92429416  1
  Fe  Fe27  1  0.65000000  0.57500000  0.72500000  1
  Fe  Fe28  1  0.90516664  0.94557220  0.85049552  1
  Fe  Fe29  1  0.94956223  0.47356391  0.92406965  1
  O  O30  1  0.06633669  0.52504328  0.07543320  1
  O  O31  1  0.53254957  0.52489927  0.07463319  1
  O  O32  1  0.33424858  0.92636643  0.27456513  1
  O  O33  1  0.44069909  0.71093307  0.17069892  1
  O  O34  1  0.05804629  0.03832944  0.07853527  1
  O  O35  1  0.96023098  0.74525721  0.17582755  1
  O  O36  1  0.23366331  0.62495672  0.37456680  1
  O  O37  1  0.43373106  0.22499248  0.17515779  1
  O  O38  1  0.86626894  0.92500752  0.27484221  1
  O  O39  1  0.14557250  0.80277019  0.47490071  1
  O  O40  1  0.53856389  0.00552610  0.07395279  1
  O  O41  1  0.33976902  0.40474279  0.27417245  1
  O  O42  1  0.14221779  0.33660564  0.47496123  1
  O  O43  1  0.05166336  0.51968297  0.57218267  1
  O  O44  1  0.24195371  0.11167056  0.37146473  1
  O  O45  1  0.76745043  0.62510073  0.37536681  1
  O  O46  1  0.64838201  0.83190400  0.47914028  1
  O  O47  1  0.96575142  0.22363357  0.17543487  1
  O  O48  1  0.85930091  0.43906693  0.27930108  1
  O  O49  1  0.34795268  0.93989395  0.77276080  1
  O  O50  1  0.76143611  0.14447390  0.37604721  1
  O  O51  1  0.54648298  0.53761590  0.57239467  1
  O  O52  1  0.03445832  0.02576758  0.57216418  1
  O  O53  1  0.66993990  0.32917125  0.47414149  1
  O  O54  1  0.46788395  0.72563759  0.67729617  1
  O  O55  1  0.94752661  0.73247754  0.67845436  1
  O  O56  1  0.85295402  0.91739178  0.77128471  1
  O  O57  1  0.24833664  0.63031703  0.87781733  1
  O  O58  1  0.15778221  0.81339436  0.97503877  1
  O  O59  1  0.54957017  0.02054188  0.57176205  1
  O  O60  1  0.35247339  0.41752246  0.77154564  1
  O  O61  1  0.44704598  0.23260822  0.67871529  1
  O  O62  1  0.15442750  0.34722981  0.97509929  1
  O  O63  1  0.83211605  0.42436241  0.77270383  1
  O  O64  1  0.63006010  0.82082875  0.97585851  1
  O  O65  1  0.95204732  0.21010605  0.67723920  1
  O  O66  1  0.75351702  0.61238410  0.87760533  1
  O  O67  1  0.26554168  0.12423242  0.87783582  1
  O  O68  1  0.75042983  0.12945812  0.87823795  1
  O  O69  1  0.65161799  0.31809600  0.97085972  1
