# generated using pymatgen
data_KPb
_symmetry_space_group_name_H-M   'P 1'
_cell_length_a   11.72921832
_cell_length_b   11.72921832
_cell_length_c   12.71630247
_cell_angle_alpha   117.46380910
_cell_angle_beta   117.46380914
_cell_angle_gamma   89.99999999
_symmetry_Int_Tables_number   1
_chemical_formula_structural   KPb
_chemical_formula_sum   'K16 Pb16'
_cell_volume   1326.12934851
_cell_formula_units_Z   16
loop_
 _symmetry_equiv_pos_site_id
 _symmetry_equiv_pos_as_xyz
  1  'x, y, z'
loop_
 _atom_site_type_symbol
 _atom_site_label
 _atom_site_symmetry_multiplicity
 _atom_site_fract_x
 _atom_site_fract_y
 _atom_site_fract_z
 _atom_site_occupancy
  K  K0  1  0.61906317  0.25000000  0.50000000  1
  K  K1  1  0.75000000  0.61906317  0.00000000  1
  K  K2  1  0.25000000  0.88093683  0.00000000  1
  K  K3  1  0.88093683  0.75000000  0.50000000  1
  K  K4  1  0.38093683  0.75000000  0.50000000  1
  K  K5  1  0.25000000  0.38093683  0.00000000  1
  K  K6  1  0.75000000  0.11906317  0.00000000  1
  K  K7  1  0.11906317  0.25000000  0.50000000  1
  K  K8  1  0.49718245  0.24718245  0.75000000  1
  K  K9  1  0.00281755  0.49718245  0.25000000  1
  K  K10  1  0.24718245  0.25281755  0.25000000  1
  K  K11  1  0.25281755  0.00281755  0.75000000  1
  K  K12  1  0.50281755  0.75281755  0.25000000  1
  K  K13  1  0.99718245  0.50281755  0.75000000  1
  K  K14  1  0.75281755  0.74718245  0.75000000  1
  K  K15  1  0.74718245  0.99718245  0.25000000  1
  Pb  Pb16  1  0.12784225  0.69663519  0.13252626  1
  Pb  Pb17  1  0.56410893  0.49531599  0.36747374  1
  Pb  Pb18  1  0.80336481  0.37215775  0.36747374  1
  Pb  Pb19  1  0.49531599  0.80336481  0.86747374  1
  Pb  Pb20  1  0.37215775  0.56410893  0.86747374  1
  Pb  Pb21  1  0.93589107  0.12784225  0.63252626  1
  Pb  Pb22  1  0.69663519  0.00468401  0.63252626  1
  Pb  Pb23  1  0.00468401  0.93589107  0.13252626  1
  Pb  Pb24  1  0.87215775  0.30336481  0.86747374  1
  Pb  Pb25  1  0.43589107  0.50468401  0.63252626  1
  Pb  Pb26  1  0.19663519  0.62784225  0.63252626  1
  Pb  Pb27  1  0.50468401  0.19663519  0.13252626  1
  Pb  Pb28  1  0.62784225  0.43589107  0.13252626  1
  Pb  Pb29  1  0.06410893  0.87215775  0.36747374  1
  Pb  Pb30  1  0.30336481  0.99531599  0.36747374  1
  Pb  Pb31  1  0.99531599  0.06410893  0.86747374  1
