# generated using pymatgen
data_Ca9Zn4Sb9
_symmetry_space_group_name_H-M   'P 1'
_cell_length_a   4.56106343
_cell_length_b   12.50654961
_cell_length_c   21.91858604
_cell_angle_alpha   90.00000000
_cell_angle_beta   90.00000000
_cell_angle_gamma   90.00000000
_symmetry_Int_Tables_number   1
_chemical_formula_structural   Ca9Zn4Sb9
_chemical_formula_sum   'Ca18 Zn8 Sb18'
_cell_volume   1250.30554332
_cell_formula_units_Z   2
loop_
 _symmetry_equiv_pos_site_id
 _symmetry_equiv_pos_as_xyz
  1  'x, y, z'
loop_
 _atom_site_type_symbol
 _atom_site_label
 _atom_site_symmetry_multiplicity
 _atom_site_fract_x
 _atom_site_fract_y
 _atom_site_fract_z
 _atom_site_occupancy
  Ca  Ca0  1  0.50000000  0.00000000  0.00000000  1
  Ca  Ca1  1  0.50000000  0.50000000  0.50000000  1
  Ca  Ca2  1  0.00000000  0.86594548  0.86278886  1
  Ca  Ca3  1  0.00000000  0.13405452  0.13721114  1
  Ca  Ca4  1  0.00000000  0.36594548  0.63721114  1
  Ca  Ca5  1  0.00000000  0.63405452  0.36278886  1
  Ca  Ca6  1  0.00000000  0.56391576  0.90930105  1
  Ca  Ca7  1  0.00000000  0.43608424  0.09069895  1
  Ca  Ca8  1  0.00000000  0.06391576  0.59069895  1
  Ca  Ca9  1  0.00000000  0.93608424  0.40930105  1
  Ca  Ca10  1  0.00000000  0.62162453  0.73668183  1
  Ca  Ca11  1  0.00000000  0.37837547  0.26331817  1
  Ca  Ca12  1  0.00000000  0.12162453  0.76331817  1
  Ca  Ca13  1  0.00000000  0.87837547  0.23668183  1
  Ca  Ca14  1  0.50000000  0.78730617  0.60214901  1
  Ca  Ca15  1  0.50000000  0.21269383  0.39785099  1
  Ca  Ca16  1  0.50000000  0.28730617  0.89785099  1
  Ca  Ca17  1  0.50000000  0.71269383  0.10214901  1
  Zn  Zn18  1  0.50000000  0.72331377  0.95400398  1
  Zn  Zn19  1  0.50000000  0.27668623  0.04599602  1
  Zn  Zn20  1  0.50000000  0.22331377  0.54599602  1
  Zn  Zn21  1  0.50000000  0.77668623  0.45400398  1
  Zn  Zn22  1  0.50000000  0.88318349  0.76251090  1
  Zn  Zn23  1  0.50000000  0.11681651  0.23748910  1
  Zn  Zn24  1  0.50000000  0.38318349  0.73748910  1
  Zn  Zn25  1  0.50000000  0.61681651  0.26251090  1
  Sb  Sb26  1  0.50000000  0.50000000  0.00000000  1
  Sb  Sb27  1  0.50000000  0.00000000  0.50000000  1
  Sb  Sb28  1  0.00000000  0.69372370  0.50603264  1
  Sb  Sb29  1  0.00000000  0.30627630  0.49396736  1
  Sb  Sb30  1  0.00000000  0.19372370  0.99396736  1
  Sb  Sb31  1  0.00000000  0.80627630  0.00603264  1
  Sb  Sb32  1  0.00000000  0.87962129  0.69474350  1
  Sb  Sb33  1  0.00000000  0.12037871  0.30525650  1
  Sb  Sb34  1  0.00000000  0.37962129  0.80525650  1
  Sb  Sb35  1  0.00000000  0.62037871  0.19474350  1
  Sb  Sb36  1  0.50000000  0.54058043  0.64680047  1
  Sb  Sb37  1  0.50000000  0.45941957  0.35319953  1
  Sb  Sb38  1  0.50000000  0.04058043  0.85319953  1
  Sb  Sb39  1  0.50000000  0.95941957  0.14680047  1
  Sb  Sb40  1  0.50000000  0.69030658  0.83190676  1
  Sb  Sb41  1  0.50000000  0.30969342  0.16809324  1
  Sb  Sb42  1  0.50000000  0.19030658  0.66809324  1
  Sb  Sb43  1  0.50000000  0.80969342  0.33190676  1
