# generated using pymatgen
data_Y3GaCo3
_symmetry_space_group_name_H-M   'P 1'
_cell_length_a   4.12856374
_cell_length_b   5.39350213
_cell_length_c   12.89508589
_cell_angle_alpha   90.00000000
_cell_angle_beta   90.00000000
_cell_angle_gamma   112.50319616
_symmetry_Int_Tables_number   1
_chemical_formula_structural   Y3GaCo3
_chemical_formula_sum   'Y6 Ga2 Co6'
_cell_volume   265.27687803
_cell_formula_units_Z   2
loop_
 _symmetry_equiv_pos_site_id
 _symmetry_equiv_pos_as_xyz
  1  'x, y, z'
loop_
 _atom_site_type_symbol
 _atom_site_label
 _atom_site_symmetry_multiplicity
 _atom_site_fract_x
 _atom_site_fract_y
 _atom_site_fract_z
 _atom_site_occupancy
  Co  Co0  1  0.30342638  0.60685275  0.25000000  1
  Co  Co1  1  0.69657362  0.39314725  0.75000000  1
  Co  Co2  1  0.58167462  0.16334924  0.59583891  1
  Co  Co3  1  0.41832538  0.83665076  0.40416109  1
  Co  Co4  1  0.41832538  0.83665076  0.09583891  1
  Co  Co5  1  0.58167462  0.16334924  0.90416109  1
  Ga  Ga6  1  0.00000000  0.00000000  0.00000000  1
  Ga  Ga7  1  0.00000000  0.00000000  0.50000000  1
  Y  Y8  1  0.99972288  0.99944575  0.25000000  1
  Y  Y9  1  0.00027712  0.00055425  0.75000000  1
  Y  Y10  1  0.29154260  0.58308520  0.60297684  1
  Y  Y11  1  0.70845740  0.41691480  0.39702316  1
  Y  Y12  1  0.70845740  0.41691480  0.10297684  1
  Y  Y13  1  0.29154260  0.58308520  0.89702316  1
