# generated using pymatgen
data_UMn5P3
_symmetry_space_group_name_H-M   'P 1'
_cell_length_a   3.63246271
_cell_length_b   10.63111492
_cell_length_c   11.92508586
_cell_angle_alpha   90.00000000
_cell_angle_beta   90.00000000
_cell_angle_gamma   90.00000000
_symmetry_Int_Tables_number   1
_chemical_formula_structural   UMn5P3
_chemical_formula_sum   'U4 Mn20 P12'
_cell_volume   460.51257318
_cell_formula_units_Z   4
loop_
 _symmetry_equiv_pos_site_id
 _symmetry_equiv_pos_as_xyz
  1  'x, y, z'
loop_
 _atom_site_type_symbol
 _atom_site_label
 _atom_site_symmetry_multiplicity
 _atom_site_fract_x
 _atom_site_fract_y
 _atom_site_fract_z
 _atom_site_occupancy
  P  P0  1  0.25000000  0.59732006  0.39404021  1
  P  P1  1  0.75000000  0.40267994  0.60595979  1
  P  P2  1  0.75000000  0.09732006  0.10595979  1
  P  P3  1  0.25000000  0.90267994  0.89404021  1
  P  P4  1  0.75000000  0.76909075  0.63076456  1
  P  P5  1  0.25000000  0.23090925  0.36923544  1
  P  P6  1  0.25000000  0.41792534  0.11440530  1
  P  P7  1  0.75000000  0.58207466  0.88559470  1
  P  P8  1  0.75000000  0.91792534  0.38559470  1
  P  P9  1  0.25000000  0.08207466  0.61440530  1
  P  P10  1  0.25000000  0.26909075  0.86923544  1
  P  P11  1  0.75000000  0.73090925  0.13076456  1
  Mn  Mn12  1  0.25000000  0.40531642  0.48517169  1
  Mn  Mn13  1  0.75000000  0.71767155  0.32644407  1
  Mn  Mn14  1  0.75000000  0.78232845  0.82644407  1
  Mn  Mn15  1  0.25000000  0.28232845  0.67355593  1
  Mn  Mn16  1  0.25000000  0.61763312  0.20191045  1
  Mn  Mn17  1  0.75000000  0.38236688  0.79808955  1
  Mn  Mn18  1  0.75000000  0.11763312  0.29808955  1
  Mn  Mn19  1  0.25000000  0.88236688  0.70191045  1
  Mn  Mn20  1  0.25000000  0.03396221  0.43267181  1
  Mn  Mn21  1  0.75000000  0.96603779  0.56732819  1
  Mn  Mn22  1  0.75000000  0.53396221  0.06732819  1
  Mn  Mn23  1  0.25000000  0.46603779  0.93267181  1
  Mn  Mn24  1  0.75000000  0.90531642  0.01482831  1
  Mn  Mn25  1  0.25000000  0.09468358  0.98517169  1
  Mn  Mn26  1  0.25000000  0.70481492  0.98967140  1
  Mn  Mn27  1  0.75000000  0.29518508  0.01032860  1
  Mn  Mn28  1  0.75000000  0.20481492  0.51032860  1
  Mn  Mn29  1  0.25000000  0.79518508  0.48967140  1
  Mn  Mn30  1  0.25000000  0.21767155  0.17355593  1
  Mn  Mn31  1  0.75000000  0.59468358  0.51482831  1
  U  U32  1  0.25000000  0.58247849  0.70300888  1
  U  U33  1  0.75000000  0.41752151  0.29699112  1
  U  U34  1  0.75000000  0.08247849  0.79699112  1
  U  U35  1  0.25000000  0.91752151  0.20300888  1
