# generated using pymatgen
data_Tb(SiNi5)2
_symmetry_space_group_name_H-M   'P 1'
_cell_length_a   4.67192350
_cell_length_b   8.17212094
_cell_length_c   8.17212094
_cell_angle_alpha   90.00000000
_cell_angle_beta   90.00000000
_cell_angle_gamma   90.00000000
_symmetry_Int_Tables_number   1
_chemical_formula_structural   Tb(SiNi5)2
_chemical_formula_sum   'Tb2 Si4 Ni20'
_cell_volume   312.00768645
_cell_formula_units_Z   2
loop_
 _symmetry_equiv_pos_site_id
 _symmetry_equiv_pos_as_xyz
  1  'x, y, z'
loop_
 _atom_site_type_symbol
 _atom_site_label
 _atom_site_symmetry_multiplicity
 _atom_site_fract_x
 _atom_site_fract_y
 _atom_site_fract_z
 _atom_site_occupancy
  Si  Si0  1  0.50000000  0.50000000  0.00000000  1
  Si  Si1  1  0.50000000  0.00000000  0.50000000  1
  Si  Si2  1  0.50000000  0.00000000  0.00000000  1
  Si  Si3  1  0.50000000  0.50000000  0.50000000  1
  Ni  Ni4  1  0.00000000  0.00000000  0.50000000  1
  Ni  Ni5  1  0.00000000  0.50000000  0.50000000  1
  Ni  Ni6  1  0.27140909  0.97416764  0.75000000  1
  Ni  Ni7  1  0.00000000  0.50000000  0.00000000  1
  Ni  Ni8  1  0.00000000  0.00000000  0.00000000  1
  Ni  Ni9  1  0.27140909  0.52583236  0.75000000  1
  Ni  Ni10  1  0.23835451  0.25000000  0.60310701  1
  Ni  Ni11  1  0.23835451  0.89689299  0.25000000  1
  Ni  Ni12  1  0.23835451  0.60310701  0.25000000  1
  Ni  Ni13  1  0.23835451  0.25000000  0.89689299  1
  Ni  Ni14  1  0.76164549  0.75000000  0.39689299  1
  Ni  Ni15  1  0.76164549  0.75000000  0.10310701  1
  Ni  Ni16  1  0.76164549  0.10310701  0.75000000  1
  Ni  Ni17  1  0.76164549  0.39689299  0.75000000  1
  Ni  Ni18  1  0.72859091  0.25000000  0.02583236  1
  Ni  Ni19  1  0.72859091  0.47416764  0.25000000  1
  Ni  Ni20  1  0.72859091  0.02583236  0.25000000  1
  Ni  Ni21  1  0.72859091  0.25000000  0.47416764  1
  Ni  Ni22  1  0.27140909  0.75000000  0.97416764  1
  Ni  Ni23  1  0.27140909  0.75000000  0.52583236  1
  Tb  Tb24  1  0.77929754  0.75000000  0.75000000  1
  Tb  Tb25  1  0.22070246  0.25000000  0.25000000  1
