# generated using pymatgen
data_Sm3InS6
_symmetry_space_group_name_H-M   'P 1'
_cell_length_a   3.93522056
_cell_length_b   13.73468402
_cell_length_c   16.71713498
_cell_angle_alpha   90.00000000
_cell_angle_beta   90.00000000
_cell_angle_gamma   90.00000000
_symmetry_Int_Tables_number   1
_chemical_formula_structural   Sm3InS6
_chemical_formula_sum   'Sm12 In4 S24'
_cell_volume   903.54461143
_cell_formula_units_Z   4
loop_
 _symmetry_equiv_pos_site_id
 _symmetry_equiv_pos_as_xyz
  1  'x, y, z'
loop_
 _atom_site_type_symbol
 _atom_site_label
 _atom_site_symmetry_multiplicity
 _atom_site_fract_x
 _atom_site_fract_y
 _atom_site_fract_z
 _atom_site_occupancy
  S  S0  1  0.00000000  0.97859926  0.10402533  1
  S  S1  1  0.00000000  0.02140074  0.89597467  1
  S  S2  1  0.50000000  0.47859926  0.39597467  1
  S  S3  1  0.50000000  0.52140074  0.60402533  1
  S  S4  1  0.00000000  0.69041294  0.48008872  1
  S  S5  1  0.00000000  0.30958706  0.51991128  1
  S  S6  1  0.50000000  0.19041294  0.01991128  1
  S  S7  1  0.50000000  0.80958706  0.98008872  1
  S  S8  1  0.50000000  0.88775657  0.38407061  1
  S  S9  1  0.50000000  0.11224343  0.61592939  1
  S  S10  1  0.00000000  0.38775657  0.11592939  1
  S  S11  1  0.00000000  0.61224343  0.88407061  1
  S  S12  1  0.00000000  0.61137835  0.25274302  1
  S  S13  1  0.00000000  0.38862165  0.74725698  1
  S  S14  1  0.50000000  0.11137835  0.24725698  1
  S  S15  1  0.50000000  0.88862165  0.75274302  1
  S  S16  1  0.00000000  0.90507853  0.58527514  1
  S  S17  1  0.00000000  0.09492147  0.41472486  1
  S  S18  1  0.50000000  0.40507853  0.91472486  1
  S  S19  1  0.50000000  0.59492147  0.08527514  1
  S  S20  1  0.00000000  0.68224270  0.71410737  1
  S  S21  1  0.00000000  0.31775730  0.28589263  1
  S  S22  1  0.50000000  0.18224270  0.78589263  1
  S  S23  1  0.50000000  0.81775730  0.21410737  1
  In  In24  1  0.00000000  0.50000000  0.00000000  1
  In  In25  1  0.50000000  0.00000000  0.50000000  1
  In  In26  1  0.00000000  0.50000000  0.50000000  1
  In  In27  1  0.50000000  0.00000000  0.00000000  1
  Sm  Sm28  1  0.50000000  0.68816980  0.35384193  1
  Sm  Sm29  1  0.50000000  0.31183020  0.64615807  1
  Sm  Sm30  1  0.00000000  0.18816980  0.14615807  1
  Sm  Sm31  1  0.00000000  0.81183020  0.85384193  1
  Sm  Sm32  1  0.00000000  0.74840253  0.10647235  1
  Sm  Sm33  1  0.00000000  0.25159747  0.89352765  1
  Sm  Sm34  1  0.50000000  0.24840253  0.39352765  1
  Sm  Sm35  1  0.50000000  0.75159747  0.60647235  1
  Sm  Sm36  1  0.00000000  0.95934611  0.27679314  1
  Sm  Sm37  1  0.00000000  0.04065389  0.72320686  1
  Sm  Sm38  1  0.50000000  0.45934611  0.22320686  1
  Sm  Sm39  1  0.50000000  0.54065389  0.77679314  1
