# generated using pymatgen
data_K2CeTa5O15
_symmetry_space_group_name_H-M   'P 1'
_cell_length_a   3.95227584
_cell_length_b   12.70427981
_cell_length_c   12.70427981
_cell_angle_alpha   90.00000000
_cell_angle_beta   90.00000000
_cell_angle_gamma   90.00000000
_symmetry_Int_Tables_number   1
_chemical_formula_structural   K2CeTa5O15
_chemical_formula_sum   'K4 Ce2 Ta10 O30'
_cell_volume   637.89228336
_cell_formula_units_Z   2
loop_
 _symmetry_equiv_pos_site_id
 _symmetry_equiv_pos_as_xyz
  1  'x, y, z'
loop_
 _atom_site_type_symbol
 _atom_site_label
 _atom_site_symmetry_multiplicity
 _atom_site_fract_x
 _atom_site_fract_y
 _atom_site_fract_z
 _atom_site_occupancy
  K  K0  1  0.00000000  0.16909413  0.66909413  1
  K  K1  1  0.00000000  0.33090587  0.16909413  1
  K  K2  1  0.00000000  0.66909413  0.83090587  1
  K  K3  1  0.00000000  0.83090587  0.33090587  1
  Ce  Ce4  1  0.00000000  0.00000000  0.00000000  1
  Ce  Ce5  1  0.00000000  0.50000000  0.50000000  1
  Ta  Ta6  1  0.50000000  0.07644894  0.21341704  1
  Ta  Ta7  1  0.50000000  0.71341704  0.57644894  1
  Ta  Ta8  1  0.50000000  0.21341704  0.92355106  1
  Ta  Ta9  1  0.50000000  0.57644894  0.28658296  1
  Ta  Ta10  1  0.50000000  0.78658296  0.07644894  1
  Ta  Ta11  1  0.50000000  0.42355106  0.71341704  1
  Ta  Ta12  1  0.50000000  0.28658296  0.42355106  1
  Ta  Ta13  1  0.50000000  0.50000000  0.00000000  1
  Ta  Ta14  1  0.50000000  0.92355106  0.78658296  1
  Ta  Ta15  1  0.50000000  0.00000000  0.50000000  1
  O  O16  1  0.00000000  0.92383126  0.80694709  1
  O  O17  1  0.50000000  0.84266093  0.49856991  1
  O  O18  1  0.50000000  0.93885892  0.13201679  1
  O  O19  1  0.50000000  0.13201679  0.06114108  1
  O  O20  1  0.50000000  0.28396531  0.78396531  1
  O  O21  1  0.00000000  0.80694709  0.07616874  1
  O  O22  1  0.50000000  0.06114108  0.86798321  1
  O  O23  1  0.50000000  0.36798321  0.56114108  1
  O  O24  1  0.00000000  0.07616874  0.19305291  1
  O  O25  1  0.50000000  0.63201679  0.43885892  1
  O  O26  1  0.00000000  0.30694709  0.42383126  1
  O  O27  1  0.00000000  0.69305291  0.57616874  1
  O  O28  1  0.50000000  0.15733907  0.50143009  1
  O  O29  1  0.50000000  0.50143009  0.84266093  1
  O  O30  1  0.50000000  0.49856991  0.15733907  1
  O  O31  1  0.50000000  0.56114108  0.63201679  1
  O  O32  1  0.50000000  0.34266093  0.00143009  1
  O  O33  1  0.50000000  0.21603469  0.28396531  1
  O  O34  1  0.50000000  0.78396531  0.71603469  1
  O  O35  1  0.50000000  0.99856991  0.34266093  1
  O  O36  1  0.00000000  0.00000000  0.50000000  1
  O  O37  1  0.50000000  0.43885892  0.36798321  1
  O  O38  1  0.50000000  0.00143009  0.65733907  1
  O  O39  1  0.00000000  0.57616874  0.30694709  1
  O  O40  1  0.50000000  0.71603469  0.21603469  1
  O  O41  1  0.50000000  0.86798321  0.93885892  1
  O  O42  1  0.00000000  0.50000000  0.00000000  1
  O  O43  1  0.00000000  0.19305291  0.92383126  1
  O  O44  1  0.50000000  0.65733907  0.99856991  1
  O  O45  1  0.00000000  0.42383126  0.69305291  1
