# generated using pymatgen
data_K2NaInAs2
_symmetry_space_group_name_H-M   'P 1'
_cell_length_a   6.82426472
_cell_length_b   6.86873888
_cell_length_c   9.13689984
_cell_angle_alpha   112.07865531
_cell_angle_beta   111.92825581
_cell_angle_gamma   89.99999997
_symmetry_Int_Tables_number   1
_chemical_formula_structural   K2NaInAs2
_chemical_formula_sum   'K4 Na2 In2 As4'
_cell_volume   363.22249368
_cell_formula_units_Z   2
loop_
 _symmetry_equiv_pos_site_id
 _symmetry_equiv_pos_as_xyz
  1  'x, y, z'
loop_
 _atom_site_type_symbol
 _atom_site_label
 _atom_site_symmetry_multiplicity
 _atom_site_fract_x
 _atom_site_fract_y
 _atom_site_fract_z
 _atom_site_occupancy
  Na  Na0  1  0.00000000  0.25000000  0.00000000  1
  Na  Na1  1  0.00000000  0.75000000  0.00000000  1
  K  K2  1  0.41529101  0.67592503  0.35185006  1
  K  K3  1  0.06344096  0.82407497  0.64814994  1
  K  K4  1  0.93655904  0.17592503  0.35185006  1
  K  K5  1  0.58470899  0.32407497  0.64814994  1
  As  As6  1  0.18073201  0.39824390  0.79648779  1
  As  As7  1  0.81926799  0.60175610  0.20351221  1
  As  As8  1  0.38424422  0.10175610  0.20351221  1
  As  As9  1  0.61575578  0.89824390  0.79648779  1
  In  In10  1  0.50000000  0.75000000  0.00000000  1
  In  In11  1  0.50000000  0.25000000  0.00000000  1
