# generated using pymatgen
data_NaCeP2O7
_symmetry_space_group_name_H-M   'P 1'
_cell_length_a   5.33270606
_cell_length_b   8.71844615
_cell_length_c   12.76231154
_cell_angle_alpha   90.00000000
_cell_angle_beta   90.00000000
_cell_angle_gamma   90.00000000
_symmetry_Int_Tables_number   1
_chemical_formula_structural   NaCeP2O7
_chemical_formula_sum   'Na4 Ce4 P8 O28'
_cell_volume   593.35700971
_cell_formula_units_Z   4
loop_
 _symmetry_equiv_pos_site_id
 _symmetry_equiv_pos_as_xyz
  1  'x, y, z'
loop_
 _atom_site_type_symbol
 _atom_site_label
 _atom_site_symmetry_multiplicity
 _atom_site_fract_x
 _atom_site_fract_y
 _atom_site_fract_z
 _atom_site_occupancy
  O  O0  1  0.25000000  0.23552713  0.41438697  1
  O  O1  1  0.75000000  0.76447287  0.58561303  1
  O  O2  1  0.25000000  0.73552713  0.08561303  1
  O  O3  1  0.75000000  0.26447287  0.91438697  1
  O  O4  1  0.01313808  0.66310190  0.92057155  1
  O  O5  1  0.51313808  0.33689810  0.07942845  1
  O  O6  1  0.48686192  0.16310190  0.57942845  1
  O  O7  1  0.98686192  0.83689810  0.42057155  1
  O  O8  1  0.98686192  0.33689810  0.07942845  1
  O  O9  1  0.48686192  0.66310190  0.92057155  1
  O  O10  1  0.51313808  0.83689810  0.42057155  1
  O  O11  1  0.01313808  0.16310190  0.57942845  1
  O  O12  1  0.75000000  0.33947220  0.32357570  1
  O  O13  1  0.25000000  0.66052780  0.67642430  1
  O  O14  1  0.75000000  0.83947220  0.17642430  1
  O  O15  1  0.25000000  0.16052780  0.82357570  1
  O  O16  1  0.75000000  0.08138730  0.06424640  1
  O  O17  1  0.25000000  0.91861270  0.93575360  1
  O  O18  1  0.75000000  0.58138730  0.43575360  1
  O  O19  1  0.25000000  0.41861270  0.56424640  1
  O  O20  1  0.00695244  0.43108854  0.73557354  1
  O  O21  1  0.50695244  0.56891146  0.26442646  1
  O  O22  1  0.49304756  0.93108854  0.76442646  1
  O  O23  1  0.99304756  0.06891146  0.23557354  1
  O  O24  1  0.99304756  0.56891146  0.26442646  1
  O  O25  1  0.49304756  0.43108854  0.73557354  1
  O  O26  1  0.50695244  0.06891146  0.23557354  1
  O  O27  1  0.00695244  0.93108854  0.76442646  1
  Na  Na28  1  0.75000000  0.11876248  0.42134381  1
  Na  Na29  1  0.25000000  0.88123752  0.57865619  1
  Na  Na30  1  0.75000000  0.61876248  0.07865619  1
  Na  Na31  1  0.25000000  0.38123752  0.92134381  1
  P  P32  1  0.75000000  0.51322435  0.31789307  1
  P  P33  1  0.25000000  0.48677565  0.68210693  1
  P  P34  1  0.75000000  0.01322435  0.18210693  1
  P  P35  1  0.25000000  0.98677565  0.81789307  1
  P  P36  1  0.25000000  0.23700253  0.53356929  1
  P  P37  1  0.75000000  0.76299747  0.46643071  1
  P  P38  1  0.25000000  0.73700253  0.96643071  1
  P  P39  1  0.75000000  0.26299747  0.03356929  1
  Ce  Ce40  1  0.25000000  0.31299976  0.23621552  1
  Ce  Ce41  1  0.75000000  0.68700024  0.76378448  1
  Ce  Ce42  1  0.25000000  0.81299976  0.26378448  1
  Ce  Ce43  1  0.75000000  0.18700024  0.73621552  1
