# generated using pymatgen
data_Ce3(GeRh)2
_symmetry_space_group_name_H-M   'P 1'
_cell_length_a   5.60852851
_cell_length_b   8.08132447
_cell_length_c   13.30913072
_cell_angle_alpha   90.00000000
_cell_angle_beta   90.00000000
_cell_angle_gamma   90.00000000
_symmetry_Int_Tables_number   1
_chemical_formula_structural   Ce3(GeRh)2
_chemical_formula_sum   'Ce12 Ge8 Rh8'
_cell_volume   603.22754840
_cell_formula_units_Z   4
loop_
 _symmetry_equiv_pos_site_id
 _symmetry_equiv_pos_as_xyz
  1  'x, y, z'
loop_
 _atom_site_type_symbol
 _atom_site_label
 _atom_site_symmetry_multiplicity
 _atom_site_fract_x
 _atom_site_fract_y
 _atom_site_fract_z
 _atom_site_occupancy
  Ge  Ge0  1  0.67536224  0.25000000  0.50000000  1
  Ge  Ge1  1  0.32463776  0.75000000  0.00000000  1
  Ge  Ge2  1  0.32463776  0.75000000  0.50000000  1
  Ge  Ge3  1  0.67536224  0.25000000  0.00000000  1
  Ge  Ge4  1  0.86919544  0.89238667  0.75000000  1
  Ge  Ge5  1  0.86919544  0.60761333  0.25000000  1
  Ge  Ge6  1  0.13080456  0.39238667  0.75000000  1
  Ge  Ge7  1  0.13080456  0.10761333  0.25000000  1
  Rh  Rh8  1  0.37873840  0.04206194  0.40692347  1
  Rh  Rh9  1  0.37873840  0.45793806  0.59307653  1
  Rh  Rh10  1  0.62126160  0.54206194  0.09307653  1
  Rh  Rh11  1  0.62126160  0.95793806  0.90692347  1
  Rh  Rh12  1  0.37873840  0.04206194  0.09307653  1
  Rh  Rh13  1  0.37873840  0.45793806  0.90692347  1
  Rh  Rh14  1  0.62126160  0.54206194  0.40692347  1
  Rh  Rh15  1  0.62126160  0.95793806  0.59307653  1
  Ce  Ce16  1  0.36370988  0.74193821  0.75000000  1
  Ce  Ce17  1  0.36370988  0.75806179  0.25000000  1
  Ce  Ce18  1  0.63629012  0.24193821  0.75000000  1
  Ce  Ce19  1  0.63629012  0.25806179  0.25000000  1
  Ce  Ce20  1  0.15592221  0.39672076  0.40229826  1
  Ce  Ce21  1  0.15592221  0.10327924  0.59770174  1
  Ce  Ce22  1  0.84407779  0.89672076  0.09770174  1
  Ce  Ce23  1  0.84407779  0.60327924  0.90229826  1
  Ce  Ce24  1  0.84407779  0.60327924  0.59770174  1
  Ce  Ce25  1  0.84407779  0.89672076  0.40229826  1
  Ce  Ce26  1  0.15592221  0.10327924  0.90229826  1
  Ce  Ce27  1  0.15592221  0.39672076  0.09770174  1
