# generated using pymatgen
data_K3Ce(PS4)2
_symmetry_space_group_name_H-M   'P 1'
_cell_length_a   9.20157214
_cell_length_b   9.67046169
_cell_length_c   17.32757688
_cell_angle_alpha   90.00000000
_cell_angle_beta   90.00000000
_cell_angle_gamma   89.86499249
_symmetry_Int_Tables_number   1
_chemical_formula_structural   K3Ce(PS4)2
_chemical_formula_sum   'K12 Ce4 P8 S32'
_cell_volume   1541.86330510
_cell_formula_units_Z   4
loop_
 _symmetry_equiv_pos_site_id
 _symmetry_equiv_pos_as_xyz
  1  'x, y, z'
loop_
 _atom_site_type_symbol
 _atom_site_label
 _atom_site_symmetry_multiplicity
 _atom_site_fract_x
 _atom_site_fract_y
 _atom_site_fract_z
 _atom_site_occupancy
  P  P0  1  0.47554215  0.21928845  0.90175825  1
  P  P1  1  0.99500203  0.25738936  0.60179899  1
  P  P2  1  0.00499797  0.24261064  0.10179899  1
  P  P3  1  0.00499797  0.74261064  0.39820101  1
  P  P4  1  0.99500203  0.75738936  0.89820101  1
  P  P5  1  0.52445785  0.28071155  0.40175825  1
  P  P6  1  0.52445785  0.78071155  0.09824175  1
  P  P7  1  0.47554215  0.71928845  0.59824175  1
  S  S8  1  0.21335552  0.72538306  0.88466910  1
  S  S9  1  0.31390296  0.33002370  0.37179743  1
  S  S10  1  0.31390296  0.83002370  0.12820257  1
  S  S11  1  0.68609704  0.66997630  0.62820257  1
  S  S12  1  0.04893166  0.24928659  0.98472093  1
  S  S13  1  0.95106834  0.25071341  0.48472093  1
  S  S14  1  0.95106834  0.75071341  0.01527907  1
  S  S15  1  0.04893166  0.74928659  0.51527907  1
  S  S16  1  0.87656578  0.63585885  0.82760987  1
  S  S17  1  0.12343422  0.86414115  0.32760987  1
  S  S18  1  0.12343422  0.36414115  0.17239013  1
  S  S19  1  0.87656578  0.13585885  0.67239013  1
  S  S20  1  0.54037418  0.82083151  0.98072766  1
  S  S21  1  0.45962582  0.67916849  0.48072766  1
  S  S22  1  0.45962582  0.17916849  0.01927234  1
  S  S23  1  0.54037418  0.32083151  0.51927234  1
  S  S24  1  0.33428242  0.08996731  0.84503676  1
  S  S25  1  0.43505359  0.91904675  0.62581871  1
  S  S26  1  0.66571758  0.91003269  0.15496324  1
  S  S27  1  0.33428242  0.58996731  0.65496324  1
  S  S28  1  0.66571758  0.41003269  0.34503676  1
  S  S29  1  0.78664448  0.77461694  0.38466910  1
  S  S30  1  0.78664448  0.27461694  0.11533090  1
  S  S31  1  0.21335552  0.22538306  0.61533090  1
  S  S32  1  0.96256424  0.96555495  0.87544033  1
  S  S33  1  0.03743576  0.53444505  0.37544033  1
  S  S34  1  0.03743576  0.03444505  0.12455967  1
  S  S35  1  0.96256424  0.46555495  0.62455967  1
  S  S36  1  0.43505359  0.41904675  0.87418129  1
  S  S37  1  0.56494641  0.08095325  0.37418129  1
  S  S38  1  0.56494641  0.58095325  0.12581871  1
  S  S39  1  0.68609704  0.16997630  0.87179743  1
  K  K40  1  0.12160363  0.87494336  0.70601297  1
  K  K41  1  0.61602923  0.86910899  0.78829287  1
  K  K42  1  0.38397077  0.63089101  0.28829287  1
  K  K43  1  0.38397077  0.13089101  0.21170713  1
  K  K44  1  0.73085408  0.48644886  0.97191228  1
  K  K45  1  0.26914592  0.01355114  0.47191228  1
  K  K46  1  0.26914592  0.51355114  0.02808772  1
  K  K47  1  0.73085408  0.98644886  0.52808772  1
  K  K48  1  0.61602923  0.36910899  0.71170713  1
  K  K49  1  0.87839637  0.12505664  0.29398703  1
  K  K50  1  0.87839637  0.62505664  0.20601297  1
  K  K51  1  0.12160363  0.37494336  0.79398703  1
  Ce  Ce52  1  0.22427742  0.47178139  0.51327125  1
  Ce  Ce53  1  0.77572258  0.02821861  0.01327125  1
  Ce  Ce54  1  0.77572258  0.52821861  0.48672875  1
  Ce  Ce55  1  0.22427742  0.97178139  0.98672875  1
