# generated using pymatgen
data_Sc2Te
_symmetry_space_group_name_H-M   'P 1'
_cell_length_a   3.94211456
_cell_length_b   10.74381436
_cell_length_c   20.27756052
_cell_angle_alpha   90.00000000
_cell_angle_beta   90.00000000
_cell_angle_gamma   90.00000000
_symmetry_Int_Tables_number   1
_chemical_formula_structural   Sc2Te
_chemical_formula_sum   'Sc24 Te12'
_cell_volume   858.82255739
_cell_formula_units_Z   12
loop_
 _symmetry_equiv_pos_site_id
 _symmetry_equiv_pos_as_xyz
  1  'x, y, z'
loop_
 _atom_site_type_symbol
 _atom_site_label
 _atom_site_symmetry_multiplicity
 _atom_site_fract_x
 _atom_site_fract_y
 _atom_site_fract_z
 _atom_site_occupancy
  Sc  Sc0  1  0.25000000  0.89338720  0.49005163  1
  Sc  Sc1  1  0.75000000  0.10661280  0.50994837  1
  Sc  Sc2  1  0.75000000  0.39338720  0.00994837  1
  Sc  Sc3  1  0.25000000  0.60661280  0.99005163  1
  Sc  Sc4  1  0.25000000  0.06925734  0.63691667  1
  Sc  Sc5  1  0.75000000  0.93074266  0.36308333  1
  Sc  Sc6  1  0.75000000  0.56925734  0.86308333  1
  Sc  Sc7  1  0.25000000  0.43074266  0.13691667  1
  Sc  Sc8  1  0.25000000  0.38044397  0.53246218  1
  Sc  Sc9  1  0.75000000  0.61955603  0.46753782  1
  Sc  Sc10  1  0.75000000  0.88044397  0.96753782  1
  Sc  Sc11  1  0.25000000  0.11955603  0.03246218  1
  Sc  Sc12  1  0.75000000  0.65764362  0.10689095  1
  Sc  Sc13  1  0.25000000  0.34235638  0.89310905  1
  Sc  Sc14  1  0.25000000  0.15764362  0.39310905  1
  Sc  Sc15  1  0.75000000  0.84235638  0.60689095  1
  Sc  Sc16  1  0.75000000  0.96516651  0.16322351  1
  Sc  Sc17  1  0.25000000  0.03483349  0.83677649  1
  Sc  Sc18  1  0.25000000  0.46516651  0.33677649  1
  Sc  Sc19  1  0.75000000  0.53483349  0.66322351  1
  Sc  Sc20  1  0.25000000  0.74655491  0.22790547  1
  Sc  Sc21  1  0.75000000  0.25344509  0.77209453  1
  Sc  Sc22  1  0.75000000  0.24655491  0.27209453  1
  Sc  Sc23  1  0.25000000  0.75344509  0.72790547  1
  Te  Te24  1  0.75000000  0.96847084  0.73557329  1
  Te  Te25  1  0.25000000  0.03152916  0.26442671  1
  Te  Te26  1  0.25000000  0.46847084  0.76442671  1
  Te  Te27  1  0.75000000  0.53152916  0.23557329  1
  Te  Te28  1  0.75000000  0.27696405  0.62614521  1
  Te  Te29  1  0.25000000  0.72303595  0.37385479  1
  Te  Te30  1  0.25000000  0.77696405  0.87385479  1
  Te  Te31  1  0.75000000  0.22303595  0.12614521  1
  Te  Te32  1  0.25000000  0.64593922  0.57429413  1
  Te  Te33  1  0.75000000  0.35406078  0.42570587  1
  Te  Te34  1  0.75000000  0.14593922  0.92570587  1
  Te  Te35  1  0.25000000  0.85406078  0.07429413  1
