# generated using pymatgen
data_SrNiN
_symmetry_space_group_name_H-M   'P 1'
_cell_length_a   5.22343413
_cell_length_b   9.13071814
_cell_length_c   13.28622991
_cell_angle_alpha   90.00000000
_cell_angle_beta   90.00000000
_cell_angle_gamma   90.00000000
_symmetry_Int_Tables_number   1
_chemical_formula_structural   SrNiN
_chemical_formula_sum   'Sr12 Ni12 N12'
_cell_volume   633.66952675
_cell_formula_units_Z   12
loop_
 _symmetry_equiv_pos_site_id
 _symmetry_equiv_pos_as_xyz
  1  'x, y, z'
loop_
 _atom_site_type_symbol
 _atom_site_label
 _atom_site_symmetry_multiplicity
 _atom_site_fract_x
 _atom_site_fract_y
 _atom_site_fract_z
 _atom_site_occupancy
  N  N0  1  0.30809404  0.75722265  0.75000000  1
  N  N1  1  0.80809404  0.74277735  0.25000000  1
  N  N2  1  0.19190596  0.25722265  0.75000000  1
  N  N3  1  0.69190596  0.24277735  0.25000000  1
  N  N4  1  0.23526118  0.08046728  0.42263934  1
  N  N5  1  0.73526118  0.41953272  0.57736066  1
  N  N6  1  0.26473882  0.58046728  0.07736066  1
  N  N7  1  0.76473882  0.91953272  0.92263934  1
  N  N8  1  0.76473882  0.91953272  0.57736066  1
  N  N9  1  0.26473882  0.58046728  0.42263934  1
  N  N10  1  0.73526118  0.41953272  0.92263934  1
  N  N11  1  0.23526118  0.08046728  0.07736066  1
  Ni  Ni12  1  0.46328349  0.16089230  0.16076647  1
  Ni  Ni13  1  0.96328349  0.33910770  0.83923353  1
  Ni  Ni14  1  0.03671651  0.66089230  0.33923353  1
  Ni  Ni15  1  0.53671651  0.83910770  0.66076647  1
  Ni  Ni16  1  0.53671651  0.83910770  0.83923353  1
  Ni  Ni17  1  0.03671651  0.66089230  0.16076647  1
  Ni  Ni18  1  0.96328349  0.33910770  0.66076647  1
  Ni  Ni19  1  0.46328349  0.16089230  0.33923353  1
  Ni  Ni20  1  0.00000000  0.00000000  0.00000000  1
  Ni  Ni21  1  0.50000000  0.50000000  0.00000000  1
  Ni  Ni22  1  0.50000000  0.50000000  0.50000000  1
  Ni  Ni23  1  0.00000000  0.00000000  0.50000000  1
  Sr  Sr24  1  0.49313185  0.49068590  0.75000000  1
  Sr  Sr25  1  -0.00686815  0.00931410  0.25000000  1
  Sr  Sr26  1  1.00686815  0.99068590  0.75000000  1
  Sr  Sr27  1  0.50686815  0.50931410  0.25000000  1
  Sr  Sr28  1  0.97775556  0.33274918  0.41283078  1
  Sr  Sr29  1  0.47775556  0.16725082  0.58716922  1
  Sr  Sr30  1  0.52224444  0.83274918  0.08716922  1
  Sr  Sr31  1  0.02224444  0.66725082  0.91283078  1
  Sr  Sr32  1  0.02224444  0.66725082  0.58716922  1
  Sr  Sr33  1  0.52224444  0.83274918  0.41283078  1
  Sr  Sr34  1  0.47775556  0.16725082  0.91283078  1
  Sr  Sr35  1  0.97775556  0.33274918  0.08716922  1
