# generated using pymatgen
data_Na3InP2
_symmetry_space_group_name_H-M   'P 1'
_cell_length_a   7.40029695
_cell_length_b   9.48477717
_cell_length_c   15.44965435
_cell_angle_alpha   92.63358027
_cell_angle_beta   90.00000000
_cell_angle_gamma   90.00000000
_symmetry_Int_Tables_number   1
_chemical_formula_structural   Na3InP2
_chemical_formula_sum   'Na24 In8 P16'
_cell_volume   1083.26848276
_cell_formula_units_Z   8
loop_
 _symmetry_equiv_pos_site_id
 _symmetry_equiv_pos_as_xyz
  1  'x, y, z'
loop_
 _atom_site_type_symbol
 _atom_site_label
 _atom_site_symmetry_multiplicity
 _atom_site_fract_x
 _atom_site_fract_y
 _atom_site_fract_z
 _atom_site_occupancy
  Na  Na0  1  0.15202898  0.12410563  0.70351706  1
  Na  Na1  1  0.65202898  0.87589437  0.79648294  1
  Na  Na2  1  0.84797102  0.87589437  0.29648294  1
  Na  Na3  1  0.34797102  0.12410563  0.20351706  1
  Na  Na4  1  0.48910875  0.43993675  0.10432952  1
  Na  Na5  1  0.98910875  0.56006325  0.39567048  1
  Na  Na6  1  0.51089125  0.56006325  0.89567048  1
  Na  Na7  1  0.01089125  0.43993675  0.60432952  1
  Na  Na8  1  0.96554361  0.81172582  0.65049430  1
  Na  Na9  1  0.46554361  0.18827418  0.84950570  1
  Na  Na10  1  0.03445639  0.18827418  0.34950570  1
  Na  Na11  1  0.53445639  0.81172582  0.15049430  1
  Na  Na12  1  0.84705114  0.61709621  0.04629004  1
  Na  Na13  1  0.34705114  0.38290379  0.45370996  1
  Na  Na14  1  0.15294886  0.38290379  0.95370996  1
  Na  Na15  1  0.65294886  0.61709621  0.54629004  1
  Na  Na16  1  0.97671118  0.06536802  0.89461068  1
  Na  Na17  1  0.47671118  0.93463198  0.60538932  1
  Na  Na18  1  0.02328882  0.93463198  0.10538932  1
  Na  Na19  1  0.52328882  0.06536802  0.39461068  1
  Na  Na20  1  0.00425461  0.68020479  0.86325260  1
  Na  Na21  1  0.50425461  0.31979521  0.63674740  1
  Na  Na22  1  0.99574539  0.31979521  0.13674740  1
  Na  Na23  1  0.49574539  0.68020479  0.36325260  1
  P  P24  1  0.21808856  0.12646973  0.52313667  1
  P  P25  1  0.71808856  0.87353027  0.97686333  1
  P  P26  1  0.78191144  0.87353027  0.47686333  1
  P  P27  1  0.28191144  0.12646973  0.02313667  1
  P  P28  1  0.70507101  0.59295336  0.72607291  1
  P  P29  1  0.20507101  0.40704664  0.77392709  1
  P  P30  1  0.29492899  0.40704664  0.27392709  1
  P  P31  1  0.79492899  0.59295336  0.22607291  1
  P  P32  1  0.76276170  0.34755299  0.95813379  1
  P  P33  1  0.26276170  0.65244701  0.54186621  1
  P  P34  1  0.23723830  0.65244701  0.04186621  1
  P  P35  1  0.73723830  0.34755299  0.45813379  1
  P  P36  1  0.75933939  0.12511399  0.70575723  1
  P  P37  1  0.25933939  0.87488601  0.79424277  1
  P  P38  1  0.24066061  0.87488601  0.29424277  1
  P  P39  1  0.74066061  0.12511399  0.20575723  1
  In  In40  1  0.64139203  0.12627350  0.04095859  1
  In  In41  1  0.14139203  0.87372650  0.45904141  1
  In  In42  1  0.35860797  0.87372650  0.95904141  1
  In  In43  1  0.85860797  0.12627350  0.54095859  1
  In  In44  1  0.65563679  0.36347661  0.28962188  1
  In  In45  1  0.15563679  0.63652339  0.21037812  1
  In  In46  1  0.34436321  0.63652339  0.71037812  1
  In  In47  1  0.84436321  0.36347661  0.78962188  1
