# generated using pymatgen
data_CaInRh
_symmetry_space_group_name_H-M   'P 1'
_cell_length_a   4.36485321
_cell_length_b   7.34857174
_cell_length_c   8.38801524
_cell_angle_alpha   90.00000000
_cell_angle_beta   90.00000000
_cell_angle_gamma   90.00000000
_symmetry_Int_Tables_number   1
_chemical_formula_structural   CaInRh
_chemical_formula_sum   'Ca4 In4 Rh4'
_cell_volume   269.04925395
_cell_formula_units_Z   4
loop_
 _symmetry_equiv_pos_site_id
 _symmetry_equiv_pos_as_xyz
  1  'x, y, z'
loop_
 _atom_site_type_symbol
 _atom_site_label
 _atom_site_symmetry_multiplicity
 _atom_site_fract_x
 _atom_site_fract_y
 _atom_site_fract_z
 _atom_site_occupancy
  Ca  Ca0  1  0.75000000  0.97517167  0.32363541  1
  Ca  Ca1  1  0.25000000  0.02482833  0.67636459  1
  Ca  Ca2  1  0.75000000  0.47517167  0.17636459  1
  Ca  Ca3  1  0.25000000  0.52482833  0.82363541  1
  Rh  Rh4  1  0.75000000  0.72312069  0.62445872  1
  Rh  Rh5  1  0.25000000  0.27687931  0.37554128  1
  Rh  Rh6  1  0.75000000  0.22312069  0.87554128  1
  Rh  Rh7  1  0.25000000  0.77687931  0.12445872  1
  In  In8  1  0.75000000  0.84934493  0.93351164  1
  In  In9  1  0.25000000  0.15065507  0.06648836  1
  In  In10  1  0.75000000  0.34934493  0.56648836  1
  In  In11  1  0.25000000  0.65065507  0.43351164  1
