# generated using pymatgen
data_GdCuSn
_symmetry_space_group_name_H-M   'P 1'
_cell_length_a   4.56587472
_cell_length_b   4.56587472
_cell_length_c   7.32679566
_cell_angle_alpha   90.00000000
_cell_angle_beta   90.00000000
_cell_angle_gamma   119.99999999
_symmetry_Int_Tables_number   1
_chemical_formula_structural   GdCuSn
_chemical_formula_sum   'Gd2 Cu2 Sn2'
_cell_volume   132.27954530
_cell_formula_units_Z   2
loop_
 _symmetry_equiv_pos_site_id
 _symmetry_equiv_pos_as_xyz
  1  'x, y, z'
loop_
 _atom_site_type_symbol
 _atom_site_label
 _atom_site_symmetry_multiplicity
 _atom_site_fract_x
 _atom_site_fract_y
 _atom_site_fract_z
 _atom_site_occupancy
  Cu  Cu0  1  0.66666667  0.33333333  0.31253655  1
  Cu  Cu1  1  0.33333333  0.66666667  0.81253655  1
  Sn  Sn2  1  0.33333333  0.66666667  0.23098019  1
  Sn  Sn3  1  0.66666667  0.33333333  0.73098019  1
  Gd  Gd4  1  0.00000000  0.00000000  0.49968326  1
  Gd  Gd5  1  0.00000000  0.00000000  -0.00031674  1
