# generated using pymatgen
data_Yb2Cu2O5
_symmetry_space_group_name_H-M   'P 1'
_cell_length_a   3.49334768
_cell_length_b   10.48215278
_cell_length_c   12.57077552
_cell_angle_alpha   90.00000000
_cell_angle_beta   90.00000000
_cell_angle_gamma   90.00000000
_symmetry_Int_Tables_number   1
_chemical_formula_structural   Yb2Cu2O5
_chemical_formula_sum   'Yb8 Cu8 O20'
_cell_volume   460.31419532
_cell_formula_units_Z   4
loop_
 _symmetry_equiv_pos_site_id
 _symmetry_equiv_pos_as_xyz
  1  'x, y, z'
loop_
 _atom_site_type_symbol
 _atom_site_label
 _atom_site_symmetry_multiplicity
 _atom_site_fract_x
 _atom_site_fract_y
 _atom_site_fract_z
 _atom_site_occupancy
  O  O0  1  0.32343725  0.93891545  0.01679750  1
  O  O1  1  0.67656275  0.06108455  0.51679750  1
  O  O2  1  0.17656275  0.43891545  0.01679750  1
  O  O3  1  0.82343725  0.56108455  0.51679750  1
  O  O4  1  0.66689629  0.91926015  0.24655938  1
  O  O5  1  0.33310371  0.08073985  0.74655938  1
  O  O6  1  0.83310371  0.41926015  0.24655938  1
  O  O7  1  0.16689629  0.58073985  0.74655938  1
  O  O8  1  0.14059095  0.62411989  0.33430395  1
  O  O9  1  0.85940905  0.37588011  0.83430395  1
  O  O10  1  0.35940905  0.12411989  0.33430395  1
  O  O11  1  0.64059095  0.87588011  0.83430395  1
  O  O12  1  0.84115627  0.83142284  0.42457043  1
  O  O13  1  0.15884373  0.16857716  0.92457043  1
  O  O14  1  0.65884373  0.33142284  0.42457043  1
  O  O15  1  0.34115627  0.66857716  0.92457043  1
  O  O16  1  0.32092825  0.81076421  0.65430078  1
  O  O17  1  0.67907175  0.18923579  0.15430078  1
  O  O18  1  0.17907175  0.31076421  0.65430078  1
  O  O19  1  0.82092825  0.68923579  0.15430078  1
  Cu  Cu20  1  0.86065191  0.76178943  0.28636429  1
  Cu  Cu21  1  0.13934809  0.23821057  0.78636429  1
  Cu  Cu22  1  0.63934809  0.26178943  0.28636429  1
  Cu  Cu23  1  0.36065191  0.73821057  0.78636429  1
  Cu  Cu24  1  0.85671523  0.48829468  0.38426157  1
  Cu  Cu25  1  0.14328477  0.51170532  0.88426157  1
  Cu  Cu26  1  0.64328477  0.98829468  0.38426157  1
  Cu  Cu27  1  0.35671523  0.01170532  0.88426157  1
  Yb  Yb28  1  0.31833773  0.54645467  0.16754188  1
  Yb  Yb29  1  0.68166227  0.45354533  0.66754188  1
  Yb  Yb30  1  0.18166227  0.04645467  0.16754188  1
  Yb  Yb31  1  0.81833773  0.95354533  0.66754188  1
  Yb  Yb32  1  0.32308014  0.70392073  0.49990023  1
  Yb  Yb33  1  0.67691986  0.29607927  -0.00009977  1
  Yb  Yb34  1  0.17691986  0.20392073  0.49990023  1
  Yb  Yb35  1  0.82308014  0.79607927  -0.00009977  1
