# generated using pymatgen
data_Y6Te2Rh
_symmetry_space_group_name_H-M   'P 1'
_cell_length_a   4.02410857
_cell_length_b   11.54528426
_cell_length_c   21.88124857
_cell_angle_alpha   90.00000000
_cell_angle_beta   90.00000000
_cell_angle_gamma   90.00000000
_symmetry_Int_Tables_number   1
_chemical_formula_structural   Y6Te2Rh
_chemical_formula_sum   'Y24 Te8 Rh4'
_cell_volume   1016.59137197
_cell_formula_units_Z   4
loop_
 _symmetry_equiv_pos_site_id
 _symmetry_equiv_pos_as_xyz
  1  'x, y, z'
loop_
 _atom_site_type_symbol
 _atom_site_label
 _atom_site_symmetry_multiplicity
 _atom_site_fract_x
 _atom_site_fract_y
 _atom_site_fract_z
 _atom_site_occupancy
  Y  Y0  1  0.25000000  0.31657367  0.10960922  1
  Y  Y1  1  0.75000000  0.68342633  0.89039078  1
  Y  Y2  1  0.75000000  0.81657367  0.39039078  1
  Y  Y3  1  0.25000000  0.18342633  0.60960922  1
  Y  Y4  1  0.25000000  0.03681663  0.15092289  1
  Y  Y5  1  0.75000000  0.96318337  0.84907711  1
  Y  Y6  1  0.75000000  0.53681663  0.34907711  1
  Y  Y7  1  0.25000000  0.46318337  0.65092289  1
  Y  Y8  1  0.25000000  0.74616758  0.26556386  1
  Y  Y9  1  0.75000000  0.25383242  0.73443614  1
  Y  Y10  1  0.75000000  0.24616758  0.23443614  1
  Y  Y11  1  0.25000000  0.75383242  0.76556386  1
  Y  Y12  1  0.25000000  0.38011699  0.47747012  1
  Y  Y13  1  0.75000000  0.61988301  0.52252988  1
  Y  Y14  1  0.75000000  0.88011699  0.02252988  1
  Y  Y15  1  0.25000000  0.11988301  0.97747012  1
  Y  Y16  1  0.25000000  0.06933782  0.35517858  1
  Y  Y17  1  0.75000000  0.93066218  0.64482142  1
  Y  Y18  1  0.75000000  0.56933782  0.14482142  1
  Y  Y19  1  0.25000000  0.43066218  0.85517858  1
  Y  Y20  1  0.25000000  0.61745362  0.00860223  1
  Y  Y21  1  0.75000000  0.38254638  0.99139777  1
  Y  Y22  1  0.75000000  0.11745362  0.49139777  1
  Y  Y23  1  0.25000000  0.88254638  0.50860223  1
  Rh  Rh24  1  0.25000000  0.64698521  0.42767553  1
  Rh  Rh25  1  0.75000000  0.35301479  0.57232447  1
  Rh  Rh26  1  0.75000000  0.14698521  0.07232447  1
  Rh  Rh27  1  0.25000000  0.85301479  0.92767553  1
  Te  Te28  1  0.25000000  0.46347015  0.23967374  1
  Te  Te29  1  0.75000000  0.53652985  0.76032626  1
  Te  Te30  1  0.75000000  0.96347015  0.26032626  1
  Te  Te31  1  0.25000000  0.03652985  0.73967374  1
  Te  Te32  1  0.25000000  0.77228253  0.12617726  1
  Te  Te33  1  0.75000000  0.22771747  0.87382274  1
  Te  Te34  1  0.75000000  0.27228253  0.37382274  1
  Te  Te35  1  0.25000000  0.72771747  0.62617726  1
