# generated using pymatgen
data_Eu2Si2O7
_symmetry_space_group_name_H-M   'P 1'
_cell_length_a   5.14600471
_cell_length_b   8.46794588
_cell_length_c   14.21016835
_cell_angle_alpha   90.00000000
_cell_angle_beta   90.00000000
_cell_angle_gamma   90.00000000
_symmetry_Int_Tables_number   1
_chemical_formula_structural   Eu2Si2O7
_chemical_formula_sum   'Eu8 Si8 O28'
_cell_volume   619.22356616
_cell_formula_units_Z   4
loop_
 _symmetry_equiv_pos_site_id
 _symmetry_equiv_pos_as_xyz
  1  'x, y, z'
loop_
 _atom_site_type_symbol
 _atom_site_label
 _atom_site_symmetry_multiplicity
 _atom_site_fract_x
 _atom_site_fract_y
 _atom_site_fract_z
 _atom_site_occupancy
  O  O0  1  0.85572914  0.75086021  0.90210967  1
  O  O1  1  0.14427086  0.25086021  0.09789033  1
  O  O2  1  0.64427086  0.75086021  0.40210967  1
  O  O3  1  0.35572914  0.25086021  0.59789033  1
  O  O4  1  0.28709775  0.91583325  0.95543590  1
  O  O5  1  0.71290225  0.41583325  0.04456410  1
  O  O6  1  0.21290225  0.91583325  0.45543590  1
  O  O7  1  0.78709775  0.41583325  0.54456410  1
  O  O8  1  0.28999013  0.58804345  0.95458337  1
  O  O9  1  0.71000987  0.08804345  0.04541663  1
  O  O10  1  0.21000987  0.58804345  0.45458337  1
  O  O11  1  0.78999013  0.08804345  0.54541663  1
  O  O12  1  0.05309234  0.75058619  0.07949043  1
  O  O13  1  0.94690766  0.25058619  0.92050957  1
  O  O14  1  0.44690766  0.75058619  0.57949043  1
  O  O15  1  0.55309234  0.25058619  0.42050957  1
  O  O16  1  0.47826437  0.08937836  0.27065713  1
  O  O17  1  0.52173563  0.58937836  0.72934287  1
  O  O18  1  0.02173563  0.08937836  0.77065713  1
  O  O19  1  0.97826437  0.58937836  0.22934287  1
  O  O20  1  0.47904918  0.40953853  0.26963006  1
  O  O21  1  0.52095082  0.90953853  0.73036994  1
  O  O22  1  0.02095082  0.40953853  0.76963006  1
  O  O23  1  0.97904918  0.90953853  0.23036994  1
  O  O24  1  0.06567167  0.25051574  0.34513525  1
  O  O25  1  0.93432833  0.75051574  0.65486475  1
  O  O26  1  0.43432833  0.25051574  0.84513525  1
  O  O27  1  0.56567167  0.75051574  0.15486475  1
  Si  Si28  1  0.12322865  0.75129160  0.96373086  1
  Si  Si29  1  0.87677135  0.25129160  0.03626914  1
  Si  Si30  1  0.37677135  0.75129160  0.46373086  1
  Si  Si31  1  0.62322865  0.25129160  0.53626914  1
  Si  Si32  1  0.87439632  0.75001183  0.17792798  1
  Si  Si33  1  0.12560368  0.25001183  0.82207202  1
  Si  Si34  1  0.62560368  0.75001183  0.67792798  1
  Si  Si35  1  0.37439632  0.25001183  0.32207202  1
  Eu  Eu36  1  0.84161385  0.00590646  0.37464394  1
  Eu  Eu37  1  0.15838615  0.50590646  0.62535606  1
  Eu  Eu38  1  0.65838615  0.00590646  0.87464394  1
  Eu  Eu39  1  0.34161385  0.50590646  0.12535606  1
  Eu  Eu40  1  0.84052431  0.49534440  0.37399578  1
  Eu  Eu41  1  0.15947569  0.99534440  0.62600422  1
  Eu  Eu42  1  0.65947569  0.49534440  0.87399578  1
  Eu  Eu43  1  0.34052431  0.99534440  0.12600422  1
