# generated using pymatgen
data_Li3FeOF3
_symmetry_space_group_name_H-M   'P 1'
_cell_length_a   5.13199129
_cell_length_b   6.08458512
_cell_length_c   9.91296017
_cell_angle_alpha   90.00000000
_cell_angle_beta   78.59647625
_cell_angle_gamma   90.00000000
_symmetry_Int_Tables_number   1
_chemical_formula_structural   Li3FeOF3
_chemical_formula_sum   'Li12 Fe4 O4 F12'
_cell_volume   303.43179673
_cell_formula_units_Z   4
loop_
 _symmetry_equiv_pos_site_id
 _symmetry_equiv_pos_as_xyz
  1  'x, y, z'
loop_
 _atom_site_type_symbol
 _atom_site_label
 _atom_site_symmetry_multiplicity
 _atom_site_fract_x
 _atom_site_fract_y
 _atom_site_fract_z
 _atom_site_occupancy
  Li  Li0  1  0.96764298  0.12318714  0.24617412  1
  Li  Li1  1  0.99944862  0.63177300  0.24281036  1
  Li  Li2  1  0.99944862  0.36822700  0.74281036  1
  Li  Li3  1  0.96764298  0.87681286  0.74617412  1
  Li  Li4  1  0.25000000  0.38435541  0.00000000  1
  Li  Li5  1  0.25000000  0.61564459  0.50000000  1
  Li  Li6  1  0.53235702  0.87681286  0.25382588  1
  Li  Li7  1  0.50055138  0.36822700  0.25718964  1
  Li  Li8  1  0.53235702  0.12318714  0.75382588  1
  Li  Li9  1  0.50055138  0.63177300  0.75718964  1
  Li  Li10  1  0.75000000  0.63495335  0.00000000  1
  Li  Li11  1  0.75000000  0.36504665  0.50000000  1
  Fe  Fe12  1  0.25000000  0.86830683  0.00000000  1
  Fe  Fe13  1  0.25000000  0.13169317  0.50000000  1
  Fe  Fe14  1  0.75000000  0.10242027  0.00000000  1
  Fe  Fe15  1  0.75000000  0.89757973  0.50000000  1
  O  O16  1  0.60955487  0.12696583  0.38086289  1
  O  O17  1  0.60955487  0.87303417  0.88086289  1
  O  O18  1  0.89044513  0.87303417  0.11913711  1
  O  O19  1  0.89044513  0.12696583  0.61913711  1
  F  F20  1  0.13948138  0.85343289  0.36887033  1
  F  F21  1  0.12181171  0.39326805  0.37087563  1
  F  F22  1  0.13948138  0.14656711  0.86887033  1
  F  F23  1  0.37818829  0.60673195  0.12912437  1
  F  F24  1  0.12181171  0.60673195  0.87087563  1
  F  F25  1  0.36051862  0.14656711  0.13112967  1
  F  F26  1  0.37818829  0.39326805  0.62912437  1
  F  F27  1  0.36051862  0.85343289  0.63112967  1
  F  F28  1  0.62765049  0.62574437  0.38003729  1
  F  F29  1  0.87234951  0.37425563  0.11996271  1
  F  F30  1  0.62765049  0.37425563  0.88003729  1
  F  F31  1  0.87234951  0.62574437  0.61996271  1
