# generated using pymatgen
data_Y2(Ga3Co)3
_symmetry_space_group_name_H-M   'P 1'
_cell_length_a   7.37468563
_cell_length_b   7.37468563
_cell_length_c   9.46164113
_cell_angle_alpha   90.00000000
_cell_angle_beta   90.00000000
_cell_angle_gamma   119.81569510
_symmetry_Int_Tables_number   1
_chemical_formula_structural   Y2(Ga3Co)3
_chemical_formula_sum   'Y4 Ga18 Co6'
_cell_volume   446.46528638
_cell_formula_units_Z   2
loop_
 _symmetry_equiv_pos_site_id
 _symmetry_equiv_pos_as_xyz
  1  'x, y, z'
loop_
 _atom_site_type_symbol
 _atom_site_label
 _atom_site_symmetry_multiplicity
 _atom_site_fract_x
 _atom_site_fract_y
 _atom_site_fract_z
 _atom_site_occupancy
  Co  Co0  1  0.32905385  0.67094615  0.00000000  1
  Co  Co1  1  0.67094615  0.32905385  0.50000000  1
  Co  Co2  1  0.67094615  0.32905385  0.00000000  1
  Co  Co3  1  0.32905385  0.67094615  0.50000000  1
  Co  Co4  1  0.00000000  0.00000000  0.00000000  1
  Co  Co5  1  0.00000000  0.00000000  0.50000000  1
  Ga  Ga6  1  0.66597249  0.99945376  0.07136205  1
  Ga  Ga7  1  0.99945376  0.66597249  0.42863795  1
  Ga  Ga8  1  0.66597249  0.99945376  0.42863795  1
  Ga  Ga9  1  0.33402751  0.00054624  0.92863795  1
  Ga  Ga10  1  0.99945376  0.66597249  0.07136205  1
  Ga  Ga11  1  0.00054624  0.33402751  0.92863795  1
  Ga  Ga12  1  0.66587830  0.66587830  0.55734094  1
  Ga  Ga13  1  0.33412170  0.33412170  0.05734094  1
  Ga  Ga14  1  0.66587830  0.66587830  0.94265906  1
  Ga  Ga15  1  0.33412170  0.33412170  0.44265906  1
  Ga  Ga16  1  0.12127841  0.12127841  0.75000000  1
  Ga  Ga17  1  0.87872159  0.87872159  0.25000000  1
  Ga  Ga18  1  0.45044080  0.66377141  0.25000000  1
  Ga  Ga19  1  0.54955920  0.33622859  0.75000000  1
  Ga  Ga20  1  0.66377141  0.45044080  0.25000000  1
  Ga  Ga21  1  0.33622859  0.54955920  0.75000000  1
  Ga  Ga22  1  0.00054624  0.33402751  0.57136205  1
  Ga  Ga23  1  0.33402751  0.00054624  0.57136205  1
  Y  Y24  1  0.99682738  0.66811028  0.75000000  1
  Y  Y25  1  0.00317262  0.33188972  0.25000000  1
  Y  Y26  1  0.66811028  0.99682738  0.75000000  1
  Y  Y27  1  0.33188972  0.00317262  0.25000000  1
