# generated using pymatgen
data_EuPS3
_symmetry_space_group_name_H-M   'P 1'
_cell_length_a   6.69120093
_cell_length_b   7.56796138
_cell_length_c   11.34753472
_cell_angle_alpha   90.00000000
_cell_angle_beta   124.25962854
_cell_angle_gamma   90.00000000
_symmetry_Int_Tables_number   1
_chemical_formula_structural   EuPS3
_chemical_formula_sum   'Eu4 P4 S12'
_cell_volume   474.92476045
_cell_formula_units_Z   4
loop_
 _symmetry_equiv_pos_site_id
 _symmetry_equiv_pos_as_xyz
  1  'x, y, z'
loop_
 _atom_site_type_symbol
 _atom_site_label
 _atom_site_symmetry_multiplicity
 _atom_site_fract_x
 _atom_site_fract_y
 _atom_site_fract_z
 _atom_site_occupancy
  Eu  Eu0  1  0.57516300  0.86633212  0.51572385  1
  Eu  Eu1  1  0.57516300  0.13366788  0.01572385  1
  Eu  Eu2  1  0.15273901  0.36826616  0.51655442  1
  Eu  Eu3  1  0.15273901  0.63173384  0.01655442  1
  P  P4  1  0.49301177  0.64433004  0.83114123  1
  P  P5  1  0.49301177  0.35566996  0.33114123  1
  P  P6  1  0.23374240  0.86032394  0.69954571  1
  P  P7  1  0.23374240  0.13967606  0.19954571  1
  S  S8  1  0.73088391  0.74971781  0.02653912  1
  S  S9  1  0.73088391  0.25028219  0.52653912  1
  S  S10  1  0.64205652  0.56225283  0.72542200  1
  S  S11  1  0.64205652  0.43774717  0.22542200  1
  S  S12  1  0.27521022  0.45007676  0.82557158  1
  S  S13  1  0.27521022  0.54992324  0.32557158  1
  S  S14  1  0.99717262  0.75379720  0.50434792  1
  S  S15  1  0.99717262  0.24620280  0.00434792  1
  S  S16  1  0.08462437  0.94163779  0.80518008  1
  S  S17  1  0.08462437  0.05836221  0.30518008  1
  S  S18  1  0.45239619  0.94637381  0.20497410  1
  S  S19  1  0.45239619  0.05362619  0.70497410  1
