# generated using pymatgen
data_UGeIr
_symmetry_space_group_name_H-M   'P 1'
_cell_length_a   4.36749967
_cell_length_b   6.67557229
_cell_length_c   7.71541100
_cell_angle_alpha   90.00000000
_cell_angle_beta   90.00000000
_cell_angle_gamma   90.00000000
_symmetry_Int_Tables_number   1
_chemical_formula_structural   UGeIr
_chemical_formula_sum   'U4 Ge4 Ir4'
_cell_volume   224.94712659
_cell_formula_units_Z   4
loop_
 _symmetry_equiv_pos_site_id
 _symmetry_equiv_pos_as_xyz
  1  'x, y, z'
loop_
 _atom_site_type_symbol
 _atom_site_label
 _atom_site_symmetry_multiplicity
 _atom_site_fract_x
 _atom_site_fract_y
 _atom_site_fract_z
 _atom_site_occupancy
  Ge  Ge0  1  0.25000000  0.81936118  0.08441191  1
  Ge  Ge1  1  0.75000000  0.18063882  0.91558809  1
  Ge  Ge2  1  0.25000000  0.31936118  0.41558809  1
  Ge  Ge3  1  0.75000000  0.68063882  0.58441191  1
  Ir  Ir4  1  0.75000000  0.77128702  0.91407341  1
  Ir  Ir5  1  0.25000000  0.22871298  0.08592659  1
  Ir  Ir6  1  0.75000000  0.27128702  0.58592659  1
  Ir  Ir7  1  0.25000000  0.72871298  0.41407341  1
  U  U8  1  0.25000000  0.49181878  0.79679063  1
  U  U9  1  0.75000000  0.50818122  0.20320937  1
  U  U10  1  0.25000000  0.99181878  0.70320937  1
  U  U11  1  0.75000000  0.00818122  0.29679063  1
