# generated using pymatgen
data_Ce3(InRu)2
_symmetry_space_group_name_H-M   'P 1'
_cell_length_a   4.95124639
_cell_length_b   7.70979530
_cell_length_c   17.41538946
_cell_angle_alpha   90.00000000
_cell_angle_beta   90.00000000
_cell_angle_gamma   90.00000000
_symmetry_Int_Tables_number   1
_chemical_formula_structural   Ce3(InRu)2
_chemical_formula_sum   'Ce12 In8 Ru8'
_cell_volume   664.79933629
_cell_formula_units_Z   4
loop_
 _symmetry_equiv_pos_site_id
 _symmetry_equiv_pos_as_xyz
  1  'x, y, z'
loop_
 _atom_site_type_symbol
 _atom_site_label
 _atom_site_symmetry_multiplicity
 _atom_site_fract_x
 _atom_site_fract_y
 _atom_site_fract_z
 _atom_site_occupancy
  Ru  Ru0  1  0.75000000  0.52255416  0.20779093  1
  Ru  Ru1  1  0.75000000  0.97744584  0.70779093  1
  Ru  Ru2  1  0.25000000  0.02255416  0.29220907  1
  Ru  Ru3  1  0.25000000  0.28010122  0.54520458  1
  Ru  Ru4  1  0.75000000  0.71989878  0.45479542  1
  Ru  Ru5  1  0.75000000  0.78010122  0.95479542  1
  Ru  Ru6  1  0.25000000  0.21989878  0.04520458  1
  Ru  Ru7  1  0.25000000  0.47744584  0.79220907  1
  In  In8  1  0.75000000  0.29087451  0.80108148  1
  In  In9  1  0.75000000  0.20912549  0.30108148  1
  In  In10  1  0.25000000  0.79087451  0.69891852  1
  In  In11  1  0.25000000  0.83902894  0.03019196  1
  In  In12  1  0.75000000  0.16097106  0.96980804  1
  In  In13  1  0.75000000  0.33902894  0.46980804  1
  In  In14  1  0.25000000  0.66097106  0.53019196  1
  In  In15  1  0.25000000  0.70912549  0.19891852  1
  Ce  Ce16  1  0.25000000  0.27350299  0.17381677  1
  Ce  Ce17  1  0.75000000  0.72649701  0.82618323  1
  Ce  Ce18  1  0.75000000  0.77350299  0.32618323  1
  Ce  Ce19  1  0.25000000  0.22649701  0.67381677  1
  Ce  Ce20  1  0.25000000  0.48953743  0.92533082  1
  Ce  Ce21  1  0.75000000  0.51046257  0.07466918  1
  Ce  Ce22  1  0.75000000  0.98953743  0.57466918  1
  Ce  Ce23  1  0.25000000  0.01046257  0.42533082  1
  Ce  Ce24  1  0.25000000  0.03478191  0.86381485  1
  Ce  Ce25  1  0.75000000  0.96521809  0.13618515  1
  Ce  Ce26  1  0.75000000  0.53478191  0.63618515  1
  Ce  Ce27  1  0.25000000  0.46521809  0.36381485  1
