# generated using pymatgen
data_La2Ge2O7
_symmetry_space_group_name_H-M   'P 1'
_cell_length_a   7.08387640
_cell_length_b   7.13138333
_cell_length_c   12.91356172
_cell_angle_alpha   94.09990845
_cell_angle_beta   90.38095712
_cell_angle_gamma   91.01095216
_symmetry_Int_Tables_number   1
_chemical_formula_structural   La2Ge2O7
_chemical_formula_sum   'La8 Ge8 O28'
_cell_volume   650.57399744
_cell_formula_units_Z   4
loop_
 _symmetry_equiv_pos_site_id
 _symmetry_equiv_pos_as_xyz
  1  'x, y, z'
loop_
 _atom_site_type_symbol
 _atom_site_label
 _atom_site_symmetry_multiplicity
 _atom_site_fract_x
 _atom_site_fract_y
 _atom_site_fract_z
 _atom_site_occupancy
  O  O0  1  0.00506377  0.01381614  0.18319707  1
  O  O1  1  0.99493623  0.98618386  0.81680293  1
  O  O2  1  0.00773624  0.66813587  0.07871027  1
  O  O3  1  0.99226376  0.33186413  0.92128973  1
  O  O4  1  0.65257544  0.78421046  0.19207440  1
  O  O5  1  0.34742456  0.21578954  0.80792560  1
  O  O6  1  0.75106305  0.90307735  0.99557827  1
  O  O7  1  0.24893695  0.09692265  0.00442173  1
  O  O8  1  0.92657935  0.58664880  0.68467757  1
  O  O9  1  0.07342065  0.41335120  0.31532243  1
  O  O10  1  0.03537613  0.22729147  0.56856220  1
  O  O11  1  0.96462387  0.77270853  0.43143780  1
  O  O12  1  0.70776882  0.22011120  0.68319521  1
  O  O13  1  0.29223118  0.77988880  0.31680479  1
  O  O14  1  0.70200124  0.43397392  0.50610064  1
  O  O15  1  0.29799876  0.56602608  0.49389936  1
  O  O16  1  0.64655886  0.50884545  0.87377854  1
  O  O17  1  0.35344114  0.49115455  0.12622146  1
  O  O18  1  0.62824311  0.86467235  0.78945221  1
  O  O19  1  0.37175689  0.13532765  0.21054779  1
  O  O20  1  0.29842182  0.71750465  0.91084792  1
  O  O21  1  0.70157818  0.28249535  0.08915208  1
  O  O22  1  0.39514806  0.57739261  0.69883709  1
  O  O23  1  0.60485194  0.42260739  0.30116291  1
  O  O24  1  0.58737026  0.83541610  0.55433555  1
  O  O25  1  0.41262974  0.16458390  0.44566445  1
  O  O26  1  0.22322506  0.92051189  0.62152644  1
  O  O27  1  0.77677494  0.07948811  0.37847356  1
  Ge  Ge28  1  0.85286941  0.37824747  0.61509850  1
  Ge  Ge29  1  0.14713059  0.62175253  0.38490150  1
  Ge  Ge30  1  0.62416347  0.26415654  0.40271950  1
  Ge  Ge31  1  0.37583653  0.73584346  0.59728050  1
  Ge  Ge32  1  0.51052070  0.32699016  0.17218101  1
  Ge  Ge33  1  0.48947930  0.67300984  0.82781899  1
  Ge  Ge34  1  0.84409295  0.85185194  0.11723463  1
  Ge  Ge35  1  0.15590705  0.14814806  0.88276537  1
  La  La36  1  0.33360636  0.82875417  0.10679610  1
  La  La37  1  0.66639364  0.17124583  0.89320390  1
  La  La38  1  0.63356400  0.76188312  0.37139334  1
  La  La39  1  0.36643600  0.23811688  0.62860666  1
  La  La40  1  0.11848451  0.08645446  0.36020435  1
  La  La41  1  0.88151549  0.91354554  0.63979565  1
  La  La42  1  0.05121184  0.33169721  0.11666497  1
  La  La43  1  0.94878816  0.66830279  0.88333503  1
