# generated using pymatgen
data_P3Pb5O12F
_symmetry_space_group_name_H-M   'P 1'
_cell_length_a   10.02957344
_cell_length_b   10.02957350
_cell_length_c   7.48452150
_cell_angle_alpha   90.00000000
_cell_angle_beta   90.00000000
_cell_angle_gamma   119.99999985
_symmetry_Int_Tables_number   1
_chemical_formula_structural   P3Pb5O12F
_chemical_formula_sum   'P6 Pb10 O24 F2'
_cell_volume   652.01802300
_cell_formula_units_Z   2
loop_
 _symmetry_equiv_pos_site_id
 _symmetry_equiv_pos_as_xyz
  1  'x, y, z'
loop_
 _atom_site_type_symbol
 _atom_site_label
 _atom_site_symmetry_multiplicity
 _atom_site_fract_x
 _atom_site_fract_y
 _atom_site_fract_z
 _atom_site_occupancy
  P  P0  1  0.62904535  0.02997476  0.25000000  1
  P  P1  1  0.97002524  0.59907059  0.25000000  1
  P  P2  1  0.37095465  0.97002524  0.75000000  1
  P  P3  1  0.02997476  0.40092941  0.75000000  1
  P  P4  1  0.40092941  0.37095465  0.25000000  1
  P  P5  1  0.59907059  0.62904535  0.75000000  1
  Pb  Pb6  1  0.66666700  0.33333300  0.50232783  1
  Pb  Pb7  1  0.66666700  0.33333300  0.99767217  1
  Pb  Pb8  1  0.99538245  0.24562156  0.25000000  1
  Pb  Pb9  1  0.75437844  0.74976090  0.25000000  1
  Pb  Pb10  1  0.33333300  0.66666700  0.00232783  1
  Pb  Pb11  1  0.25023910  0.00461755  0.25000000  1
  Pb  Pb12  1  0.24562156  0.25023910  0.75000000  1
  Pb  Pb13  1  0.74976090  0.99538245  0.75000000  1
  Pb  Pb14  1  0.00461755  0.75437844  0.75000000  1
  Pb  Pb15  1  0.33333300  0.66666700  0.49767217  1
  O  O16  1  0.58210345  0.46356496  0.25000000  1
  O  O17  1  0.41789655  0.53643504  0.75000000  1
  O  O18  1  0.08341317  0.34697386  0.58239720  1
  O  O19  1  0.91658683  0.65302614  0.08239720  1
  O  O20  1  0.26356069  0.91658683  0.58239720  1
  O  O21  1  0.73643931  0.08341317  0.41760280  1
  O  O22  1  0.65302614  0.73643931  0.91760280  1
  O  O23  1  0.66299689  0.51665012  0.75000000  1
  O  O24  1  0.48334988  0.14634677  0.75000000  1
  O  O25  1  0.53643504  0.11853849  0.25000000  1
  O  O26  1  0.33700311  0.48334988  0.25000000  1
  O  O27  1  0.51665012  0.85365323  0.25000000  1
  O  O28  1  0.34697386  0.26356069  0.41760280  1
  O  O29  1  0.88146151  0.41789655  0.25000000  1
  O  O30  1  0.65302614  0.73643931  0.58239720  1
  O  O31  1  0.26356069  0.91658683  0.91760280  1
  O  O32  1  0.11853849  0.58210345  0.75000000  1
  O  O33  1  0.08341317  0.34697386  0.91760280  1
  O  O34  1  0.46356496  0.88146151  0.75000000  1
  O  O35  1  0.91658683  0.65302614  0.41760280  1
  O  O36  1  0.73643931  0.08341317  0.08239720  1
  O  O37  1  0.14634677  0.66299689  0.25000000  1
  O  O38  1  0.34697386  0.26356069  0.08239720  1
  O  O39  1  0.85365323  0.33700311  0.75000000  1
  F  F40  1  0.00000000  0.00000000  0.25000000  1
  F  F41  1  0.00000000  0.00000000  0.75000000  1
