# generated using pymatgen
data_SmMgIn
_symmetry_space_group_name_H-M   'P 1'
_cell_length_a   7.66071359
_cell_length_b   7.66071359
_cell_length_c   4.74043438
_cell_angle_alpha   90.00000000
_cell_angle_beta   90.00000000
_cell_angle_gamma   120.00000003
_symmetry_Int_Tables_number   1
_chemical_formula_structural   SmMgIn
_chemical_formula_sum   'Sm3 Mg3 In3'
_cell_volume   240.92797054
_cell_formula_units_Z   3
loop_
 _symmetry_equiv_pos_site_id
 _symmetry_equiv_pos_as_xyz
  1  'x, y, z'
loop_
 _atom_site_type_symbol
 _atom_site_label
 _atom_site_symmetry_multiplicity
 _atom_site_fract_x
 _atom_site_fract_y
 _atom_site_fract_z
 _atom_site_occupancy
  Mg  Mg0  1  0.75776424  0.75776424  0.50000000  1
  Mg  Mg1  1  0.24223576  0.00000000  0.50000000  1
  Mg  Mg2  1  0.00000000  0.24223576  0.50000000  1
  In  In3  1  0.66666667  0.33333333  0.50000000  1
  In  In4  1  0.00000000  0.00000000  0.00000000  1
  In  In5  1  0.33333333  0.66666667  0.50000000  1
  Sm  Sm6  1  0.00000000  0.56827255  0.00000000  1
  Sm  Sm7  1  0.43172745  0.43172745  0.00000000  1
  Sm  Sm8  1  0.56827255  0.00000000  0.00000000  1
