# generated using pymatgen
data_CeSnPd
_symmetry_space_group_name_H-M   'P 1'
_cell_length_a   4.72787233
_cell_length_b   7.46090339
_cell_length_c   7.99922326
_cell_angle_alpha   90.00000000
_cell_angle_beta   90.00000000
_cell_angle_gamma   90.00000000
_symmetry_Int_Tables_number   1
_chemical_formula_structural   CeSnPd
_chemical_formula_sum   'Ce4 Sn4 Pd4'
_cell_volume   282.16619067
_cell_formula_units_Z   4
loop_
 _symmetry_equiv_pos_site_id
 _symmetry_equiv_pos_as_xyz
  1  'x, y, z'
loop_
 _atom_site_type_symbol
 _atom_site_label
 _atom_site_symmetry_multiplicity
 _atom_site_fract_x
 _atom_site_fract_y
 _atom_site_fract_z
 _atom_site_occupancy
  Pd  Pd0  1  0.75000000  0.20676113  0.91733663  1
  Pd  Pd1  1  0.25000000  0.29323887  0.41733663  1
  Pd  Pd2  1  0.75000000  0.70676113  0.58266337  1
  Pd  Pd3  1  0.25000000  0.79323887  0.08266337  1
  Sn  Sn4  1  0.25000000  0.18923135  0.08816651  1
  Sn  Sn5  1  0.75000000  0.31076865  0.58816651  1
  Sn  Sn6  1  0.25000000  0.68923135  0.41183349  1
  Sn  Sn7  1  0.75000000  0.81076865  0.91183349  1
  Ce  Ce8  1  0.25000000  0.51266592  0.79479171  1
  Ce  Ce9  1  0.75000000  0.48733408  0.20520829  1
  Ce  Ce10  1  0.25000000  0.01266592  0.70520829  1
  Ce  Ce11  1  0.75000000  0.98733408  0.29479171  1
