# generated using pymatgen
data_KTiF4
_symmetry_space_group_name_H-M   'P 1'
_cell_length_a   7.81958633
_cell_length_b   8.00857048
_cell_length_c   12.50309780
_cell_angle_alpha   90.00000000
_cell_angle_beta   90.00000000
_cell_angle_gamma   90.00000000
_symmetry_Int_Tables_number   1
_chemical_formula_structural   KTiF4
_chemical_formula_sum   'K8 Ti8 F32'
_cell_volume   782.99034883
_cell_formula_units_Z   8
loop_
 _symmetry_equiv_pos_site_id
 _symmetry_equiv_pos_as_xyz
  1  'x, y, z'
loop_
 _atom_site_type_symbol
 _atom_site_label
 _atom_site_symmetry_multiplicity
 _atom_site_fract_x
 _atom_site_fract_y
 _atom_site_fract_z
 _atom_site_occupancy
  F  F0  1  0.25000000  0.84060545  0.21631162  1
  F  F1  1  0.75000000  0.15939455  0.78368838  1
  F  F2  1  0.75000000  0.34060545  0.28368838  1
  F  F3  1  0.25000000  0.65939455  0.71631162  1
  F  F4  1  0.25000000  0.40352498  0.21122051  1
  F  F5  1  0.75000000  0.59647502  0.78877949  1
  F  F6  1  0.75000000  0.90352498  0.28877949  1
  F  F7  1  0.25000000  0.09647502  0.71122051  1
  F  F8  1  0.53414767  0.87739702  0.74663688  1
  F  F9  1  0.03414767  0.12260298  0.25336312  1
  F  F10  1  0.46585233  0.37739702  0.75336312  1
  F  F11  1  0.96585233  0.62260298  0.24663688  1
  F  F12  1  0.46585233  0.12260298  0.25336312  1
  F  F13  1  0.96585233  0.87739702  0.74663688  1
  F  F14  1  0.53414767  0.62260298  0.24663688  1
  F  F15  1  0.03414767  0.37739702  0.75336312  1
  F  F16  1  0.05112169  0.11789673  0.89940096  1
  F  F17  1  0.55112169  0.88210327  0.10059904  1
  F  F18  1  0.94887831  0.61789673  0.60059904  1
  F  F19  1  0.44887831  0.38210327  0.39940096  1
  F  F20  1  0.94887831  0.88210327  0.10059904  1
  F  F21  1  0.44887831  0.11789673  0.89940096  1
  F  F22  1  0.05112169  0.38210327  0.39940096  1
  F  F23  1  0.55112169  0.61789673  0.60059904  1
  F  F24  1  0.04861705  0.63465867  0.90341637  1
  F  F25  1  0.54861705  0.36534133  0.09658363  1
  F  F26  1  0.95138295  0.13465867  0.59658363  1
  F  F27  1  0.45138295  0.86534133  0.40341637  1
  F  F28  1  0.95138295  0.36534133  0.09658363  1
  F  F29  1  0.45138295  0.63465867  0.90341637  1
  F  F30  1  0.04861705  0.86534133  0.40341637  1
  F  F31  1  0.54861705  0.13465867  0.59658363  1
  K  K32  1  0.25000000  0.87708677  0.98561298  1
  K  K33  1  0.75000000  0.12291323  0.01438702  1
  K  K34  1  0.75000000  0.37708677  0.51438702  1
  K  K35  1  0.25000000  0.62291323  0.48561298  1
  K  K36  1  0.25000000  0.37579694  0.97342473  1
  K  K37  1  0.75000000  0.62420306  0.02657527  1
  K  K38  1  0.75000000  0.87579694  0.52657527  1
  K  K39  1  0.25000000  0.12420306  0.47342473  1
  Ti  Ti40  1  0.50059332  0.62743349  0.75180968  1
  Ti  Ti41  1  0.00059332  0.37256651  0.24819032  1
  Ti  Ti42  1  0.49940668  0.12743349  0.74819032  1
  Ti  Ti43  1  0.99940668  0.87256651  0.25180968  1
  Ti  Ti44  1  0.49940668  0.37256651  0.24819032  1
  Ti  Ti45  1  0.99940668  0.62743349  0.75180968  1
  Ti  Ti46  1  0.50059332  0.87256651  0.25180968  1
  Ti  Ti47  1  0.00059332  0.12743349  0.74819032  1
