# generated using pymatgen
data_SrLi4NiO4
_symmetry_space_group_name_H-M   'P 1'
_cell_length_a   5.69463963
_cell_length_b   14.64239216
_cell_length_c   10.98870315
_cell_angle_alpha   90.00000000
_cell_angle_beta   76.75516145
_cell_angle_gamma   90.00000000
_symmetry_Int_Tables_number   1
_chemical_formula_structural   SrLi4NiO4
_chemical_formula_sum   'Sr8 Li32 Ni8 O32'
_cell_volume   891.89970377
_cell_formula_units_Z   8
loop_
 _symmetry_equiv_pos_site_id
 _symmetry_equiv_pos_as_xyz
  1  'x, y, z'
loop_
 _atom_site_type_symbol
 _atom_site_label
 _atom_site_symmetry_multiplicity
 _atom_site_fract_x
 _atom_site_fract_y
 _atom_site_fract_z
 _atom_site_occupancy
  Sr  Sr0  1  0.11988541  0.69984052  0.24407636  1
  Sr  Sr1  1  0.08619612  0.94276918  0.83398487  1
  Sr  Sr2  1  0.38011459  0.19984052  0.25592364  1
  Sr  Sr3  1  0.41380388  0.44276918  0.66601513  1
  Sr  Sr4  1  0.58619612  0.55723082  0.33398487  1
  Sr  Sr5  1  0.61988541  0.80015948  0.74407636  1
  Sr  Sr6  1  0.91380388  0.05723082  0.16601513  1
  Sr  Sr7  1  0.88011459  0.30015948  0.75592364  1
  Li  Li8  1  0.03439069  0.57130943  0.04145561  1
  Li  Li9  1  0.06974037  0.32870230  0.11772688  1
  Li  Li10  1  0.03648125  0.83335998  0.50477612  1
  Li  Li11  1  0.20611211  0.88943084  0.13073573  1
  Li  Li12  1  0.09536972  0.57495865  0.52605267  1
  Li  Li13  1  0.08120527  0.02646902  0.57559010  1
  Li  Li14  1  0.17310284  0.13150691  0.72090250  1
  Li  Li15  1  0.29388789  0.38943084  0.36926427  1
  Li  Li16  1  0.13591185  0.77277840  0.98324324  1
  Li  Li17  1  0.53648125  0.66664002  0.00477612  1
  Li  Li18  1  0.43025963  0.82870230  0.38227312  1
  Li  Li19  1  0.36408815  0.27277840  0.51675676  1
  Li  Li20  1  0.32689716  0.63150691  0.77909750  1
  Li  Li21  1  0.59536972  0.92504135  0.02605267  1
  Li  Li22  1  0.46560931  0.07130943  0.45854439  1
  Li  Li23  1  0.58120527  0.47353098  0.07559010  1
  Li  Li24  1  0.41879473  0.52646902  0.92440990  1
  Li  Li25  1  0.53439069  0.92869057  0.54145561  1
  Li  Li26  1  0.40463028  0.07495865  0.97394733  1
  Li  Li27  1  0.67310284  0.36849309  0.22090250  1
  Li  Li28  1  0.63591185  0.72722160  0.48324324  1
  Li  Li29  1  0.56974037  0.17129770  0.61772688  1
  Li  Li30  1  0.46351875  0.33335998  0.99522388  1
  Li  Li31  1  0.86408815  0.22722160  0.01675676  1
  Li  Li32  1  0.70611211  0.61056916  0.63073573  1
  Li  Li33  1  0.82689716  0.86849309  0.27909750  1
  Li  Li34  1  0.91879473  0.97353098  0.42440990  1
  Li  Li35  1  0.90463028  0.42504135  0.47394733  1
  Li  Li36  1  0.79388789  0.11056916  0.86926427  1
  Li  Li37  1  0.96351875  0.16664002  0.49522388  1
  Li  Li38  1  0.93025963  0.67129770  0.88227312  1
  Li  Li39  1  0.96560931  0.42869057  0.95854439  1
  Ni  Ni40  1  0.15048996  0.47703889  0.20523240  1
  Ni  Ni41  1  0.18288615  0.72087856  0.63074906  1
  Ni  Ni42  1  0.34951004  0.97703889  0.29476760  1
  Ni  Ni43  1  0.31711385  0.22087856  0.86925094  1
  Ni  Ni44  1  0.68288615  0.77912144  0.13074906  1
  Ni  Ni45  1  0.65048996  0.02296111  0.70523240  1
  Ni  Ni46  1  0.81711385  0.27912144  0.36925094  1
  Ni  Ni47  1  0.84951004  0.52296111  0.79476760  1
  O  O48  1  0.07742828  0.29776125  0.45754452  1
  O  O49  1  0.13723567  0.86485348  0.32224875  1
  O  O50  1  0.15967502  0.51671619  0.37136575  1
  O  O51  1  0.14981079  0.07258071  0.39813201  1
  O  O52  1  0.35018921  0.57258071  0.10186799  1
  O  O53  1  0.13532226  0.53453812  0.86286206  1
  O  O54  1  0.16434471  0.76275653  0.80579410  1
  O  O55  1  0.34032498  0.01671619  0.12863425  1
  O  O56  1  0.10387047  0.10687481  0.91639127  1
  O  O57  1  0.36276433  0.36485348  0.17775125  1
  O  O58  1  0.42257172  0.79776025  0.04245548  1
  O  O59  1  0.09921834  0.31621795  0.94159670  1
  O  O60  1  0.40078166  0.81621795  0.55840330  1
  O  O61  1  0.39612953  0.60687481  0.58360873  1
  O  O62  1  0.33565529  0.26275653  0.69420590  1
  O  O63  1  0.36467774  0.03453812  0.63713794  1
  O  O64  1  0.63532226  0.96546188  0.36286206  1
  O  O65  1  0.66434471  0.73724347  0.30579410  1
  O  O66  1  0.60387047  0.39312519  0.41639127  1
  O  O67  1  0.59921834  0.18378205  0.44159670  1
  O  O68  1  0.90078166  0.68378205  0.05840330  1
  O  O69  1  0.57742828  0.20223875  0.95754452  1
  O  O70  1  0.63723567  0.63514652  0.82224875  1
  O  O71  1  0.89612953  0.89312519  0.08360873  1
  O  O72  1  0.65967502  0.98328381  0.87136575  1
  O  O73  1  0.83565529  0.23724347  0.19420590  1
  O  O74  1  0.86467774  0.46546188  0.13713794  1
  O  O75  1  0.64981079  0.42741929  0.89813201  1
  O  O76  1  0.85018921  0.92741929  0.60186799  1
  O  O77  1  0.84032498  0.48328381  0.62863425  1
  O  O78  1  0.86276433  0.13514652  0.67775125  1
  O  O79  1  0.92257172  0.70223975  0.54245548  1
