# generated using pymatgen
data_USiRh
_symmetry_space_group_name_H-M   'P 1'
_cell_length_a   3.84674011
_cell_length_b   7.45668777
_cell_length_c   7.08221760
_cell_angle_alpha   90.00000000
_cell_angle_beta   90.00000000
_cell_angle_gamma   90.00000000
_symmetry_Int_Tables_number   1
_chemical_formula_structural   USiRh
_chemical_formula_sum   'U4 Si4 Rh4'
_cell_volume   203.14590423
_cell_formula_units_Z   4
loop_
 _symmetry_equiv_pos_site_id
 _symmetry_equiv_pos_as_xyz
  1  'x, y, z'
loop_
 _atom_site_type_symbol
 _atom_site_label
 _atom_site_symmetry_multiplicity
 _atom_site_fract_x
 _atom_site_fract_y
 _atom_site_fract_z
 _atom_site_occupancy
  U  U0  1  0.75000000  0.49845694  0.63305294  1
  U  U1  1  0.75000000  0.99845694  0.86694706  1
  U  U2  1  0.25000000  0.50154306  0.36694706  1
  U  U3  1  0.25000000  0.00154306  0.13305294  1
  Si  Si4  1  0.75000000  0.70104634  0.12586405  1
  Si  Si5  1  0.75000000  0.20104634  0.37413595  1
  Si  Si6  1  0.25000000  0.29895366  0.87413595  1
  Si  Si7  1  0.25000000  0.79895366  0.62586405  1
  Rh  Rh8  1  0.75000000  0.37042504  0.06830616  1
  Rh  Rh9  1  0.75000000  0.87042504  0.43169384  1
  Rh  Rh10  1  0.25000000  0.62957496  0.93169384  1
  Rh  Rh11  1  0.25000000  0.12957496  0.56830616  1
