# generated using pymatgen
data_Sm5Ga3
_symmetry_space_group_name_H-M   'P 1'
_cell_length_a   7.77158361
_cell_length_b   7.77158361
_cell_length_c   14.55652962
_cell_angle_alpha   90.00000000
_cell_angle_beta   90.00000000
_cell_angle_gamma   90.00000000
_symmetry_Int_Tables_number   1
_chemical_formula_structural   Sm5Ga3
_chemical_formula_sum   'Sm20 Ga12'
_cell_volume   879.17816960
_cell_formula_units_Z   4
loop_
 _symmetry_equiv_pos_site_id
 _symmetry_equiv_pos_as_xyz
  1  'x, y, z'
loop_
 _atom_site_type_symbol
 _atom_site_label
 _atom_site_symmetry_multiplicity
 _atom_site_fract_x
 _atom_site_fract_y
 _atom_site_fract_z
 _atom_site_occupancy
  Ga  Ga0  1  0.62945015  0.12945015  0.75000000  1
  Ga  Ga1  1  0.37054985  0.62945015  0.75000000  1
  Ga  Ga2  1  0.12945015  0.87054985  0.75000000  1
  Ga  Ga3  1  0.87054985  0.37054985  0.75000000  1
  Ga  Ga4  1  0.37054985  0.87054985  0.25000000  1
  Ga  Ga5  1  0.62945015  0.37054985  0.25000000  1
  Ga  Ga6  1  0.87054985  0.12945015  0.25000000  1
  Ga  Ga7  1  0.12945015  0.62945015  0.25000000  1
  Ga  Ga8  1  0.75000000  0.75000000  0.99259367  1
  Ga  Ga9  1  0.25000000  0.25000000  0.50740633  1
  Ga  Ga10  1  0.25000000  0.25000000  0.00740633  1
  Ga  Ga11  1  0.75000000  0.75000000  0.49259367  1
  Sm  Sm12  1  0.09385774  0.56425929  0.89661120  1
  Sm  Sm13  1  0.59385774  0.43574071  0.60338880  1
  Sm  Sm14  1  0.56425929  0.40614226  0.89661120  1
  Sm  Sm15  1  0.93574071  0.09385774  0.89661120  1
  Sm  Sm16  1  0.25000000  0.25000000  0.22112825  1
  Sm  Sm17  1  0.75000000  0.75000000  0.27887175  1
  Sm  Sm18  1  0.75000000  0.75000000  0.77887175  1
  Sm  Sm19  1  0.25000000  0.25000000  0.72112825  1
  Sm  Sm20  1  0.40614226  0.93574071  0.89661120  1
  Sm  Sm21  1  0.06425929  0.59385774  0.60338880  1
  Sm  Sm22  1  0.43574071  0.90614226  0.60338880  1
  Sm  Sm23  1  0.90614226  0.06425929  0.60338880  1
  Sm  Sm24  1  0.06425929  0.90614226  0.10338880  1
  Sm  Sm25  1  0.43574071  0.59385774  0.10338880  1
  Sm  Sm26  1  0.40614226  0.56425929  0.39661120  1
  Sm  Sm27  1  0.90614226  0.43574071  0.10338880  1
  Sm  Sm28  1  0.59385774  0.06425929  0.10338880  1
  Sm  Sm29  1  0.93574071  0.40614226  0.39661120  1
  Sm  Sm30  1  0.56425929  0.09385774  0.39661120  1
  Sm  Sm31  1  0.09385774  0.93574071  0.39661120  1
