# generated using pymatgen
data_I2O5
_symmetry_space_group_name_H-M   'P 1'
_cell_length_a   5.22132806
_cell_length_b   8.46308027
_cell_length_c   11.13802591
_cell_angle_alpha   107.26140884
_cell_angle_beta   90.00000000
_cell_angle_gamma   90.00000000
_symmetry_Int_Tables_number   1
_chemical_formula_structural   I2O5
_chemical_formula_sum   'I8 O20'
_cell_volume   470.00582986
_cell_formula_units_Z   4
loop_
 _symmetry_equiv_pos_site_id
 _symmetry_equiv_pos_as_xyz
  1  'x, y, z'
loop_
 _atom_site_type_symbol
 _atom_site_label
 _atom_site_symmetry_multiplicity
 _atom_site_fract_x
 _atom_site_fract_y
 _atom_site_fract_z
 _atom_site_occupancy
  O  O0  1  0.53786203  0.62170372  0.24823208  1
  O  O1  1  0.03786203  0.87829628  0.75176792  1
  O  O2  1  0.46213797  0.37829628  0.75176792  1
  O  O3  1  0.96213797  0.12170372  0.24823208  1
  O  O4  1  0.00671100  0.79832978  0.30833185  1
  O  O5  1  0.50671100  0.70167022  0.69166815  1
  O  O6  1  0.99328900  0.20167022  0.69166815  1
  O  O7  1  0.49328900  0.29832978  0.30833185  1
  O  O8  1  0.85097899  0.15860593  0.01111951  1
  O  O9  1  0.35097899  0.34139407  0.98888049  1
  O  O10  1  0.14902101  0.84139407  0.98888049  1
  O  O11  1  0.64902101  0.65860593  0.01111951  1
  O  O12  1  0.03573423  0.43523289  0.19734899  1
  O  O13  1  0.53573423  0.06476711  0.80265101  1
  O  O14  1  0.96426577  0.56476711  0.80265101  1
  O  O15  1  0.46426577  0.93523289  0.19734899  1
  O  O16  1  0.85664551  0.33339276  0.48894180  1
  O  O17  1  0.35664551  0.16660724  0.51105820  1
  O  O18  1  0.14335449  0.66660724  0.51105820  1
  O  O19  1  0.64335449  0.83339276  0.48894180  1
  I  I20  1  0.82309309  0.66438055  0.37330683  1
  I  I21  1  0.32309309  0.83561945  0.62669317  1
  I  I22  1  0.17690691  0.33561945  0.62669317  1
  I  I23  1  0.67690691  0.16438055  0.37330683  1
  I  I24  1  0.38790549  0.72020111  0.12666155  1
  I  I25  1  0.88790549  0.77979889  0.87333845  1
  I  I26  1  0.61209451  0.27979889  0.87333845  1
  I  I27  1  0.11209451  0.22020111  0.12666155  1
