# generated using pymatgen
data_Y4CI5
_symmetry_space_group_name_H-M   'P 1'
_cell_length_a   3.97942743
_cell_length_b   8.60615090
_cell_length_c   9.84015656
_cell_angle_alpha   102.19015772
_cell_angle_beta   101.66584119
_cell_angle_gamma   90.00000000
_symmetry_Int_Tables_number   1
_chemical_formula_structural   Y4CI5
_chemical_formula_sum   'Y4 C1 I5'
_cell_volume   322.27729326
_cell_formula_units_Z   1
loop_
 _symmetry_equiv_pos_site_id
 _symmetry_equiv_pos_as_xyz
  1  'x, y, z'
loop_
 _atom_site_type_symbol
 _atom_site_label
 _atom_site_symmetry_multiplicity
 _atom_site_fract_x
 _atom_site_fract_y
 _atom_site_fract_z
 _atom_site_occupancy
  C  C0  1  0.50000000  0.00000000  0.00000000  1
  Y  Y1  1  0.37229838  0.93683016  0.74459675  1
  Y  Y2  1  0.00045373  0.81083632  0.00090746  1
  Y  Y3  1  0.62770162  0.06316984  0.25540325  1
  Y  Y4  1  0.99954627  0.18916368  0.99909254  1
  I  I5  1  0.83735947  0.66100287  0.67471894  1
  I  I6  1  0.83361654  0.17803754  0.66723307  1
  I  I7  1  0.16638346  0.82196246  0.33276693  1
  I  I8  1  0.50000000  0.50000000  0.00000000  1
  I  I9  1  0.16264053  0.33899713  0.32528106  1
