# generated using pymatgen
data_Rb4YbI6
_symmetry_space_group_name_H-M   'P 1'
_cell_length_a   10.20627004
_cell_length_b   10.20627004
_cell_length_c   10.20627004
_cell_angle_alpha   89.78042835
_cell_angle_beta   89.78042835
_cell_angle_gamma   89.78042832
_symmetry_Int_Tables_number   1
_chemical_formula_structural   Rb4YbI6
_chemical_formula_sum   'Rb8 Yb2 I12'
_cell_volume   1063.14284691
_cell_formula_units_Z   2
loop_
 _symmetry_equiv_pos_site_id
 _symmetry_equiv_pos_as_xyz
  1  'x, y, z'
loop_
 _atom_site_type_symbol
 _atom_site_label
 _atom_site_symmetry_multiplicity
 _atom_site_fract_x
 _atom_site_fract_y
 _atom_site_fract_z
 _atom_site_occupancy
  Rb  Rb0  1  0.25000000  0.25000000  0.25000000  1
  Rb  Rb1  1  0.75000000  0.75000000  0.75000000  1
  Rb  Rb2  1  0.63023404  0.86976596  0.25000000  1
  Rb  Rb3  1  0.25000000  0.63023404  0.86976596  1
  Rb  Rb4  1  0.86976596  0.25000000  0.63023404  1
  Rb  Rb5  1  0.36976596  0.13023404  0.75000000  1
  Rb  Rb6  1  0.75000000  0.36976596  0.13023404  1
  Rb  Rb7  1  0.13023404  0.75000000  0.36976596  1
  I  I8  1  0.55720205  0.20500563  0.43051165  1
  I  I9  1  0.70500563  0.05720205  0.93051165  1
  I  I10  1  0.05720205  0.93051165  0.70500563  1
  I  I11  1  0.44279795  0.79499437  0.56948835  1
  I  I12  1  0.93051165  0.70500563  0.05720205  1
  I  I13  1  0.56948835  0.44279795  0.79499437  1
  I  I14  1  0.79499437  0.56948835  0.44279795  1
  I  I15  1  0.43051165  0.55720205  0.20500563  1
  I  I16  1  0.94279795  0.06948835  0.29499437  1
  I  I17  1  0.29499437  0.94279795  0.06948835  1
  I  I18  1  0.06948835  0.29499437  0.94279795  1
  I  I19  1  0.20500563  0.43051165  0.55720205  1
  Yb  Yb20  1  0.00000000  0.00000000  0.00000000  1
  Yb  Yb21  1  0.50000000  0.50000000  0.50000000  1
