# generated using pymatgen
data_Sr(InSe2)2
_symmetry_space_group_name_H-M   'P 1'
_cell_length_a   13.11042417
_cell_length_b   13.11042417
_cell_length_c   13.12812934
_cell_angle_alpha   105.81505609
_cell_angle_beta   105.81505610
_cell_angle_gamma   117.01332673
_symmetry_Int_Tables_number   1
_chemical_formula_structural   Sr(InSe2)2
_chemical_formula_sum   'Sr8 In16 Se32'
_cell_volume   1715.07074888
_cell_formula_units_Z   8
loop_
 _symmetry_equiv_pos_site_id
 _symmetry_equiv_pos_as_xyz
  1  'x, y, z'
loop_
 _atom_site_type_symbol
 _atom_site_label
 _atom_site_symmetry_multiplicity
 _atom_site_fract_x
 _atom_site_fract_y
 _atom_site_fract_z
 _atom_site_occupancy
  Se  Se0  1  0.18279767  0.67938089  0.82374917  1
  Se  Se1  1  0.85563172  0.85904851  0.67625083  1
  Se  Se2  1  0.32061911  0.81720233  0.67625083  1
  Se  Se3  1  0.14095149  0.14436828  0.82374917  1
  Se  Se4  1  0.81720233  0.32061911  0.17625083  1
  Se  Se5  1  0.14436828  0.14095149  0.32374917  1
  Se  Se6  1  0.67938089  0.18279767  0.32374917  1
  Se  Se7  1  0.85904851  0.85563172  0.17625083  1
  Se  Se8  1  0.83232086  0.33445820  0.68561745  1
  Se  Se9  1  0.64884076  0.64670342  0.81438255  1
  Se  Se10  1  0.66554180  0.16767914  0.81438255  1
  Se  Se11  1  0.35329658  0.35115924  0.68561745  1
  Se  Se12  1  0.16767914  0.66554180  0.31438255  1
  Se  Se13  1  0.35115924  0.35329658  0.18561745  1
  Se  Se14  1  0.33445820  0.83232086  0.18561745  1
  Se  Se15  1  0.64670342  0.64884076  0.31438255  1
  Se  Se16  1  0.41112177  0.59115735  0.00019019  1
  Se  Se17  1  0.59096715  0.91093158  0.49980981  1
  Se  Se18  1  0.40884265  0.58887823  0.49980981  1
  Se  Se19  1  0.08906842  0.40903285  0.00019019  1
  Se  Se20  1  0.58887823  0.40884265  0.99980981  1
  Se  Se21  1  0.40903285  0.08906842  0.50019019  1
  Se  Se22  1  0.59115735  0.41112177  0.50019019  1
  Se  Se23  1  0.91093158  0.59096715  0.99980981  1
  Se  Se24  1  0.91229583  0.59125353  0.50068660  1
  Se  Se25  1  0.09056693  0.91160922  0.99931340  1
  Se  Se26  1  0.40874647  0.08770417  0.99931340  1
  Se  Se27  1  0.08839078  0.90943307  0.50068660  1
  Se  Se28  1  0.08770417  0.40874647  0.49931340  1
  Se  Se29  1  0.90943307  0.08839078  0.00068660  1
  Se  Se30  1  0.59125353  0.91229583  0.00068660  1
  Se  Se31  1  0.91160922  0.09056693  0.49931340  1
  Sr  Sr32  1  0.12500000  0.87500000  0.75000000  1
  Sr  Sr33  1  0.87500000  0.12500000  0.25000000  1
  Sr  Sr34  1  0.62500000  0.37500000  0.75000000  1
  Sr  Sr35  1  0.37500000  0.62500000  0.25000000  1
  Sr  Sr36  1  0.87227508  0.12772492  0.75000000  1
  Sr  Sr37  1  0.37772492  0.62227508  0.75000000  1
  Sr  Sr38  1  0.12772492  0.87227508  0.25000000  1
  Sr  Sr39  1  0.62227508  0.37772492  0.25000000  1
  In  In40  1  0.46672790  0.96626948  0.60894814  1
  In  In41  1  0.35732135  0.35777976  0.89105186  1
  In  In42  1  0.03373052  0.53327210  0.89105186  1
  In  In43  1  0.64222024  0.64267865  0.60894814  1
  In  In44  1  0.53327210  0.03373052  0.39105186  1
  In  In45  1  0.64267865  0.64222024  0.10894814  1
  In  In46  1  0.96626948  0.46672790  0.10894814  1
  In  In47  1  0.35777976  0.35732135  0.39105186  1
  In  In48  1  0.13714378  0.13599239  0.52311714  1
  In  In49  1  0.61287525  0.11402665  0.97688286  1
  In  In50  1  0.86400761  0.86285622  0.97688286  1
  In  In51  1  0.88597335  0.38712475  0.52311714  1
  In  In52  1  0.86285622  0.86400761  0.47688286  1
  In  In53  1  0.38712475  0.88597335  0.02311714  1
  In  In54  1  0.13599239  0.13714378  0.02311714  1
  In  In55  1  0.11402665  0.61287525  0.47688286  1
