# generated using pymatgen
data_Ba5AlIr2O11
_symmetry_space_group_name_H-M   'P 1'
_cell_length_a   5.83672530
_cell_length_b   11.25660717
_cell_length_c   18.97110635
_cell_angle_alpha   90.00000000
_cell_angle_beta   90.00000000
_cell_angle_gamma   90.00000000
_symmetry_Int_Tables_number   1
_chemical_formula_structural   Ba5AlIr2O11
_chemical_formula_sum   'Ba20 Al4 Ir8 O44'
_cell_volume   1246.43439075
_cell_formula_units_Z   4
loop_
 _symmetry_equiv_pos_site_id
 _symmetry_equiv_pos_as_xyz
  1  'x, y, z'
loop_
 _atom_site_type_symbol
 _atom_site_label
 _atom_site_symmetry_multiplicity
 _atom_site_fract_x
 _atom_site_fract_y
 _atom_site_fract_z
 _atom_site_occupancy
  Ba  Ba0  1  0.75000000  0.60452386  0.02658371  1
  Ba  Ba1  1  0.25000000  0.87431415  0.25277051  1
  Ba  Ba2  1  0.75000000  0.04582493  0.32806828  1
  Ba  Ba3  1  0.75000000  0.89547614  0.52658371  1
  Ba  Ba4  1  0.25000000  0.47300145  0.42650547  1
  Ba  Ba5  1  0.75000000  0.45417507  0.82806828  1
  Ba  Ba6  1  0.25000000  0.39547614  0.97341629  1
  Ba  Ba7  1  0.75000000  0.12568585  0.74722949  1
  Ba  Ba8  1  0.25000000  0.62568585  0.75277051  1
  Ba  Ba9  1  0.75000000  0.97300145  0.07349453  1
  Ba  Ba10  1  0.25000000  0.10452386  0.47341629  1
  Ba  Ba11  1  0.75000000  0.69220065  0.36085941  1
  Ba  Ba12  1  0.75000000  0.80779935  0.86085941  1
  Ba  Ba13  1  0.25000000  0.19220065  0.13914059  1
  Ba  Ba14  1  0.75000000  0.37431415  0.24722949  1
  Ba  Ba15  1  0.75000000  0.52699855  0.57349453  1
  Ba  Ba16  1  0.25000000  0.54582493  0.17193172  1
  Ba  Ba17  1  0.25000000  0.30779935  0.63914059  1
  Ba  Ba18  1  0.25000000  0.95417507  0.67193172  1
  Ba  Ba19  1  0.25000000  0.02699855  0.92650547  1
  Al  Al20  1  0.75000000  0.73979683  0.18764671  1
  Al  Al21  1  0.25000000  0.23979683  0.31235329  1
  Al  Al22  1  0.75000000  0.76020317  0.68764671  1
  Al  Al23  1  0.25000000  0.26020317  0.81235329  1
  Ir  Ir24  1  0.75000000  0.28858296  0.06236597  1
  Ir  Ir25  1  0.25000000  0.79470828  0.06340756  1
  Ir  Ir26  1  0.25000000  0.78858296  0.43763403  1
  Ir  Ir27  1  0.75000000  0.20529172  0.93659244  1
  Ir  Ir28  1  0.75000000  0.29470828  0.43659244  1
  Ir  Ir29  1  0.25000000  0.71141704  0.93763403  1
  Ir  Ir30  1  0.75000000  0.21141704  0.56236597  1
  Ir  Ir31  1  0.25000000  0.70529172  0.56340756  1
  O  O32  1  0.25000000  0.88173064  0.53141856  1
  O  O33  1  0.50161996  0.25035050  0.36514018  1
  O  O34  1  0.75000000  0.59966628  0.22841355  1
  O  O35  1  0.51527447  0.32642335  0.51364945  1
  O  O36  1  0.25000000  0.35955410  0.25343884  1
  O  O37  1  0.49838004  0.75035050  0.13485982  1
  O  O38  1  0.00161996  0.74964950  0.63485982  1
  O  O39  1  0.51548010  0.10462595  0.60041273  1
  O  O40  1  0.48472553  0.82642335  0.98635055  1
  O  O41  1  0.01527447  0.67357665  0.48635055  1
  O  O42  1  0.75000000  0.90033372  0.72841355  1
  O  O43  1  0.25000000  0.40033372  0.77158645  1
  O  O44  1  0.75000000  0.11826936  0.46858144  1
  O  O45  1  0.25000000  0.54236554  0.59954352  1
  O  O46  1  0.48472553  0.67357665  0.48635055  1
  O  O47  1  0.25000000  0.61826936  0.03141856  1
  O  O48  1  0.00161996  0.75035050  0.13485982  1
  O  O49  1  0.48451990  0.60462595  0.89958727  1
  O  O50  1  0.98451990  0.39537405  0.10041273  1
  O  O51  1  0.01548010  0.89537405  0.39958727  1
  O  O52  1  0.25000000  0.14044590  0.75343884  1
  O  O53  1  0.75000000  0.45763446  0.40045648  1
  O  O54  1  0.75000000  0.30961834  0.64955535  1
  O  O55  1  0.01548010  0.60462595  0.89958727  1
  O  O56  1  0.51527447  0.17357665  0.01364945  1
  O  O57  1  0.25000000  0.95763446  0.09954352  1
  O  O58  1  0.75000000  0.38173064  0.96858144  1
  O  O59  1  0.75000000  0.04236554  0.90045648  1
  O  O60  1  0.75000000  0.19038166  0.14955535  1
  O  O61  1  0.98472553  0.17357665  0.01364945  1
  O  O62  1  0.25000000  0.69038166  0.35044465  1
  O  O63  1  0.25000000  0.80961834  0.85044465  1
  O  O64  1  0.98451990  0.10462595  0.60041273  1
  O  O65  1  0.99838004  0.25035050  0.36514018  1
  O  O66  1  0.75000000  0.64044590  0.74656116  1
  O  O67  1  0.50161996  0.24964950  0.86514018  1
  O  O68  1  0.25000000  0.09966628  0.27158645  1
  O  O69  1  0.98472553  0.32642335  0.51364945  1
  O  O70  1  0.75000000  0.85955410  0.24656116  1
  O  O71  1  0.48451990  0.89537405  0.39958727  1
  O  O72  1  0.01527447  0.82642335  0.98635055  1
  O  O73  1  0.51548010  0.39537405  0.10041273  1
  O  O74  1  0.49838004  0.74964950  0.63485982  1
  O  O75  1  0.99838004  0.24964950  0.86514018  1
