# generated using pymatgen
data_Rb2In2Sb3
_symmetry_space_group_name_H-M   'P 1'
_cell_length_a   7.75793746
_cell_length_b   15.84724641
_cell_length_c   17.70024500
_cell_angle_alpha   90.48163578
_cell_angle_beta   90.00000000
_cell_angle_gamma   90.00000000
_symmetry_Int_Tables_number   1
_chemical_formula_structural   Rb2In2Sb3
_chemical_formula_sum   'Rb16 In16 Sb24'
_cell_volume   2176.02569076
_cell_formula_units_Z   8
loop_
 _symmetry_equiv_pos_site_id
 _symmetry_equiv_pos_as_xyz
  1  'x, y, z'
loop_
 _atom_site_type_symbol
 _atom_site_label
 _atom_site_symmetry_multiplicity
 _atom_site_fract_x
 _atom_site_fract_y
 _atom_site_fract_z
 _atom_site_occupancy
  Rb  Rb0  1  0.97072288  0.14243544  0.99286033  1
  Rb  Rb1  1  0.47072288  0.85756456  0.50713967  1
  Rb  Rb2  1  0.02927712  0.85756456  0.00713967  1
  Rb  Rb3  1  0.52927712  0.14243544  0.49286033  1
  Rb  Rb4  1  0.54648324  0.65356976  0.02113176  1
  Rb  Rb5  1  0.04648324  0.34643024  0.47886824  1
  Rb  Rb6  1  0.45351676  0.34643024  0.97886824  1
  Rb  Rb7  1  0.95351676  0.65356976  0.52113176  1
  Rb  Rb8  1  0.53225831  0.92299814  0.11113303  1
  Rb  Rb9  1  0.03225831  0.07700186  0.38886697  1
  Rb  Rb10  1  0.46774169  0.07700186  0.88886697  1
  Rb  Rb11  1  0.96774169  0.92299814  0.61113303  1
  Rb  Rb12  1  0.94535530  0.44296438  0.89762306  1
  Rb  Rb13  1  0.44535530  0.55703562  0.60237694  1
  Rb  Rb14  1  0.05464470  0.55703562  0.10237694  1
  Rb  Rb15  1  0.55464470  0.44296438  0.39762306  1
  In  In16  1  0.27858569  0.68419271  0.83050946  1
  In  In17  1  0.77858569  0.31580729  0.66949054  1
  In  In18  1  0.72141431  0.31580729  0.16949054  1
  In  In19  1  0.22141431  0.68419271  0.33050946  1
  In  In20  1  0.78834262  0.09261358  0.72961966  1
  In  In21  1  0.28834262  0.90738642  0.77038034  1
  In  In22  1  0.21165738  0.90738642  0.27038034  1
  In  In23  1  0.71165738  0.09261358  0.22961966  1
  In  In24  1  0.76280094  0.81835935  0.82271211  1
  In  In25  1  0.26280094  0.18164065  0.67728789  1
  In  In26  1  0.23719906  0.18164065  0.17728789  1
  In  In27  1  0.73719906  0.81835935  0.32271211  1
  In  In28  1  0.76013262  0.59338320  0.75946191  1
  In  In29  1  0.26013262  0.40661680  0.74053809  1
  In  In30  1  0.23986738  0.40661680  0.24053809  1
  In  In31  1  0.73986738  0.59338320  0.25946191  1
  Sb  Sb32  1  0.46306537  0.02640697  0.67217365  1
  Sb  Sb33  1  0.96306537  0.97359303  0.82782635  1
  Sb  Sb34  1  0.53693463  0.97359303  0.32782635  1
  Sb  Sb35  1  0.03693463  0.02640697  0.17217365  1
  Sb  Sb36  1  0.44490182  0.83625529  0.90475408  1
  Sb  Sb37  1  0.94490182  0.16374471  0.59524592  1
  Sb  Sb38  1  0.55509818  0.16374471  0.09524592  1
  Sb  Sb39  1  0.05509818  0.83625529  0.40475408  1
  Sb  Sb40  1  0.93475147  0.67033539  0.88946204  1
  Sb  Sb41  1  0.43475147  0.32966461  0.61053796  1
  Sb  Sb42  1  0.06524853  0.32966461  0.11053796  1
  Sb  Sb43  1  0.56524853  0.67033539  0.38946204  1
  Sb  Sb44  1  0.83541607  0.74837655  0.17512472  1
  Sb  Sb45  1  0.33541607  0.25162345  0.32487528  1
  Sb  Sb46  1  0.16458393  0.25162345  0.82487528  1
  Sb  Sb47  1  0.66458393  0.74837655  0.67512472  1
  Sb  Sb48  1  0.46053911  0.52315987  0.83746162  1
  Sb  Sb49  1  0.96053911  0.47684013  0.66253838  1
  Sb  Sb50  1  0.53946089  0.47684013  0.16253838  1
  Sb  Sb51  1  0.03946089  0.52315987  0.33746162  1
  Sb  Sb52  1  0.20815923  0.75257397  0.17933375  1
  Sb  Sb53  1  0.70815923  0.24742603  0.32066625  1
  Sb  Sb54  1  0.79184077  0.24742603  0.82066625  1
  Sb  Sb55  1  0.29184077  0.75257397  0.67933375  1
