# generated using pymatgen
data_NbCl5
_symmetry_space_group_name_H-M   'P 1'
_cell_length_a   6.41346561
_cell_length_b   13.67769948
_cell_length_c   13.67769948
_cell_angle_alpha   85.94665698
_cell_angle_beta   89.41127811
_cell_angle_gamma   89.41127810
_symmetry_Int_Tables_number   1
_chemical_formula_structural   NbCl5
_chemical_formula_sum   'Nb6 Cl30'
_cell_volume   1196.70852349
_cell_formula_units_Z   6
loop_
 _symmetry_equiv_pos_site_id
 _symmetry_equiv_pos_as_xyz
  1  'x, y, z'
loop_
 _atom_site_type_symbol
 _atom_site_label
 _atom_site_symmetry_multiplicity
 _atom_site_fract_x
 _atom_site_fract_y
 _atom_site_fract_z
 _atom_site_occupancy
  Cl  Cl0  1  0.25756787  0.33066894  0.52352205  1
  Cl  Cl1  1  0.74243213  0.47647795  0.66933106  1
  Cl  Cl2  1  0.74243213  0.66933106  0.47647795  1
  Cl  Cl3  1  0.25756787  0.52352205  0.33066894  1
  Cl  Cl4  1  0.69932300  0.20167452  0.57029360  1
  Cl  Cl5  1  0.30067700  0.42970640  0.79832548  1
  Cl  Cl6  1  0.77251337  0.23746220  0.86848393  1
  Cl  Cl7  1  0.22748663  0.13151607  0.76253780  1
  Cl  Cl8  1  0.22748663  0.76253780  0.13151607  1
  Cl  Cl9  1  0.77251337  0.86848393  0.23746220  1
  Cl  Cl10  1  0.21015632  0.18976271  0.99732066  1
  Cl  Cl11  1  0.78984368  0.00267934  0.81023729  1
  Cl  Cl12  1  0.78984368  0.81023729  0.00267934  1
  Cl  Cl13  1  0.21015632  0.99732066  0.18976271  1
  Cl  Cl14  1  0.79471511  0.04790953  0.04790953  1
  Cl  Cl15  1  0.20528489  0.95209047  0.95209047  1
  Cl  Cl16  1  0.27356893  0.28578566  0.28578566  1
  Cl  Cl17  1  0.72643107  0.71421434  0.71421434  1
  Cl  Cl18  1  0.25132750  0.46501573  0.09622628  1
  Cl  Cl19  1  0.74867250  0.90377372  0.53498427  1
  Cl  Cl20  1  0.74867250  0.53498427  0.90377372  1
  Cl  Cl21  1  0.25132750  0.09622628  0.46501573  1
  Cl  Cl22  1  0.69228180  0.33565394  0.14321828  1
  Cl  Cl23  1  0.30771820  0.85678172  0.66434606  1
  Cl  Cl24  1  0.30771820  0.66434606  0.85678172  1
  Cl  Cl25  1  0.69228180  0.14321828  0.33565394  1
  Cl  Cl26  1  0.67647878  0.38095593  0.38095593  1
  Cl  Cl27  1  0.32352122  0.61904407  0.61904407  1
  Cl  Cl28  1  0.69932300  0.57029360  0.20167452  1
  Cl  Cl29  1  0.30067700  0.79832548  0.42970640  1
  Nb  Nb30  1  0.47520237  0.22511271  0.44149657  1
  Nb  Nb31  1  0.52479763  0.55850343  0.77488729  1
  Nb  Nb32  1  0.52479763  0.77488729  0.55850343  1
  Nb  Nb33  1  0.47520237  0.44149657  0.22511271  1
  Nb  Nb34  1  0.00000000  0.89184463  0.10815537  1
  Nb  Nb35  1  0.00000000  0.10815537  0.89184463  1
