# generated using pymatgen
data_LaBr3
_symmetry_space_group_name_H-M   'P 1'
_cell_length_a   8.12705955
_cell_length_b   8.12705955
_cell_length_c   4.51221682
_cell_angle_alpha   90.00000000
_cell_angle_beta   90.00000000
_cell_angle_gamma   119.99999999
_symmetry_Int_Tables_number   1
_chemical_formula_structural   LaBr3
_chemical_formula_sum   'La2 Br6'
_cell_volume   258.09968583
_cell_formula_units_Z   2
loop_
 _symmetry_equiv_pos_site_id
 _symmetry_equiv_pos_as_xyz
  1  'x, y, z'
loop_
 _atom_site_type_symbol
 _atom_site_label
 _atom_site_symmetry_multiplicity
 _atom_site_fract_x
 _atom_site_fract_y
 _atom_site_fract_z
 _atom_site_occupancy
  Br  Br0  1  0.61088043  0.69782749  0.75000000  1
  Br  Br1  1  0.91305293  0.61088043  0.25000000  1
  Br  Br2  1  0.38911957  0.30217251  0.25000000  1
  Br  Br3  1  0.08694707  0.38911957  0.75000000  1
  Br  Br4  1  0.30217251  0.91305293  0.75000000  1
  Br  Br5  1  0.69782749  0.08694707  0.25000000  1
  La  La6  1  0.66666667  0.33333333  0.75000000  1
  La  La7  1  0.33333333  0.66666667  0.25000000  1
