# generated using pymatgen
data_Fe2OF3
_symmetry_space_group_name_H-M   'P 1'
_cell_length_a   4.93965198
_cell_length_b   10.52827959
_cell_length_c   6.05150119
_cell_angle_alpha   89.99896248
_cell_angle_beta   89.99677385
_cell_angle_gamma   90.00679903
_symmetry_Int_Tables_number   1
_chemical_formula_structural   Fe2OF3
_chemical_formula_sum   'Fe8 O4 F12'
_cell_volume   314.71459292
_cell_formula_units_Z   4
loop_
 _symmetry_equiv_pos_site_id
 _symmetry_equiv_pos_as_xyz
  1  'x, y, z'
loop_
 _atom_site_type_symbol
 _atom_site_label
 _atom_site_symmetry_multiplicity
 _atom_site_fract_x
 _atom_site_fract_y
 _atom_site_fract_z
 _atom_site_occupancy
  Fe  Fe0  1  -0.00001607  0.00005228  0.00009095  1
  Fe  Fe1  1  -0.00002711  0.00004601  0.49991013  1
  Fe  Fe2  1  0.01249215  0.73972946  0.74999089  1
  Fe  Fe3  1  0.48754436  0.23969610  0.74999757  1
  Fe  Fe4  1  0.49995312  0.49997178  0.99996276  1
  Fe  Fe5  1  0.49996550  0.49996296  0.50003303  1
  Fe  Fe6  1  0.51249643  0.76027145  0.24998965  1
  Fe  Fe7  1  0.98750104  0.26029276  0.24999223  1
  O  O8  1  0.16888524  0.92402751  0.74999684  1
  O  O9  1  0.33116672  0.42395491  0.75001199  1
  O  O10  1  0.66880480  0.57599238  0.24999095  1
  O  O11  1  0.83118283  0.07599526  0.25001314  1
  F  F12  1  0.26087336  0.41539146  0.25001101  1
  F  F13  1  0.26682278  0.66343620  0.99268133  1
  F  F14  1  0.26681790  0.66343162  0.50730041  1
  F  F15  1  0.23317869  0.16349647  0.50726883  1
  F  F16  1  0.23319596  0.16347809  0.99272863  1
  F  F17  1  0.23908503  0.91538780  0.24998687  1
  F  F18  1  0.76094909  0.08461181  0.75002340  1
  F  F19  1  0.76686602  0.83654111  0.49272458  1
  F  F20  1  0.76683732  0.83654015  0.00730227  1
  F  F21  1  0.73317782  0.33653535  0.00728956  1
  F  F22  1  0.73318120  0.33654789  0.49271445  1
  F  F23  1  0.73906583  0.58460920  0.74998855  1
