# generated using pymatgen
data_Li2FeBO4
_symmetry_space_group_name_H-M   'P 1'
_cell_length_a   8.86679764
_cell_length_b   4.76851554
_cell_length_c   14.28088448
_cell_angle_alpha   90.00000000
_cell_angle_beta   90.00000000
_cell_angle_gamma   90.00000000
_symmetry_Int_Tables_number   1
_chemical_formula_structural   Li2FeBO4
_chemical_formula_sum   'Li16 Fe8 B8 O32'
_cell_volume   603.81667927
_cell_formula_units_Z   8
loop_
 _symmetry_equiv_pos_site_id
 _symmetry_equiv_pos_as_xyz
  1  'x, y, z'
loop_
 _atom_site_type_symbol
 _atom_site_label
 _atom_site_symmetry_multiplicity
 _atom_site_fract_x
 _atom_site_fract_y
 _atom_site_fract_z
 _atom_site_occupancy
  Li  Li0  1  0.99667982  0.02568133  0.54451027  1
  Li  Li1  1  0.99626283  0.52453978  0.93473422  1
  Li  Li2  1  0.23080426  0.95700974  0.22945290  1
  Li  Li3  1  0.22348103  0.47457258  0.32798238  1
  Li  Li4  1  0.26919574  0.95700974  0.72945290  1
  Li  Li5  1  0.27651897  0.47457258  0.82798238  1
  Li  Li6  1  0.50373717  0.52453978  0.43473422  1
  Li  Li7  1  0.50332018  0.02568133  0.04451027  1
  Li  Li8  1  0.49626283  0.47546022  0.93473422  1
  Li  Li9  1  0.49667982  0.97431867  0.54451027  1
  Li  Li10  1  0.72348103  0.52542742  0.32798238  1
  Li  Li11  1  0.73080426  0.04299026  0.22945290  1
  Li  Li12  1  0.77651897  0.52542742  0.82798238  1
  Li  Li13  1  0.76919574  0.04299026  0.72945290  1
  Li  Li14  1  0.00373717  0.47546022  0.43473422  1
  Li  Li15  1  0.00332018  0.97431867  0.04451027  1
  Fe  Fe16  1  0.01733697  0.51875075  0.69864943  1
  Fe  Fe17  1  0.23213464  0.48755043  0.05698134  1
  Fe  Fe18  1  0.26786536  0.48755043  0.55698134  1
  Fe  Fe19  1  0.48266303  0.51875075  0.19864943  1
  Fe  Fe20  1  0.51733697  0.48124925  0.69864943  1
  Fe  Fe21  1  0.73213464  0.51244957  0.05698134  1
  Fe  Fe22  1  0.76786536  0.51244957  0.55698134  1
  Fe  Fe23  1  0.98266303  0.48124925  0.19864943  1
  B  B24  1  0.01262078  0.02465691  0.81506194  1
  B  B25  1  0.23491316  0.98844789  0.42224585  1
  B  B26  1  0.26508684  0.98844789  0.92224585  1
  B  B27  1  0.48737922  0.02465691  0.31506194  1
  B  B28  1  0.51262078  0.97534309  0.81506194  1
  B  B29  1  0.73491316  0.01155211  0.42224585  1
  B  B30  1  0.76508684  0.01155211  0.92224585  1
  B  B31  1  0.98737922  0.97534309  0.31506194  1
  O  O32  1  0.00927774  0.28266950  0.31321135  1
  O  O33  1  0.00112019  0.87956667  0.21456986  1
  O  O34  1  0.10837034  0.83309059  0.37399257  1
  O  O35  1  0.02220752  0.36860238  0.07107022  1
  O  O36  1  0.16603133  0.11733278  0.84769829  1
  O  O37  1  0.23843187  0.55226518  0.68908514  1
  O  O38  1  0.16980334  0.21416363  0.48273626  1
  O  O39  1  0.17722388  0.79146863  0.97961598  1
  O  O40  1  0.33019666  0.21416363  0.98273626  1
  O  O41  1  0.32277612  0.79146863  0.47961598  1
  O  O42  1  0.33396867  0.11733278  0.34769829  1
  O  O43  1  0.26156813  0.55226518  0.18908514  1
  O  O44  1  0.47779248  0.36860238  0.57107022  1
  O  O45  1  0.39162966  0.83309059  0.87399257  1
  O  O46  1  0.49072226  0.28266950  0.81321135  1
  O  O47  1  0.49887981  0.87956667  0.71456986  1
  O  O48  1  0.50112019  0.12043333  0.21456986  1
  O  O49  1  0.50927774  0.71733050  0.31321135  1
  O  O50  1  0.60837034  0.16690941  0.37399257  1
  O  O51  1  0.52220752  0.63139762  0.07107022  1
  O  O52  1  0.73843187  0.44773482  0.68908514  1
  O  O53  1  0.66603133  0.88266722  0.84769829  1
  O  O54  1  0.67722388  0.20853137  0.97961598  1
  O  O55  1  0.66980334  0.78583637  0.48273626  1
  O  O56  1  0.82277612  0.20853137  0.47961598  1
  O  O57  1  0.83019666  0.78583637  0.98273626  1
  O  O58  1  0.76156813  0.44773482  0.18908514  1
  O  O59  1  0.83396867  0.88266722  0.34769829  1
  O  O60  1  0.97779248  0.63139762  0.57107022  1
  O  O61  1  0.89162966  0.16690941  0.87399257  1
  O  O62  1  0.99887981  0.12043333  0.71456986  1
  O  O63  1  0.99072226  0.71733050  0.81321135  1
