# generated using pymatgen
data_Li10Mn3Cr2Ni3O16
_symmetry_space_group_name_H-M   'P 1'
_cell_length_a   5.93428761
_cell_length_b   5.96425868
_cell_length_c   9.78053386
_cell_angle_alpha   89.38365145
_cell_angle_beta   90.00524245
_cell_angle_gamma   60.17086617
_symmetry_Int_Tables_number   1
_chemical_formula_structural   Li10Mn3Cr2Ni3O16
_chemical_formula_sum   'Li10 Mn3 Cr2 Ni3 O16'
_cell_volume   300.28231751
_cell_formula_units_Z   1
loop_
 _symmetry_equiv_pos_site_id
 _symmetry_equiv_pos_as_xyz
  1  'x, y, z'
loop_
 _atom_site_type_symbol
 _atom_site_label
 _atom_site_symmetry_multiplicity
 _atom_site_fract_x
 _atom_site_fract_y
 _atom_site_fract_z
 _atom_site_occupancy
  Li  Li0  1  0.81442077  0.80760056  0.94329196  1
  Li  Li1  1  0.37803430  0.80740145  0.94333094  1
  Li  Li2  1  0.66466138  0.67053068  0.73336975  1
  Li  Li3  1  0.79834434  0.40349838  0.95917055  1
  Li  Li4  1  0.00218470  0.99579478  0.01940694  1
  Li  Li5  1  0.19972259  0.60093433  0.45164395  1
  Li  Li6  1  0.33521681  0.32955040  0.23355596  1
  Li  Li7  1  0.60730469  0.20573003  0.46032776  1
  Li  Li8  1  0.00952596  0.98086263  0.52110636  1
  Li  Li9  1  0.18683584  0.20577880  0.46026648  1
  Mn  Mn10  1  0.83222398  0.82782303  0.21961661  1
  Mn  Mn11  1  0.34006501  0.82775317  0.21960111  1
  Mn  Mn12  1  0.18009319  0.63974375  0.72002415  1
  Cr  Cr13  1  0.34113153  0.31781889  0.97468647  1
  Cr  Cr14  1  0.67565764  0.64860451  0.47799172  1
  Ni  Ni15  1  0.83414043  0.33181667  0.22137545  1
  Ni  Ni16  1  0.67270577  0.15360319  0.71991495  1
  Ni  Ni17  1  0.17358471  0.15360390  0.71990882  1
  O  O18  1  0.85856014  0.80025153  0.60237895  1
  O  O19  1  0.50811175  0.98359823  0.36128679  1
  O  O20  1  0.02065665  0.95858920  0.82826109  1
  O  O21  1  0.65911884  0.68168883  0.10868946  1
  O  O22  1  0.01414497  0.97203236  0.32449213  1
  O  O23  1  0.97984151  0.51290284  0.34529784  1
  O  O24  1  0.34112213  0.80014750  0.60234932  1
  O  O25  1  0.50758084  0.51255412  0.34535179  1
  O  O26  1  0.17459882  0.65127728  0.08847875  1
  O  O27  1  0.48872950  0.48557933  0.84316919  1
  O  O28  1  0.84418187  0.31157902  0.58497538  1
  O  O29  1  0.02570201  0.48564248  0.84319368  1
  O  O30  1  0.33124595  0.33737622  0.60508582  1
  O  O31  1  0.67134720  0.15723821  0.09624125  1
  O  O32  1  0.49549058  0.00887980  0.84757536  1
  O  O33  1  0.17128761  0.15759989  0.09617526  1
