# generated using pymatgen
data_LiCr(PO3)4
_symmetry_space_group_name_H-M   'P 1'
_cell_length_a   7.34562270
_cell_length_b   12.99766268
_cell_length_c   9.14876921
_cell_angle_alpha   90.00000000
_cell_angle_beta   92.62099980
_cell_angle_gamma   90.00000000
_symmetry_Int_Tables_number   1
_chemical_formula_structural   LiCr(PO3)4
_chemical_formula_sum   'Li4 Cr4 P16 O48'
_cell_volume   872.57343740
_cell_formula_units_Z   4
loop_
 _symmetry_equiv_pos_site_id
 _symmetry_equiv_pos_as_xyz
  1  'x, y, z'
loop_
 _atom_site_type_symbol
 _atom_site_label
 _atom_site_symmetry_multiplicity
 _atom_site_fract_x
 _atom_site_fract_y
 _atom_site_fract_z
 _atom_site_occupancy
  Li  Li0  1  0.98457840  0.22656468  0.05249929  1
  Li  Li1  1  0.51542160  0.72656468  0.44750071  1
  Li  Li2  1  0.48457840  0.27343532  0.55249929  1
  Li  Li3  1  0.01542160  0.77343532  0.94750071  1
  Cr  Cr4  1  0.96003039  0.29794082  0.43668359  1
  Cr  Cr5  1  0.53996961  0.79794082  0.06331641  1
  Cr  Cr6  1  0.46003039  0.20205918  0.93668359  1
  Cr  Cr7  1  0.03996961  0.70205918  0.56331641  1
  P  P8  1  0.07304332  0.61401094  0.24111460  1
  P  P9  1  0.11358998  0.13023759  0.69459915  1
  P  P10  1  0.17191813  0.91127288  0.70300488  1
  P  P11  1  0.29762256  0.89954129  0.22620067  1
  P  P12  1  0.20237744  0.39954129  0.27379933  1
  P  P13  1  0.32808187  0.41127288  0.79699512  1
  P  P14  1  0.38641002  0.63023759  0.80540085  1
  P  P15  1  0.42695668  0.11401094  0.25888540  1
  P  P16  1  0.57304332  0.88598906  0.74111460  1
  P  P17  1  0.61358998  0.36976241  0.19459915  1
  P  P18  1  0.67191813  0.58872712  0.20300488  1
  P  P19  1  0.79762256  0.60045871  0.72620067  1
  P  P20  1  0.70237744  0.10045871  0.77379933  1
  P  P21  1  0.82808187  0.08872712  0.29699512  1
  P  P22  1  0.88641002  0.86976241  0.30540085  1
  P  P23  1  0.92695668  0.38598906  0.75888540  1
  O  O24  1  0.09101665  0.87840871  0.25283796  1
  O  O25  1  0.04440636  0.89534351  0.82112280  1
  O  O26  1  0.12581820  0.42824652  0.72936185  1
  O  O27  1  0.07876378  0.31439513  0.21291540  1
  O  O28  1  0.07585337  0.68565588  0.11550088  1
  O  O29  1  0.23788204  0.13782986  0.82897902  1
  O  O30  1  0.15416530  0.64816470  0.38857264  1
  O  O31  1  0.33670308  0.90574735  0.06472100  1
  O  O32  1  0.17376885  0.50792189  0.19412291  1
  O  O33  1  0.14167932  0.02094180  0.61851808  1
  O  O34  1  0.12901074  0.21349637  0.58098361  1
  O  O35  1  0.32269049  0.33343960  0.92050308  1
  O  O36  1  0.17730951  0.83343960  0.57949692  1
  O  O37  1  0.32623115  0.00792189  0.30587709  1
  O  O38  1  0.37098926  0.71349637  0.91901639  1
  O  O39  1  0.16329692  0.40574735  0.43527900  1
  O  O40  1  0.35832068  0.52094180  0.88148192  1
  O  O41  1  0.34583470  0.14816470  0.11142736  1
  O  O42  1  0.26211796  0.63782986  0.67102098  1
  O  O43  1  0.42414663  0.18565588  0.38449912  1
  O  O44  1  0.42123622  0.81439513  0.28708460  1
  O  O45  1  0.37418180  0.92824652  0.77063815  1
  O  O46  1  0.40898335  0.37840871  0.24716204  1
  O  O47  1  0.45559364  0.39534351  0.67887720  1
  O  O48  1  0.54440636  0.60465649  0.32112280  1
  O  O49  1  0.59101665  0.62159129  0.75283796  1
  O  O50  1  0.62581820  0.07175348  0.22936185  1
  O  O51  1  0.57876378  0.18560487  0.71291540  1
  O  O52  1  0.57585337  0.81434412  0.61550088  1
  O  O53  1  0.73788204  0.36217014  0.32897902  1
  O  O54  1  0.65416530  0.85183530  0.88857264  1
  O  O55  1  0.64167932  0.47905820  0.11851808  1
  O  O56  1  0.83670308  0.59425265  0.56472100  1
  O  O57  1  0.62901074  0.28650363  0.08098361  1
  O  O58  1  0.67376885  0.99207811  0.69412291  1
  O  O59  1  0.82269049  0.16656040  0.42050308  1
  O  O60  1  0.67730951  0.66656040  0.07949692  1
  O  O61  1  0.87098926  0.78650363  0.41901639  1
  O  O62  1  0.85832068  0.97905820  0.38148192  1
  O  O63  1  0.82623115  0.49207811  0.80587709  1
  O  O64  1  0.66329692  0.09425265  0.93527900  1
  O  O65  1  0.84583470  0.35183530  0.61142736  1
  O  O66  1  0.76211796  0.86217014  0.17102098  1
  O  O67  1  0.92414663  0.31434412  0.88449912  1
  O  O68  1  0.92123622  0.68560487  0.78708460  1
  O  O69  1  0.87418180  0.57175348  0.27063815  1
  O  O70  1  0.95559364  0.10465649  0.17887720  1
  O  O71  1  0.90898335  0.12159129  0.74716204  1
