# generated using pymatgen
data_HfGa2Co
_symmetry_space_group_name_H-M   'P 1'
_cell_length_a   8.13841049
_cell_length_b   9.57253480
_cell_length_c   9.57253480
_cell_angle_alpha   79.58929169
_cell_angle_beta   64.84353113
_cell_angle_gamma   64.84353117
_symmetry_Int_Tables_number   1
_chemical_formula_structural   HfGa2Co
_chemical_formula_sum   'Hf10 Ga20 Co10'
_cell_volume   610.99109576
_cell_formula_units_Z   10
loop_
 _symmetry_equiv_pos_site_id
 _symmetry_equiv_pos_as_xyz
  1  'x, y, z'
loop_
 _atom_site_type_symbol
 _atom_site_label
 _atom_site_symmetry_multiplicity
 _atom_site_fract_x
 _atom_site_fract_y
 _atom_site_fract_z
 _atom_site_occupancy
  Co  Co0  1  0.81980984  0.00000000  0.32468204  1
  Co  Co1  1  0.89839077  0.50000000  0.50000000  1
  Co  Co2  1  0.39839077  0.50000000  0.50000000  1
  Co  Co3  1  0.14449188  0.00000000  0.67531796  1
  Co  Co4  1  0.81980984  0.32468204  0.00000000  1
  Co  Co5  1  0.14449188  0.67531796  0.00000000  1
  Co  Co6  1  0.27203992  0.21586739  0.21586739  1
  Co  Co7  1  0.48790731  0.78413261  0.21586739  1
  Co  Co8  1  0.48790731  0.21586739  0.78413261  1
  Co  Co9  1  0.70377471  0.78413261  0.78413261  1
  Ga  Ga10  1  0.79875708  0.83762992  0.16237008  1
  Ga  Ga11  1  0.63638700  0.16237008  0.16237008  1
  Ga  Ga12  1  0.03250936  0.61605666  0.61605666  1
  Ga  Ga13  1  0.64856602  0.38394334  0.61605666  1
  Ga  Ga14  1  0.42270929  0.00000000  0.73820338  1
  Ga  Ga15  1  0.64856602  0.61605666  0.38394334  1
  Ga  Ga16  1  0.26462268  0.38394334  0.38394334  1
  Ga  Ga17  1  0.16091266  0.00000000  0.26179662  1
  Ga  Ga18  1  0.42270929  0.73820338  0.00000000  1
  Ga  Ga19  1  0.16091266  0.26179662  0.00000000  1
  Ga  Ga20  1  0.73847669  0.50773112  0.78915441  1
  Ga  Ga21  1  0.52763110  0.21084559  0.50773112  1
  Ga  Ga22  1  0.24620781  0.78915441  0.49226888  1
  Ga  Ga23  1  0.03536222  0.49226888  0.21084559  1
  Ga  Ga24  1  0.24620781  0.49226888  0.78915441  1
  Ga  Ga25  1  0.52763110  0.50773112  0.21084559  1
  Ga  Ga26  1  0.73847669  0.78915441  0.50773112  1
  Ga  Ga27  1  0.03536222  0.21084559  0.49226888  1
  Ga  Ga28  1  0.96112715  0.83762992  0.83762992  1
  Ga  Ga29  1  0.79875708  0.16237008  0.83762992  1
  Hf  Hf30  1  0.51929763  0.00000000  0.00000000  1
  Hf  Hf31  1  0.05311212  0.00000000  0.00000000  1
  Hf  Hf32  1  0.83615237  0.00000000  0.59892637  1
  Hf  Hf33  1  0.43507875  0.40107363  0.00000000  1
  Hf  Hf34  1  0.83615237  0.59892637  0.00000000  1
  Hf  Hf35  1  0.43507875  0.00000000  0.40107363  1
  Hf  Hf36  1  0.84389687  0.28030360  0.28030360  1
  Hf  Hf37  1  0.12420047  0.71969640  0.28030360  1
  Hf  Hf38  1  0.12420047  0.28030360  0.71969640  1
  Hf  Hf39  1  0.40450407  0.71969640  0.71969640  1
