# generated using pymatgen
data_Pr2Br5
_symmetry_space_group_name_H-M   'P 1'
_cell_length_a   4.17036927
_cell_length_b   8.53216092
_cell_length_c   13.81863518
_cell_angle_alpha   86.81459761
_cell_angle_beta   90.00000000
_cell_angle_gamma   90.00000000
_symmetry_Int_Tables_number   1
_chemical_formula_structural   Pr2Br5
_chemical_formula_sum   'Pr4 Br10'
_cell_volume   490.93859697
_cell_formula_units_Z   2
loop_
 _symmetry_equiv_pos_site_id
 _symmetry_equiv_pos_as_xyz
  1  'x, y, z'
loop_
 _atom_site_type_symbol
 _atom_site_label
 _atom_site_symmetry_multiplicity
 _atom_site_fract_x
 _atom_site_fract_y
 _atom_site_fract_z
 _atom_site_occupancy
  Br  Br0  1  0.25000000  0.36384776  0.28177924  1
  Br  Br1  1  0.75000000  0.63615224  0.71822076  1
  Br  Br2  1  0.25000000  0.86416404  0.92929190  1
  Br  Br3  1  0.75000000  0.13583596  0.07070810  1
  Br  Br4  1  0.75000000  0.31779835  0.51346806  1
  Br  Br5  1  0.25000000  0.68220165  0.48653194  1
  Br  Br6  1  0.75000000  0.94204004  0.31044165  1
  Br  Br7  1  0.25000000  0.05795996  0.68955835  1
  Br  Br8  1  0.75000000  0.65772022  0.12434652  1
  Br  Br9  1  0.25000000  0.34227978  0.87565348  1
  Pr  Pr10  1  0.25000000  0.90615700  0.15362982  1
  Pr  Pr11  1  0.75000000  0.09384300  0.84637018  1
  Pr  Pr12  1  0.25000000  0.41679280  0.65657369  1
  Pr  Pr13  1  0.75000000  0.58320720  0.34342631  1
