# generated using pymatgen
data_TbSi3Rh5
_symmetry_space_group_name_H-M   'P 1'
_cell_length_a   15.65696787
_cell_length_b   15.65696786
_cell_length_c   3.88721448
_cell_angle_alpha   90.00000000
_cell_angle_beta   90.00000000
_cell_angle_gamma   120.00000000
_symmetry_Int_Tables_number   1
_chemical_formula_structural   TbSi3Rh5
_chemical_formula_sum   'Tb6 Si18 Rh30'
_cell_volume   825.24795348
_cell_formula_units_Z   6
loop_
 _symmetry_equiv_pos_site_id
 _symmetry_equiv_pos_as_xyz
  1  'x, y, z'
loop_
 _atom_site_type_symbol
 _atom_site_label
 _atom_site_symmetry_multiplicity
 _atom_site_fract_x
 _atom_site_fract_y
 _atom_site_fract_z
 _atom_site_occupancy
  Si  Si0  1  0.44138595  0.76017068  0.75000000  1
  Si  Si1  1  0.68121527  0.44138595  0.25000000  1
  Si  Si2  1  0.76017068  0.31878473  0.25000000  1
  Si  Si3  1  0.23982932  0.68121527  0.75000000  1
  Si  Si4  1  0.31878473  0.55861405  0.75000000  1
  Si  Si5  1  0.55861405  0.23982932  0.25000000  1
  Si  Si6  1  0.88060378  0.13059560  0.25000000  1
  Si  Si7  1  0.11939622  0.86940440  0.75000000  1
  Si  Si8  1  0.13059560  0.24999182  0.75000000  1
  Si  Si9  1  0.24999182  0.11939622  0.25000000  1
  Si  Si10  1  0.37053008  0.93785053  0.25000000  1
  Si  Si11  1  0.43267956  0.37053008  0.75000000  1
  Si  Si12  1  0.93785053  0.56732044  0.75000000  1
  Si  Si13  1  0.06214947  0.43267956  0.25000000  1
  Si  Si14  1  0.56732044  0.62946992  0.25000000  1
  Si  Si15  1  0.62946992  0.06214947  0.75000000  1
  Si  Si16  1  0.75000818  0.88060378  0.75000000  1
  Si  Si17  1  0.86940440  0.75000818  0.25000000  1
  Rh  Rh18  1  0.46346352  0.92494319  0.75000000  1
  Rh  Rh19  1  0.15339899  0.41439825  0.75000000  1
  Rh  Rh20  1  0.26099927  0.84660101  0.75000000  1
  Rh  Rh21  1  0.73900073  0.15339899  0.25000000  1
  Rh  Rh22  1  0.84660101  0.58560175  0.25000000  1
  Rh  Rh23  1  0.41439825  0.26099927  0.25000000  1
  Rh  Rh24  1  0.65225699  0.22345939  0.75000000  1
  Rh  Rh25  1  0.42879760  0.65225699  0.25000000  1
  Rh  Rh26  1  0.22345939  0.57120240  0.25000000  1
  Rh  Rh27  1  0.77654061  0.42879760  0.75000000  1
  Rh  Rh28  1  0.57120240  0.34774301  0.75000000  1
  Rh  Rh29  1  0.34774301  0.77654061  0.25000000  1
  Rh  Rh30  1  0.14190496  0.02881034  0.75000000  1
  Rh  Rh31  1  0.11309462  0.14190496  0.25000000  1
  Rh  Rh32  1  0.02881034  0.88690538  0.25000000  1
  Rh  Rh33  1  0.97118966  0.11309462  0.75000000  1
  Rh  Rh34  1  0.88690538  0.85809504  0.75000000  1
  Rh  Rh35  1  0.85809504  0.97118966  0.25000000  1
  Rh  Rh36  1  0.92494319  0.46147967  0.25000000  1
  Rh  Rh37  1  0.07505681  0.53852033  0.75000000  1
  Rh  Rh38  1  0.46147967  0.53653648  0.75000000  1
  Rh  Rh39  1  0.53653648  0.07505681  0.25000000  1
  Rh  Rh40  1  0.72886238  0.77297928  0.25000000  1
  Rh  Rh41  1  0.95588310  0.72886238  0.75000000  1
  Rh  Rh42  1  0.77297928  0.04411690  0.75000000  1
  Rh  Rh43  1  0.22702072  0.95588310  0.25000000  1
  Rh  Rh44  1  0.04411690  0.27113762  0.25000000  1
  Rh  Rh45  1  0.27113762  0.22702072  0.75000000  1
  Rh  Rh46  1  0.58560175  0.73900073  0.75000000  1
  Rh  Rh47  1  0.53852033  0.46346352  0.25000000  1
  Tb  Tb48  1  0.60592526  0.89999482  0.25000000  1
  Tb  Tb49  1  0.70593045  0.60592526  0.75000000  1
  Tb  Tb50  1  0.89999482  0.29406955  0.75000000  1
  Tb  Tb51  1  0.10000518  0.70593045  0.25000000  1
  Tb  Tb52  1  0.29406955  0.39407474  0.25000000  1
  Tb  Tb53  1  0.39407474  0.10000518  0.75000000  1
