# generated using pymatgen
data_ZnSiPbO4
_symmetry_space_group_name_H-M   'P 1'
_cell_length_a   5.14558720
_cell_length_b   8.36671349
_cell_length_c   19.30335175
_cell_angle_alpha   90.00000000
_cell_angle_beta   90.00000000
_cell_angle_gamma   90.00000000
_symmetry_Int_Tables_number   1
_chemical_formula_structural   ZnSiPbO4
_chemical_formula_sum   'Zn8 Si8 Pb8 O32'
_cell_volume   831.04121750
_cell_formula_units_Z   8
loop_
 _symmetry_equiv_pos_site_id
 _symmetry_equiv_pos_as_xyz
  1  'x, y, z'
loop_
 _atom_site_type_symbol
 _atom_site_label
 _atom_site_symmetry_multiplicity
 _atom_site_fract_x
 _atom_site_fract_y
 _atom_site_fract_z
 _atom_site_occupancy
  O  O0  1  0.52805340  0.20162416  0.41985525  1
  O  O1  1  0.02805340  0.79837584  0.58014475  1
  O  O2  1  0.02805340  0.29837584  0.91985525  1
  O  O3  1  0.52805340  0.70162416  0.08014475  1
  O  O4  1  0.14791008  0.38880338  0.47388660  1
  O  O5  1  0.64791008  0.61119662  0.52611340  1
  O  O6  1  0.64791008  0.11119662  0.97388660  1
  O  O7  1  0.14791008  0.88880338  0.02611340  1
  O  O8  1  0.08178229  0.06992266  0.46548524  1
  O  O9  1  0.58178229  0.93007734  0.53451476  1
  O  O10  1  0.58178229  0.43007734  0.96548524  1
  O  O11  1  0.08178229  0.56992266  0.03451476  1
  O  O12  1  0.08386382  0.24584397  0.34901400  1
  O  O13  1  0.58386382  0.75415603  0.65098600  1
  O  O14  1  0.58386382  0.25415603  0.84901400  1
  O  O15  1  0.08386382  0.74584397  0.15098600  1
  O  O16  1  0.04048499  0.67606007  0.31930539  1
  O  O17  1  0.54048499  0.32393993  0.68069461  1
  O  O18  1  0.54048499  0.82393993  0.81930539  1
  O  O19  1  0.04048499  0.17606007  0.18069461  1
  O  O20  1  0.57796151  0.53738091  0.35316935  1
  O  O21  1  0.07796151  0.46261909  0.64683065  1
  O  O22  1  0.07796151  0.96261909  0.85316935  1
  O  O23  1  0.57796151  0.03738091  0.14683065  1
  O  O24  1  0.59867691  0.22279983  0.25640012  1
  O  O25  1  0.09867691  0.77720017  0.74359988  1
  O  O26  1  0.09867691  0.27720017  0.75640012  1
  O  O27  1  0.59867691  0.72279983  0.24359988  1
  O  O28  1  0.63445852  0.34941977  0.12872112  1
  O  O29  1  0.13445852  0.65058023  0.87127888  1
  O  O30  1  0.13445852  0.15058023  0.62872112  1
  O  O31  1  0.63445852  0.84941977  0.37127888  1
  Si  Si32  1  0.21069363  0.22961556  0.42745564  1
  Si  Si33  1  0.71069363  0.77038444  0.57254436  1
  Si  Si34  1  0.71069363  0.27038444  0.92745564  1
  Si  Si35  1  0.21069363  0.72961556  0.07254436  1
  Si  Si36  1  0.72615482  0.70132631  0.32224248  1
  Si  Si37  1  0.22615482  0.29867369  0.67775752  1
  Si  Si38  1  0.22615482  0.79867369  0.82224248  1
  Si  Si39  1  0.72615482  0.20132631  0.17775752  1
  Zn  Zn40  1  0.72112465  0.00032655  0.44228112  1
  Zn  Zn41  1  0.22112465  0.99967345  0.55771888  1
  Zn  Zn42  1  0.22112465  0.49967345  0.94228112  1
  Zn  Zn43  1  0.72112465  0.50032655  0.05771888  1
  Zn  Zn44  1  0.71992785  0.31978713  0.34447767  1
  Zn  Zn45  1  0.21992785  0.68021287  0.65552233  1
  Zn  Zn46  1  0.21992785  0.18021287  0.84447767  1
  Zn  Zn47  1  0.71992785  0.81978713  0.15552233  1
  Pb  Pb48  1  0.28659332  0.64727685  0.44050116  1
  Pb  Pb49  1  0.78659332  0.35272315  0.55949884  1
  Pb  Pb50  1  0.78659332  0.85272315  0.94050116  1
  Pb  Pb51  1  0.28659332  0.14727685  0.05949884  1
  Pb  Pb52  1  0.25331422  0.54108072  0.23176222  1
  Pb  Pb53  1  0.75331422  0.45891928  0.76823778  1
  Pb  Pb54  1  0.75331422  0.95891928  0.73176222  1
  Pb  Pb55  1  0.25331422  0.04108072  0.26823778  1
