# generated using pymatgen
data_MoBr3
_symmetry_space_group_name_H-M   'P 1'
_cell_length_a   6.11947775
_cell_length_b   7.28604512
_cell_length_c   12.68026568
_cell_angle_alpha   90.00000000
_cell_angle_beta   90.00000000
_cell_angle_gamma   90.00000000
_symmetry_Int_Tables_number   1
_chemical_formula_structural   MoBr3
_chemical_formula_sum   'Mo4 Br12'
_cell_volume   565.37235566
_cell_formula_units_Z   4
loop_
 _symmetry_equiv_pos_site_id
 _symmetry_equiv_pos_as_xyz
  1  'x, y, z'
loop_
 _atom_site_type_symbol
 _atom_site_label
 _atom_site_symmetry_multiplicity
 _atom_site_fract_x
 _atom_site_fract_y
 _atom_site_fract_z
 _atom_site_occupancy
  Br  Br0  1  0.75000000  0.89435481  0.89750452  1
  Br  Br1  1  0.25000000  0.10564519  0.10249548  1
  Br  Br2  1  0.75000000  0.89435481  0.60249548  1
  Br  Br3  1  0.25000000  0.10564519  0.39750452  1
  Br  Br4  1  0.25000000  0.54898989  0.25000000  1
  Br  Br5  1  0.75000000  0.45101011  0.75000000  1
  Br  Br6  1  0.75000000  0.97250575  0.25000000  1
  Br  Br7  1  0.25000000  0.02749425  0.75000000  1
  Br  Br8  1  0.25000000  0.60733960  0.61047168  1
  Br  Br9  1  0.75000000  0.39266040  0.38952832  1
  Br  Br10  1  0.25000000  0.60733960  0.88952832  1
  Br  Br11  1  0.75000000  0.39266040  0.11047168  1
  Mo  Mo12  1  0.97880658  0.74697344  0.75000000  1
  Mo  Mo13  1  0.47880658  0.25302656  0.25000000  1
  Mo  Mo14  1  0.52119342  0.74697344  0.75000000  1
  Mo  Mo15  1  0.02119342  0.25302656  0.25000000  1
