# generated using pymatgen
data_BiSBr
_symmetry_space_group_name_H-M   'P 1'
_cell_length_a   4.08866297
_cell_length_b   8.46763868
_cell_length_c   10.57737491
_cell_angle_alpha   90.00000000
_cell_angle_beta   90.00000000
_cell_angle_gamma   90.00000000
_symmetry_Int_Tables_number   1
_chemical_formula_structural   BiSBr
_chemical_formula_sum   'Bi4 S4 Br4'
_cell_volume   366.20268907
_cell_formula_units_Z   4
loop_
 _symmetry_equiv_pos_site_id
 _symmetry_equiv_pos_as_xyz
  1  'x, y, z'
loop_
 _atom_site_type_symbol
 _atom_site_label
 _atom_site_symmetry_multiplicity
 _atom_site_fract_x
 _atom_site_fract_y
 _atom_site_fract_z
 _atom_site_occupancy
  S  S0  1  0.75000000  0.32997136  0.53797057  1
  S  S1  1  0.25000000  0.17002864  0.03797057  1
  S  S2  1  0.75000000  0.82997136  0.96202943  1
  S  S3  1  0.25000000  0.67002864  0.46202943  1
  Br  Br4  1  0.25000000  0.47328637  0.81055739  1
  Br  Br5  1  0.75000000  0.02671363  0.31055739  1
  Br  Br6  1  0.25000000  0.97328637  0.68944261  1
  Br  Br7  1  0.75000000  0.52671363  0.18944261  1
  Bi  Bi8  1  0.25000000  0.38389952  0.36822876  1
  Bi  Bi9  1  0.75000000  0.61610048  0.63177124  1
  Bi  Bi10  1  0.25000000  0.88389952  0.13177124  1
  Bi  Bi11  1  0.75000000  0.11610048  0.86822876  1
