# generated using pymatgen
data_NdCl3
_symmetry_space_group_name_H-M   'P 1'
_cell_length_a   7.53579484
_cell_length_b   7.53579484
_cell_length_c   4.25950630
_cell_angle_alpha   90.00000000
_cell_angle_beta   90.00000000
_cell_angle_gamma   119.99999997
_symmetry_Int_Tables_number   1
_chemical_formula_structural   NdCl3
_chemical_formula_sum   'Nd2 Cl6'
_cell_volume   209.48263567
_cell_formula_units_Z   2
loop_
 _symmetry_equiv_pos_site_id
 _symmetry_equiv_pos_as_xyz
  1  'x, y, z'
loop_
 _atom_site_type_symbol
 _atom_site_label
 _atom_site_symmetry_multiplicity
 _atom_site_fract_x
 _atom_site_fract_y
 _atom_site_fract_z
 _atom_site_occupancy
  Cl  Cl0  1  0.60820181  0.69505905  0.75000000  1
  Cl  Cl1  1  0.91314276  0.60820181  0.25000000  1
  Cl  Cl2  1  0.39179819  0.30494095  0.25000000  1
  Cl  Cl3  1  0.08685724  0.39179819  0.75000000  1
  Cl  Cl4  1  0.30494095  0.91314276  0.75000000  1
  Cl  Cl5  1  0.69505905  0.08685724  0.25000000  1
  Nd  Nd6  1  0.66666667  0.33333333  0.75000000  1
  Nd  Nd7  1  0.33333333  0.66666667  0.25000000  1
