# generated using pymatgen
data_CaGeAu
_symmetry_space_group_name_H-M   'P 1'
_cell_length_a   4.55712113
_cell_length_b   7.84862483
_cell_length_c   21.76446009
_cell_angle_alpha   90.00000000
_cell_angle_beta   90.00000000
_cell_angle_gamma   90.00000000
_symmetry_Int_Tables_number   1
_chemical_formula_structural   CaGeAu
_chemical_formula_sum   'Ca12 Ge12 Au12'
_cell_volume   778.45236166
_cell_formula_units_Z   12
loop_
 _symmetry_equiv_pos_site_id
 _symmetry_equiv_pos_as_xyz
  1  'x, y, z'
loop_
 _atom_site_type_symbol
 _atom_site_label
 _atom_site_symmetry_multiplicity
 _atom_site_fract_x
 _atom_site_fract_y
 _atom_site_fract_z
 _atom_site_occupancy
  Ca  Ca0  1  0.25000000  0.71639447  0.00060709  1
  Ca  Ca1  1  0.75000000  0.28360553  0.99939291  1
  Ca  Ca2  1  0.75000000  0.21639447  0.49939291  1
  Ca  Ca3  1  0.25000000  0.78360553  0.50060709  1
  Ca  Ca4  1  0.25000000  0.79133208  0.16612771  1
  Ca  Ca5  1  0.75000000  0.20866792  0.83387229  1
  Ca  Ca6  1  0.75000000  0.29133208  0.33387229  1
  Ca  Ca7  1  0.25000000  0.70866792  0.66612771  1
  Ca  Ca8  1  0.25000000  0.70754077  0.33294968  1
  Ca  Ca9  1  0.75000000  0.29245923  0.66705032  1
  Ca  Ca10  1  0.75000000  0.20754077  0.16705032  1
  Ca  Ca11  1  0.25000000  0.79245923  0.83294968  1
  Ge  Ge12  1  0.75000000  0.58617286  0.10361811  1
  Ge  Ge13  1  0.75000000  0.91382714  0.60361811  1
  Ge  Ge14  1  0.25000000  0.08617286  0.39638189  1
  Ge  Ge15  1  0.25000000  0.41691684  0.77115384  1
  Ge  Ge16  1  0.75000000  0.58308316  0.22884616  1
  Ge  Ge17  1  0.75000000  0.91691684  0.72884616  1
  Ge  Ge18  1  0.25000000  0.41382714  0.89638189  1
  Ge  Ge19  1  0.25000000  0.08308316  0.27115384  1
  Ge  Ge20  1  0.25000000  0.40999789  0.56907579  1
  Ge  Ge21  1  0.75000000  0.59000211  0.43092421  1
  Ge  Ge22  1  0.75000000  0.90999789  0.93092421  1
  Ge  Ge23  1  0.25000000  0.09000211  0.06907579  1
  Au  Au24  1  0.25000000  0.08408426  0.93244760  1
  Au  Au25  1  0.75000000  0.91591574  0.06755240  1
  Au  Au26  1  0.75000000  0.58408426  0.56755240  1
  Au  Au27  1  0.25000000  0.41591574  0.43244760  1
  Au  Au28  1  0.25000000  0.08754573  0.73831129  1
  Au  Au29  1  0.75000000  0.58754573  0.76168871  1
  Au  Au30  1  0.25000000  0.41245427  0.23831129  1
  Au  Au31  1  0.25000000  0.08363963  0.59421073  1
  Au  Au32  1  0.75000000  0.91636037  0.40578927  1
  Au  Au33  1  0.75000000  0.58363963  0.90578927  1
  Au  Au34  1  0.25000000  0.41636037  0.09421073  1
  Au  Au35  1  0.75000000  0.91245427  0.26168871  1
