# generated using pymatgen
data_UCl3
_symmetry_space_group_name_H-M   'P 1'
_cell_length_a   7.51756550
_cell_length_b   7.51756550
_cell_length_c   4.25545495
_cell_angle_alpha   90.00000000
_cell_angle_beta   90.00000000
_cell_angle_gamma   119.99999999
_symmetry_Int_Tables_number   1
_chemical_formula_structural   UCl3
_chemical_formula_sum   'U2 Cl6'
_cell_volume   208.27208767
_cell_formula_units_Z   2
loop_
 _symmetry_equiv_pos_site_id
 _symmetry_equiv_pos_as_xyz
  1  'x, y, z'
loop_
 _atom_site_type_symbol
 _atom_site_label
 _atom_site_symmetry_multiplicity
 _atom_site_fract_x
 _atom_site_fract_y
 _atom_site_fract_z
 _atom_site_occupancy
  Cl  Cl0  1  0.61086334  0.69576321  0.75000000  1
  Cl  Cl1  1  0.91510013  0.61086334  0.25000000  1
  Cl  Cl2  1  0.38913666  0.30423679  0.25000000  1
  Cl  Cl3  1  0.08489987  0.38913666  0.75000000  1
  Cl  Cl4  1  0.30423679  0.91510013  0.75000000  1
  Cl  Cl5  1  0.69576321  0.08489987  0.25000000  1
  U  U6  1  0.66666667  0.33333333  0.75000000  1
  U  U7  1  0.33333333  0.66666667  0.25000000  1
