# generated using pymatgen
data_Bi2Rh
_symmetry_space_group_name_H-M   'P 1'
_cell_length_a   6.92561818
_cell_length_b   7.02126071
_cell_length_c   7.06388554
_cell_angle_alpha   117.38022244
_cell_angle_beta   90.00000000
_cell_angle_gamma   90.00000000
_symmetry_Int_Tables_number   1
_chemical_formula_structural   Bi2Rh
_chemical_formula_sum   'Bi8 Rh4'
_cell_volume   305.01250004
_cell_formula_units_Z   4
loop_
 _symmetry_equiv_pos_site_id
 _symmetry_equiv_pos_as_xyz
  1  'x, y, z'
loop_
 _atom_site_type_symbol
 _atom_site_label
 _atom_site_symmetry_multiplicity
 _atom_site_fract_x
 _atom_site_fract_y
 _atom_site_fract_z
 _atom_site_occupancy
  Rh  Rh0  1  0.49787601  0.72875463  0.21622688  1
  Rh  Rh1  1  0.99787601  0.27124537  0.28377312  1
  Rh  Rh2  1  0.50212399  0.27124537  0.78377312  1
  Rh  Rh3  1  0.00212399  0.72875463  0.71622688  1
  Bi  Bi4  1  0.35949551  0.85379674  0.63143473  1
  Bi  Bi5  1  0.85949551  0.14620326  0.86856527  1
  Bi  Bi6  1  0.64050449  0.14620326  0.36856527  1
  Bi  Bi7  1  0.14050449  0.85379674  0.13143473  1
  Bi  Bi8  1  0.85573747  0.65393506  0.33162115  1
  Bi  Bi9  1  0.35573747  0.34606494  0.16837885  1
  Bi  Bi10  1  0.14426253  0.34606494  0.66837885  1
  Bi  Bi11  1  0.64426253  0.65393506  0.83162115  1
