# generated using pymatgen
data_Ge2Pt3
_symmetry_space_group_name_H-M   'P 1'
_cell_length_a   7.05969573
_cell_length_b   7.66088814
_cell_length_c   12.32730653
_cell_angle_alpha   90.00000000
_cell_angle_beta   90.00000000
_cell_angle_gamma   90.00000000
_symmetry_Int_Tables_number   1
_chemical_formula_structural   Ge2Pt3
_chemical_formula_sum   'Ge16 Pt24'
_cell_volume   666.70436705
_cell_formula_units_Z   8
loop_
 _symmetry_equiv_pos_site_id
 _symmetry_equiv_pos_as_xyz
  1  'x, y, z'
loop_
 _atom_site_type_symbol
 _atom_site_label
 _atom_site_symmetry_multiplicity
 _atom_site_fract_x
 _atom_site_fract_y
 _atom_site_fract_z
 _atom_site_occupancy
  Ge  Ge0  1  0.62669234  0.75000000  0.49450398  1
  Ge  Ge1  1  0.87330766  0.75000000  0.99450398  1
  Ge  Ge2  1  0.37330766  0.25000000  0.50549602  1
  Ge  Ge3  1  0.12669234  0.25000000  0.00549602  1
  Ge  Ge4  1  0.12301713  0.75000000  0.49103386  1
  Ge  Ge5  1  0.37698287  0.75000000  0.99103386  1
  Ge  Ge6  1  0.87698287  0.25000000  0.50896614  1
  Ge  Ge7  1  0.62301713  0.25000000  0.00896614  1
  Ge  Ge8  1  0.87522696  0.48247351  0.24689777  1
  Ge  Ge9  1  0.62477304  0.01752649  0.74689777  1
  Ge  Ge10  1  0.12477304  0.98247351  0.75310223  1
  Ge  Ge11  1  0.37522696  0.51752649  0.25310223  1
  Ge  Ge12  1  0.12477304  0.51752649  0.75310223  1
  Ge  Ge13  1  0.37522696  0.98247351  0.25310223  1
  Ge  Ge14  1  0.87522696  0.01752649  0.24689777  1
  Ge  Ge15  1  0.62477304  0.48247351  0.74689777  1
  Pt  Pt16  1  0.64290765  0.75000000  0.28481152  1
  Pt  Pt17  1  0.85709235  0.75000000  0.78481152  1
  Pt  Pt18  1  0.35709235  0.25000000  0.71518848  1
  Pt  Pt19  1  0.14290765  0.25000000  0.21518848  1
  Pt  Pt20  1  0.10512240  0.75000000  0.28301016  1
  Pt  Pt21  1  0.39487760  0.75000000  0.78301016  1
  Pt  Pt22  1  0.89487760  0.25000000  0.71698984  1
  Pt  Pt23  1  0.60512240  0.25000000  0.21698984  1
  Pt  Pt24  1  0.62797946  0.06048892  0.41181322  1
  Pt  Pt25  1  0.87202054  0.43951108  0.91181322  1
  Pt  Pt26  1  0.37202054  0.56048892  0.58818678  1
  Pt  Pt27  1  0.12797946  0.93951108  0.08818678  1
  Pt  Pt28  1  0.37202054  0.93951108  0.58818678  1
  Pt  Pt29  1  0.12797946  0.56048892  0.08818678  1
  Pt  Pt30  1  0.62797946  0.43951108  0.41181322  1
  Pt  Pt31  1  0.87202054  0.06048892  0.91181322  1
  Pt  Pt32  1  0.12242673  0.05999398  0.40952559  1
  Pt  Pt33  1  0.37757327  0.44000602  0.90952559  1
  Pt  Pt34  1  0.87757327  0.55999398  0.59047441  1
  Pt  Pt35  1  0.62242673  0.94000602  0.09047441  1
  Pt  Pt36  1  0.87757327  0.94000602  0.59047441  1
  Pt  Pt37  1  0.62242673  0.55999398  0.09047441  1
  Pt  Pt38  1  0.12242673  0.44000602  0.40952559  1
  Pt  Pt39  1  0.37757327  0.05999398  0.90952559  1
