# generated using pymatgen
data_Tb2Ti3Ge4
_symmetry_space_group_name_H-M   'P 1'
_cell_length_a   7.05739581
_cell_length_b   7.18623532
_cell_length_c   13.49170325
_cell_angle_alpha   90.00000000
_cell_angle_beta   90.00000000
_cell_angle_gamma   90.00000000
_symmetry_Int_Tables_number   1
_chemical_formula_structural   Tb2Ti3Ge4
_chemical_formula_sum   'Tb8 Ti12 Ge16'
_cell_volume   684.24666614
_cell_formula_units_Z   4
loop_
 _symmetry_equiv_pos_site_id
 _symmetry_equiv_pos_as_xyz
  1  'x, y, z'
loop_
 _atom_site_type_symbol
 _atom_site_label
 _atom_site_symmetry_multiplicity
 _atom_site_fract_x
 _atom_site_fract_y
 _atom_site_fract_z
 _atom_site_occupancy
  Ti  Ti0  1  0.34106754  0.83213881  0.87206214  1
  Ti  Ti1  1  0.84106754  0.66786119  0.62793786  1
  Ti  Ti2  1  0.65893246  0.16786119  0.37206214  1
  Ti  Ti3  1  0.15893246  0.33213881  0.12793786  1
  Ti  Ti4  1  0.15893246  0.33213881  0.37206214  1
  Ti  Ti5  1  0.65893246  0.16786119  0.12793786  1
  Ti  Ti6  1  0.33339606  0.00918792  0.25000000  1
  Ti  Ti7  1  0.84106754  0.66786119  0.87206214  1
  Ti  Ti8  1  0.66660394  0.99081208  0.75000000  1
  Ti  Ti9  1  0.16660394  0.50918792  0.75000000  1
  Ti  Ti10  1  0.83339606  0.49081208  0.25000000  1
  Ti  Ti11  1  0.34106754  0.83213881  0.62793786  1
  Ge  Ge12  1  0.32788703  0.04420153  0.45529906  1
  Ge  Ge13  1  0.82788703  0.45579847  0.04470094  1
  Ge  Ge14  1  0.67211297  0.95579847  0.95529906  1
  Ge  Ge15  1  0.17211297  0.54420153  0.54470094  1
  Ge  Ge16  1  0.17211297  0.54420153  0.95529906  1
  Ge  Ge17  1  0.67211297  0.95579847  0.54470094  1
  Ge  Ge18  1  0.82788703  0.45579847  0.45529906  1
  Ge  Ge19  1  0.32788703  0.04420153  0.04470094  1
  Ge  Ge20  1  0.80851961  0.36561196  0.75000000  1
  Ge  Ge21  1  0.30851961  0.13438804  0.75000000  1
  Ge  Ge22  1  0.69148039  0.86561196  0.25000000  1
  Ge  Ge23  1  0.19148039  0.63438804  0.25000000  1
  Ge  Ge24  1  0.03932815  0.86770891  0.75000000  1
  Ge  Ge25  1  0.53932815  0.63229109  0.75000000  1
  Ge  Ge26  1  0.46067185  0.36770891  0.25000000  1
  Ge  Ge27  1  0.96067185  0.13229109  0.25000000  1
  Tb  Tb28  1  0.00310980  0.17315089  0.59504629  1
  Tb  Tb29  1  0.50310980  0.32684911  0.90495371  1
  Tb  Tb30  1  0.49689020  0.67315089  0.40495371  1
  Tb  Tb31  1  0.99689020  0.82684911  0.09504629  1
  Tb  Tb32  1  0.99689020  0.82684911  0.40495371  1
  Tb  Tb33  1  0.49689020  0.67315089  0.09504629  1
  Tb  Tb34  1  0.50310980  0.32684911  0.59504629  1
  Tb  Tb35  1  0.00310980  0.17315089  0.90495371  1
