# generated using pymatgen
data_SiPbO3
_symmetry_space_group_name_H-M   'P 1'
_cell_length_a   7.15311164
_cell_length_b   11.40387580
_cell_length_c   12.50783738
_cell_angle_alpha   112.85309881
_cell_angle_beta   90.00000000
_cell_angle_gamma   90.00000000
_symmetry_Int_Tables_number   1
_chemical_formula_structural   SiPbO3
_chemical_formula_sum   'Si12 Pb12 O36'
_cell_volume   940.21409284
_cell_formula_units_Z   12
loop_
 _symmetry_equiv_pos_site_id
 _symmetry_equiv_pos_as_xyz
  1  'x, y, z'
loop_
 _atom_site_type_symbol
 _atom_site_label
 _atom_site_symmetry_multiplicity
 _atom_site_fract_x
 _atom_site_fract_y
 _atom_site_fract_z
 _atom_site_occupancy
  O  O0  1  0.04663836  0.78298951  0.64121937  1
  O  O1  1  0.04663836  0.71701049  0.85878063  1
  O  O2  1  0.95336164  0.21701049  0.35878063  1
  O  O3  1  0.95336164  0.28298951  0.14121937  1
  O  O4  1  0.37076510  0.86929979  0.58656266  1
  O  O5  1  0.37076510  0.63070021  0.91343734  1
  O  O6  1  0.62923490  0.13070021  0.41343734  1
  O  O7  1  0.62923490  0.36929979  0.08656266  1
  O  O8  1  0.42524042  0.07708845  0.83296148  1
  O  O9  1  0.42524042  0.42291155  0.66703852  1
  O  O10  1  0.57475958  0.92291155  0.16703852  1
  O  O11  1  0.57475958  0.57708845  0.33296148  1
  O  O12  1  0.28606732  0.09432258  0.19325325  1
  O  O13  1  0.28606732  0.40567742  0.30674675  1
  O  O14  1  0.05810217  0.84125415  0.45468006  1
  O  O15  1  0.71393268  0.90567742  0.80674675  1
  O  O16  1  0.94793486  0.92502291  0.29069287  1
  O  O17  1  0.94793486  0.57497709  0.20930713  1
  O  O18  1  0.05206514  0.07497709  0.70930713  1
  O  O19  1  0.05206514  0.42502291  0.79069287  1
  O  O20  1  0.29025199  0.98987449  0.39125357  1
  O  O21  1  0.29025199  0.51012551  0.10874643  1
  O  O22  1  0.70974801  0.01012551  0.60874643  1
  O  O23  1  0.70974801  0.48987449  0.89125357  1
  O  O24  1  0.50000000  0.50000000  0.50000000  1
  O  O25  1  0.50000000  0.00000000  0.00000000  1
  O  O26  1  0.77384099  0.25000000  0.75000000  1
  O  O27  1  0.22615901  0.75000000  0.25000000  1
  O  O28  1  0.76064329  0.36307173  0.54545141  1
  O  O29  1  0.76064329  0.13692827  0.95454859  1
  O  O30  1  0.23935671  0.63692827  0.45454859  1
  O  O31  1  0.23935671  0.86307173  0.04545141  1
  O  O32  1  0.94189783  0.34125415  0.95468006  1
  O  O33  1  0.94189783  0.15874585  0.54531994  1
  O  O34  1  0.05810217  0.65874585  0.04531994  1
  O  O35  1  0.71393268  0.59432258  0.69325325  1
  Si  Si36  1  0.18248508  0.78566412  0.53646963  1
  Si  Si37  1  0.18248508  0.71433588  0.96353037  1
  Si  Si38  1  0.81751492  0.21433588  0.46353037  1
  Si  Si39  1  0.81751492  0.28566412  0.03646963  1
  Si  Si40  1  0.40646885  0.96993354  0.10697188  1
  Si  Si41  1  0.40646885  0.53006646  0.39302812  1
  Si  Si42  1  0.59353115  0.03006646  0.89302812  1
  Si  Si43  1  0.59353115  0.46993354  0.60697188  1
  Si  Si44  1  0.12734078  0.88098668  0.34598174  1
  Si  Si45  1  0.12734078  0.61901332  0.15401826  1
  Si  Si46  1  0.87265922  0.11901332  0.65401826  1
  Si  Si47  1  0.87265922  0.38098668  0.84598174  1
  Pb  Pb48  1  0.30502097  0.19848576  0.39755484  1
  Pb  Pb49  1  0.30502097  0.30151424  0.10244516  1
  Pb  Pb50  1  0.69497903  0.80151424  0.60244516  1
  Pb  Pb51  1  0.69497903  0.69848576  0.89755484  1
  Pb  Pb52  1  0.38423817  0.08807524  0.65469941  1
  Pb  Pb53  1  0.38423817  0.41192476  0.84530059  1
  Pb  Pb54  1  0.61576183  0.91192476  0.34530059  1
  Pb  Pb55  1  0.61576183  0.58807524  0.15469941  1
  Pb  Pb56  1  0.05985324  0.95333745  0.82194438  1
  Pb  Pb57  1  0.05985324  0.54666255  0.67805562  1
  Pb  Pb58  1  0.94014676  0.04666255  0.17805562  1
  Pb  Pb59  1  0.94014676  0.45333745  0.32194438  1
