# generated using pymatgen
data_PCl5
_symmetry_space_group_name_H-M   'P 1'
_cell_length_a   7.59763370
_cell_length_b   9.75102255
_cell_length_c   9.75102255
_cell_angle_alpha   90.00000000
_cell_angle_beta   90.00000000
_cell_angle_gamma   90.00000000
_symmetry_Int_Tables_number   1
_chemical_formula_structural   PCl5
_chemical_formula_sum   'P4 Cl20'
_cell_volume   722.40155628
_cell_formula_units_Z   4
loop_
 _symmetry_equiv_pos_site_id
 _symmetry_equiv_pos_as_xyz
  1  'x, y, z'
loop_
 _atom_site_type_symbol
 _atom_site_label
 _atom_site_symmetry_multiplicity
 _atom_site_fract_x
 _atom_site_fract_y
 _atom_site_fract_z
 _atom_site_occupancy
  P  P0  1  0.00000000  0.75000000  0.25000000  1
  P  P1  1  0.00000000  0.25000000  0.75000000  1
  P  P2  1  0.62097075  0.25000000  0.25000000  1
  P  P3  1  0.37902925  0.75000000  0.75000000  1
  Cl  Cl4  1  0.14935819  0.29684173  0.59308407  1
  Cl  Cl5  1  0.14935819  0.90691593  0.29684173  1
  Cl  Cl6  1  0.14935819  0.59308407  0.20315827  1
  Cl  Cl7  1  0.14935819  0.20315827  0.90691593  1
  Cl  Cl8  1  0.85064181  0.70315827  0.40691593  1
  Cl  Cl9  1  0.85064181  0.09308407  0.70315827  1
  Cl  Cl10  1  0.85064181  0.40691593  0.79684173  1
  Cl  Cl11  1  0.85064181  0.79684173  0.09308407  1
  Cl  Cl12  1  0.90498625  0.25000000  0.25000000  1
  Cl  Cl13  1  0.09501375  0.75000000  0.75000000  1
  Cl  Cl14  1  0.33163761  0.25000000  0.25000000  1
  Cl  Cl15  1  0.66836239  0.75000000  0.75000000  1
  Cl  Cl16  1  0.61782981  0.33824230  0.45414700  1
  Cl  Cl17  1  0.61782981  0.04585300  0.33824230  1
  Cl  Cl18  1  0.61782981  0.45414700  0.16175770  1
  Cl  Cl19  1  0.61782981  0.16175770  0.04585300  1
  Cl  Cl20  1  0.38217019  0.66175770  0.54585300  1
  Cl  Cl21  1  0.38217019  0.95414700  0.66175770  1
  Cl  Cl22  1  0.38217019  0.54585300  0.83824230  1
  Cl  Cl23  1  0.38217019  0.83824230  0.95414700  1
