# generated using pymatgen
data_Hg5(ClO2)2
_symmetry_space_group_name_H-M   'P 1'
_cell_length_a   6.23981924
_cell_length_b   9.02084172
_cell_length_c   9.02084172
_cell_angle_alpha   82.85716328
_cell_angle_beta   69.76595979
_cell_angle_gamma   69.76595979
_symmetry_Int_Tables_number   1
_chemical_formula_structural   Hg5(ClO2)2
_chemical_formula_sum   'Hg10 Cl4 O8'
_cell_volume   447.02512102
_cell_formula_units_Z   2
loop_
 _symmetry_equiv_pos_site_id
 _symmetry_equiv_pos_as_xyz
  1  'x, y, z'
loop_
 _atom_site_type_symbol
 _atom_site_label
 _atom_site_symmetry_multiplicity
 _atom_site_fract_x
 _atom_site_fract_y
 _atom_site_fract_z
 _atom_site_occupancy
  O  O0  1  0.87515426  0.17828887  0.47012531  1
  O  O1  1  0.02356844  0.32171113  0.02987469  1
  O  O2  1  0.47643156  0.47012531  0.17828887  1
  O  O3  1  0.62484574  0.02987469  0.32171113  1
  O  O4  1  0.37515426  0.97012531  0.67828887  1
  O  O5  1  0.52356844  0.52987469  0.82171113  1
  O  O6  1  0.12484574  0.82171113  0.52987469  1
  O  O7  1  0.97643156  0.67828887  0.97012531  1
  Cl  Cl8  1  0.22992414  0.39113985  0.60886015  1
  Cl  Cl9  1  0.72992414  0.10886015  0.89113985  1
  Cl  Cl10  1  0.27007586  0.89113985  0.10886015  1
  Cl  Cl11  1  0.77007586  0.60886015  0.39113985  1
  Hg  Hg12  1  0.78470188  0.86097340  0.13902660  1
  Hg  Hg13  1  0.28470188  0.63902660  0.36097340  1
  Hg  Hg14  1  0.71529812  0.36097340  0.63902660  1
  Hg  Hg15  1  0.21529812  0.13902660  0.86097340  1
  Hg  Hg16  1  0.75000000  0.59090073  0.90909927  1
  Hg  Hg17  1  0.75000000  0.90909927  0.59090073  1
  Hg  Hg18  1  0.25000000  0.40909927  0.09090073  1
  Hg  Hg19  1  0.25000000  0.09090073  0.40909927  1
  Hg  Hg20  1  0.75000000  0.25000000  0.25000000  1
  Hg  Hg21  1  0.25000000  0.75000000  0.75000000  1
