# generated using pymatgen
data_AsI3
_symmetry_space_group_name_H-M   'P 1'
_cell_length_a   8.61184294
_cell_length_b   8.61184293
_cell_length_c   8.61184294
_cell_angle_alpha   51.07233546
_cell_angle_beta   51.07233547
_cell_angle_gamma   51.07233547
_symmetry_Int_Tables_number   1
_chemical_formula_structural   AsI3
_chemical_formula_sum   'As2 I6'
_cell_volume   356.59096453
_cell_formula_units_Z   2
loop_
 _symmetry_equiv_pos_site_id
 _symmetry_equiv_pos_as_xyz
  1  'x, y, z'
loop_
 _atom_site_type_symbol
 _atom_site_label
 _atom_site_symmetry_multiplicity
 _atom_site_fract_x
 _atom_site_fract_y
 _atom_site_fract_z
 _atom_site_occupancy
  As  As0  1  0.18025092  0.18025092  0.18025092  1
  As  As1  1  0.81974908  0.81974908  0.81974908  1
  I  I2  1  0.43358801  0.05789098  0.77805183  1
  I  I3  1  0.77805183  0.43358801  0.05789098  1
  I  I4  1  0.05789098  0.77805183  0.43358801  1
  I  I5  1  0.56641199  0.94210902  0.22194817  1
  I  I6  1  0.22194817  0.56641199  0.94210902  1
  I  I7  1  0.94210902  0.22194817  0.56641199  1
