# generated using pymatgen
data_RuBr3
_symmetry_space_group_name_H-M   'P 1'
_cell_length_a   5.92598027
_cell_length_b   7.14166256
_cell_length_c   12.41300445
_cell_angle_alpha   90.00000000
_cell_angle_beta   90.00000000
_cell_angle_gamma   90.00000000
_symmetry_Int_Tables_number   1
_chemical_formula_structural   RuBr3
_chemical_formula_sum   'Ru4 Br12'
_cell_volume   525.33512358
_cell_formula_units_Z   4
loop_
 _symmetry_equiv_pos_site_id
 _symmetry_equiv_pos_as_xyz
  1  'x, y, z'
loop_
 _atom_site_type_symbol
 _atom_site_label
 _atom_site_symmetry_multiplicity
 _atom_site_fract_x
 _atom_site_fract_y
 _atom_site_fract_z
 _atom_site_occupancy
  Br  Br0  1  0.25000000  0.03052705  0.75000000  1
  Br  Br1  1  0.75000000  0.96947295  0.25000000  1
  Br  Br2  1  0.75000000  0.46115006  0.75000000  1
  Br  Br3  1  0.25000000  0.53884994  0.25000000  1
  Br  Br4  1  0.25000000  0.60343480  0.60840542  1
  Br  Br5  1  0.75000000  0.39656520  0.39159458  1
  Br  Br6  1  0.25000000  0.60343480  0.89159458  1
  Br  Br7  1  0.75000000  0.39656520  0.10840542  1
  Br  Br8  1  0.25000000  0.11124827  0.39185909  1
  Br  Br9  1  0.75000000  0.88875173  0.60814091  1
  Br  Br10  1  0.25000000  0.11124827  0.10814091  1
  Br  Br11  1  0.75000000  0.88875173  0.89185909  1
  Ru  Ru12  1  0.99974159  0.74600029  0.75000000  1
  Ru  Ru13  1  0.49974159  0.25399971  0.25000000  1
  Ru  Ru14  1  0.50025841  0.74600029  0.75000000  1
  Ru  Ru15  1  0.00025841  0.25399971  0.25000000  1
