# generated using pymatgen
data_Bi2TeO5
_symmetry_space_group_name_H-M   'P 1'
_cell_length_a   5.60780034
_cell_length_b   8.85540173
_cell_length_c   11.71846304
_cell_angle_alpha   90.00000000
_cell_angle_beta   90.00000000
_cell_angle_gamma   108.45934115
_symmetry_Int_Tables_number   1
_chemical_formula_structural   Bi2TeO5
_chemical_formula_sum   'Bi8 Te4 O20'
_cell_volume   551.98979180
_cell_formula_units_Z   4
loop_
 _symmetry_equiv_pos_site_id
 _symmetry_equiv_pos_as_xyz
  1  'x, y, z'
loop_
 _atom_site_type_symbol
 _atom_site_label
 _atom_site_symmetry_multiplicity
 _atom_site_fract_x
 _atom_site_fract_y
 _atom_site_fract_z
 _atom_site_occupancy
  O  O0  1  0.87298491  0.31812864  0.78693932  1
  O  O1  1  0.55485628  0.68187136  0.21306068  1
  O  O2  1  0.37298491  0.31812864  0.21306068  1
  O  O3  1  0.05485628  0.68187136  0.78693932  1
  O  O4  1  0.46380416  0.32112899  0.51474186  1
  O  O5  1  0.14267517  0.67887101  0.48525814  1
  O  O6  1  0.96380416  0.32112899  0.48525814  1
  O  O7  1  0.64267517  0.67887101  0.51474186  1
  O  O8  1  0.89425406  0.50000000  0.29627193  1
  O  O9  1  0.39425406  0.50000000  0.70372807  1
  O  O10  1  0.43515681  0.30175780  0.93300247  1
  O  O11  1  0.13339901  0.69824220  0.06699753  1
  O  O12  1  0.81027476  0.91537915  0.74245160  1
  O  O13  1  0.89489560  0.08462085  0.25754840  1
  O  O14  1  0.31027476  0.91537915  0.25754840  1
  O  O15  1  0.39489560  0.08462085  0.74245160  1
  O  O16  1  0.73898680  0.00000000  0.50000000  1
  O  O17  1  0.23898680  0.00000000  0.50000000  1
  O  O18  1  0.63339901  0.69824220  0.93300247  1
  O  O19  1  0.93515681  0.30175780  0.06699753  1
  Te  Te20  1  0.60792768  0.16758176  0.86745917  1
  Te  Te21  1  0.44034591  0.83241824  0.13254083  1
  Te  Te22  1  0.10792768  0.16758176  0.13254083  1
  Te  Te23  1  0.94034591  0.83241824  0.86745917  1
  Bi  Bi24  1  0.24649257  0.50000000  0.38300240  1
  Bi  Bi25  1  0.74649257  0.50000000  0.61699760  1
  Bi  Bi26  1  0.76079742  0.50000000  0.12981141  1
  Bi  Bi27  1  0.26079742  0.50000000  0.87018859  1
  Bi  Bi28  1  0.11477224  0.16929562  0.60750154  1
  Bi  Bi29  1  0.94547661  0.83070438  0.39249846  1
  Bi  Bi30  1  0.61477224  0.16929562  0.39249846  1
  Bi  Bi31  1  0.44547661  0.83070438  0.60750154  1
