# generated using pymatgen
data_SbCl5
_symmetry_space_group_name_H-M   'P 1'
_cell_length_a   8.01024657
_cell_length_b   8.01024657
_cell_length_c   8.43475887
_cell_angle_alpha   90.00000000
_cell_angle_beta   90.00000000
_cell_angle_gamma   119.99999997
_symmetry_Int_Tables_number   1
_chemical_formula_structural   SbCl5
_chemical_formula_sum   'Sb2 Cl10'
_cell_volume   468.70012857
_cell_formula_units_Z   2
loop_
 _symmetry_equiv_pos_site_id
 _symmetry_equiv_pos_as_xyz
  1  'x, y, z'
loop_
 _atom_site_type_symbol
 _atom_site_label
 _atom_site_symmetry_multiplicity
 _atom_site_fract_x
 _atom_site_fract_y
 _atom_site_fract_z
 _atom_site_occupancy
  Cl  Cl0  1  0.83478724  0.66957448  0.75000000  1
  Cl  Cl1  1  0.16521276  0.83478724  0.25000000  1
  Cl  Cl2  1  0.33333333  0.66666667  0.96821000  1
  Cl  Cl3  1  0.66666667  0.33333333  0.46821000  1
  Cl  Cl4  1  0.66666667  0.33333333  0.03179000  1
  Cl  Cl5  1  0.33333333  0.66666667  0.53179000  1
  Cl  Cl6  1  0.16521276  0.33042552  0.25000000  1
  Cl  Cl7  1  0.83478724  0.16521276  0.75000000  1
  Cl  Cl8  1  0.33042552  0.16521276  0.75000000  1
  Cl  Cl9  1  0.66957448  0.83478724  0.25000000  1
  Sb  Sb10  1  0.66666667  0.33333333  0.75000000  1
  Sb  Sb11  1  0.33333333  0.66666667  0.25000000  1
