# generated using pymatgen
data_Ti4O7
_symmetry_space_group_name_H-M   'P 1'
_cell_length_a   5.91134591
_cell_length_b   7.44378964
_cell_length_c   12.23415308
_cell_angle_alpha   97.04692971
_cell_angle_beta   92.30515752
_cell_angle_gamma   111.82347179
_symmetry_Int_Tables_number   1
_chemical_formula_structural   Ti4O7
_chemical_formula_sum   'Ti16 O28'
_cell_volume   493.82447211
_cell_formula_units_Z   4
loop_
 _symmetry_equiv_pos_site_id
 _symmetry_equiv_pos_as_xyz
  1  'x, y, z'
loop_
 _atom_site_type_symbol
 _atom_site_label
 _atom_site_symmetry_multiplicity
 _atom_site_fract_x
 _atom_site_fract_y
 _atom_site_fract_z
 _atom_site_occupancy
  Ti  Ti0  1  0.21509556  0.64622653  0.57510654  1
  Ti  Ti1  1  0.03827143  0.31793392  0.77433067  1
  Ti  Ti2  1  0.22869968  0.59423628  0.06484013  1
  Ti  Ti3  1  0.35627785  0.55072321  0.30645993  1
  Ti  Ti4  1  0.20341797  0.16952304  0.54572987  1
  Ti  Ti5  1  0.29288807  0.02079894  0.83240116  1
  Ti  Ti6  1  0.22734663  0.13760146  0.07171776  1
  Ti  Ti7  1  0.63637243  0.92799552  0.69840447  1
  Ti  Ti8  1  0.36362857  0.07200448  0.30159553  1
  Ti  Ti9  1  0.77265337  0.86239854  0.92828224  1
  Ti  Ti10  1  0.70711193  0.97920106  0.16759884  1
  Ti  Ti11  1  0.79658203  0.83047696  0.45427013  1
  Ti  Ti12  1  0.64372215  0.44927679  0.69354007  1
  Ti  Ti13  1  0.77130032  0.40576372  0.93515987  1
  Ti  Ti14  1  0.96172857  0.68206608  0.22566933  1
  Ti  Ti15  1  0.78490444  0.35377347  0.42489346  1
  O  O16  1  0.00495555  0.51146491  0.69471910  1
  O  O17  1  0.12737451  0.89653287  0.96296970  1
  O  O18  1  0.13073443  0.45409677  0.91616639  1
  O  O19  1  0.30443725  0.91088027  0.66021587  1
  O  O20  1  0.09830087  0.35520507  0.49835633  1
  O  O21  1  0.31874827  0.77711686  0.22159601  1
  O  O22  1  0.04290186  0.98244245  0.19401561  1
  O  O23  1  0.50103669  0.87805272  0.84786497  1
  O  O24  1  0.42199356  0.70917900  0.45236698  1
  O  O25  1  0.30445400  0.27622385  0.71003308  1
  O  O26  1  0.13358890  0.97465353  0.40975332  1
  O  O27  1  0.53143027  0.64770079  0.65980735  1
  O  O28  1  0.27547681  0.40709890  0.14036741  1
  O  O29  1  0.42792399  0.23543500  0.94944269  1
  O  O30  1  0.57207601  0.76456500  0.05055731  1
  O  O31  1  0.72452319  0.59290110  0.85963259  1
  O  O32  1  0.46856973  0.35229921  0.34019265  1
  O  O33  1  0.86641110  0.02534647  0.59024668  1
  O  O34  1  0.69554600  0.72377615  0.28996692  1
  O  O35  1  0.57800644  0.29082100  0.54763302  1
  O  O36  1  0.49896331  0.12194728  0.15213503  1
  O  O37  1  0.95709814  0.01755755  0.80598439  1
  O  O38  1  0.68125173  0.22288314  0.77840399  1
  O  O39  1  0.90169913  0.64479493  0.50164367  1
  O  O40  1  0.69556275  0.08911973  0.33978413  1
  O  O41  1  0.86926557  0.54590323  0.08383361  1
  O  O42  1  0.87262549  0.10346713  0.03703030  1
  O  O43  1  0.99504445  0.48853509  0.30528090  1
