# generated using pymatgen
data_BiF3
_symmetry_space_group_name_H-M   'P 1'
_cell_length_a   5.01044966
_cell_length_b   6.54745772
_cell_length_c   7.10367931
_cell_angle_alpha   90.00000000
_cell_angle_beta   90.00000000
_cell_angle_gamma   90.00000000
_symmetry_Int_Tables_number   1
_chemical_formula_structural   BiF3
_chemical_formula_sum   'Bi4 F12'
_cell_volume   233.04122425
_cell_formula_units_Z   4
loop_
 _symmetry_equiv_pos_site_id
 _symmetry_equiv_pos_as_xyz
  1  'x, y, z'
loop_
 _atom_site_type_symbol
 _atom_site_label
 _atom_site_symmetry_multiplicity
 _atom_site_fract_x
 _atom_site_fract_y
 _atom_site_fract_z
 _atom_site_occupancy
  F  F0  1  0.35155217  0.16071817  0.43965519  1
  F  F1  1  0.85155217  0.33928183  0.56034481  1
  F  F2  1  0.14844783  0.66071817  0.06034481  1
  F  F3  1  0.64844783  0.83928183  0.93965519  1
  F  F4  1  0.63700798  0.54054049  0.25000000  1
  F  F5  1  0.13700798  0.95945951  0.75000000  1
  F  F6  1  0.86299202  0.04054049  0.25000000  1
  F  F7  1  0.36299202  0.45945951  0.75000000  1
  F  F8  1  0.35155217  0.16071817  0.06034481  1
  F  F9  1  0.85155217  0.33928183  0.93965519  1
  F  F10  1  0.14844783  0.66071817  0.43965519  1
  F  F11  1  0.64844783  0.83928183  0.56034481  1
  Bi  Bi12  1  0.97016253  0.63470988  0.75000000  1
  Bi  Bi13  1  0.47016253  0.86529012  0.25000000  1
  Bi  Bi14  1  0.52983747  0.13470988  0.75000000  1
  Bi  Bi15  1  0.02983747  0.36529012  0.25000000  1
