# generated using pymatgen
data_K2In3AgSe6
_symmetry_space_group_name_H-M   'P 1'
_cell_length_a   8.41586180
_cell_length_b   8.41586181
_cell_length_c   21.80884707
_cell_angle_alpha   84.33077245
_cell_angle_beta   84.33077246
_cell_angle_gamma   89.86841964
_symmetry_Int_Tables_number   1
_chemical_formula_structural   K2In3AgSe6
_chemical_formula_sum   'K8 In12 Ag4 Se24'
_cell_volume   1529.53237415
_cell_formula_units_Z   4
loop_
 _symmetry_equiv_pos_site_id
 _symmetry_equiv_pos_as_xyz
  1  'x, y, z'
loop_
 _atom_site_type_symbol
 _atom_site_label
 _atom_site_symmetry_multiplicity
 _atom_site_fract_x
 _atom_site_fract_y
 _atom_site_fract_z
 _atom_site_occupancy
  K  K0  1  0.89524515  0.79259214  0.91719433  1
  K  K1  1  0.20740786  0.10475485  0.58280567  1
  K  K2  1  0.10475485  0.20740786  0.08280567  1
  K  K3  1  0.79259214  0.89524515  0.41719433  1
  K  K4  1  0.39273483  0.74964825  0.91726593  1
  K  K5  1  0.25035175  0.60726517  0.58273407  1
  K  K6  1  0.60726517  0.25035175  0.08273407  1
  K  K7  1  0.74964825  0.39273483  0.41726593  1
  Se  Se8  1  0.30461221  0.38170670  0.45987676  1
  Se  Se9  1  0.61829330  0.69538779  0.04012324  1
  Se  Se10  1  0.69538779  0.61829330  0.54012324  1
  Se  Se11  1  0.38170670  0.30461221  0.95987676  1
  Se  Se12  1  0.21590762  0.88220347  0.45964965  1
  Se  Se13  1  0.11779653  0.78409238  0.04035035  1
  Se  Se14  1  0.78409238  0.11779653  0.54035035  1
  Se  Se15  1  0.88220347  0.21590762  0.95964965  1
  Se  Se16  1  0.17467782  0.02680274  0.82463737  1
  Se  Se17  1  0.97319726  0.82532218  0.67536263  1
  Se  Se18  1  0.82532218  0.97319726  0.17536263  1
  Se  Se19  1  0.02680274  0.17467782  0.32463737  1
  Se  Se20  1  0.43941780  0.84000670  0.67519770  1
  Se  Se21  1  0.15999330  0.56058220  0.82480230  1
  Se  Se22  1  0.56058220  0.15999330  0.32480230  1
  Se  Se23  1  0.84000670  0.43941780  0.17519770  1
  Se  Se24  1  0.66293987  0.02792845  0.82543084  1
  Se  Se25  1  0.97207155  0.33706013  0.67456916  1
  Se  Se26  1  0.33706013  0.97207155  0.17456916  1
  Se  Se27  1  0.02792845  0.66293987  0.32543084  1
  Se  Se28  1  0.43695764  0.32870236  0.67478236  1
  Se  Se29  1  0.67129764  0.56304236  0.82521764  1
  Se  Se30  1  0.56304236  0.67129764  0.32521764  1
  Se  Se31  1  0.32870236  0.43695764  0.17478236  1
  Ag  Ag32  1  0.56259205  0.43740795  0.25000000  1
  Ag  Ag33  1  0.43740795  0.56259205  0.75000000  1
  Ag  Ag34  1  0.06476040  0.93523960  0.25000000  1
  Ag  Ag35  1  0.93523960  0.06476040  0.75000000  1
  In  In36  1  0.27744459  0.15080155  0.38761838  1
  In  In37  1  0.84919845  0.72255541  0.11238162  1
  In  In38  1  0.72255541  0.84919845  0.61238162  1
  In  In39  1  0.15080155  0.27744459  0.88761838  1
  In  In40  1  0.27972942  0.65011694  0.38810586  1
  In  In41  1  0.34988306  0.72027058  0.11189414  1
  In  In42  1  0.72027058  0.34988306  0.61189414  1
  In  In43  1  0.65011694  0.27972942  0.88810586  1
  In  In44  1  0.06695632  0.44007546  0.24999396  1
  In  In45  1  0.55992454  0.93304368  0.25000604  1
  In  In46  1  0.93304368  0.55992454  0.75000604  1
  In  In47  1  0.44007546  0.06695632  0.74999396  1
