# generated using pymatgen
data_Li4Mn3F10
_symmetry_space_group_name_H-M   'P 1'
_cell_length_a   9.99235114
_cell_length_b   9.99235114
_cell_length_c   5.21498214
_cell_angle_alpha   84.17869565
_cell_angle_beta   95.82130435
_cell_angle_gamma   68.63930010
_symmetry_Int_Tables_number   1
_chemical_formula_structural   Li4Mn3F10
_chemical_formula_sum   'Li8 Mn6 F20'
_cell_volume   477.02044036
_cell_formula_units_Z   2
loop_
 _symmetry_equiv_pos_site_id
 _symmetry_equiv_pos_as_xyz
  1  'x, y, z'
loop_
 _atom_site_type_symbol
 _atom_site_label
 _atom_site_symmetry_multiplicity
 _atom_site_fract_x
 _atom_site_fract_y
 _atom_site_fract_z
 _atom_site_occupancy
  Li  Li0  1  0.11972295  0.39809496  0.67557310  1
  Li  Li1  1  0.60190504  0.88027705  0.17557310  1
  Li  Li2  1  0.70960697  0.70960697  0.75000000  1
  Li  Li3  1  0.42294661  0.42294661  0.75000000  1
  Li  Li4  1  0.57705339  0.57705339  0.25000000  1
  Li  Li5  1  0.29039303  0.29039303  0.25000000  1
  Li  Li6  1  0.39809496  0.11972295  0.82442690  1
  Li  Li7  1  0.88027705  0.60190504  0.32442690  1
  Mn  Mn8  1  0.37596206  0.77913707  0.65629702  1
  Mn  Mn9  1  0.22086293  0.62403794  0.15629702  1
  Mn  Mn10  1  0.88501346  0.88501346  0.75000000  1
  Mn  Mn11  1  0.11498654  0.11498654  0.25000000  1
  Mn  Mn12  1  0.77913707  0.37596206  0.84370298  1
  Mn  Mn13  1  0.62403794  0.22086293  0.34370298  1
  F  F14  1  0.45849968  0.91191312  0.84299325  1
  F  F15  1  0.08808688  0.54150032  0.34299325  1
  F  F16  1  0.80173061  0.09833712  0.61718985  1
  F  F17  1  0.90166288  0.19826939  0.11718985  1
  F  F18  1  0.26485342  0.43923337  0.95189968  1
  F  F19  1  0.56076663  0.73514658  0.45189968  1
  F  F20  1  0.40381229  0.64933417  0.01082453  1
  F  F21  1  0.35066583  0.59618771  0.51082453  1
  F  F22  1  0.77085452  0.81574041  0.99533865  1
  F  F23  1  0.18425959  0.22914548  0.49533865  1
  F  F24  1  0.81574041  0.77085452  0.50466135  1
  F  F25  1  0.22914548  0.18425959  0.00466135  1
  F  F26  1  0.64933417  0.40381229  0.48917547  1
  F  F27  1  0.59618771  0.35066583  0.98917547  1
  F  F28  1  0.43923337  0.26485342  0.54810032  1
  F  F29  1  0.73514658  0.56076663  0.04810032  1
  F  F30  1  0.09833712  0.80173061  0.88281015  1
  F  F31  1  0.19826939  0.90166288  0.38281015  1
  F  F32  1  0.91191312  0.45849968  0.65700675  1
  F  F33  1  0.54150032  0.08808688  0.15700675  1
