# generated using pymatgen
data_Sr2Bi2O5
_symmetry_space_group_name_H-M   'P 1'
_cell_length_a   6.25426308
_cell_length_b   7.75965055
_cell_length_c   14.62049721
_cell_angle_alpha   90.00000000
_cell_angle_beta   90.00000000
_cell_angle_gamma   90.00000000
_symmetry_Int_Tables_number   1
_chemical_formula_structural   Sr2Bi2O5
_chemical_formula_sum   'Sr8 Bi8 O20'
_cell_volume   709.54582881
_cell_formula_units_Z   4
loop_
 _symmetry_equiv_pos_site_id
 _symmetry_equiv_pos_as_xyz
  1  'x, y, z'
loop_
 _atom_site_type_symbol
 _atom_site_label
 _atom_site_symmetry_multiplicity
 _atom_site_fract_x
 _atom_site_fract_y
 _atom_site_fract_z
 _atom_site_occupancy
  Sr  Sr0  1  0.25000000  0.37361464  0.43399058  1
  Sr  Sr1  1  0.75000000  0.87361464  0.06600942  1
  Sr  Sr2  1  0.75000000  0.62638536  0.56600942  1
  Sr  Sr3  1  0.25000000  0.12638536  0.93399058  1
  Sr  Sr4  1  0.75000000  0.37652415  0.05219379  1
  Sr  Sr5  1  0.25000000  0.87652415  0.44780621  1
  Sr  Sr6  1  0.75000000  0.12347585  0.55219379  1
  Sr  Sr7  1  0.25000000  0.62347585  0.94780621  1
  Bi  Bi8  1  0.75000000  0.88221581  0.81643656  1
  Bi  Bi9  1  0.75000000  0.13115456  0.30973135  1
  Bi  Bi10  1  0.75000000  0.36884544  0.80973135  1
  Bi  Bi11  1  0.25000000  0.63115456  0.19026865  1
  Bi  Bi12  1  0.75000000  0.61778419  0.31643656  1
  Bi  Bi13  1  0.25000000  0.38221581  0.68356344  1
  Bi  Bi14  1  0.25000000  0.11778419  0.18356344  1
  Bi  Bi15  1  0.25000000  0.86884544  0.69026865  1
  O  O16  1  0.50892112  0.11818967  0.40792295  1
  O  O17  1  0.50778900  0.86746770  0.91370454  1
  O  O18  1  0.49107888  0.61818967  0.09207705  1
  O  O19  1  0.00892112  0.88181033  0.59207705  1
  O  O20  1  0.25000000  0.37272584  0.24408393  1
  O  O21  1  0.99107888  0.11818967  0.40792295  1
  O  O22  1  0.99221100  0.63253230  0.41370454  1
  O  O23  1  0.75000000  0.62727416  0.75591607  1
  O  O24  1  0.49107888  0.88181033  0.59207705  1
  O  O25  1  0.50892112  0.38181033  0.90792295  1
  O  O26  1  0.49221100  0.13253230  0.08629546  1
  O  O27  1  0.99221100  0.86746770  0.91370454  1
  O  O28  1  0.00892112  0.61818967  0.09207705  1
  O  O29  1  0.00778900  0.13253230  0.08629546  1
  O  O30  1  0.49221100  0.36746770  0.58629546  1
  O  O31  1  0.25000000  0.12727416  0.74408393  1
  O  O32  1  0.00778900  0.36746770  0.58629546  1
  O  O33  1  0.99107888  0.38181033  0.90792295  1
  O  O34  1  0.50778900  0.63253230  0.41370454  1
  O  O35  1  0.75000000  0.87272584  0.25591607  1
