# generated using pymatgen
data_SnBr4
_symmetry_space_group_name_H-M   'P 1'
_cell_length_a   7.62487724
_cell_length_b   11.41388111
_cell_length_c   11.46094668
_cell_angle_alpha   102.92003255
_cell_angle_beta   90.00000000
_cell_angle_gamma   90.00000000
_symmetry_Int_Tables_number   1
_chemical_formula_structural   SnBr4
_chemical_formula_sum   'Sn4 Br16'
_cell_volume   972.18769273
_cell_formula_units_Z   4
loop_
 _symmetry_equiv_pos_site_id
 _symmetry_equiv_pos_as_xyz
  1  'x, y, z'
loop_
 _atom_site_type_symbol
 _atom_site_label
 _atom_site_symmetry_multiplicity
 _atom_site_fract_x
 _atom_site_fract_y
 _atom_site_fract_z
 _atom_site_occupancy
  Br  Br0  1  0.92428914  0.80174841  0.96028039  1
  Br  Br1  1  0.42428914  0.19825159  0.53971961  1
  Br  Br2  1  0.07571086  0.19825159  0.03971961  1
  Br  Br3  1  0.57571086  0.80174841  0.46028039  1
  Br  Br4  1  0.42260467  0.92672476  0.80395992  1
  Br  Br5  1  0.92260467  0.07327524  0.69604008  1
  Br  Br6  1  0.57739533  0.07327524  0.19604008  1
  Br  Br7  1  0.07739533  0.92672476  0.30395992  1
  Br  Br8  1  0.11614353  0.68918881  0.57671203  1
  Br  Br9  1  0.61614353  0.31081119  0.92328797  1
  Br  Br10  1  0.88385647  0.31081119  0.42328797  1
  Br  Br11  1  0.38385647  0.68918881  0.07671203  1
  Br  Br12  1  0.57857071  0.58176938  0.69286782  1
  Br  Br13  1  0.07857071  0.41823062  0.80713218  1
  Br  Br14  1  0.42142929  0.41823062  0.30713218  1
  Br  Br15  1  0.92142929  0.58176938  0.19286782  1
  Sn  Sn16  1  0.07746526  0.74984906  0.13273951  1
  Sn  Sn17  1  0.57746526  0.25015094  0.36726049  1
  Sn  Sn18  1  0.92253474  0.25015094  0.86726049  1
  Sn  Sn19  1  0.42253474  0.74984906  0.63273951  1
