# generated using pymatgen
data_Th3Bi4
_symmetry_space_group_name_H-M   'P 1'
_cell_length_a   8.37768559
_cell_length_b   8.37768559
_cell_length_c   8.37768559
_cell_angle_alpha   109.47122061
_cell_angle_beta   109.47122062
_cell_angle_gamma   109.47122065
_symmetry_Int_Tables_number   1
_chemical_formula_structural   Th3Bi4
_chemical_formula_sum   'Th6 Bi8'
_cell_volume   452.63723963
_cell_formula_units_Z   2
loop_
 _symmetry_equiv_pos_site_id
 _symmetry_equiv_pos_as_xyz
  1  'x, y, z'
loop_
 _atom_site_type_symbol
 _atom_site_label
 _atom_site_symmetry_multiplicity
 _atom_site_fract_x
 _atom_site_fract_y
 _atom_site_fract_z
 _atom_site_occupancy
  Bi  Bi0  1  0.15933429  0.15933429  0.15933429  1
  Bi  Bi1  1  0.84066571  0.50000000  0.00000000  1
  Bi  Bi2  1  0.00000000  0.84066571  0.50000000  1
  Bi  Bi3  1  0.50000000  0.00000000  0.84066571  1
  Bi  Bi4  1  0.00000000  0.34066571  0.50000000  1
  Bi  Bi5  1  0.50000000  0.00000000  0.34066571  1
  Bi  Bi6  1  0.34066571  0.50000000  0.00000000  1
  Bi  Bi7  1  0.65933429  0.65933429  0.65933429  1
  Th  Th8  1  0.25000000  0.62500000  0.37500000  1
  Th  Th9  1  0.37500000  0.25000000  0.62500000  1
  Th  Th10  1  0.12500000  0.75000000  0.87500000  1
  Th  Th11  1  0.87500000  0.12500000  0.75000000  1
  Th  Th12  1  0.62500000  0.37500000  0.25000000  1
  Th  Th13  1  0.75000000  0.87500000  0.12500000  1
