# generated using pymatgen
data_BClF6
_symmetry_space_group_name_H-M   'P 1'
_cell_length_a   5.88679932
_cell_length_b   9.10634997
_cell_length_c   9.10510064
_cell_angle_alpha   90.00000000
_cell_angle_beta   90.00000000
_cell_angle_gamma   98.41036613
_symmetry_Int_Tables_number   1
_chemical_formula_structural   BClF6
_chemical_formula_sum   'B4 Cl4 F24'
_cell_volume   482.85037315
_cell_formula_units_Z   4
loop_
 _symmetry_equiv_pos_site_id
 _symmetry_equiv_pos_as_xyz
  1  'x, y, z'
loop_
 _atom_site_type_symbol
 _atom_site_label
 _atom_site_symmetry_multiplicity
 _atom_site_fract_x
 _atom_site_fract_y
 _atom_site_fract_z
 _atom_site_occupancy
  B  B0  1  0.75737560  0.32409750  0.50373434  1
  B  B1  1  0.74262440  0.17590250  0.00373434  1
  B  B2  1  0.24262440  0.67590250  0.49626566  1
  B  B3  1  0.25737560  0.82409750  0.99626566  1
  F  F4  1  0.11497695  0.03870880  0.34237742  1
  F  F5  1  0.38502305  0.46129120  0.84237742  1
  F  F6  1  0.88502305  0.96129120  0.65762258  1
  F  F7  1  0.61497695  0.53870880  0.15762258  1
  F  F8  1  0.27524097  0.28251198  0.26673647  1
  F  F9  1  0.22475903  0.21748802  0.76673647  1
  F  F10  1  0.72475903  0.71748802  0.73326353  1
  F  F11  1  0.77524097  0.78251198  0.23326353  1
  F  F12  1  0.09028839  0.70147918  0.99877959  1
  F  F13  1  0.40971161  0.79852082  0.49877959  1
  F  F14  1  0.90971161  0.29852082  0.00122041  1
  F  F15  1  0.59028839  0.20147918  0.50122041  1
  F  F16  1  0.47689102  0.77802809  0.95319213  1
  F  F17  1  0.02310898  0.72197191  0.45319213  1
  F  F18  1  0.52310898  0.22197191  0.04680787  1
  F  F19  1  0.97689102  0.27802809  0.54680787  1
  F  F20  1  0.21015646  0.93690237  0.90479192  1
  F  F21  1  0.28984354  0.56309763  0.40479192  1
  F  F22  1  0.78984354  0.06309763  0.09520808  1
  F  F23  1  0.71015646  0.43690237  0.59520808  1
  F  F24  1  0.29620991  0.88056421  0.14650222  1
  F  F25  1  0.20379009  0.61943579  0.64650222  1
  F  F26  1  0.70379009  0.11943579  0.85349778  1
  F  F27  1  0.79620991  0.38056421  0.35349778  1
  Cl  Cl28  1  0.78870367  0.61342154  0.28403653  1
  Cl  Cl29  1  0.71129633  0.88657846  0.78403653  1
  Cl  Cl30  1  0.21129633  0.38657846  0.71596347  1
  Cl  Cl31  1  0.28870367  0.11342154  0.21596347  1
