# generated using pymatgen
data_Li3Fe(BO3)2
_symmetry_space_group_name_H-M   'P 1'
_cell_length_a   6.88393804
_cell_length_b   5.22351577
_cell_length_c   7.87452703
_cell_angle_alpha   96.57862709
_cell_angle_beta   71.95408783
_cell_angle_gamma   91.61479913
_symmetry_Int_Tables_number   1
_chemical_formula_structural   Li3Fe(BO3)2
_chemical_formula_sum   'Li6 Fe2 B4 O12'
_cell_volume   267.44556047
_cell_formula_units_Z   2
loop_
 _symmetry_equiv_pos_site_id
 _symmetry_equiv_pos_as_xyz
  1  'x, y, z'
loop_
 _atom_site_type_symbol
 _atom_site_label
 _atom_site_symmetry_multiplicity
 _atom_site_fract_x
 _atom_site_fract_y
 _atom_site_fract_z
 _atom_site_occupancy
  Li  Li0  1  0.25908857  0.98990912  0.26699956  1
  Li  Li1  1  0.56131863  0.69947119  0.41143975  1
  Li  Li2  1  0.40059988  0.76416258  0.78178864  1
  Li  Li3  1  0.59940012  0.23583742  0.21821136  1
  Li  Li4  1  0.43868137  0.30052881  0.58856025  1
  Li  Li5  1  0.74091143  0.01009088  0.73300044  1
  Fe  Fe6  1  0.00165853  0.58286178  0.80544306  1
  Fe  Fe7  1  0.99834147  0.41713822  0.19455694  1
  B  B8  1  0.21942977  0.57327641  0.44231210  1
  B  B9  1  0.70351822  0.75438732  0.07983153  1
  B  B10  1  0.29648178  0.24561268  0.92016847  1
  B  B11  1  0.78057023  0.42672359  0.55768790  1
  O  O12  1  0.11006795  0.65978837  0.33606091  1
  O  O13  1  0.19242622  0.14278238  0.07856764  1
  O  O14  1  0.20458755  0.72548365  0.60683274  1
  O  O15  1  0.35040348  0.36869676  0.39014366  1
  O  O16  1  0.54765501  0.87129829  0.21238681  1
  O  O17  1  0.21487856  0.48961559  0.90766271  1
  O  O18  1  0.78512144  0.51038441  0.09233729  1
  O  O19  1  0.45234499  0.12870171  0.78761319  1
  O  O20  1  0.64959652  0.63130324  0.60985634  1
  O  O21  1  0.79541245  0.27451635  0.39316726  1
  O  O22  1  0.80757378  0.85721762  0.92143236  1
  O  O23  1  0.88993205  0.34021163  0.66393909  1
