# generated using pymatgen
data_MoNCl3
_symmetry_space_group_name_H-M   'P 1'
_cell_length_a   8.06827316
_cell_length_b   8.46875335
_cell_length_c   9.46052908
_cell_angle_alpha   99.36273575
_cell_angle_beta   108.24239059
_cell_angle_gamma   108.65117295
_symmetry_Int_Tables_number   1
_chemical_formula_structural   MoNCl3
_chemical_formula_sum   'Mo4 N4 Cl12'
_cell_volume   556.33256850
_cell_formula_units_Z   4
loop_
 _symmetry_equiv_pos_site_id
 _symmetry_equiv_pos_as_xyz
  1  'x, y, z'
loop_
 _atom_site_type_symbol
 _atom_site_label
 _atom_site_symmetry_multiplicity
 _atom_site_fract_x
 _atom_site_fract_y
 _atom_site_fract_z
 _atom_site_occupancy
  N  N0  1  0.56259137  0.67019802  0.69318877  1
  N  N1  1  0.43740863  0.32980198  0.30681123  1
  N  N2  1  0.43819251  0.29373886  0.60002374  1
  N  N3  1  0.56180749  0.70626114  0.39997626  1
  Cl  Cl4  1  0.18939964  0.46065318  0.11797832  1
  Cl  Cl5  1  0.81060036  0.53934682  0.88202168  1
  Cl  Cl6  1  0.57723825  0.72864463  0.07328528  1
  Cl  Cl7  1  0.42276175  0.27135537  0.92671472  1
  Cl  Cl8  1  0.79929265  0.52305202  0.29683348  1
  Cl  Cl9  1  0.20070735  0.47694798  0.70316652  1
  Cl  Cl10  1  0.06874206  0.10862032  0.34186589  1
  Cl  Cl11  1  0.93125794  0.89137968  0.65813411  1
  Cl  Cl12  1  0.28247472  0.93183814  0.14959698  1
  Cl  Cl13  1  0.71752528  0.06816186  0.85040302  1
  Cl  Cl14  1  0.68176621  0.15130772  0.48288699  1
  Cl  Cl15  1  0.31823379  0.84869228  0.51711301  1
  Mo  Mo16  1  0.62532530  0.84909935  0.63099646  1
  Mo  Mo17  1  0.37467470  0.15090065  0.36900354  1
  Mo  Mo18  1  0.48464998  0.44311933  0.76587106  1
  Mo  Mo19  1  0.51535002  0.55688067  0.23412894  1
