# generated using pymatgen
data_Sn2SI2
_symmetry_space_group_name_H-M   'P 1'
_cell_length_a   4.42992570
_cell_length_b   18.45662881
_cell_length_c   26.53676444
_cell_angle_alpha   90.00000000
_cell_angle_beta   90.00000000
_cell_angle_gamma   90.00000000
_symmetry_Int_Tables_number   1
_chemical_formula_structural   Sn2SI2
_chemical_formula_sum   'Sn24 S12 I24'
_cell_volume   2169.68551452
_cell_formula_units_Z   12
loop_
 _symmetry_equiv_pos_site_id
 _symmetry_equiv_pos_as_xyz
  1  'x, y, z'
loop_
 _atom_site_type_symbol
 _atom_site_label
 _atom_site_symmetry_multiplicity
 _atom_site_fract_x
 _atom_site_fract_y
 _atom_site_fract_z
 _atom_site_occupancy
  S  S0  1  0.75000000  0.44991136  0.53803802  1
  S  S1  1  0.25000000  0.05008864  0.03803802  1
  S  S2  1  0.75000000  0.94991136  0.96196198  1
  S  S3  1  0.25000000  0.98127958  0.33923295  1
  S  S4  1  0.75000000  0.01872042  0.66076705  1
  S  S5  1  0.25000000  0.48127958  0.16076705  1
  S  S6  1  0.75000000  0.51872042  0.83923295  1
  S  S7  1  0.25000000  0.13892855  0.72101738  1
  S  S8  1  0.75000000  0.86107145  0.27898262  1
  S  S9  1  0.25000000  0.63892855  0.77898262  1
  S  S10  1  0.75000000  0.36107145  0.22101738  1
  S  S11  1  0.25000000  0.55008864  0.46196198  1
  Sn  Sn12  1  0.75000000  0.48632900  0.93578187  1
  Sn  Sn13  1  0.25000000  0.51367100  0.06421813  1
  Sn  Sn14  1  0.75000000  0.98632900  0.56421813  1
  Sn  Sn15  1  0.25000000  0.01367100  0.43578187  1
  Sn  Sn16  1  0.75000000  0.66341971  0.84025955  1
  Sn  Sn17  1  0.25000000  0.33658029  0.15974045  1
  Sn  Sn18  1  0.75000000  0.16341971  0.65974045  1
  Sn  Sn19  1  0.25000000  0.83658029  0.34025955  1
  Sn  Sn20  1  0.75000000  0.80908170  0.94998577  1
  Sn  Sn21  1  0.25000000  0.19091830  0.05001423  1
  Sn  Sn22  1  0.75000000  0.30908170  0.55001423  1
  Sn  Sn23  1  0.25000000  0.69091830  0.44998577  1
  Sn  Sn24  1  0.75000000  0.96455149  0.06113353  1
  Sn  Sn25  1  0.25000000  0.53544851  0.56113353  1
  Sn  Sn26  1  0.75000000  0.46455149  0.43886647  1
  Sn  Sn27  1  0.25000000  0.18106540  0.81541173  1
  Sn  Sn28  1  0.75000000  0.81893460  0.18458827  1
  Sn  Sn29  1  0.25000000  0.68106540  0.68458827  1
  Sn  Sn30  1  0.75000000  0.31893460  0.31541173  1
  Sn  Sn31  1  0.25000000  0.49687936  0.77667351  1
  Sn  Sn32  1  0.75000000  0.50312064  0.22332649  1
  Sn  Sn33  1  0.25000000  0.99687936  0.72332649  1
  Sn  Sn34  1  0.75000000  0.00312064  0.27667351  1
  Sn  Sn35  1  0.25000000  0.03544851  0.93886647  1
  I  I36  1  0.75000000  0.04267357  0.81803424  1
  I  I37  1  0.25000000  0.95732643  0.18196576  1
  I  I38  1  0.75000000  0.54267357  0.68196576  1
  I  I39  1  0.25000000  0.45732643  0.31803424  1
  I  I40  1  0.75000000  0.12469232  0.41534535  1
  I  I41  1  0.25000000  0.87530768  0.58465465  1
  I  I42  1  0.75000000  0.62469232  0.08465465  1
  I  I43  1  0.25000000  0.37530768  0.91534535  1
  I  I44  1  0.75000000  0.17697888  0.95601751  1
  I  I45  1  0.25000000  0.82302112  0.04398249  1
  I  I46  1  0.75000000  0.67697888  0.54398249  1
  I  I47  1  0.25000000  0.32302112  0.45601751  1
  I  I48  1  0.75000000  0.28888804  0.78221989  1
  I  I49  1  0.25000000  0.71111196  0.21778011  1
  I  I50  1  0.75000000  0.78888804  0.71778011  1
  I  I51  1  0.25000000  0.21111196  0.28221989  1
  I  I52  1  0.75000000  0.66301691  0.36844516  1
  I  I53  1  0.25000000  0.33698309  0.63155484  1
  I  I54  1  0.75000000  0.16301691  0.13155484  1
  I  I55  1  0.25000000  0.83698309  0.86844516  1
  I  I56  1  0.75000000  0.87464431  0.43577451  1
  I  I57  1  0.25000000  0.12535569  0.56422549  1
  I  I58  1  0.75000000  0.37464431  0.06422549  1
  I  I59  1  0.25000000  0.62535569  0.93577451  1
