# generated using pymatgen
data_NaAlCl4
_symmetry_space_group_name_H-M   'P 1'
_cell_length_a   6.28047135
_cell_length_b   10.03256963
_cell_length_c   10.61341548
_cell_angle_alpha   90.00000000
_cell_angle_beta   90.00000000
_cell_angle_gamma   90.00000000
_symmetry_Int_Tables_number   1
_chemical_formula_structural   NaAlCl4
_chemical_formula_sum   'Na4 Al4 Cl16'
_cell_volume   668.74352051
_cell_formula_units_Z   4
loop_
 _symmetry_equiv_pos_site_id
 _symmetry_equiv_pos_as_xyz
  1  'x, y, z'
loop_
 _atom_site_type_symbol
 _atom_site_label
 _atom_site_symmetry_multiplicity
 _atom_site_fract_x
 _atom_site_fract_y
 _atom_site_fract_z
 _atom_site_occupancy
  Na  Na0  1  0.31582739  0.78357105  0.87678380  1
  Na  Na1  1  0.81582739  0.21642895  0.62321620  1
  Na  Na2  1  0.18417261  0.28357105  0.12321620  1
  Na  Na3  1  0.68417261  0.71642895  0.37678380  1
  Al  Al4  1  0.79536313  0.51389102  0.96255298  1
  Al  Al5  1  0.29536313  0.48610898  0.53744702  1
  Al  Al6  1  0.70463687  0.01389102  0.03744702  1
  Al  Al7  1  0.20463687  0.98610898  0.46255298  1
  Cl  Cl8  1  0.45125585  0.51137634  0.96668913  1
  Cl  Cl9  1  0.95125585  0.48862366  0.53331087  1
  Cl  Cl10  1  0.04874415  0.01137634  0.03331087  1
  Cl  Cl11  1  0.54874415  0.98862366  0.46668913  1
  Cl  Cl12  1  0.89590002  0.68482481  0.85427585  1
  Cl  Cl13  1  0.39590002  0.31517519  0.64572415  1
  Cl  Cl14  1  0.60409998  0.18482481  0.14572415  1
  Cl  Cl15  1  0.10409998  0.81517519  0.35427585  1
  Cl  Cl16  1  0.07341719  0.98059422  0.65108057  1
  Cl  Cl17  1  0.57341719  0.01940578  0.84891943  1
  Cl  Cl18  1  0.42658281  0.48059422  0.34891943  1
  Cl  Cl19  1  0.92658281  0.51940578  0.15108057  1
  Cl  Cl20  1  0.42611185  0.66530743  0.62192334  1
  Cl  Cl21  1  0.92611185  0.33469257  0.87807666  1
  Cl  Cl22  1  0.07388815  0.16530743  0.37807666  1
  Cl  Cl23  1  0.57388815  0.83469257  0.12192334  1
