# generated using pymatgen
data_Ta11(FeSe4)2
_symmetry_space_group_name_H-M   'P 1'
_cell_length_a   3.41179117
_cell_length_b   12.22819987
_cell_length_c   19.71028306
_cell_angle_alpha   90.00000000
_cell_angle_beta   90.00000000
_cell_angle_gamma   90.00000000
_symmetry_Int_Tables_number   1
_chemical_formula_structural   Ta11(FeSe4)2
_chemical_formula_sum   'Ta22 Fe4 Se16'
_cell_volume   822.31427745
_cell_formula_units_Z   2
loop_
 _symmetry_equiv_pos_site_id
 _symmetry_equiv_pos_as_xyz
  1  'x, y, z'
loop_
 _atom_site_type_symbol
 _atom_site_label
 _atom_site_symmetry_multiplicity
 _atom_site_fract_x
 _atom_site_fract_y
 _atom_site_fract_z
 _atom_site_occupancy
  Fe  Fe0  1  0.00000000  0.09392894  0.87331031  1
  Fe  Fe1  1  0.00000000  0.90607106  0.12668969  1
  Fe  Fe2  1  0.50000000  0.59392894  0.62668969  1
  Fe  Fe3  1  0.50000000  0.40607106  0.37331031  1
  Se  Se4  1  0.50000000  0.29569761  0.55622464  1
  Se  Se5  1  0.50000000  0.70430239  0.44377536  1
  Se  Se6  1  0.00000000  0.79569761  0.94377536  1
  Se  Se7  1  0.00000000  0.20430239  0.05622464  1
  Se  Se8  1  0.50000000  0.04220628  0.67318699  1
  Se  Se9  1  0.50000000  0.95779372  0.32681301  1
  Se  Se10  1  0.00000000  0.54220628  0.82681301  1
  Se  Se11  1  0.00000000  0.45779372  0.17318699  1
  Se  Se12  1  0.50000000  0.38989930  0.94647898  1
  Se  Se13  1  0.50000000  0.61010070  0.05352102  1
  Se  Se14  1  0.00000000  0.88989930  0.55352102  1
  Se  Se15  1  0.00000000  0.11010070  0.44647898  1
  Se  Se16  1  0.00000000  0.28458740  0.71587958  1
  Se  Se17  1  0.00000000  0.71541260  0.28412042  1
  Se  Se18  1  0.50000000  0.78458740  0.78412042  1
  Se  Se19  1  0.50000000  0.21541260  0.21587958  1
  Ta  Ta20  1  0.50000000  0.81977661  0.05358554  1
  Ta  Ta21  1  0.50000000  0.18022339  0.94641446  1
  Ta  Ta22  1  0.00000000  0.68022339  0.55358554  1
  Ta  Ta23  1  0.00000000  0.31977661  0.44641446  1
  Ta  Ta24  1  0.50000000  0.44757304  0.74386504  1
  Ta  Ta25  1  0.50000000  0.55242696  0.25613496  1
  Ta  Ta26  1  0.00000000  0.94757304  0.75613496  1
  Ta  Ta27  1  0.00000000  0.05242696  0.24386504  1
  Ta  Ta28  1  0.50000000  0.06198081  0.11619014  1
  Ta  Ta29  1  0.50000000  0.93801919  0.88380986  1
  Ta  Ta30  1  0.00000000  0.56198081  0.38380986  1
  Ta  Ta31  1  0.00000000  0.43801919  0.61619014  1
  Ta  Ta32  1  0.50000000  0.17150917  0.35273536  1
  Ta  Ta33  1  0.50000000  0.82849083  0.64726464  1
  Ta  Ta34  1  0.00000000  0.67150917  0.14726464  1
  Ta  Ta35  1  0.00000000  0.32849083  0.85273536  1
  Ta  Ta36  1  0.50000000  0.15282341  0.78776223  1
  Ta  Ta37  1  0.50000000  0.84717659  0.21223777  1
  Ta  Ta38  1  0.00000000  0.65282341  0.71223777  1
  Ta  Ta39  1  0.00000000  0.34717659  0.28776223  1
  Ta  Ta40  1  0.50000000  0.50000000  0.50000000  1
  Ta  Ta41  1  0.00000000  0.00000000  0.00000000  1
