# generated using pymatgen
data_BiSCl
_symmetry_space_group_name_H-M   'P 1'
_cell_length_a   4.02615989
_cell_length_b   8.04963674
_cell_length_c   10.49309431
_cell_angle_alpha   90.00000000
_cell_angle_beta   90.00000000
_cell_angle_gamma   90.00000000
_symmetry_Int_Tables_number   1
_chemical_formula_structural   BiSCl
_chemical_formula_sum   'Bi4 S4 Cl4'
_cell_volume   340.07200063
_cell_formula_units_Z   4
loop_
 _symmetry_equiv_pos_site_id
 _symmetry_equiv_pos_as_xyz
  1  'x, y, z'
loop_
 _atom_site_type_symbol
 _atom_site_label
 _atom_site_symmetry_multiplicity
 _atom_site_fract_x
 _atom_site_fract_y
 _atom_site_fract_z
 _atom_site_occupancy
  S  S0  1  0.75000000  0.67992881  0.46147040  1
  S  S1  1  0.25000000  0.82007119  0.96147040  1
  S  S2  1  0.75000000  0.17992881  0.03852960  1
  S  S3  1  0.25000000  0.32007119  0.53852960  1
  Cl  Cl4  1  0.25000000  0.52812366  0.20355205  1
  Cl  Cl5  1  0.75000000  0.97187634  0.70355205  1
  Cl  Cl6  1  0.25000000  0.02812366  0.29644795  1
  Cl  Cl7  1  0.75000000  0.47187634  0.79644795  1
  Bi  Bi8  1  0.25000000  0.62104950  0.63375645  1
  Bi  Bi9  1  0.75000000  0.37895050  0.36624355  1
  Bi  Bi10  1  0.25000000  0.12104950  0.86624355  1
  Bi  Bi11  1  0.75000000  0.87895050  0.13375645  1
