# generated using pymatgen
data_K4CdCl6
_symmetry_space_group_name_H-M   'P 1'
_cell_length_a   8.72620730
_cell_length_b   8.72620730
_cell_length_c   8.72620730
_cell_angle_alpha   89.87045658
_cell_angle_beta   89.87045654
_cell_angle_gamma   89.87045659
_symmetry_Int_Tables_number   1
_chemical_formula_structural   K4CdCl6
_chemical_formula_sum   'K8 Cd2 Cl12'
_cell_volume   664.46674852
_cell_formula_units_Z   2
loop_
 _symmetry_equiv_pos_site_id
 _symmetry_equiv_pos_as_xyz
  1  'x, y, z'
loop_
 _atom_site_type_symbol
 _atom_site_label
 _atom_site_symmetry_multiplicity
 _atom_site_fract_x
 _atom_site_fract_y
 _atom_site_fract_z
 _atom_site_occupancy
  Cl  Cl0  1  0.57033018  0.44354580  0.79372137  1
  Cl  Cl1  1  0.44354580  0.79372137  0.57033018  1
  Cl  Cl2  1  0.79372137  0.57033018  0.44354580  1
  Cl  Cl3  1  0.70627863  0.05645420  0.92966982  1
  Cl  Cl4  1  0.05645420  0.92966982  0.70627863  1
  Cl  Cl5  1  0.92966982  0.70627863  0.05645420  1
  Cl  Cl6  1  0.42966982  0.55645420  0.20627863  1
  Cl  Cl7  1  0.55645420  0.20627863  0.42966982  1
  Cl  Cl8  1  0.20627863  0.42966982  0.55645420  1
  Cl  Cl9  1  0.29372137  0.94354580  0.07033018  1
  Cl  Cl10  1  0.07033018  0.29372137  0.94354580  1
  Cl  Cl11  1  0.94354580  0.07033018  0.29372137  1
  K  K12  1  0.25000000  0.25000000  0.25000000  1
  K  K13  1  0.75000000  0.75000000  0.75000000  1
  K  K14  1  0.12653499  0.75000000  0.37346501  1
  K  K15  1  0.75000000  0.37346501  0.12653499  1
  K  K16  1  0.37346501  0.12653499  0.75000000  1
  K  K17  1  0.87346501  0.25000000  0.62653499  1
  K  K18  1  0.25000000  0.62653499  0.87346501  1
  K  K19  1  0.62653499  0.87346501  0.25000000  1
  Cd  Cd20  1  0.00000000  0.00000000  0.00000000  1
  Cd  Cd21  1  0.50000000  0.50000000  0.50000000  1
