# generated using pymatgen
data_Ce5Sn4
_symmetry_space_group_name_H-M   'P 1'
_cell_length_a   8.34729290
_cell_length_b   8.45925169
_cell_length_c   15.96394725
_cell_angle_alpha   90.00000000
_cell_angle_beta   90.00000000
_cell_angle_gamma   90.00000000
_symmetry_Int_Tables_number   1
_chemical_formula_structural   Ce5Sn4
_chemical_formula_sum   'Ce20 Sn16'
_cell_volume   1127.24387371
_cell_formula_units_Z   4
loop_
 _symmetry_equiv_pos_site_id
 _symmetry_equiv_pos_as_xyz
  1  'x, y, z'
loop_
 _atom_site_type_symbol
 _atom_site_label
 _atom_site_symmetry_multiplicity
 _atom_site_fract_x
 _atom_site_fract_y
 _atom_site_fract_z
 _atom_site_occupancy
  Sn  Sn0  1  0.78195560  0.46782787  0.45869108  1
  Sn  Sn1  1  0.28195560  0.03217213  0.04130892  1
  Sn  Sn2  1  0.71804440  0.96782787  0.54130892  1
  Sn  Sn3  1  0.21804440  0.53217213  0.95869108  1
  Sn  Sn4  1  0.21804440  0.53217213  0.54130892  1
  Sn  Sn5  1  0.71804440  0.96782787  0.95869108  1
  Sn  Sn6  1  0.28195560  0.03217213  0.45869108  1
  Sn  Sn7  1  0.78195560  0.46782787  0.04130892  1
  Sn  Sn8  1  0.93163720  0.09501680  0.25000000  1
  Sn  Sn9  1  0.43163720  0.40498320  0.25000000  1
  Sn  Sn10  1  0.56836280  0.59501680  0.75000000  1
  Sn  Sn11  1  0.06836280  0.90498320  0.75000000  1
  Sn  Sn12  1  0.17703275  0.64864316  0.25000000  1
  Sn  Sn13  1  0.67703275  0.85135684  0.25000000  1
  Sn  Sn14  1  0.32296725  0.14864316  0.75000000  1
  Sn  Sn15  1  0.82296725  0.35135684  0.75000000  1
  Ce  Ce16  1  0.12353361  0.33708609  0.12230928  1
  Ce  Ce17  1  0.62353361  0.16291391  0.37769072  1
  Ce  Ce18  1  0.37646639  0.83708609  0.87769072  1
  Ce  Ce19  1  0.87646639  0.66291391  0.62230928  1
  Ce  Ce20  1  0.12353361  0.33708609  0.37769072  1
  Ce  Ce21  1  0.62353361  0.16291391  0.12230928  1
  Ce  Ce22  1  0.37646639  0.83708609  0.62230928  1
  Ce  Ce23  1  0.87646639  0.66291391  0.87769072  1
  Ce  Ce24  1  0.01505694  0.20013100  0.59456336  1
  Ce  Ce25  1  0.51505694  0.29986900  0.90543664  1
  Ce  Ce26  1  0.48494306  0.70013100  0.40543664  1
  Ce  Ce27  1  0.98494306  0.79986900  0.09456336  1
  Ce  Ce28  1  0.98494306  0.79986900  0.40543664  1
  Ce  Ce29  1  0.48494306  0.70013100  0.09456336  1
  Ce  Ce30  1  0.51505694  0.29986900  0.59456336  1
  Ce  Ce31  1  0.01505694  0.20013100  0.90543664  1
  Ce  Ce32  1  0.30661246  0.01163381  0.25000000  1
  Ce  Ce33  1  0.80661246  0.48836619  0.25000000  1
  Ce  Ce34  1  0.19338754  0.51163381  0.75000000  1
  Ce  Ce35  1  0.69338754  0.98836619  0.75000000  1
