# generated using pymatgen
data_LiIO3
_symmetry_space_group_name_H-M   'P 1'
_cell_length_a   6.22730720
_cell_length_b   9.98201092
_cell_length_c   9.98201092
_cell_angle_alpha   90.00000000
_cell_angle_beta   90.00000000
_cell_angle_gamma   90.00000000
_symmetry_Int_Tables_number   1
_chemical_formula_structural   LiIO3
_chemical_formula_sum   'Li8 I8 O24'
_cell_volume   620.49226465
_cell_formula_units_Z   8
loop_
 _symmetry_equiv_pos_site_id
 _symmetry_equiv_pos_as_xyz
  1  'x, y, z'
loop_
 _atom_site_type_symbol
 _atom_site_label
 _atom_site_symmetry_multiplicity
 _atom_site_fract_x
 _atom_site_fract_y
 _atom_site_fract_z
 _atom_site_occupancy
  Li  Li0  1  0.40096581  0.43141044  0.22839904  1
  Li  Li1  1  0.90096581  0.77160096  0.93141044  1
  Li  Li2  1  0.90096581  0.72839904  0.56858956  1
  Li  Li3  1  0.40096581  0.06858956  0.27160096  1
  Li  Li4  1  0.59903419  0.56858956  0.77160096  1
  Li  Li5  1  0.09903419  0.22839904  0.06858956  1
  Li  Li6  1  0.09903419  0.27160096  0.43141044  1
  Li  Li7  1  0.59903419  0.93141044  0.72839904  1
  O  O8  1  0.66367295  0.44580164  0.34645041  1
  O  O9  1  0.83632705  0.34645041  0.05419836  1
  O  O10  1  0.33632705  0.94580164  0.84645041  1
  O  O11  1  0.33632705  0.55419836  0.65354959  1
  O  O12  1  0.83632705  0.15354959  0.44580164  1
  O  O13  1  0.16367295  0.65354959  0.94580164  1
  O  O14  1  0.66367295  0.05419836  0.15354959  1
  O  O15  1  0.05504925  0.16439672  0.88118523  1
  O  O16  1  0.94495075  0.83560328  0.11881477  1
  O  O17  1  0.44495075  0.88118523  0.33560328  1
  O  O18  1  0.44495075  0.61881477  0.16439672  1
  O  O19  1  0.94495075  0.66439672  0.38118523  1
  O  O20  1  0.10492956  0.08375345  0.20404413  1
  O  O21  1  0.55504925  0.11881477  0.66439672  1
  O  O22  1  0.55504925  0.38118523  0.83560328  1
  O  O23  1  0.05504925  0.33560328  0.61881477  1
  O  O24  1  0.89507044  0.58375345  0.70404413  1
  O  O25  1  0.60492956  0.79595587  0.58375345  1
  O  O26  1  0.60492956  0.70404413  0.91624655  1
  O  O27  1  0.10492956  0.41624655  0.29595587  1
  O  O28  1  0.89507044  0.91624655  0.79595587  1
  O  O29  1  0.39507044  0.20404413  0.41624655  1
  O  O30  1  0.39507044  0.29595587  0.08375345  1
  O  O31  1  0.16367295  0.84645041  0.55419836  1
  I  I32  1  0.11639451  0.03200836  0.76076388  1
  I  I33  1  0.88360549  0.53200836  0.26076388  1
  I  I34  1  0.38360549  0.73923612  0.03200836  1
  I  I35  1  0.38360549  0.76076388  0.46799164  1
  I  I36  1  0.88360549  0.96799164  0.23923612  1
  I  I37  1  0.11639451  0.46799164  0.73923612  1
  I  I38  1  0.61639451  0.26076388  0.96799164  1
  I  I39  1  0.61639451  0.23923612  0.53200836  1
