# generated using pymatgen
data_Ba(InSe2)2
_symmetry_space_group_name_H-M   'P 1'
_cell_length_a   13.40166126
_cell_length_b   13.40166127
_cell_length_c   13.55625700
_cell_angle_alpha   105.21307113
_cell_angle_beta   105.21307115
_cell_angle_gamma   117.97766059
_symmetry_Int_Tables_number   1
_chemical_formula_structural   Ba(InSe2)2
_chemical_formula_sum   'Ba8 In16 Se32'
_cell_volume   1850.41402746
_cell_formula_units_Z   8
loop_
 _symmetry_equiv_pos_site_id
 _symmetry_equiv_pos_as_xyz
  1  'x, y, z'
loop_
 _atom_site_type_symbol
 _atom_site_label
 _atom_site_symmetry_multiplicity
 _atom_site_fract_x
 _atom_site_fract_y
 _atom_site_fract_z
 _atom_site_occupancy
  Se  Se0  1  0.81503759  0.14665833  0.99723649  1
  Se  Se1  1  0.14942184  0.31780110  0.50276351  1
  Se  Se2  1  0.85334167  0.18496241  0.50276351  1
  Se  Se3  1  0.68219890  0.85057816  0.99723649  1
  Se  Se4  1  0.18496241  0.85334167  0.00276351  1
  Se  Se5  1  0.85057816  0.68219890  0.49723649  1
  Se  Se6  1  0.14665833  0.81503759  0.49723649  1
  Se  Se7  1  0.31780110  0.14942184  0.00276351  1
  Se  Se8  1  0.16161409  0.34860293  0.00201689  1
  Se  Se9  1  0.34658603  0.65959720  0.49798311  1
  Se  Se10  1  0.65139707  0.83838591  0.49798311  1
  Se  Se11  1  0.34040280  0.65341397  0.00201689  1
  Se  Se12  1  0.83838591  0.65139707  0.99798311  1
  Se  Se13  1  0.65341397  0.34040280  0.50201689  1
  Se  Se14  1  0.34860293  0.16161409  0.50201689  1
  Se  Se15  1  0.65959720  0.34658603  0.99798311  1
  Se  Se16  1  0.58484194  0.08505794  0.67176923  1
  Se  Se17  1  0.41328871  0.41307271  0.82823077  1
  Se  Se18  1  0.91494206  0.41515806  0.82823077  1
  Se  Se19  1  0.58692729  0.58671129  0.67176923  1
  Se  Se20  1  0.41515806  0.91494206  0.32823077  1
  Se  Se21  1  0.58671129  0.58692729  0.17176923  1
  Se  Se22  1  0.08505794  0.58484194  0.17176923  1
  Se  Se23  1  0.41307271  0.41328871  0.32823077  1
  Se  Se24  1  0.91282761  0.41320281  0.32897254  1
  Se  Se25  1  0.08423028  0.08385507  0.17102746  1
  Se  Se26  1  0.58679719  0.08717239  0.17102746  1
  Se  Se27  1  0.91614493  0.91576972  0.32897254  1
  Se  Se28  1  0.08717239  0.58679719  0.67102746  1
  Se  Se29  1  0.91576972  0.91614493  0.82897254  1
  Se  Se30  1  0.41320281  0.91282761  0.82897254  1
  Se  Se31  1  0.08385507  0.08423028  0.67102746  1
  In  In32  1  0.53200861  0.64086545  0.99973776  1
  In  In33  1  0.64112770  0.03227085  0.50026224  1
  In  In34  1  0.35913455  0.46799139  0.50026224  1
  In  In35  1  0.96772915  0.35887230  0.99973776  1
  In  In36  1  0.46799139  0.35913455  0.00026224  1
  In  In37  1  0.35887230  0.96772915  0.49973776  1
  In  In38  1  0.64086545  0.53200861  0.49973776  1
  In  In39  1  0.03227085  0.64112770  0.00026224  1
  In  In40  1  0.88663994  0.86270595  0.99861795  1
  In  In41  1  0.86408800  0.38802199  0.50138205  1
  In  In42  1  0.13729405  0.11336006  0.50138205  1
  In  In43  1  0.61197801  0.13591200  0.99861795  1
  In  In44  1  0.11336006  0.13729405  0.00138205  1
  In  In45  1  0.13591200  0.61197801  0.49861795  1
  In  In46  1  0.86270595  0.88663994  0.49861795  1
  In  In47  1  0.38802199  0.86408800  0.00138205  1
  Ba  Ba48  1  0.87275080  0.62275080  0.24550161  1
  Ba  Ba49  1  0.37724920  0.12724920  0.25449839  1
  Ba  Ba50  1  0.12724920  0.37724920  0.75449839  1
  Ba  Ba51  1  0.62275080  0.87275080  0.74550161  1
  Ba  Ba52  1  0.62500000  0.37500000  0.75000000  1
  Ba  Ba53  1  0.37500000  0.62500000  0.25000000  1
  Ba  Ba54  1  0.12500000  0.87500000  0.75000000  1
  Ba  Ba55  1  0.87500000  0.12500000  0.25000000  1
