# generated using pymatgen
data_La5Pb4
_symmetry_space_group_name_H-M   'P 1'
_cell_length_a   8.66111718
_cell_length_b   8.76402006
_cell_length_c   16.51620759
_cell_angle_alpha   90.00000000
_cell_angle_beta   90.00000000
_cell_angle_gamma   90.00000000
_symmetry_Int_Tables_number   1
_chemical_formula_structural   La5Pb4
_chemical_formula_sum   'La20 Pb16'
_cell_volume   1253.68263432
_cell_formula_units_Z   4
loop_
 _symmetry_equiv_pos_site_id
 _symmetry_equiv_pos_as_xyz
  1  'x, y, z'
loop_
 _atom_site_type_symbol
 _atom_site_label
 _atom_site_symmetry_multiplicity
 _atom_site_fract_x
 _atom_site_fract_y
 _atom_site_fract_z
 _atom_site_occupancy
  La  La0  1  0.87938667  0.65944765  0.88270488  1
  La  La1  1  0.37938667  0.84055235  0.61729512  1
  La  La2  1  0.62061333  0.15944765  0.11729512  1
  La  La3  1  0.12061333  0.34055235  0.38270488  1
  La  La4  1  0.12061333  0.34055235  0.11729512  1
  La  La5  1  0.62061333  0.15944765  0.38270488  1
  La  La6  1  0.37938667  0.84055235  0.88270488  1
  La  La7  1  0.87938667  0.65944765  0.61729512  1
  La  La8  1  0.02840651  0.17901711  0.89883266  1
  La  La9  1  0.52840651  0.32098289  0.60116734  1
  La  La10  1  0.47159349  0.67901711  0.10116734  1
  La  La11  1  0.97159349  0.82098289  0.39883266  1
  La  La12  1  0.97159349  0.82098289  0.10116734  1
  La  La13  1  0.47159349  0.67901711  0.39883266  1
  La  La14  1  0.52840651  0.32098289  0.89883266  1
  La  La15  1  0.02840651  0.17901711  0.60116734  1
  La  La16  1  0.71055023  0.99676206  0.75000000  1
  La  La17  1  0.21055023  0.50323794  0.75000000  1
  La  La18  1  0.78944977  0.49676206  0.25000000  1
  La  La19  1  0.28944977  0.00323794  0.25000000  1
  Pb  Pb20  1  0.07786567  0.88025499  0.75000000  1
  Pb  Pb21  1  0.57786567  0.61974501  0.75000000  1
  Pb  Pb22  1  0.42213433  0.38025499  0.25000000  1
  Pb  Pb23  1  0.92213433  0.11974501  0.25000000  1
  Pb  Pb24  1  0.83499454  0.35626429  0.75000000  1
  Pb  Pb25  1  0.33499454  0.14373571  0.75000000  1
  Pb  Pb26  1  0.66500546  0.85626429  0.25000000  1
  Pb  Pb27  1  0.16500546  0.64373571  0.25000000  1
  Pb  Pb28  1  0.77928685  0.46778447  0.04370276  1
  Pb  Pb29  1  0.27928685  0.03221553  0.45629724  1
  Pb  Pb30  1  0.72071315  0.96778447  0.95629724  1
  Pb  Pb31  1  0.22071315  0.53221553  0.54370276  1
  Pb  Pb32  1  0.22071315  0.53221553  0.95629724  1
  Pb  Pb33  1  0.72071315  0.96778447  0.54370276  1
  Pb  Pb34  1  0.27928685  0.03221553  0.04370276  1
  Pb  Pb35  1  0.77928685  0.46778447  0.45629724  1
