# generated using pymatgen
data_CeGePd
_symmetry_space_group_name_H-M   'P 1'
_cell_length_a   4.48406749
_cell_length_b   7.71625123
_cell_length_c   21.66169441
_cell_angle_alpha   90.00000000
_cell_angle_beta   90.00000000
_cell_angle_gamma   90.00000000
_symmetry_Int_Tables_number   1
_chemical_formula_structural   CeGePd
_chemical_formula_sum   'Ce12 Ge12 Pd12'
_cell_volume   749.49877015
_cell_formula_units_Z   12
loop_
 _symmetry_equiv_pos_site_id
 _symmetry_equiv_pos_as_xyz
  1  'x, y, z'
loop_
 _atom_site_type_symbol
 _atom_site_label
 _atom_site_symmetry_multiplicity
 _atom_site_fract_x
 _atom_site_fract_y
 _atom_site_fract_z
 _atom_site_occupancy
  Ge  Ge0  1  0.25000000  0.41275501  0.89803521  1
  Ge  Ge1  1  0.75000000  0.58724499  0.10196479  1
  Ge  Ge2  1  0.75000000  0.91275501  0.60196479  1
  Ge  Ge3  1  0.25000000  0.08724499  0.39803521  1
  Ge  Ge4  1  0.25000000  0.41133795  0.76633530  1
  Ge  Ge5  1  0.75000000  0.58866205  0.23366470  1
  Ge  Ge6  1  0.75000000  0.91133795  0.73366470  1
  Ge  Ge7  1  0.25000000  0.08866205  0.26633530  1
  Ge  Ge8  1  0.25000000  0.40976732  0.57266568  1
  Ge  Ge9  1  0.75000000  0.59023268  0.42733432  1
  Ge  Ge10  1  0.75000000  0.90976732  0.92733432  1
  Ge  Ge11  1  0.25000000  0.09023268  0.07266568  1
  Pd  Pd12  1  0.25000000  0.42166218  0.09265275  1
  Pd  Pd13  1  0.75000000  0.57833782  0.90734725  1
  Pd  Pd14  1  0.75000000  0.92166218  0.40734725  1
  Pd  Pd15  1  0.25000000  0.07833782  0.59265275  1
  Pd  Pd16  1  0.25000000  0.41963826  0.23882370  1
  Pd  Pd17  1  0.75000000  0.58036174  0.76117630  1
  Pd  Pd18  1  0.75000000  0.91963826  0.26117630  1
  Pd  Pd19  1  0.25000000  0.08036174  0.73882370  1
  Pd  Pd20  1  0.25000000  0.41611734  0.43271927  1
  Pd  Pd21  1  0.75000000  0.58388266  0.56728073  1
  Pd  Pd22  1  0.75000000  0.91611734  0.06728073  1
  Pd  Pd23  1  0.25000000  0.08388266  0.93271927  1
  Ce  Ce24  1  0.25000000  0.78562333  0.83301996  1
  Ce  Ce25  1  0.75000000  0.21437667  0.16698004  1
  Ce  Ce26  1  0.75000000  0.28562333  0.66698004  1
  Ce  Ce27  1  0.25000000  0.71437667  0.33301996  1
  Ce  Ce28  1  0.25000000  0.71056294  0.66618414  1
  Ce  Ce29  1  0.75000000  0.28943706  0.33381586  1
  Ce  Ce30  1  0.75000000  0.21056294  0.83381586  1
  Ce  Ce31  1  0.25000000  0.78943706  0.16618414  1
  Ce  Ce32  1  0.25000000  0.77985639  0.50199032  1
  Ce  Ce33  1  0.75000000  0.22014361  0.49800968  1
  Ce  Ce34  1  0.75000000  0.27985639  0.99800968  1
  Ce  Ce35  1  0.25000000  0.72014361  0.00199032  1
