# generated using pymatgen
data_Bi2Pt2O7
_symmetry_space_group_name_H-M   'P 1'
_cell_length_a   7.44889029
_cell_length_b   7.44889029
_cell_length_c   7.44889029
_cell_angle_alpha   59.99999996
_cell_angle_beta   59.99999996
_cell_angle_gamma   59.99999994
_symmetry_Int_Tables_number   1
_chemical_formula_structural   Bi2Pt2O7
_chemical_formula_sum   'Bi4 Pt4 O14'
_cell_volume   292.25350977
_cell_formula_units_Z   2
loop_
 _symmetry_equiv_pos_site_id
 _symmetry_equiv_pos_as_xyz
  1  'x, y, z'
loop_
 _atom_site_type_symbol
 _atom_site_label
 _atom_site_symmetry_multiplicity
 _atom_site_fract_x
 _atom_site_fract_y
 _atom_site_fract_z
 _atom_site_occupancy
  O  O0  1  0.62500000  0.62500000  0.62500000  1
  O  O1  1  0.37500000  0.37500000  0.37500000  1
  O  O2  1  0.33299890  0.91700110  0.91700110  1
  O  O3  1  0.08299890  0.66700110  0.66700110  1
  O  O4  1  0.91700110  0.33299890  0.91700110  1
  O  O5  1  0.91700110  0.91700110  0.33299890  1
  O  O6  1  0.33299890  0.33299890  0.91700110  1
  O  O7  1  0.33299890  0.91700110  0.33299890  1
  O  O8  1  0.91700110  0.33299890  0.33299890  1
  O  O9  1  0.66700110  0.66700110  0.08299890  1
  O  O10  1  0.08299890  0.08299890  0.66700110  1
  O  O11  1  0.66700110  0.08299890  0.08299890  1
  O  O12  1  0.66700110  0.08299890  0.66700110  1
  O  O13  1  0.08299890  0.66700110  0.08299890  1
  Pt  Pt14  1  0.00000000  0.50000000  0.00000000  1
  Pt  Pt15  1  0.50000000  0.00000000  0.00000000  1
  Pt  Pt16  1  0.00000000  0.00000000  0.50000000  1
  Pt  Pt17  1  0.00000000  0.00000000  0.00000000  1
  Bi  Bi18  1  0.50000000  0.00000000  0.50000000  1
  Bi  Bi19  1  0.00000000  0.50000000  0.50000000  1
  Bi  Bi20  1  0.50000000  0.50000000  0.00000000  1
  Bi  Bi21  1  0.50000000  0.50000000  0.50000000  1
