# generated using pymatgen
data_TlZnSClO4
_symmetry_space_group_name_H-M   'P 1'
_cell_length_a   7.35868180
_cell_length_b   8.36611967
_cell_length_c   9.79796661
_cell_angle_alpha   90.00000000
_cell_angle_beta   90.00000000
_cell_angle_gamma   94.59994435
_symmetry_Int_Tables_number   1
_chemical_formula_structural   TlZnSClO4
_chemical_formula_sum   'Tl4 Zn4 S4 Cl4 O16'
_cell_volume   601.25529260
_cell_formula_units_Z   4
loop_
 _symmetry_equiv_pos_site_id
 _symmetry_equiv_pos_as_xyz
  1  'x, y, z'
loop_
 _atom_site_type_symbol
 _atom_site_label
 _atom_site_symmetry_multiplicity
 _atom_site_fract_x
 _atom_site_fract_y
 _atom_site_fract_z
 _atom_site_occupancy
  O  O0  1  0.95261075  0.27101754  0.07606244  1
  O  O1  1  0.04738925  0.22898246  0.57606244  1
  O  O2  1  0.04738925  0.72898246  0.92393756  1
  O  O3  1  0.95261075  0.77101754  0.42393756  1
  O  O4  1  0.71328905  0.14485672  0.92657100  1
  O  O5  1  0.28671095  0.35514328  0.42657100  1
  O  O6  1  0.28671095  0.85514328  0.07342900  1
  O  O7  1  0.71328905  0.64485672  0.57342900  1
  O  O8  1  0.03993483  0.13428862  0.87731903  1
  O  O9  1  0.88816656  0.88496443  0.64872493  1
  O  O10  1  0.96006517  0.86571138  0.12268097  1
  O  O11  1  0.03993483  0.63428862  0.62268097  1
  O  O12  1  0.88816656  0.38496443  0.85127507  1
  O  O13  1  0.11183344  0.11503557  0.35127507  1
  O  O14  1  0.11183344  0.61503557  0.14872493  1
  O  O15  1  0.96006517  0.36571138  0.37731903  1
  S  S16  1  0.89379062  0.73188752  0.56776097  1
  S  S17  1  0.10620938  0.26811248  0.43223903  1
  S  S18  1  0.10620938  0.76811248  0.06776097  1
  S  S19  1  0.89379062  0.23188752  0.93223903  1
  Cl  Cl20  1  0.37412203  0.96315423  0.68041035  1
  Cl  Cl21  1  0.37412203  0.46315423  0.81958965  1
  Cl  Cl22  1  0.62587797  0.03684577  0.31958965  1
  Cl  Cl23  1  0.62587797  0.53684577  0.18041035  1
  Zn  Zn24  1  0.09485938  0.54333812  0.80308763  1
  Zn  Zn25  1  0.90514062  0.45666188  0.19691237  1
  Zn  Zn26  1  0.09485938  0.04333812  0.69691237  1
  Zn  Zn27  1  0.90514062  0.95666188  0.30308763  1
  Tl  Tl28  1  0.62240957  0.29233412  0.58673369  1
  Tl  Tl29  1  0.37759043  0.20766588  0.08673369  1
  Tl  Tl30  1  0.37759043  0.70766588  0.41326631  1
  Tl  Tl31  1  0.62240957  0.79233412  0.91326631  1
