# generated using pymatgen
data_Sc2V3Ge4
_symmetry_space_group_name_H-M   'P 1'
_cell_length_a   6.63748915
_cell_length_b   6.78622200
_cell_length_c   12.79527621
_cell_angle_alpha   90.00000000
_cell_angle_beta   90.00000000
_cell_angle_gamma   90.00000000
_symmetry_Int_Tables_number   1
_chemical_formula_structural   Sc2V3Ge4
_chemical_formula_sum   'Sc8 V12 Ge16'
_cell_volume   576.34370273
_cell_formula_units_Z   4
loop_
 _symmetry_equiv_pos_site_id
 _symmetry_equiv_pos_as_xyz
  1  'x, y, z'
loop_
 _atom_site_type_symbol
 _atom_site_label
 _atom_site_symmetry_multiplicity
 _atom_site_fract_x
 _atom_site_fract_y
 _atom_site_fract_z
 _atom_site_occupancy
  Sc  Sc0  1  0.00911466  0.17429411  0.90683723  1
  Sc  Sc1  1  0.50911466  0.32570589  0.59316277  1
  Sc  Sc2  1  0.49088534  0.67429411  0.09316277  1
  Sc  Sc3  1  0.99088534  0.82570589  0.40683723  1
  Sc  Sc4  1  0.99088534  0.82570589  0.09316277  1
  Sc  Sc5  1  0.49088534  0.67429411  0.40683723  1
  Sc  Sc6  1  0.50911466  0.32570589  0.90683723  1
  Sc  Sc7  1  0.00911466  0.17429411  0.59316277  1
  V  V8  1  0.66444273  0.98513718  0.75000000  1
  V  V9  1  0.16444273  0.51486282  0.75000000  1
  V  V10  1  0.83555727  0.48513718  0.25000000  1
  V  V11  1  0.33555727  0.01486282  0.25000000  1
  V  V12  1  0.84081839  0.66610946  0.87250777  1
  V  V13  1  0.34081839  0.83389054  0.62749223  1
  V  V14  1  0.65918161  0.16610946  0.12749223  1
  V  V15  1  0.15918161  0.33389054  0.37250777  1
  V  V16  1  0.15918161  0.33389054  0.12749223  1
  V  V17  1  0.65918161  0.16610946  0.37250777  1
  V  V18  1  0.34081839  0.83389054  0.87250777  1
  V  V19  1  0.84081839  0.66610946  0.62749223  1
  Ge  Ge20  1  0.81054424  0.35440306  0.75000000  1
  Ge  Ge21  1  0.31054424  0.14559694  0.75000000  1
  Ge  Ge22  1  0.68945576  0.85440306  0.25000000  1
  Ge  Ge23  1  0.18945576  0.64559694  0.25000000  1
  Ge  Ge24  1  0.03639115  0.87776020  0.75000000  1
  Ge  Ge25  1  0.53639115  0.62223980  0.75000000  1
  Ge  Ge26  1  0.46360885  0.37776020  0.25000000  1
  Ge  Ge27  1  0.96360885  0.12223980  0.25000000  1
  Ge  Ge28  1  0.82218902  0.45822984  0.04272703  1
  Ge  Ge29  1  0.32218902  0.04177016  0.45727297  1
  Ge  Ge30  1  0.67781098  0.95822984  0.95727297  1
  Ge  Ge31  1  0.17781098  0.54177016  0.54272703  1
  Ge  Ge32  1  0.17781098  0.54177016  0.95727297  1
  Ge  Ge33  1  0.67781098  0.95822984  0.54272703  1
  Ge  Ge34  1  0.32218902  0.04177016  0.04272703  1
  Ge  Ge35  1  0.82218902  0.45822984  0.45727297  1
