# generated using pymatgen
data_Li3BiO3
_symmetry_space_group_name_H-M   'P 1'
_cell_length_a   7.55853095
_cell_length_b   10.57359898
_cell_length_c   10.57359898
_cell_angle_alpha   97.33973438
_cell_angle_beta   110.94212514
_cell_angle_gamma   69.05787486
_symmetry_Int_Tables_number   1
_chemical_formula_structural   Li3BiO3
_chemical_formula_sum   'Li24 Bi8 O24'
_cell_volume   737.09390938
_cell_formula_units_Z   8
loop_
 _symmetry_equiv_pos_site_id
 _symmetry_equiv_pos_as_xyz
  1  'x, y, z'
loop_
 _atom_site_type_symbol
 _atom_site_label
 _atom_site_symmetry_multiplicity
 _atom_site_fract_x
 _atom_site_fract_y
 _atom_site_fract_z
 _atom_site_occupancy
  Li  Li0  1  0.89916508  0.12062906  0.03455068  1
  Li  Li1  1  0.44155637  0.09910944  0.37256838  1
  Li  Li2  1  0.09358528  0.21665409  0.22302306  1
  Li  Li3  1  0.81272247  0.41156162  0.13222443  1
  Li  Li4  1  0.43049803  0.63222443  0.08843838  1
  Li  Li5  1  0.29066581  0.12743162  0.59910944  1
  Li  Li6  1  0.07656311  0.38374941  0.46467203  1
  Li  Li7  1  0.36229879  0.37640286  0.44162414  1
  Li  Li8  1  0.61461440  0.53455068  0.37937094  1
  Li  Li9  1  0.48870265  0.05837586  0.87640286  1
  Li  Li10  1  0.36189208  0.96467203  0.11625059  1
  Li  Li11  1  0.06023938  0.27697694  0.71665409  1
  Li  Li12  1  0.62056123  0.72302306  0.28334591  1
  Li  Li13  1  0.21031352  0.03532797  0.88374941  1
  Li  Li14  1  0.67067465  0.94162414  0.12359714  1
  Li  Li15  1  0.76979415  0.46544932  0.62062906  1
  Li  Li16  1  0.29707851  0.62359714  0.55837586  1
  Li  Li17  1  0.99564149  0.61625059  0.53532797  1
  Li  Li18  1  0.81898800  0.87256838  0.40089056  1
  Li  Li19  1  0.97428409  0.36777557  0.91156162  1
  Li  Li20  1  0.09205965  0.58843838  0.86777557  1
  Li  Li21  1  0.08721532  0.78334591  0.77697694  1
  Li  Li22  1  0.16809644  0.90089056  0.62743162  1
  Li  Li23  1  0.98524346  0.87937094  0.96544932  1
  Bi  Bi24  1  0.38020185  0.30985974  0.12059989  1
  Bi  Bi25  1  0.86290360  0.18356735  0.37206225  1
  Bi  Bi26  1  0.79647094  0.12793775  0.68356735  1
  Bi  Bi27  1  0.00960196  0.62059989  0.19014026  1
  Bi  Bi28  1  0.44006259  0.37940011  0.80985974  1
  Bi  Bi29  1  0.24084135  0.87206225  0.31643265  1
  Bi  Bi30  1  0.67440869  0.81643265  0.62793775  1
  Bi  Bi31  1  0.56946270  0.69014026  0.87940011  1
  O  O32  1  0.42119919  0.11388969  0.04567001  1
  O  O33  1  0.79617445  0.24599453  0.16989506  1
  O  O34  1  0.06853713  0.34528298  0.10191862  1
  O  O35  1  0.18883115  0.18544383  0.41285709  1
  O  O36  1  0.50515744  0.24810927  0.33275766  1
  O  O37  1  0.71661951  0.60191862  0.15471702  1
  O  O38  1  0.12427498  0.08714291  0.68544383  1
  O  O39  1  0.83164844  0.37099880  0.46707808  1
  O  O40  1  0.37627939  0.66989506  0.25400547  1
  O  O41  1  0.50326671  0.16724234  0.74810927  1
  O  O42  1  0.95264625  0.03292192  0.87099880  1
  O  O43  1  0.12552918  0.54567001  0.38611031  1
  O  O44  1  0.28508788  0.45432999  0.61388969  1
  O  O45  1  0.11457036  0.96707808  0.12900120  1
  O  O46  1  0.92239979  0.83275766  0.25189073  1
  O  O47  1  0.79216798  0.33010494  0.74599453  1
  O  O48  1  0.73556916  0.62900120  0.53292192  1
  O  O49  1  0.52597405  0.91285709  0.31455617  1
  O  O50  1  0.16382011  0.39808138  0.84528298  1
  O  O51  1  0.42050906  0.75189073  0.66724234  1
  O  O52  1  0.96141789  0.81455617  0.58714291  1
  O  O53  1  0.31190148  0.65471702  0.89808138  1
  O  O54  1  0.87227392  0.75400547  0.83010494  1
  O  O55  1  0.48941887  0.88611031  0.95432999  1
