# generated using pymatgen
data_TiFeSi2
_symmetry_space_group_name_H-M   'P 1'
_cell_length_a   7.57920296
_cell_length_b   8.57549817
_cell_length_c   9.53044831
_cell_angle_alpha   90.00000000
_cell_angle_beta   90.00000000
_cell_angle_gamma   90.00000000
_symmetry_Int_Tables_number   1
_chemical_formula_structural   TiFeSi2
_chemical_formula_sum   'Ti12 Fe12 Si24'
_cell_volume   619.43569192
_cell_formula_units_Z   12
loop_
 _symmetry_equiv_pos_site_id
 _symmetry_equiv_pos_as_xyz
  1  'x, y, z'
loop_
 _atom_site_type_symbol
 _atom_site_label
 _atom_site_symmetry_multiplicity
 _atom_site_fract_x
 _atom_site_fract_y
 _atom_site_fract_z
 _atom_site_occupancy
  Si  Si0  1  0.50000000  0.03954422  0.37795864  1
  Si  Si1  1  0.00000000  0.46137056  0.88020956  1
  Si  Si2  1  0.00000000  0.53862944  0.11979044  1
  Si  Si3  1  0.00000000  0.96137056  0.61979044  1
  Si  Si4  1  0.00000000  0.03862944  0.38020956  1
  Si  Si5  1  0.00000000  0.37420569  0.60409814  1
  Si  Si6  1  0.00000000  0.62579431  0.39590186  1
  Si  Si7  1  0.00000000  0.87420569  0.89590186  1
  Si  Si8  1  0.50000000  0.37806978  0.59839637  1
  Si  Si9  1  0.50000000  0.62193022  0.40160363  1
  Si  Si10  1  0.50000000  0.87806978  0.90160363  1
  Si  Si11  1  0.50000000  0.12193022  0.09839637  1
  Si  Si12  1  0.50000000  0.46045578  0.87795864  1
  Si  Si13  1  0.50000000  0.53954422  0.12204136  1
  Si  Si14  1  0.50000000  0.96045578  0.62204136  1
  Si  Si15  1  0.00000000  0.12579431  0.10409814  1
  Si  Si16  1  0.34460205  0.33852012  0.31867502  1
  Si  Si17  1  0.65539795  0.83852012  0.18132498  1
  Si  Si18  1  0.34460205  0.83852012  0.18132498  1
  Si  Si19  1  0.65539795  0.16147988  0.81867502  1
  Si  Si20  1  0.65539795  0.66147988  0.68132498  1
  Si  Si21  1  0.65539795  0.33852012  0.31867502  1
  Si  Si22  1  0.34460205  0.16147988  0.81867502  1
  Si  Si23  1  0.34460205  0.66147988  0.68132498  1
  Ti  Ti24  1  0.00000000  0.16747399  0.82028625  1
  Ti  Ti25  1  0.23843469  0.17394535  0.54853726  1
  Ti  Ti26  1  0.76156531  0.32605465  0.04853726  1
  Ti  Ti27  1  0.76156531  0.67394535  0.95146274  1
  Ti  Ti28  1  0.76156531  0.17394535  0.54853726  1
  Ti  Ti29  1  0.76156531  0.82605465  0.45146274  1
  Ti  Ti30  1  0.23843469  0.67394535  0.95146274  1
  Ti  Ti31  1  0.23843469  0.32605465  0.04853726  1
  Ti  Ti32  1  0.00000000  0.33252601  0.32028625  1
  Ti  Ti33  1  0.00000000  0.66747399  0.67971375  1
  Ti  Ti34  1  0.00000000  0.83252601  0.17971375  1
  Ti  Ti35  1  0.23843469  0.82605465  0.45146274  1
  Fe  Fe36  1  0.24874645  0.08983800  0.25734688  1
  Fe  Fe37  1  0.24874645  0.58983800  0.24265312  1
  Fe  Fe38  1  0.24874645  0.41016200  0.75734688  1
  Fe  Fe39  1  0.75125355  0.08983800  0.25734688  1
  Fe  Fe40  1  0.75125355  0.91016200  0.74265312  1
  Fe  Fe41  1  0.75125355  0.41016200  0.75734688  1
  Fe  Fe42  1  0.75125355  0.58983800  0.24265312  1
  Fe  Fe43  1  0.24874645  0.91016200  0.74265312  1
  Fe  Fe44  1  0.24406484  0.00000000  0.00000000  1
  Fe  Fe45  1  0.75593516  0.50000000  0.50000000  1
  Fe  Fe46  1  0.75593516  0.00000000  0.00000000  1
  Fe  Fe47  1  0.24406484  0.50000000  0.50000000  1
