# generated using pymatgen
data_K2In2As3
_symmetry_space_group_name_H-M   'P 1'
_cell_length_a   7.27327821
_cell_length_b   14.63744068
_cell_length_c   16.13991961
_cell_angle_alpha   90.08741925
_cell_angle_beta   90.00000000
_cell_angle_gamma   90.00000000
_symmetry_Int_Tables_number   1
_chemical_formula_structural   K2In2As3
_chemical_formula_sum   'K16 In16 As24'
_cell_volume   1718.28899934
_cell_formula_units_Z   8
loop_
 _symmetry_equiv_pos_site_id
 _symmetry_equiv_pos_as_xyz
  1  'x, y, z'
loop_
 _atom_site_type_symbol
 _atom_site_label
 _atom_site_symmetry_multiplicity
 _atom_site_fract_x
 _atom_site_fract_y
 _atom_site_fract_z
 _atom_site_occupancy
  K  K0  1  0.95825874  0.14329559  0.99291375  1
  K  K1  1  0.45825874  0.85670441  0.50708625  1
  K  K2  1  0.04174126  0.85670441  0.00708625  1
  K  K3  1  0.54174126  0.14329559  0.49291375  1
  K  K4  1  0.56680126  0.65636309  0.02237428  1
  K  K5  1  0.06680126  0.34363691  0.47762572  1
  K  K6  1  0.43319874  0.34363691  0.97762572  1
  K  K7  1  0.93319874  0.65636309  0.52237428  1
  K  K8  1  0.54599235  0.91703699  0.10724264  1
  K  K9  1  0.04599235  0.08296301  0.39275736  1
  K  K10  1  0.45400765  0.08296301  0.89275736  1
  K  K11  1  0.95400765  0.91703699  0.60724264  1
  K  K12  1  0.91705431  0.43717643  0.90762750  1
  K  K13  1  0.41705431  0.56282357  0.59237250  1
  K  K14  1  0.08294569  0.56282357  0.09237250  1
  K  K15  1  0.58294569  0.43717643  0.40762750  1
  As  As16  1  0.79979403  0.24766209  0.82250022  1
  As  As17  1  0.70020597  0.24766209  0.32250022  1
  As  As18  1  0.20020597  0.75233791  0.17749978  1
  As  As19  1  0.04527578  0.52171043  0.34228356  1
  As  As20  1  0.54527578  0.47828957  0.15771644  1
  As  As21  1  0.95472422  0.47828957  0.65771644  1
  As  As22  1  0.45472422  0.52171043  0.84228356  1
  As  As23  1  0.64506651  0.74660138  0.67248802  1
  As  As24  1  0.14506651  0.25339862  0.82751198  1
  As  As25  1  0.35493349  0.25339862  0.32751198  1
  As  As26  1  0.85493349  0.74660138  0.17248802  1
  As  As27  1  0.57095422  0.66555817  0.39123353  1
  As  As28  1  0.29979403  0.75233791  0.67749978  1
  As  As29  1  0.07095422  0.33444183  0.10876647  1
  As  As30  1  0.42904578  0.33444183  0.60876647  1
  As  As31  1  0.92904578  0.66555817  0.89123353  1
  As  As32  1  0.95771393  0.96963518  0.82843907  1
  As  As33  1  0.45771393  0.03036482  0.67156093  1
  As  As34  1  0.04228607  0.03036482  0.17156093  1
  As  As35  1  0.54228607  0.96963518  0.32843907  1
  As  As36  1  0.43934895  0.83683266  0.90866038  1
  As  As37  1  0.93934895  0.16316734  0.59133962  1
  As  As38  1  0.56065105  0.16316734  0.09133962  1
  As  As39  1  0.06065105  0.83683266  0.40866038  1
  In  In40  1  0.75000630  0.58955947  0.25822016  1
  In  In41  1  0.25000630  0.41044053  0.24177984  1
  In  In42  1  0.24999370  0.41044053  0.74177984  1
  In  In43  1  0.74749446  0.81559371  0.32372835  1
  In  In44  1  0.24749446  0.18440629  0.17627165  1
  In  In45  1  0.25250554  0.18440629  0.67627165  1
  In  In46  1  0.75250554  0.81559371  0.82372835  1
  In  In47  1  0.71540803  0.09154251  0.23024487  1
  In  In48  1  0.21540803  0.90845749  0.26975513  1
  In  In49  1  0.28459197  0.90845749  0.76975513  1
  In  In50  1  0.78459197  0.09154251  0.73024487  1
  In  In51  1  0.22987140  0.68248739  0.33209743  1
  In  In52  1  0.72987140  0.31751261  0.16790257  1
  In  In53  1  0.77012860  0.31751261  0.66790257  1
  In  In54  1  0.27012860  0.68248739  0.83209743  1
  In  In55  1  0.74999370  0.58955947  0.75822016  1
