# generated using pymatgen
data_Li4FeOF5
_symmetry_space_group_name_H-M   'P 1'
_cell_length_a   5.13203784
_cell_length_b   5.13203720
_cell_length_c   10.21928868
_cell_angle_alpha   79.69876158
_cell_angle_beta   100.30123857
_cell_angle_gamma   60.79352183
_symmetry_Int_Tables_number   1
_chemical_formula_structural   Li4FeOF5
_chemical_formula_sum   'Li8 Fe2 O2 F10'
_cell_volume   219.77403134
_cell_formula_units_Z   2
loop_
 _symmetry_equiv_pos_site_id
 _symmetry_equiv_pos_as_xyz
  1  'x, y, z'
loop_
 _atom_site_type_symbol
 _atom_site_label
 _atom_site_symmetry_multiplicity
 _atom_site_fract_x
 _atom_site_fract_y
 _atom_site_fract_z
 _atom_site_occupancy
  Li  Li0  1  0.15653983  0.20959873  0.74033940  1
  Li  Li1  1  0.18721798  0.15632462  0.24845281  1
  Li  Li2  1  0.31602990  0.34486282  0.50332246  1
  Li  Li3  1  0.49683895  0.49320345  0.75275257  1
  Li  Li4  1  0.50679655  0.50316105  0.25275257  1
  Li  Li5  1  0.84367538  0.81278302  0.74845281  1
  Li  Li6  1  0.65513718  0.68397010  0.00332246  1
  Li  Li7  1  0.79040127  0.84346017  0.24033940  1
  Fe  Fe8  1  0.00696623  0.96348993  0.50981590  1
  Fe  Fe9  1  0.03651007  0.99303377  0.00981590  1
  O  O10  1  0.10463690  0.59794957  0.62808149  1
  O  O11  1  0.40205043  0.89536310  0.12808149  1
  F  F12  1  0.23992667  0.79529175  0.87192519  1
  F  F13  1  0.05165210  0.61490716  0.12554322  1
  F  F14  1  0.63609654  0.05342145  0.87421230  1
  F  F15  1  0.58596298  0.11156441  0.36743125  1
  F  F16  1  0.20470825  0.76007333  0.37192519  1
  F  F17  1  0.75581182  0.22540299  0.61878042  1
  F  F18  1  0.38509284  0.94834790  0.62554322  1
  F  F19  1  0.88843559  0.41403702  0.86743125  1
  F  F20  1  0.77459701  0.24418818  0.11878042  1
  F  F21  1  0.94657855  0.36390346  0.37421230  1
