# generated using pymatgen
data_PtBr3
_symmetry_space_group_name_H-M   'P 1'
_cell_length_a   13.74759260
_cell_length_b   13.74759260
_cell_length_c   13.74759259
_cell_angle_alpha   115.10259711
_cell_angle_beta   115.10259712
_cell_angle_gamma   115.10259714
_symmetry_Int_Tables_number   1
_chemical_formula_structural   PtBr3
_chemical_formula_sum   'Pt12 Br36'
_cell_volume   1440.44578029
_cell_formula_units_Z   12
loop_
 _symmetry_equiv_pos_site_id
 _symmetry_equiv_pos_as_xyz
  1  'x, y, z'
loop_
 _atom_site_type_symbol
 _atom_site_label
 _atom_site_symmetry_multiplicity
 _atom_site_fract_x
 _atom_site_fract_y
 _atom_site_fract_z
 _atom_site_occupancy
  Br  Br0  1  0.76271229  0.83290269  0.34704219  1
  Br  Br1  1  0.83290269  0.34704219  0.76271229  1
  Br  Br2  1  0.34704219  0.76271229  0.83290269  1
  Br  Br3  1  0.23728771  0.16709731  0.65295781  1
  Br  Br4  1  0.16709731  0.65295781  0.23728771  1
  Br  Br5  1  0.65295781  0.23728771  0.16709731  1
  Br  Br6  1  0.55439457  0.39649654  0.05014850  1
  Br  Br7  1  0.39649654  0.05014850  0.55439457  1
  Br  Br8  1  0.05014850  0.55439457  0.39649654  1
  Br  Br9  1  0.44560543  0.60350346  0.94985150  1
  Br  Br10  1  0.60350346  0.94985150  0.44560543  1
  Br  Br11  1  0.94985150  0.44560543  0.60350346  1
  Br  Br12  1  0.69967014  0.77640059  0.60232554  1
  Br  Br13  1  0.60232554  0.69967014  0.77640059  1
  Br  Br14  1  0.77640059  0.60232554  0.69967014  1
  Br  Br15  1  0.30032986  0.22359941  0.39767446  1
  Br  Br16  1  0.39767446  0.30032986  0.22359941  1
  Br  Br17  1  0.22359941  0.39767446  0.30032986  1
  Br  Br18  1  0.17431341  0.90319364  0.92359407  1
  Br  Br19  1  0.92359407  0.17431341  0.90319364  1
  Br  Br20  1  0.90319364  0.92359407  0.17431341  1
  Br  Br21  1  0.82568659  0.09680636  0.07640593  1
  Br  Br22  1  0.07640593  0.82568659  0.09680636  1
  Br  Br23  1  0.09680636  0.07640593  0.82568659  1
  Br  Br24  1  0.31036878  0.97343849  0.72869457  1
  Br  Br25  1  0.72869457  0.31036878  0.97343849  1
  Br  Br26  1  0.97343849  0.72869457  0.31036878  1
  Br  Br27  1  0.68963122  0.02656151  0.27130543  1
  Br  Br28  1  0.27130543  0.68963122  0.02656151  1
  Br  Br29  1  0.02656151  0.27130543  0.68963122  1
  Br  Br30  1  0.37308936  0.53651007  0.14866207  1
  Br  Br31  1  0.14866207  0.37308936  0.53651007  1
  Br  Br32  1  0.53651007  0.14866207  0.37308936  1
  Br  Br33  1  0.62691064  0.46348993  0.85133793  1
  Br  Br34  1  0.85133793  0.62691064  0.46348993  1
  Br  Br35  1  0.46348993  0.85133793  0.62691064  1
  Pt  Pt36  1  0.22888506  0.80129964  0.47561075  1
  Pt  Pt37  1  0.80129964  0.47561075  0.22888506  1
  Pt  Pt38  1  0.47561075  0.22888506  0.80129964  1
  Pt  Pt39  1  0.77111494  0.19870036  0.52438925  1
  Pt  Pt40  1  0.19870036  0.52438925  0.77111494  1
  Pt  Pt41  1  0.52438925  0.77111494  0.19870036  1
  Pt  Pt42  1  0.75702355  0.93503873  0.83547450  1
  Pt  Pt43  1  0.93503873  0.83547450  0.75702355  1
  Pt  Pt44  1  0.83547450  0.75702355  0.93503873  1
  Pt  Pt45  1  0.24297645  0.06496127  0.16452550  1
  Pt  Pt46  1  0.06496127  0.16452550  0.24297645  1
  Pt  Pt47  1  0.16452550  0.24297645  0.06496127  1
