# generated using pymatgen
data_Ce5Ge2Ru
_symmetry_space_group_name_H-M   'P 1'
_cell_length_a   7.82736299
_cell_length_b   8.79183313
_cell_length_c   11.75955560
_cell_angle_alpha   90.00000000
_cell_angle_beta   90.00000000
_cell_angle_gamma   90.00000000
_symmetry_Int_Tables_number   1
_chemical_formula_structural   Ce5Ge2Ru
_chemical_formula_sum   'Ce20 Ge8 Ru4'
_cell_volume   809.25580023
_cell_formula_units_Z   4
loop_
 _symmetry_equiv_pos_site_id
 _symmetry_equiv_pos_as_xyz
  1  'x, y, z'
loop_
 _atom_site_type_symbol
 _atom_site_label
 _atom_site_symmetry_multiplicity
 _atom_site_fract_x
 _atom_site_fract_y
 _atom_site_fract_z
 _atom_site_occupancy
  Ge  Ge0  1  0.57812790  0.49521458  0.67299339  1
  Ge  Ge1  1  0.92187210  0.00478542  0.17299339  1
  Ge  Ge2  1  0.42187210  0.99521458  0.32700661  1
  Ge  Ge3  1  0.07812790  0.50478542  0.82700661  1
  Ge  Ge4  1  0.42187210  0.50478542  0.32700661  1
  Ge  Ge5  1  0.07812790  0.99521458  0.82700661  1
  Ge  Ge6  1  0.57812790  0.00478542  0.67299339  1
  Ge  Ge7  1  0.92187210  0.49521458  0.17299339  1
  Ru  Ru8  1  0.57860381  0.75000000  0.97712610  1
  Ru  Ru9  1  0.07860381  0.25000000  0.52287390  1
  Ru  Ru10  1  0.42139619  0.25000000  0.02287390  1
  Ru  Ru11  1  0.92139619  0.75000000  0.47712610  1
  Ce  Ce12  1  0.70041884  0.46444050  0.93252127  1
  Ce  Ce13  1  0.20041884  0.96444050  0.56747873  1
  Ce  Ce14  1  0.70041884  0.03555950  0.93252127  1
  Ce  Ce15  1  0.79958116  0.46444050  0.43252127  1
  Ce  Ce16  1  0.97458066  0.75000000  0.99764430  1
  Ce  Ce17  1  0.47458066  0.25000000  0.50235570  1
  Ce  Ce18  1  0.02541934  0.25000000  0.00235570  1
  Ce  Ce19  1  0.52541934  0.75000000  0.49764430  1
  Ce  Ce20  1  0.29958116  0.53555950  0.06747873  1
  Ce  Ce21  1  0.79958116  0.03555950  0.43252127  1
  Ce  Ce22  1  0.29958116  0.96444050  0.06747873  1
  Ce  Ce23  1  0.20041884  0.53555950  0.56747873  1
  Ce  Ce24  1  0.36937522  0.75000000  0.79486557  1
  Ce  Ce25  1  0.86937522  0.25000000  0.70513443  1
  Ce  Ce26  1  0.63062478  0.25000000  0.20513443  1
  Ce  Ce27  1  0.13062478  0.75000000  0.29486557  1
  Ce  Ce28  1  0.84664208  0.75000000  0.71134294  1
  Ce  Ce29  1  0.34664208  0.25000000  0.78865706  1
  Ce  Ce30  1  0.15335792  0.25000000  0.28865706  1
  Ce  Ce31  1  0.65335792  0.75000000  0.21134294  1
