# generated using pymatgen
data_RbCdCl3
_symmetry_space_group_name_H-M   'P 1'
_cell_length_a   4.11940023
_cell_length_b   9.21228274
_cell_length_c   15.31262964
_cell_angle_alpha   90.00000000
_cell_angle_beta   90.00000000
_cell_angle_gamma   90.00000000
_symmetry_Int_Tables_number   1
_chemical_formula_structural   RbCdCl3
_chemical_formula_sum   'Rb4 Cd4 Cl12'
_cell_volume   581.10020168
_cell_formula_units_Z   4
loop_
 _symmetry_equiv_pos_site_id
 _symmetry_equiv_pos_as_xyz
  1  'x, y, z'
loop_
 _atom_site_type_symbol
 _atom_site_label
 _atom_site_symmetry_multiplicity
 _atom_site_fract_x
 _atom_site_fract_y
 _atom_site_fract_z
 _atom_site_occupancy
  Cl  Cl0  1  0.75000000  0.47639350  0.59759580  1
  Cl  Cl1  1  0.75000000  0.82628048  0.49623157  1
  Cl  Cl2  1  0.25000000  0.67371952  0.99623157  1
  Cl  Cl3  1  0.75000000  0.32628048  0.00376843  1
  Cl  Cl4  1  0.25000000  0.28167425  0.79352245  1
  Cl  Cl5  1  0.75000000  0.71832575  0.20647755  1
  Cl  Cl6  1  0.25000000  0.78167425  0.70647755  1
  Cl  Cl7  1  0.25000000  0.52360650  0.40240420  1
  Cl  Cl8  1  0.75000000  0.97639350  0.90240420  1
  Cl  Cl9  1  0.25000000  0.02360650  0.09759580  1
  Cl  Cl10  1  0.75000000  0.21832575  0.29352245  1
  Cl  Cl11  1  0.25000000  0.17371952  0.50376843  1
  Rb  Rb12  1  0.75000000  0.06971013  0.67416173  1
  Rb  Rb13  1  0.25000000  0.93028987  0.32583827  1
  Rb  Rb14  1  0.75000000  0.56971013  0.82583827  1
  Rb  Rb15  1  0.25000000  0.43028987  0.17416173  1
  Cd  Cd16  1  0.75000000  0.33508448  0.44410456  1
  Cd  Cd17  1  0.25000000  0.66491552  0.55589544  1
  Cd  Cd18  1  0.75000000  0.83508448  0.05589544  1
  Cd  Cd19  1  0.25000000  0.16491552  0.94410456  1
