# generated using pymatgen
data_Si2Pb3O7
_symmetry_space_group_name_H-M   'P 1'
_cell_length_a   14.40499365
_cell_length_b   14.40499365
_cell_length_c   14.40499366
_cell_angle_alpha   41.93963738
_cell_angle_beta   41.93963740
_cell_angle_gamma   41.93963736
_symmetry_Int_Tables_number   1
_chemical_formula_structural   Si2Pb3O7
_chemical_formula_sum   'Si12 Pb18 O42'
_cell_volume   1207.62904842
_cell_formula_units_Z   6
loop_
 _symmetry_equiv_pos_site_id
 _symmetry_equiv_pos_as_xyz
  1  'x, y, z'
loop_
 _atom_site_type_symbol
 _atom_site_label
 _atom_site_symmetry_multiplicity
 _atom_site_fract_x
 _atom_site_fract_y
 _atom_site_fract_z
 _atom_site_occupancy
  O  O0  1  0.89413349  0.41837451  0.51517397  1
  O  O1  1  0.41837451  0.51517397  0.89413349  1
  O  O2  1  0.51517397  0.89413349  0.41837451  1
  O  O3  1  0.98482603  0.08162549  0.60586651  1
  O  O4  1  0.08162549  0.60586651  0.98482603  1
  O  O5  1  0.60586651  0.98482603  0.08162549  1
  O  O6  1  0.10586651  0.58162549  0.48482603  1
  O  O7  1  0.58162549  0.48482603  0.10586651  1
  O  O8  1  0.48482603  0.10586651  0.58162549  1
  O  O9  1  0.01517397  0.91837451  0.39413349  1
  O  O10  1  0.91837451  0.39413349  0.01517397  1
  O  O11  1  0.39413349  0.01517397  0.91837451  1
  O  O12  1  0.86565149  0.50789290  0.74815145  1
  O  O13  1  0.50789290  0.74815145  0.86565149  1
  O  O14  1  0.74815145  0.86565149  0.50789290  1
  O  O15  1  0.75184855  0.99210710  0.63434851  1
  O  O16  1  0.99210710  0.63434851  0.75184855  1
  O  O17  1  0.30328232  0.62529910  0.12278822  1
  O  O18  1  0.63434851  0.75184855  0.99210710  1
  O  O19  1  0.49210710  0.25184855  0.13434851  1
  O  O20  1  0.25184855  0.13434851  0.49210710  1
  O  O21  1  0.24815145  0.00789290  0.36565149  1
  O  O22  1  0.00789290  0.36565149  0.24815145  1
  O  O23  1  0.36565149  0.24815145  0.00789290  1
  O  O24  1  0.69671768  0.37470090  0.87721178  1
  O  O25  1  0.37470090  0.87721178  0.69671768  1
  O  O26  1  0.87721178  0.69671768  0.37470090  1
  O  O27  1  0.62278822  0.12529910  0.80328232  1
  O  O28  1  0.12529910  0.80328232  0.62278822  1
  O  O29  1  0.80328232  0.62278822  0.12529910  1
  O  O30  1  0.87045568  0.62954432  0.25000000  1
  O  O31  1  0.25000000  0.87045568  0.62954432  1
  O  O32  1  0.62954432  0.25000000  0.87045568  1
  O  O33  1  0.12954432  0.37045568  0.75000000  1
  O  O34  1  0.75000000  0.12954432  0.37045568  1
  O  O35  1  0.37045568  0.75000000  0.12954432  1
  O  O36  1  0.19671768  0.37721178  0.87470090  1
  O  O37  1  0.87470090  0.19671768  0.37721178  1
  O  O38  1  0.37721178  0.87470090  0.19671768  1
  O  O39  1  0.12278822  0.30328232  0.62529910  1
  O  O40  1  0.62529910  0.12278822  0.30328232  1
  O  O41  1  0.13434851  0.49210710  0.25184855  1
  Si  Si42  1  0.94552500  0.55718352  0.35171520  1
  Si  Si43  1  0.55718352  0.35171520  0.94552500  1
  Si  Si44  1  0.35171520  0.94552500  0.55718352  1
  Si  Si45  1  0.14828480  0.94281648  0.55447500  1
  Si  Si46  1  0.94281648  0.55447500  0.14828480  1
  Si  Si47  1  0.55447500  0.14828480  0.94281648  1
  Si  Si48  1  0.05447500  0.44281648  0.64828480  1
  Si  Si49  1  0.44281648  0.64828480  0.05447500  1
  Si  Si50  1  0.64828480  0.05447500  0.44281648  1
  Si  Si51  1  0.85171520  0.05718352  0.44552500  1
  Si  Si52  1  0.05718352  0.44552500  0.85171520  1
  Si  Si53  1  0.44552500  0.85171520  0.05718352  1
  Pb  Pb54  1  0.75000000  0.75000000  0.75000000  1
  Pb  Pb55  1  0.25000000  0.25000000  0.25000000  1
  Pb  Pb56  1  0.65963369  0.65963369  0.65963369  1
  Pb  Pb57  1  0.84036631  0.84036631  0.84036631  1
  Pb  Pb58  1  0.34036631  0.34036631  0.34036631  1
  Pb  Pb59  1  0.15963369  0.15963369  0.15963369  1
  Pb  Pb60  1  0.81307196  0.29074364  0.50918956  1
  Pb  Pb61  1  0.29074364  0.50918956  0.81307196  1
  Pb  Pb62  1  0.50918956  0.81307196  0.29074364  1
  Pb  Pb63  1  0.99081044  0.20925636  0.68692804  1
  Pb  Pb64  1  0.20925636  0.68692804  0.99081044  1
  Pb  Pb65  1  0.68692804  0.99081044  0.20925636  1
  Pb  Pb66  1  0.18692804  0.70925636  0.49081044  1
  Pb  Pb67  1  0.70925636  0.49081044  0.18692804  1
  Pb  Pb68  1  0.49081044  0.18692804  0.70925636  1
  Pb  Pb69  1  0.00918956  0.79074364  0.31307196  1
  Pb  Pb70  1  0.79074364  0.31307196  0.00918956  1
  Pb  Pb71  1  0.31307196  0.00918956  0.79074364  1
