# generated using pymatgen
data_CeCu6
_symmetry_space_group_name_H-M   'P 1'
_cell_length_a   5.02641690
_cell_length_b   8.05954689
_cell_length_c   10.09324041
_cell_angle_alpha   90.00000000
_cell_angle_beta   90.00000000
_cell_angle_gamma   90.00000000
_symmetry_Int_Tables_number   1
_chemical_formula_structural   CeCu6
_chemical_formula_sum   'Ce4 Cu24'
_cell_volume   408.88365588
_cell_formula_units_Z   4
loop_
 _symmetry_equiv_pos_site_id
 _symmetry_equiv_pos_as_xyz
  1  'x, y, z'
loop_
 _atom_site_type_symbol
 _atom_site_label
 _atom_site_symmetry_multiplicity
 _atom_site_fract_x
 _atom_site_fract_y
 _atom_site_fract_z
 _atom_site_occupancy
  Cu  Cu0  1  0.25000000  0.40004927  0.98431021  1
  Cu  Cu1  1  0.75000000  0.59995073  0.01568979  1
  Cu  Cu2  1  0.25000000  0.90004927  0.51568979  1
  Cu  Cu3  1  0.75000000  0.09995073  0.48431021  1
  Cu  Cu4  1  0.99485206  0.56452397  0.80830737  1
  Cu  Cu5  1  0.49485206  0.43547603  0.19169263  1
  Cu  Cu6  1  0.50514794  0.06452397  0.69169263  1
  Cu  Cu7  1  0.00514794  0.93547603  0.30830737  1
  Cu  Cu8  1  0.00514794  0.43547603  0.19169263  1
  Cu  Cu9  1  0.50514794  0.56452397  0.80830737  1
  Cu  Cu10  1  0.49485206  0.93547603  0.30830737  1
  Cu  Cu11  1  0.99485206  0.06452397  0.69169263  1
  Cu  Cu12  1  0.75000000  0.85406897  0.85668217  1
  Cu  Cu13  1  0.25000000  0.14593103  0.14331783  1
  Cu  Cu14  1  0.75000000  0.35406897  0.64331783  1
  Cu  Cu15  1  0.25000000  0.64593103  0.35668217  1
  Cu  Cu16  1  0.75000000  0.18254199  0.24392851  1
  Cu  Cu17  1  0.25000000  0.81745801  0.75607149  1
  Cu  Cu18  1  0.75000000  0.68254199  0.25607149  1
  Cu  Cu19  1  0.25000000  0.31745801  0.74392851  1
  Cu  Cu20  1  0.75000000  0.43832419  0.40508119  1
  Cu  Cu21  1  0.25000000  0.56167581  0.59491881  1
  Cu  Cu22  1  0.75000000  0.93832419  0.09491881  1
  Cu  Cu23  1  0.25000000  0.06167581  0.90508119  1
  Ce  Ce24  1  0.25000000  0.75943617  0.06474276  1
  Ce  Ce25  1  0.75000000  0.24056383  0.93525724  1
  Ce  Ce26  1  0.25000000  0.25943617  0.43525724  1
  Ce  Ce27  1  0.75000000  0.74056383  0.56474276  1
