# generated using pymatgen
data_ThInCu5
_symmetry_space_group_name_H-M   'P 1'
_cell_length_a   5.08842110
_cell_length_b   8.33382623
_cell_length_c   10.57907736
_cell_angle_alpha   90.00000000
_cell_angle_beta   90.00000000
_cell_angle_gamma   90.00000000
_symmetry_Int_Tables_number   1
_chemical_formula_structural   ThInCu5
_chemical_formula_sum   'Th4 In4 Cu20'
_cell_volume   448.61653683
_cell_formula_units_Z   4
loop_
 _symmetry_equiv_pos_site_id
 _symmetry_equiv_pos_as_xyz
  1  'x, y, z'
loop_
 _atom_site_type_symbol
 _atom_site_label
 _atom_site_symmetry_multiplicity
 _atom_site_fract_x
 _atom_site_fract_y
 _atom_site_fract_z
 _atom_site_occupancy
  Th  Th0  1  0.75000000  0.24644866  0.05973542  1
  Th  Th1  1  0.75000000  0.74644866  0.44026458  1
  Th  Th2  1  0.25000000  0.75355134  0.94026458  1
  Th  Th3  1  0.25000000  0.25355134  0.55973542  1
  In  In4  1  0.75000000  0.36021728  0.36091280  1
  In  In5  1  0.75000000  0.86021728  0.13908720  1
  In  In6  1  0.25000000  0.63978272  0.63908720  1
  In  In7  1  0.25000000  0.13978272  0.86091280  1
  Cu  Cu8  1  0.49975541  0.43199362  0.81164571  1
  Cu  Cu9  1  0.00024459  0.93199362  0.68835429  1
  Cu  Cu10  1  0.99975541  0.56800638  0.18835429  1
  Cu  Cu11  1  0.50024459  0.06800638  0.31164571  1
  Cu  Cu12  1  0.50024459  0.56800638  0.18835429  1
  Cu  Cu13  1  0.99975541  0.06800638  0.31164571  1
  Cu  Cu14  1  0.00024459  0.43199362  0.81164571  1
  Cu  Cu15  1  0.49975541  0.93199362  0.68835429  1
  Cu  Cu16  1  0.75000000  0.44100039  0.60431233  1
  Cu  Cu17  1  0.75000000  0.94100039  0.89568767  1
  Cu  Cu18  1  0.25000000  0.55899961  0.39568767  1
  Cu  Cu19  1  0.25000000  0.05899961  0.10431233  1
  Cu  Cu20  1  0.75000000  0.18148792  0.74496219  1
  Cu  Cu21  1  0.75000000  0.68148792  0.75503781  1
  Cu  Cu22  1  0.25000000  0.81851208  0.25503781  1
  Cu  Cu23  1  0.25000000  0.31851208  0.24496219  1
  Cu  Cu24  1  0.75000000  0.08527792  0.51611352  1
  Cu  Cu25  1  0.75000000  0.58527792  0.98388648  1
  Cu  Cu26  1  0.25000000  0.91472208  0.48388648  1
  Cu  Cu27  1  0.25000000  0.41472208  0.01611352  1
