# generated using pymatgen
data_Rb2AgI3
_symmetry_space_group_name_H-M   'P 1'
_cell_length_a   4.98677123
_cell_length_b   10.55360740
_cell_length_c   20.38396329
_cell_angle_alpha   90.00000000
_cell_angle_beta   90.00000000
_cell_angle_gamma   90.00000000
_symmetry_Int_Tables_number   1
_chemical_formula_structural   Rb2AgI3
_chemical_formula_sum   'Rb8 Ag4 I12'
_cell_volume   1072.77589860
_cell_formula_units_Z   4
loop_
 _symmetry_equiv_pos_site_id
 _symmetry_equiv_pos_as_xyz
  1  'x, y, z'
loop_
 _atom_site_type_symbol
 _atom_site_label
 _atom_site_symmetry_multiplicity
 _atom_site_fract_x
 _atom_site_fract_y
 _atom_site_fract_z
 _atom_site_occupancy
  Rb  Rb0  1  0.75000000  0.42075878  0.21261802  1
  Rb  Rb1  1  0.25000000  0.57924122  0.78738198  1
  Rb  Rb2  1  0.75000000  0.92075878  0.28738198  1
  Rb  Rb3  1  0.25000000  0.07924122  0.71261802  1
  Rb  Rb4  1  0.75000000  0.74467981  0.54182200  1
  Rb  Rb5  1  0.25000000  0.25532019  0.45817800  1
  Rb  Rb6  1  0.75000000  0.24467981  0.95817800  1
  Rb  Rb7  1  0.25000000  0.75532019  0.04182200  1
  Ag  Ag8  1  0.75000000  0.86227866  0.86409829  1
  Ag  Ag9  1  0.25000000  0.13772134  0.13590171  1
  Ag  Ag10  1  0.75000000  0.36227866  0.63590171  1
  Ag  Ag11  1  0.25000000  0.63772134  0.36409829  1
  I  I12  1  0.75000000  0.81497532  0.72463370  1
  I  I13  1  0.25000000  0.18502468  0.27536630  1
  I  I14  1  0.75000000  0.31497532  0.77536630  1
  I  I15  1  0.25000000  0.68502468  0.22463370  1
  I  I16  1  0.75000000  0.62249909  0.92933473  1
  I  I17  1  0.25000000  0.37750091  0.07066527  1
  I  I18  1  0.75000000  0.12249909  0.57066527  1
  I  I19  1  0.25000000  0.87750091  0.42933473  1
  I  I20  1  0.75000000  0.50563172  0.39704139  1
  I  I21  1  0.25000000  0.49436828  0.60295861  1
  I  I22  1  0.75000000  0.00563172  0.10295861  1
  I  I23  1  0.25000000  0.99436828  0.89704139  1
