# generated using pymatgen
data_Sr2In4Pt3
_symmetry_space_group_name_H-M   'P 1'
_cell_length_a   14.93718104
_cell_length_b   14.93718104
_cell_length_c   4.54894904
_cell_angle_alpha   90.00000000
_cell_angle_beta   90.00000000
_cell_angle_gamma   120.00000000
_symmetry_Int_Tables_number   1
_chemical_formula_structural   Sr2In4Pt3
_chemical_formula_sum   'Sr8 In16 Pt12'
_cell_volume   878.97999860
_cell_formula_units_Z   4
loop_
 _symmetry_equiv_pos_site_id
 _symmetry_equiv_pos_as_xyz
  1  'x, y, z'
loop_
 _atom_site_type_symbol
 _atom_site_label
 _atom_site_symmetry_multiplicity
 _atom_site_fract_x
 _atom_site_fract_y
 _atom_site_fract_z
 _atom_site_occupancy
  Sr  Sr0  1  0.18634927  0.00000000  0.50000000  1
  Sr  Sr1  1  0.81365073  0.81365073  0.50000000  1
  Sr  Sr2  1  0.00000000  0.18634927  0.50000000  1
  Sr  Sr3  1  0.66666667  0.33333333  0.00000000  1
  Sr  Sr4  1  0.33333333  0.66666667  0.00000000  1
  Sr  Sr5  1  0.55114373  0.00000000  0.00000000  1
  Sr  Sr6  1  0.44885627  0.44885627  0.00000000  1
  Sr  Sr7  1  0.00000000  0.55114373  0.00000000  1
  In  In8  1  0.47989203  0.12555745  0.50000000  1
  In  In9  1  0.87444255  0.35433459  0.50000000  1
  In  In10  1  0.64566541  0.52010797  0.50000000  1
  In  In11  1  0.52010797  0.64566541  0.50000000  1
  In  In12  1  0.35433459  0.87444255  0.50000000  1
  In  In13  1  0.12555745  0.47989203  0.50000000  1
  In  In14  1  0.37802248  0.19525866  0.00000000  1
  In  In15  1  0.80474134  0.18276382  0.00000000  1
  In  In16  1  0.81723618  0.62197752  0.00000000  1
  In  In17  1  0.62197752  0.81723618  0.00000000  1
  In  In18  1  0.00000000  0.00000000  0.00000000  1
  In  In19  1  0.18276382  0.80474134  0.00000000  1
  In  In20  1  0.72202144  0.00000000  0.50000000  1
  In  In21  1  0.27797856  0.27797856  0.50000000  1
  In  In22  1  0.00000000  0.72202144  0.50000000  1
  In  In23  1  0.19525866  0.37802248  0.00000000  1
  Pt  Pt24  1  0.00000000  0.35098466  0.00000000  1
  Pt  Pt25  1  0.35098466  0.00000000  0.00000000  1
  Pt  Pt26  1  0.48325395  0.31392632  0.50000000  1
  Pt  Pt27  1  0.68607368  0.16932763  0.50000000  1
  Pt  Pt28  1  0.83067237  0.51674605  0.50000000  1
  Pt  Pt29  1  0.51674605  0.83067237  0.50000000  1
  Pt  Pt30  1  0.16932763  0.68607368  0.50000000  1
  Pt  Pt31  1  0.31392632  0.48325395  0.50000000  1
  Pt  Pt32  1  0.00000000  0.81977284  0.00000000  1
  Pt  Pt33  1  0.18022716  0.18022716  0.00000000  1
  Pt  Pt34  1  0.81977284  0.00000000  0.00000000  1
  Pt  Pt35  1  0.64901534  0.64901534  0.00000000  1
