# generated using pymatgen
data_Ce(Ni2B)6
_symmetry_space_group_name_H-M   'P 1'
_cell_length_a   6.03855492
_cell_length_b   6.03855491
_cell_length_c   10.98364245
_cell_angle_alpha   90.00000000
_cell_angle_beta   90.00000000
_cell_angle_gamma   104.80672768
_symmetry_Int_Tables_number   1
_chemical_formula_structural   Ce(Ni2B)6
_chemical_formula_sum   'Ce2 Ni24 B12'
_cell_volume   387.20958405
_cell_formula_units_Z   2
loop_
 _symmetry_equiv_pos_site_id
 _symmetry_equiv_pos_as_xyz
  1  'x, y, z'
loop_
 _atom_site_type_symbol
 _atom_site_label
 _atom_site_symmetry_multiplicity
 _atom_site_fract_x
 _atom_site_fract_y
 _atom_site_fract_z
 _atom_site_occupancy
  B  B0  1  0.98665701  0.39902224  0.87748424  1
  B  B1  1  0.01334299  0.60097776  0.37748424  1
  B  B2  1  0.75512577  0.32466970  0.61434618  1
  B  B3  1  0.24487423  0.67533030  0.11434618  1
  B  B4  1  0.67533030  0.24487423  0.11434618  1
  B  B5  1  0.32466970  0.75512577  0.61434618  1
  B  B6  1  0.51284418  0.51284418  0.34445882  1
  B  B7  1  0.48715582  0.48715582  0.84445882  1
  B  B8  1  0.16336194  0.16336194  0.16420582  1
  B  B9  1  0.83663806  0.83663806  0.66420582  1
  B  B10  1  0.60097776  0.01334299  0.37748424  1
  B  B11  1  0.39902224  0.98665701  0.87748424  1
  Ni  Ni12  1  0.85411475  0.12042880  0.24473240  1
  Ni  Ni13  1  0.87957120  0.14588525  0.74473240  1
  Ni  Ni14  1  0.65771677  0.26943577  0.93214132  1
  Ni  Ni15  1  0.34228323  0.73056423  0.43214132  1
  Ni  Ni16  1  0.73056423  0.34228323  0.43214132  1
  Ni  Ni17  1  0.12042880  0.85411475  0.24473240  1
  Ni  Ni18  1  0.36978761  0.00525737  0.06283500  1
  Ni  Ni19  1  0.63021239  0.99474263  0.56283500  1
  Ni  Ni20  1  0.99474263  0.63021239  0.56283500  1
  Ni  Ni21  1  0.00525737  0.36978761  0.06283500  1
  Ni  Ni22  1  0.47173056  0.21130440  0.72336922  1
  Ni  Ni23  1  0.52826944  0.78869560  0.22336922  1
  Ni  Ni24  1  0.78869560  0.52826944  0.22336922  1
  Ni  Ni25  1  0.21130440  0.47173056  0.72336922  1
  Ni  Ni26  1  0.80379064  0.54216934  0.76607333  1
  Ni  Ni27  1  0.19620936  0.45783066  0.26607333  1
  Ni  Ni28  1  0.45783066  0.19620936  0.26607333  1
  Ni  Ni29  1  0.54216934  0.80379064  0.76607333  1
  Ni  Ni30  1  0.78118257  0.78118257  0.40213642  1
  Ni  Ni31  1  0.21881743  0.21881743  0.90213642  1
  Ni  Ni32  1  0.56391104  0.56391104  0.58127611  1
  Ni  Ni33  1  0.43608896  0.43608896  0.08127611  1
  Ni  Ni34  1  0.26943577  0.65771677  0.93214132  1
  Ni  Ni35  1  0.14588525  0.87957120  0.74473240  1
  Ce  Ce36  1  0.16804321  0.16804321  0.50295946  1
  Ce  Ce37  1  0.83195679  0.83195679  0.00295946  1
