# generated using pymatgen
data_IF5
_symmetry_space_group_name_H-M   'P 1'
_cell_length_a   7.11747248
_cell_length_b   8.56004139
_cell_length_c   18.78309423
_cell_angle_alpha   93.06197402
_cell_angle_beta   90.00000000
_cell_angle_gamma   114.56581335
_symmetry_Int_Tables_number   1
_chemical_formula_structural   IF5
_chemical_formula_sum   'I10 F50'
_cell_volume   1038.99552922
_cell_formula_units_Z   10
loop_
 _symmetry_equiv_pos_site_id
 _symmetry_equiv_pos_as_xyz
  1  'x, y, z'
loop_
 _atom_site_type_symbol
 _atom_site_label
 _atom_site_symmetry_multiplicity
 _atom_site_fract_x
 _atom_site_fract_y
 _atom_site_fract_z
 _atom_site_occupancy
  F  F0  1  0.70793766  0.34890721  0.92176173  1
  F  F1  1  0.35903045  0.65109279  0.57823827  1
  F  F2  1  0.29206234  0.65109279  0.07823827  1
  F  F3  1  0.64096955  0.34890721  0.42176173  1
  F  F4  1  0.10864081  0.57429615  0.91602154  1
  F  F5  1  0.53434466  0.42570385  0.58397846  1
  F  F6  1  0.89135919  0.42570385  0.08397846  1
  F  F7  1  0.46565534  0.57429615  0.41602154  1
  F  F8  1  0.11746013  0.45835985  0.77868418  1
  F  F9  1  0.65910028  0.54164015  0.72131582  1
  F  F10  1  0.00777346  0.00000000  0.25000000  1
  F  F11  1  0.99222654  0.00000000  0.75000000  1
  F  F12  1  0.88857087  0.20583682  0.19874274  1
  F  F13  1  0.68273405  0.79416318  0.30125726  1
  F  F14  1  0.11142913  0.79416318  0.80125726  1
  F  F15  1  0.31726595  0.20583682  0.69874274  1
  F  F16  1  0.85068185  0.13562861  0.33738949  1
  F  F17  1  0.71505324  0.86437139  0.16261051  1
  F  F18  1  0.14931815  0.86437139  0.66261051  1
  F  F19  1  0.28494676  0.13562861  0.83738949  1
  F  F20  1  0.14612819  0.12225596  0.08790282  1
  F  F21  1  0.02387223  0.87774404  0.41209718  1
  F  F22  1  0.85387181  0.87774404  0.91209718  1
  F  F23  1  0.97612777  0.12225596  0.58790282  1
  F  F24  1  0.29932166  0.00521478  0.99224517  1
  F  F25  1  0.29410688  0.99478522  0.50775483  1
  F  F26  1  0.70067834  0.99478522  0.00775483  1
  F  F27  1  0.70589312  0.00521478  0.49224517  1
  F  F28  1  0.29641717  0.32115573  0.99099695  1
  F  F29  1  0.97526144  0.67884427  0.50900305  1
  F  F30  1  0.70358283  0.67884427  0.00900305  1
  F  F31  1  0.02473856  0.32115573  0.49099695  1
  F  F32  1  0.44661594  0.39360815  0.12495097  1
  F  F33  1  0.05300779  0.60639185  0.37504903  1
  F  F34  1  0.55338406  0.60639185  0.87504903  1
  F  F35  1  0.94699221  0.39360815  0.62495097  1
  F  F36  1  0.45699325  0.08301300  0.12759809  1
  F  F37  1  0.37398024  0.91698700  0.37240191  1
  F  F38  1  0.54300675  0.91698700  0.87240191  1
  F  F39  1  0.62601976  0.08301300  0.62759809  1
  F  F40  1  0.28224245  0.26299839  0.37728838  1
  F  F41  1  0.01924406  0.73700161  0.12271162  1
  F  F42  1  0.71775755  0.73700161  0.62271162  1
  F  F43  1  0.98075594  0.26299839  0.87728838  1
  F  F44  1  0.52146299  0.23943361  0.28417975  1
  F  F45  1  0.28202939  0.76056639  0.21582025  1
  F  F46  1  0.47853701  0.76056639  0.71582025  1
  F  F47  1  0.71797061  0.23943361  0.78417975  1
  F  F48  1  0.34089972  0.45835985  0.27868418  1
  F  F49  1  0.88253987  0.54164015  0.22131582  1
  I  I50  1  0.90255429  0.42863534  0.84598399  1
  I  I51  1  0.47391895  0.57136466  0.65401601  1
  I  I52  1  0.09744571  0.57136466  0.15401601  1
  I  I53  1  0.52608105  0.42863534  0.34598399  1
  I  I54  1  0.79977587  0.21245211  0.55339283  1
  I  I55  1  0.58732376  0.78754789  0.94660717  1
  I  I56  1  0.20022413  0.78754789  0.44660717  1
  I  I57  1  0.41267624  0.21245211  0.05339283  1
  I  I58  1  0.25309245  0.00000000  0.75000000  1
  I  I59  1  0.74690755  0.00000000  0.25000000  1
