# generated using pymatgen
data_K2In3CuSe6
_symmetry_space_group_name_H-M   'P 1'
_cell_length_a   8.24992581
_cell_length_b   8.24992581
_cell_length_c   21.72278646
_cell_angle_alpha   95.40038781
_cell_angle_beta   95.40038780
_cell_angle_gamma   90.01928207
_symmetry_Int_Tables_number   1
_chemical_formula_structural   K2In3CuSe6
_chemical_formula_sum   'K8 In12 Cu4 Se24'
_cell_volume   1465.32165907
_cell_formula_units_Z   4
loop_
 _symmetry_equiv_pos_site_id
 _symmetry_equiv_pos_as_xyz
  1  'x, y, z'
loop_
 _atom_site_type_symbol
 _atom_site_label
 _atom_site_symmetry_multiplicity
 _atom_site_fract_x
 _atom_site_fract_y
 _atom_site_fract_z
 _atom_site_occupancy
  K  K0  1  0.60521353  0.23752349  0.91676571  1
  K  K1  1  0.76247651  0.39478647  0.58323429  1
  K  K2  1  0.39478647  0.76247651  0.08323429  1
  K  K3  1  0.23752349  0.60521353  0.41676571  1
  K  K4  1  0.10390677  0.21997980  0.91687286  1
  K  K5  1  0.78002020  0.89609323  0.58312714  1
  K  K6  1  0.89609323  0.78002020  0.08312714  1
  K  K7  1  0.21997980  0.10390677  0.41687286  1
  Cu  Cu8  1  0.56178441  0.93683717  0.74995722  1
  Cu  Cu9  1  0.06316283  0.43821559  0.75004278  1
  Cu  Cu10  1  0.43821559  0.06316283  0.25004278  1
  Cu  Cu11  1  0.93683717  0.56178441  0.24995722  1
  Se  Se12  1  0.97302131  0.81733187  0.31968621  1
  Se  Se13  1  0.18266813  0.02697869  0.18031379  1
  Se  Se14  1  0.02697869  0.18266813  0.68031379  1
  Se  Se15  1  0.81733187  0.97302131  0.81968621  1
  Se  Se16  1  0.43632103  0.84217572  0.31968674  1
  Se  Se17  1  0.15782428  0.56367897  0.18031326  1
  Se  Se18  1  0.56367897  0.15782428  0.68031326  1
  Se  Se19  1  0.84217572  0.43632103  0.81968674  1
  Se  Se20  1  0.65694907  0.02608831  0.18072552  1
  Se  Se21  1  0.97391169  0.34305093  0.31927448  1
  Se  Se22  1  0.34305093  0.97391169  0.81927448  1
  Se  Se23  1  0.02608831  0.65694907  0.68072552  1
  Se  Se24  1  0.73401336  0.11501945  0.45979536  1
  Se  Se25  1  0.88498055  0.26598664  0.04020464  1
  Se  Se26  1  0.26598664  0.88498055  0.54020464  1
  Se  Se27  1  0.11501945  0.73401336  0.95979536  1
  Se  Se28  1  0.68369287  0.56353714  0.18057093  1
  Se  Se29  1  0.43646286  0.31630713  0.31942907  1
  Se  Se30  1  0.31630713  0.43646286  0.81942907  1
  Se  Se31  1  0.56353714  0.68369287  0.68057093  1
  Se  Se32  1  0.74643509  0.61448955  0.45996853  1
  Se  Se33  1  0.38551045  0.25356491  0.04003147  1
  Se  Se34  1  0.25356491  0.38551045  0.54003147  1
  Se  Se35  1  0.61448955  0.74643509  0.95996853  1
  In  In36  1  0.84596801  0.72084042  0.88500534  1
  In  In37  1  0.27915958  0.15403199  0.61499466  1
  In  In38  1  0.15403199  0.27915958  0.11499466  1
  In  In39  1  0.72084042  0.84596801  0.38500534  1
  In  In40  1  0.27832542  0.65379933  0.61522795  1
  In  In41  1  0.34620067  0.72167458  0.88477205  1
  In  In42  1  0.72167458  0.34620067  0.38477205  1
  In  In43  1  0.65379933  0.27832542  0.11522795  1
  In  In44  1  0.56114126  0.43885874  0.75000000  1
  In  In45  1  0.43885874  0.56114126  0.25000000  1
  In  In46  1  0.06348538  0.93651462  0.75000000  1
  In  In47  1  0.93651462  0.06348538  0.25000000  1
