# generated using pymatgen
data_Ta3I7
_symmetry_space_group_name_H-M   'P 1'
_cell_length_a   11.16276818
_cell_length_b   11.16276819
_cell_length_c   12.92259765
_cell_angle_alpha   90.00000000
_cell_angle_beta   90.00000000
_cell_angle_gamma   86.18470184
_symmetry_Int_Tables_number   1
_chemical_formula_structural   Ta3I7
_chemical_formula_sum   'Ta12 I28'
_cell_volume   1606.68247208
_cell_formula_units_Z   4
loop_
 _symmetry_equiv_pos_site_id
 _symmetry_equiv_pos_as_xyz
  1  'x, y, z'
loop_
 _atom_site_type_symbol
 _atom_site_label
 _atom_site_symmetry_multiplicity
 _atom_site_fract_x
 _atom_site_fract_y
 _atom_site_fract_z
 _atom_site_occupancy
  I  I0  1  0.87380283  0.37380283  0.25000000  1
  I  I1  1  0.62619717  0.12619717  0.75000000  1
  I  I2  1  0.12619717  0.62619717  0.75000000  1
  I  I3  1  0.37380283  0.87380283  0.25000000  1
  I  I4  1  0.08233200  0.32895648  0.01919360  1
  I  I5  1  0.41766800  0.17104352  0.51919360  1
  I  I6  1  0.82895648  0.58233200  0.48080640  1
  I  I7  1  0.67104352  0.91766800  0.98080640  1
  I  I8  1  0.91766800  0.67104352  0.98080640  1
  I  I9  1  0.58233200  0.82895648  0.48080640  1
  I  I10  1  0.17104352  0.41766800  0.51919360  1
  I  I11  1  0.32895648  0.08233200  0.01919360  1
  I  I12  1  0.25624155  0.74375845  0.00000000  1
  I  I13  1  0.24375845  0.75624155  0.50000000  1
  I  I14  1  0.74375845  0.25624155  0.00000000  1
  I  I15  1  0.75624155  0.24375845  0.50000000  1
  I  I16  1  0.11886286  0.11886286  0.26273102  1
  I  I17  1  0.38113714  0.38113714  0.76273102  1
  I  I18  1  0.61886286  0.61886286  0.23726898  1
  I  I19  1  0.88113714  0.88113714  0.73726898  1
  I  I20  1  0.53107049  0.28687849  0.26652865  1
  I  I21  1  0.96892951  0.21312151  0.76652865  1
  I  I22  1  0.78687849  0.03107049  0.23347135  1
  I  I23  1  0.71312151  0.46892951  0.73347135  1
  I  I24  1  0.46892951  0.71312151  0.73347135  1
  I  I25  1  0.03107049  0.78687849  0.23347135  1
  I  I26  1  0.21312151  0.96892951  0.76652865  1
  I  I27  1  0.28687849  0.53107049  0.26652865  1
  Ta  Ta28  1  0.09465503  0.09465503  0.93206582  1
  Ta  Ta29  1  0.40534497  0.40534497  0.43206582  1
  Ta  Ta30  1  0.59465503  0.59465503  0.56793418  1
  Ta  Ta31  1  0.90534497  0.90534497  0.06793418  1
  Ta  Ta32  1  0.94445089  0.15013822  0.10529137  1
  Ta  Ta33  1  0.55554911  0.34986178  0.60529137  1
  Ta  Ta34  1  0.65013822  0.44445089  0.39470863  1
  Ta  Ta35  1  0.84986178  0.05554911  0.89470863  1
  Ta  Ta36  1  0.05554911  0.84986178  0.89470863  1
  Ta  Ta37  1  0.44445089  0.65013822  0.39470863  1
  Ta  Ta38  1  0.34986178  0.55554911  0.60529137  1
  Ta  Ta39  1  0.15013822  0.94445089  0.10529137  1
