# generated using pymatgen
data_Nb6I11
_symmetry_space_group_name_H-M   'P 1'
_cell_length_a   11.63826929
_cell_length_b   13.79342403
_cell_length_c   16.24922190
_cell_angle_alpha   90.00000000
_cell_angle_beta   90.00000000
_cell_angle_gamma   90.00000000
_symmetry_Int_Tables_number   1
_chemical_formula_structural   Nb6I11
_chemical_formula_sum   'Nb24 I44'
_cell_volume   2608.51331887
_cell_formula_units_Z   4
loop_
 _symmetry_equiv_pos_site_id
 _symmetry_equiv_pos_as_xyz
  1  'x, y, z'
loop_
 _atom_site_type_symbol
 _atom_site_label
 _atom_site_symmetry_multiplicity
 _atom_site_fract_x
 _atom_site_fract_y
 _atom_site_fract_z
 _atom_site_occupancy
  Nb  Nb0  1  0.09568031  0.77001056  0.10334031  1
  Nb  Nb1  1  0.59568031  0.22998944  0.89665969  1
  Nb  Nb2  1  0.59568031  0.72998944  0.60334031  1
  Nb  Nb3  1  0.09568031  0.27001056  0.39665969  1
  Nb  Nb4  1  0.90389126  0.72976350  0.89853009  1
  Nb  Nb5  1  0.40389126  0.27023650  0.10146991  1
  Nb  Nb6  1  0.40389126  0.77023650  0.39853009  1
  Nb  Nb7  1  0.90389126  0.22976350  0.60146991  1
  Nb  Nb8  1  0.12659140  0.66720187  0.95319347  1
  Nb  Nb9  1  0.62659140  0.33279813  0.04680653  1
  Nb  Nb10  1  0.62659140  0.83279813  0.45319347  1
  Nb  Nb11  1  0.12659140  0.16720187  0.54680653  1
  Nb  Nb12  1  0.87321939  0.83269235  0.04850367  1
  Nb  Nb13  1  0.37321939  0.16730765  0.95149633  1
  Nb  Nb14  1  0.37321939  0.66730765  0.54850367  1
  Nb  Nb15  1  0.87321939  0.33269235  0.45149633  1
  Nb  Nb16  1  0.92719442  0.63079548  0.05027170  1
  Nb  Nb17  1  0.42719442  0.36920452  0.94972830  1
  Nb  Nb18  1  0.42719442  0.86920452  0.55027170  1
  Nb  Nb19  1  0.92719442  0.13079548  0.44972830  1
  Nb  Nb20  1  0.07266299  0.86887868  0.95141158  1
  Nb  Nb21  1  0.57266299  0.13112132  0.04858842  1
  Nb  Nb22  1  0.57266299  0.63112132  0.45141158  1
  Nb  Nb23  1  0.07266299  0.36887868  0.54858842  1
  I  I24  1  0.14842807  0.56585433  0.10981040  1
  I  I25  1  0.64842807  0.43414567  0.89018960  1
  I  I26  1  0.64842807  0.93414567  0.60981040  1
  I  I27  1  0.14842807  0.06585433  0.39018960  1
  I  I28  1  0.85147752  0.93390870  0.89192833  1
  I  I29  1  0.35147752  0.06609130  0.10807167  1
  I  I30  1  0.35147752  0.56609130  0.39192833  1
  I  I31  1  0.85147752  0.43390870  0.60807167  1
  I  I32  1  0.03633471  0.97511338  0.10433464  1
  I  I33  1  0.53633471  0.02488662  0.89566536  1
  I  I34  1  0.53633471  0.52488662  0.60433464  1
  I  I35  1  0.03633471  0.47511338  0.39566536  1
  I  I36  1  0.96372056  0.52484496  0.89714654  1
  I  I37  1  0.46372056  0.47515504  0.10285346  1
  I  I38  1  0.46372056  0.97515504  0.39714654  1
  I  I39  1  0.96372056  0.02484496  0.60285346  1
  I  I40  1  0.89922496  0.73219568  0.20563097  1
  I  I41  1  0.39922496  0.26780432  0.79436903  1
  I  I42  1  0.39922496  0.76780432  0.70563097  1
  I  I43  1  0.89922496  0.23219568  0.29436903  1
  I  I44  1  0.10004431  0.76755612  0.79600066  1
  I  I45  1  0.60004431  0.23244388  0.20399934  1
  I  I46  1  0.60004431  0.73244388  0.29600066  1
  I  I47  1  0.10004431  0.26755612  0.70399934  1
  I  I48  1  0.29905584  0.80574252  0.00381171  1
  I  I49  1  0.79905584  0.19425748  0.99618829  1
  I  I50  1  0.79905584  0.69425748  0.50381171  1
  I  I51  1  0.29905584  0.30574252  0.49618829  1
  I  I52  1  0.70076566  0.69390083  -0.00158456  1
  I  I53  1  0.20076566  0.30609917  1.00158456  1
  I  I54  1  0.20076566  0.80609917  0.49841544  1
  I  I55  1  0.70076566  0.19390083  0.50158456  1
  I  I56  1  0.81823845  0.45195722  0.11961727  1
  I  I57  1  0.31823845  0.54804278  0.88038273  1
  I  I58  1  0.31823845  0.04804278  0.61961727  1
  I  I59  1  0.81823845  0.95195722  0.38038273  1
  I  I60  1  0.18180564  0.04679256  0.88028610  1
  I  I61  1  0.68180564  0.95320744  0.11971390  1
  I  I62  1  0.68180564  0.45320744  0.38028610  1
  I  I63  1  0.18180564  0.54679256  0.61971390  1
  I  I64  1  0.24836452  0.80963826  0.25164095  1
  I  I65  1  0.74836452  0.19036174  0.74835905  1
  I  I66  1  0.74836452  0.69036174  0.75164095  1
  I  I67  1  0.24836452  0.30963826  0.24835905  1
