# generated using pymatgen
data_BaZnCl4
_symmetry_space_group_name_H-M   'P 1'
_cell_length_a   7.31973235
_cell_length_b   9.73245463
_cell_length_c   10.14219688
_cell_angle_alpha   90.00000000
_cell_angle_beta   90.00000000
_cell_angle_gamma   90.00000000
_symmetry_Int_Tables_number   1
_chemical_formula_structural   BaZnCl4
_chemical_formula_sum   'Ba4 Zn4 Cl16'
_cell_volume   722.51958827
_cell_formula_units_Z   4
loop_
 _symmetry_equiv_pos_site_id
 _symmetry_equiv_pos_as_xyz
  1  'x, y, z'
loop_
 _atom_site_type_symbol
 _atom_site_label
 _atom_site_symmetry_multiplicity
 _atom_site_fract_x
 _atom_site_fract_y
 _atom_site_fract_z
 _atom_site_occupancy
  Cl  Cl0  1  0.50614387  0.19250582  0.46560495  1
  Cl  Cl1  1  0.50614387  0.30749418  0.03439505  1
  Cl  Cl2  1  0.99385613  0.19250582  0.53439505  1
  Cl  Cl3  1  0.99385613  0.30749418  0.96560495  1
  Cl  Cl4  1  0.49385613  0.80749418  0.53439505  1
  Cl  Cl5  1  0.49385613  0.69250582  0.96560495  1
  Cl  Cl6  1  0.00614387  0.80749418  0.46560495  1
  Cl  Cl7  1  0.00614387  0.69250582  0.03439505  1
  Cl  Cl8  1  0.83526083  0.55206071  0.68277905  1
  Cl  Cl9  1  0.83526083  0.94793929  0.81722095  1
  Cl  Cl10  1  0.66473917  0.55206071  0.31722095  1
  Cl  Cl11  1  0.66473917  0.94793929  0.18277905  1
  Cl  Cl12  1  0.16473917  0.44793929  0.31722095  1
  Cl  Cl13  1  0.16473917  0.05206071  0.18277905  1
  Cl  Cl14  1  0.33526083  0.44793929  0.68277905  1
  Cl  Cl15  1  0.33526083  0.05206071  0.81722095  1
  Zn  Zn16  1  0.25000000  0.17450312  0.00000000  1
  Zn  Zn17  1  0.25000000  0.32549688  0.50000000  1
  Zn  Zn18  1  0.75000000  0.82549688  0.00000000  1
  Zn  Zn19  1  0.75000000  0.67450312  0.50000000  1
  Ba  Ba20  1  0.31811480  0.75000000  0.25000000  1
  Ba  Ba21  1  0.18188520  0.75000000  0.75000000  1
  Ba  Ba22  1  0.68188520  0.25000000  0.75000000  1
  Ba  Ba23  1  0.81811480  0.25000000  0.25000000  1
