# generated using pymatgen
data_EuBr2
_symmetry_space_group_name_H-M   'P 1'
_cell_length_a   7.20128830
_cell_length_b   11.62054233
_cell_length_c   11.62054233
_cell_angle_alpha   90.00000000
_cell_angle_beta   90.00000000
_cell_angle_gamma   90.00000000
_symmetry_Int_Tables_number   1
_chemical_formula_structural   EuBr2
_chemical_formula_sum   'Eu10 Br20'
_cell_volume   972.44039728
_cell_formula_units_Z   10
loop_
 _symmetry_equiv_pos_site_id
 _symmetry_equiv_pos_as_xyz
  1  'x, y, z'
loop_
 _atom_site_type_symbol
 _atom_site_label
 _atom_site_symmetry_multiplicity
 _atom_site_fract_x
 _atom_site_fract_y
 _atom_site_fract_z
 _atom_site_occupancy
  Br  Br0  1  0.50000000  0.75000000  0.25000000  1
  Br  Br1  1  0.50000000  0.25000000  0.75000000  1
  Br  Br2  1  0.00000000  0.75000000  0.25000000  1
  Br  Br3  1  0.00000000  0.25000000  0.75000000  1
  Br  Br4  1  0.90292209  0.83943887  0.95710427  1
  Br  Br5  1  0.90292209  0.54289573  0.83943887  1
  Br  Br6  1  0.90292209  0.95710427  0.66056113  1
  Br  Br7  1  0.90292209  0.66056113  0.54289573  1
  Br  Br8  1  0.09707791  0.16056113  0.04289573  1
  Br  Br9  1  0.09707791  0.45710427  0.16056113  1
  Br  Br10  1  0.62286632  0.15230853  0.45917398  1
  Br  Br11  1  0.62286632  0.04082602  0.15230853  1
  Br  Br12  1  0.62286632  0.45917398  0.34769147  1
  Br  Br13  1  0.62286632  0.34769147  0.04082602  1
  Br  Br14  1  0.37713368  0.84769147  0.54082602  1
  Br  Br15  1  0.37713368  0.95917398  0.84769147  1
  Br  Br16  1  0.37713368  0.54082602  0.65230853  1
  Br  Br17  1  0.37713368  0.65230853  0.95917398  1
  Br  Br18  1  0.09707791  0.33943887  0.45710427  1
  Br  Br19  1  0.09707791  0.04289573  0.33943887  1
  Eu  Eu20  1  0.14778900  0.75000000  0.75000000  1
  Eu  Eu21  1  0.85221100  0.25000000  0.25000000  1
  Eu  Eu22  1  0.75155280  0.60221800  0.08662990  1
  Eu  Eu23  1  0.75155280  0.41337010  0.60221800  1
  Eu  Eu24  1  0.75155280  0.08662990  0.89778200  1
  Eu  Eu25  1  0.75155280  0.89778200  0.41337010  1
  Eu  Eu26  1  0.24844720  0.39778200  0.91337010  1
  Eu  Eu27  1  0.24844720  0.58662990  0.39778200  1
  Eu  Eu28  1  0.24844720  0.91337010  0.10221800  1
  Eu  Eu29  1  0.24844720  0.10221800  0.58662990  1
