# generated using pymatgen
data_Pr12C6I17
_symmetry_space_group_name_H-M   'P 1'
_cell_length_a   12.01463074
_cell_length_b   12.01463074
_cell_length_c   19.50383436
_cell_angle_alpha   89.25166499
_cell_angle_beta   89.25166501
_cell_angle_gamma   63.99298732
_symmetry_Int_Tables_number   1
_chemical_formula_structural   Pr12C6I17
_chemical_formula_sum   'Pr24 C12 I34'
_cell_volume   2530.01797895
_cell_formula_units_Z   2
loop_
 _symmetry_equiv_pos_site_id
 _symmetry_equiv_pos_as_xyz
  1  'x, y, z'
loop_
 _atom_site_type_symbol
 _atom_site_label
 _atom_site_symmetry_multiplicity
 _atom_site_fract_x
 _atom_site_fract_y
 _atom_site_fract_z
 _atom_site_occupancy
  C  C0  1  0.36580146  0.72096673  0.14976737  1
  C  C1  1  0.27903327  0.63419854  0.35023263  1
  C  C2  1  0.63419854  0.27903327  0.85023263  1
  C  C3  1  0.72096673  0.36580146  0.64976737  1
  C  C4  1  0.25683994  0.83132370  0.15285997  1
  C  C5  1  0.16867630  0.74316006  0.34714003  1
  C  C6  1  0.74316006  0.16867630  0.84714003  1
  C  C7  1  0.83132370  0.25683994  0.65285997  1
  C  C8  1  0.53188446  0.53282572  0.98845242  1
  C  C9  1  0.46717428  0.46811554  0.51154758  1
  C  C10  1  0.46811554  0.46717428  0.01154758  1
  C  C11  1  0.53282572  0.53188446  0.48845242  1
  I  I12  1  0.21222355  0.18032345  0.10103402  1
  I  I13  1  0.81967655  0.78777645  0.39896598  1
  I  I14  1  0.78777645  0.81967655  0.89896598  1
  I  I15  1  0.18032345  0.21222355  0.60103402  1
  I  I16  1  0.80626238  0.28272990  0.13768791  1
  I  I17  1  0.71727010  0.19373762  0.36231209  1
  I  I18  1  0.19373762  0.71727010  0.86231209  1
  I  I19  1  0.28272990  0.80626238  0.63768791  1
  I  I20  1  0.00000000  0.00000000  0.00000000  1
  I  I21  1  0.00000000  0.00000000  0.50000000  1
  I  I22  1  0.39687532  0.89522625  0.44007370  1
  I  I23  1  0.10477375  0.60312468  0.05992630  1
  I  I24  1  0.60312468  0.10477375  0.55992630  1
  I  I25  1  0.89522625  0.39687532  0.94007370  1
  I  I26  1  0.90489709  0.39821381  0.45108092  1
  I  I27  1  0.60178619  0.09510291  0.04891908  1
  I  I28  1  0.09510291  0.60178619  0.54891908  1
  I  I29  1  0.39821381  0.90489709  0.95108092  1
  I  I30  1  0.49820345  0.96625370  0.25417025  1
  I  I31  1  0.03374630  0.50179655  0.24582975  1
  I  I32  1  0.50179655  0.03374630  0.74582975  1
  I  I33  1  0.96625370  0.49820345  0.75417025  1
  I  I34  1  0.11238590  0.09317792  0.30314320  1
  I  I35  1  0.90682208  0.88761410  0.19685680  1
  I  I36  1  0.88761410  0.90682208  0.69685680  1
  I  I37  1  0.09317792  0.11238590  0.80314320  1
  I  I38  1  0.70859347  0.68977924  0.10023706  1
  I  I39  1  0.31022076  0.29140653  0.39976294  1
  I  I40  1  0.29140653  0.31022076  0.89976294  1
  I  I41  1  0.68977924  0.70859347  0.60023706  1
  I  I42  1  0.62556285  0.57654177  0.29198608  1
  I  I43  1  0.42345823  0.37443715  0.20801392  1
  I  I44  1  0.37443715  0.42345823  0.70801392  1
  I  I45  1  0.57654177  0.62556285  0.79198608  1
  Pr  Pr46  1  0.29633302  0.71089104  0.02059951  1
  Pr  Pr47  1  0.28910896  0.70366698  0.47940049  1
  Pr  Pr48  1  0.70366698  0.28910896  0.97940049  1
  Pr  Pr49  1  0.71089104  0.29633302  0.52059951  1
  Pr  Pr50  1  0.54842292  0.53415431  0.12803105  1
  Pr  Pr51  1  0.46584569  0.45157708  0.37196895  1
  Pr  Pr52  1  0.45157708  0.46584569  0.87196895  1
  Pr  Pr53  1  0.53415431  0.54842292  0.62803105  1
  Pr  Pr54  1  0.42405163  0.89903760  0.11692535  1
  Pr  Pr55  1  0.10096240  0.57594837  0.38307465  1
  Pr  Pr56  1  0.57594837  0.10096240  0.88307465  1
  Pr  Pr57  1  0.89903760  0.42405163  0.61692535  1
  Pr  Pr58  1  0.64111075  0.64143761  0.94978956  1
  Pr  Pr59  1  0.35856239  0.35888925  0.55021044  1
  Pr  Pr60  1  0.35888925  0.35856239  0.05021044  1
  Pr  Pr61  1  0.64143761  0.64111075  0.44978956  1
  Pr  Pr62  1  0.07653900  0.02017769  0.15223187  1
  Pr  Pr63  1  0.97982231  0.92346100  0.34776813  1
  Pr  Pr64  1  0.92346100  0.97982231  0.84776813  1
  Pr  Pr65  1  0.02017769  0.07653900  0.65223187  1
  Pr  Pr66  1  0.33816785  0.80832685  0.28887570  1
  Pr  Pr67  1  0.19167315  0.66183215  0.21112430  1
  Pr  Pr68  1  0.66183215  0.19167315  0.71112430  1
  Pr  Pr69  1  0.80832685  0.33816785  0.78887570  1
