# generated using pymatgen
data_ZnI2
_symmetry_space_group_name_H-M   'P 1'
_cell_length_a   13.38650233
_cell_length_b   13.38650233
_cell_length_c   15.04499457
_cell_angle_alpha   116.41580598
_cell_angle_beta   116.41580595
_cell_angle_gamma   89.99999997
_symmetry_Int_Tables_number   1
_chemical_formula_structural   ZnI2
_chemical_formula_sum   'Zn16 I32'
_cell_volume   2095.56962213
_cell_formula_units_Z   16
loop_
 _symmetry_equiv_pos_site_id
 _symmetry_equiv_pos_as_xyz
  1  'x, y, z'
loop_
 _atom_site_type_symbol
 _atom_site_label
 _atom_site_symmetry_multiplicity
 _atom_site_fract_x
 _atom_site_fract_y
 _atom_site_fract_z
 _atom_site_occupancy
  Zn  Zn0  1  0.31326249  0.78221328  0.87577906  1
  Zn  Zn1  1  0.90643421  0.93748343  0.62422094  1
  Zn  Zn2  1  0.71778672  0.18673751  0.62422094  1
  Zn  Zn3  1  0.93748343  0.71778672  0.12422094  1
  Zn  Zn4  1  0.18673751  0.90643421  0.12422094  1
  Zn  Zn5  1  0.59356579  0.31326249  0.37577906  1
  Zn  Zn6  1  0.78221328  0.56251657  0.37577906  1
  Zn  Zn7  1  0.56251657  0.59356579  0.87577906  1
  Zn  Zn8  1  0.68673751  0.21778672  0.12422094  1
  Zn  Zn9  1  0.09356579  0.06251657  0.37577906  1
  Zn  Zn10  1  0.28221328  0.81326249  0.37577906  1
  Zn  Zn11  1  0.06251657  0.28221328  0.87577906  1
  Zn  Zn12  1  0.81326249  0.09356579  0.87577906  1
  Zn  Zn13  1  0.40643421  0.68673751  0.62422094  1
  Zn  Zn14  1  0.21778672  0.43748343  0.62422094  1
  Zn  Zn15  1  0.43748343  0.40643421  0.12422094  1
  I  I16  1  0.15208921  0.10421841  0.24740533  1
  I  I17  1  0.64318691  0.15208921  0.74740533  1
  I  I18  1  0.10421841  0.09531612  0.74740533  1
  I  I19  1  0.40468388  0.39578159  0.75259467  1
  I  I20  1  0.34791079  0.85681309  0.75259467  1
  I  I21  1  0.85681309  0.40468388  0.25259467  1
  I  I22  1  0.39578159  0.34791079  0.25259467  1
  I  I23  1  0.09531612  0.64318691  0.24740533  1
  I  I24  1  0.84791079  0.89578159  0.75259467  1
  I  I25  1  0.35681309  0.84791079  0.25259467  1
  I  I26  1  0.89578159  0.90468388  0.25259467  1
  I  I27  1  0.59531612  0.60421841  0.24740533  1
  I  I28  1  0.65208921  0.14318691  0.24740533  1
  I  I29  1  0.14318691  0.59531612  0.74740533  1
  I  I30  1  0.60421841  0.65208921  0.74740533  1
  I  I31  1  0.90468388  0.35681309  0.75259467  1
  I  I32  1  0.04544702  0.25000000  0.50000000  1
  I  I33  1  0.75000000  0.04544702  0.00000000  1
  I  I34  1  0.25000000  0.45455298  0.00000000  1
  I  I35  1  0.45455298  0.75000000  0.50000000  1
  I  I36  1  0.95455298  0.75000000  0.50000000  1
  I  I37  1  0.25000000  0.95455298  0.00000000  1
  I  I38  1  0.75000000  0.54544702  0.00000000  1
  I  I39  1  0.54544702  0.25000000  0.50000000  1
  I  I40  1  0.75726357  0.50726357  0.51452714  1
  I  I41  1  0.50726357  0.75726357  0.01452714  1
  I  I42  1  0.74273643  0.99273643  0.48547286  1
  I  I43  1  0.99273643  0.74273643  0.98547286  1
  I  I44  1  0.24273643  0.49273643  0.48547286  1
  I  I45  1  0.49273643  0.24273643  0.98547286  1
  I  I46  1  0.25726357  0.00726357  0.51452714  1
  I  I47  1  0.00726357  0.25726357  0.01452714  1
