# generated using pymatgen
data_NbSeBr3
_symmetry_space_group_name_H-M   'P 1'
_cell_length_a   7.14842640
_cell_length_b   7.50285569
_cell_length_c   12.81089782
_cell_angle_alpha   90.00000000
_cell_angle_beta   98.16633590
_cell_angle_gamma   90.00000000
_symmetry_Int_Tables_number   1
_chemical_formula_structural   NbSeBr3
_chemical_formula_sum   'Nb4 Se4 Br12'
_cell_volume   680.12748309
_cell_formula_units_Z   4
loop_
 _symmetry_equiv_pos_site_id
 _symmetry_equiv_pos_as_xyz
  1  'x, y, z'
loop_
 _atom_site_type_symbol
 _atom_site_label
 _atom_site_symmetry_multiplicity
 _atom_site_fract_x
 _atom_site_fract_y
 _atom_site_fract_z
 _atom_site_occupancy
  Se  Se0  1  0.84899201  0.88029918  0.20209790  1
  Se  Se1  1  0.84899201  0.11970082  0.70209790  1
  Se  Se2  1  0.15100799  0.11970082  0.79790210  1
  Se  Se3  1  0.15100799  0.88029918  0.29790210  1
  Br  Br4  1  0.65230695  0.23235199  0.92158898  1
  Br  Br5  1  0.34769305  0.23235199  0.57841102  1
  Br  Br6  1  0.34769305  0.76764801  0.07841102  1
  Br  Br7  1  0.65230695  0.76764801  0.42158898  1
  Br  Br8  1  0.76475634  0.56596154  0.69634205  1
  Br  Br9  1  0.23524366  0.56596154  0.80365795  1
  Br  Br10  1  0.23524366  0.43403846  0.30365795  1
  Br  Br11  1  0.76475634  0.43403846  0.19634205  1
  Br  Br12  1  0.85626357  0.67515646  0.96158837  1
  Br  Br13  1  0.85626357  0.32484354  0.46158837  1
  Br  Br14  1  0.14373643  0.32484354  0.03841163  1
  Br  Br15  1  0.14373643  0.67515646  0.53841163  1
  Nb  Nb16  1  0.93142980  0.37216968  0.84996039  1
  Nb  Nb17  1  0.06857020  0.37216968  0.65003961  1
  Nb  Nb18  1  0.06857020  0.62783032  0.15003961  1
  Nb  Nb19  1  0.93142980  0.62783032  0.34996039  1
