# generated using pymatgen
data_Nb3Se12I
_symmetry_space_group_name_H-M   'P 1'
_cell_length_a   9.80142597
_cell_length_b   9.80142597
_cell_length_c   19.42155241
_cell_angle_alpha   90.00000000
_cell_angle_beta   90.00000000
_cell_angle_gamma   90.00000000
_symmetry_Int_Tables_number   1
_chemical_formula_structural   Nb3Se12I
_chemical_formula_sum   'Nb12 Se48 I4'
_cell_volume   1865.78874615
_cell_formula_units_Z   4
loop_
 _symmetry_equiv_pos_site_id
 _symmetry_equiv_pos_as_xyz
  1  'x, y, z'
loop_
 _atom_site_type_symbol
 _atom_site_label
 _atom_site_symmetry_multiplicity
 _atom_site_fract_x
 _atom_site_fract_y
 _atom_site_fract_z
 _atom_site_occupancy
  Se  Se0  1  0.95290285  0.28990037  0.67160138  1
  Se  Se1  1  0.04709715  0.71009963  0.67160138  1
  Se  Se2  1  0.78990037  0.45290285  0.82839862  1
  Se  Se3  1  0.28990037  0.04709715  0.67160138  1
  Se  Se4  1  0.71009963  0.95290285  0.67160138  1
  Se  Se5  1  0.54709715  0.78990037  0.82839862  1
  Se  Se6  1  0.45290285  0.21009963  0.82839862  1
  Se  Se7  1  0.21009963  0.54709715  0.82839862  1
  Se  Se8  1  0.04709715  0.71009963  0.32839862  1
  Se  Se9  1  0.95290285  0.28990037  0.32839862  1
  Se  Se10  1  0.21009963  0.54709715  0.17160138  1
  Se  Se11  1  0.71009963  0.95290285  0.32839862  1
  Se  Se12  1  0.28990037  0.04709715  0.32839862  1
  Se  Se13  1  0.45290285  0.21009963  0.17160138  1
  Se  Se14  1  0.54709715  0.78990037  0.17160138  1
  Se  Se15  1  0.19501809  0.60524831  0.50000000  1
  Se  Se16  1  0.78990037  0.45290285  0.17160138  1
  Se  Se17  1  0.68207775  0.12374258  0.16055441  1
  Se  Se18  1  0.31792225  0.87625742  0.16055441  1
  Se  Se19  1  0.62374258  0.18207775  0.33944559  1
  Se  Se20  1  0.37625742  0.81792225  0.33944559  1
  Se  Se21  1  0.87625742  0.68207775  0.16055441  1
  Se  Se22  1  0.81792225  0.62374258  0.33944559  1
  Se  Se23  1  0.18207775  0.37625742  0.33944559  1
  Se  Se24  1  0.87625742  0.68207775  0.83944559  1
  Se  Se25  1  0.31792225  0.87625742  0.83944559  1
  Se  Se26  1  0.68207775  0.12374258  0.83944559  1
  Se  Se27  1  0.37625742  0.81792225  0.66055441  1
  Se  Se28  1  0.62374258  0.18207775  0.66055441  1
  Se  Se29  1  0.12374258  0.31792225  0.83944559  1
  Se  Se30  1  0.18207775  0.37625742  0.66055441  1
  Se  Se31  1  0.81792225  0.62374258  0.66055441  1
  Se  Se32  1  0.21873044  0.48211228  0.00000000  1
  Se  Se33  1  0.51788772  0.21873044  0.00000000  1
  Se  Se34  1  0.48211228  0.78126956  0.00000000  1
  Se  Se35  1  0.71873044  0.01788772  0.50000000  1
  Se  Se36  1  0.28126956  0.98211228  0.50000000  1
  Se  Se37  1  0.78126956  0.51788772  0.00000000  1
  Se  Se38  1  0.98211228  0.71873044  0.50000000  1
  Se  Se39  1  0.01788772  0.28126956  0.50000000  1
  Se  Se40  1  0.89475169  0.30498191  0.00000000  1
  Se  Se41  1  0.69501809  0.89475169  0.00000000  1
  Se  Se42  1  0.30498191  0.10524831  0.00000000  1
  Se  Se43  1  0.39475169  0.19501809  0.50000000  1
  Se  Se44  1  0.60524831  0.80498191  0.50000000  1
  Se  Se45  1  0.10524831  0.69501809  0.00000000  1
  Se  Se46  1  0.80498191  0.39475169  0.50000000  1
  Se  Se47  1  0.12374258  0.31792225  0.16055441  1
  Nb  Nb48  1  0.50000000  0.00000000  0.75000000  1
  Nb  Nb49  1  0.00000000  0.50000000  0.75000000  1
  Nb  Nb50  1  0.50000000  0.00000000  0.25000000  1
  Nb  Nb51  1  0.00000000  0.50000000  0.25000000  1
  Nb  Nb52  1  0.00000000  0.50000000  0.58060536  1
  Nb  Nb53  1  0.50000000  0.00000000  0.58060536  1
  Nb  Nb54  1  0.50000000  0.00000000  0.91939464  1
  Nb  Nb55  1  0.00000000  0.50000000  0.91939464  1
  Nb  Nb56  1  0.00000000  0.50000000  0.41939464  1
  Nb  Nb57  1  0.50000000  0.00000000  0.41939464  1
  Nb  Nb58  1  0.50000000  0.00000000  0.08060536  1
  Nb  Nb59  1  0.00000000  0.50000000  0.08060536  1
  I  I60  1  0.50000000  0.50000000  0.63118547  1
  I  I61  1  0.00000000  0.00000000  0.86881453  1
  I  I62  1  0.50000000  0.50000000  0.36881453  1
  I  I63  1  0.00000000  0.00000000  0.13118547  1
