# generated using pymatgen
data_In(IO3)3
_symmetry_space_group_name_H-M   'P 1'
_cell_length_a   9.72271990
_cell_length_b   9.72271990
_cell_length_c   5.42318386
_cell_angle_alpha   90.00000000
_cell_angle_beta   90.00000000
_cell_angle_gamma   120.00000003
_symmetry_Int_Tables_number   1
_chemical_formula_structural   In(IO3)3
_chemical_formula_sum   'In2 I6 O18'
_cell_volume   443.97703734
_cell_formula_units_Z   2
loop_
 _symmetry_equiv_pos_site_id
 _symmetry_equiv_pos_as_xyz
  1  'x, y, z'
loop_
 _atom_site_type_symbol
 _atom_site_label
 _atom_site_symmetry_multiplicity
 _atom_site_fract_x
 _atom_site_fract_y
 _atom_site_fract_z
 _atom_site_occupancy
  O  O0  1  0.77020895  0.83082128  0.06561716  1
  O  O1  1  0.93938767  0.77020895  0.56561716  1
  O  O2  1  0.83082128  0.06061233  0.56561716  1
  O  O3  1  0.16917872  0.93938767  0.06561716  1
  O  O4  1  0.06061233  0.22979105  0.06561716  1
  O  O5  1  0.22979105  0.16917872  0.56561716  1
  O  O6  1  0.71643175  0.53332784  0.93446011  1
  O  O7  1  0.18310391  0.71643175  0.43446011  1
  O  O8  1  0.54038230  0.42076513  0.46878312  1
  O  O9  1  0.11961717  0.54038230  0.96878312  1
  O  O10  1  0.42076513  0.88038283  0.96878312  1
  O  O11  1  0.57923487  0.11961717  0.46878312  1
  O  O12  1  0.88038283  0.45961770  0.46878312  1
  O  O13  1  0.45961770  0.57923487  0.96878312  1
  O  O14  1  0.28356825  0.46667216  0.43446011  1
  O  O15  1  0.81689609  0.28356825  0.93446011  1
  O  O16  1  0.46667216  0.18310391  0.93446011  1
  O  O17  1  0.53332784  0.81689609  0.43446011  1
  In  In18  1  0.66666667  0.33333333  0.69378511  1
  In  In19  1  0.33333333  0.66666667  0.19378511  1
  I  I20  1  0.68354512  0.01977775  0.33277791  1
  I  I21  1  0.31645488  0.98022225  0.83277791  1
  I  I22  1  0.01977775  0.33623263  0.83277791  1
  I  I23  1  0.33623263  0.31645488  0.33277791  1
  I  I24  1  0.98022225  0.66376737  0.33277791  1
  I  I25  1  0.66376737  0.68354512  0.83277791  1
