# generated using pymatgen
data_Rb3BiBr6
_symmetry_space_group_name_H-M   'P 1'
_cell_length_a   8.65541935
_cell_length_b   13.66525232
_cell_length_c   27.33745973
_cell_angle_alpha   90.00000000
_cell_angle_beta   90.00000000
_cell_angle_gamma   90.00000000
_symmetry_Int_Tables_number   1
_chemical_formula_structural   Rb3BiBr6
_chemical_formula_sum   'Rb24 Bi8 Br48'
_cell_volume   3233.43343962
_cell_formula_units_Z   8
loop_
 _symmetry_equiv_pos_site_id
 _symmetry_equiv_pos_as_xyz
  1  'x, y, z'
loop_
 _atom_site_type_symbol
 _atom_site_label
 _atom_site_symmetry_multiplicity
 _atom_site_fract_x
 _atom_site_fract_y
 _atom_site_fract_z
 _atom_site_occupancy
  Br  Br0  1  0.79037640  0.77129764  0.82790263  1
  Br  Br1  1  0.82670024  0.38477377  0.43110497  1
  Br  Br2  1  0.32670024  0.11522623  0.56889503  1
  Br  Br3  1  0.67329976  0.88477377  0.06889503  1
  Br  Br4  1  0.28322697  0.43532222  0.45168613  1
  Br  Br5  1  0.17329976  0.61522623  0.56889503  1
  Br  Br6  1  0.67329976  0.88477377  0.43110497  1
  Br  Br7  1  0.32670024  0.11522623  0.93110497  1
  Br  Br8  1  0.85497082  0.36186199  0.25000000  1
  Br  Br9  1  0.35497082  0.13813801  0.75000000  1
  Br  Br10  1  0.64502918  0.86186199  0.25000000  1
  Br  Br11  1  0.14502918  0.63813801  0.75000000  1
  Br  Br12  1  0.14126696  0.97651716  0.25000000  1
  Br  Br13  1  0.64126696  0.52348284  0.75000000  1
  Br  Br14  1  0.35873304  0.47651716  0.25000000  1
  Br  Br15  1  0.85873304  0.02348284  0.75000000  1
  Br  Br16  1  0.20962360  0.22870236  0.17209737  1
  Br  Br17  1  0.70962360  0.27129764  0.82790263  1
  Br  Br18  1  0.29037640  0.72870236  0.32790263  1
  Br  Br19  1  0.79037640  0.77129764  0.67209737  1
  Br  Br20  1  0.17329976  0.61522623  0.93110497  1
  Br  Br21  1  0.29037640  0.72870236  0.17209737  1
  Br  Br22  1  0.70962360  0.27129764  0.67209737  1
  Br  Br23  1  0.20962360  0.22870236  0.32790263  1
  Br  Br24  1  0.79554067  0.11012461  0.17216602  1
  Br  Br25  1  0.29554067  0.38987539  0.82783398  1
  Br  Br26  1  0.70445933  0.61012461  0.32783398  1
  Br  Br27  1  0.20445933  0.88987539  0.67216602  1
  Br  Br28  1  0.20445933  0.88987539  0.82783398  1
  Br  Br29  1  0.70445933  0.61012461  0.17216602  1
  Br  Br30  1  0.29554067  0.38987539  0.67216602  1
  Br  Br31  1  0.79554067  0.11012461  0.32783398  1
  Br  Br32  1  0.00403892  0.66946747  0.06176632  1
  Br  Br33  1  0.50403892  0.83053253  0.93823368  1
  Br  Br34  1  0.49596108  0.16946747  0.43823368  1
  Br  Br35  1  0.99596108  0.33053253  0.56176632  1
  Br  Br36  1  0.99596108  0.33053253  0.93823368  1
  Br  Br37  1  0.49596108  0.16946747  0.06176632  1
  Br  Br38  1  0.50403892  0.83053253  0.56176632  1
  Br  Br39  1  0.00403892  0.66946747  0.43823368  1
  Br  Br40  1  0.28322697  0.43532222  0.04831387  1
  Br  Br41  1  0.78322697  0.06467778  0.95168613  1
  Br  Br42  1  0.21677303  0.93532222  0.45168613  1
  Br  Br43  1  0.71677303  0.56467778  0.54831387  1
  Br  Br44  1  0.71677303  0.56467778  0.95168613  1
  Br  Br45  1  0.21677303  0.93532222  0.04831387  1
  Br  Br46  1  0.78322697  0.06467778  0.54831387  1
  Br  Br47  1  0.82670024  0.38477377  0.06889503  1
  Rb  Rb48  1  0.56606867  0.34442591  0.34107138  1
  Rb  Rb49  1  0.06320364  0.17866043  0.04616255  1
  Rb  Rb50  1  0.56320364  0.32133957  0.95383745  1
  Rb  Rb51  1  0.43679636  0.67866043  0.45383745  1
  Rb  Rb52  1  0.93679636  0.82133957  0.54616255  1
  Rb  Rb53  1  0.93679636  0.82133957  0.95383745  1
  Rb  Rb54  1  0.43679636  0.67866043  0.04616255  1
  Rb  Rb55  1  0.56320364  0.32133957  0.54616255  1
  Rb  Rb56  1  0.06980206  0.49376819  0.15925061  1
  Rb  Rb57  1  0.56980206  0.00623181  0.84074939  1
  Rb  Rb58  1  0.43019794  0.99376819  0.34074939  1
  Rb  Rb59  1  0.93019794  0.50623181  0.65925061  1
  Rb  Rb60  1  0.93019794  0.50623181  0.84074939  1
  Rb  Rb61  1  0.43019794  0.99376819  0.15925061  1
  Rb  Rb62  1  0.56980206  0.00623181  0.65925061  1
  Rb  Rb63  1  0.06980206  0.49376819  0.34074939  1
  Rb  Rb64  1  0.06320364  0.17866043  0.45383745  1
  Rb  Rb65  1  0.06606867  0.15557409  0.84107138  1
  Rb  Rb66  1  0.93393133  0.84442591  0.34107138  1
  Rb  Rb67  1  0.43393133  0.65557409  0.65892862  1
  Rb  Rb68  1  0.43393133  0.65557409  0.84107138  1
  Rb  Rb69  1  0.93393133  0.84442591  0.15892862  1
  Rb  Rb70  1  0.06606867  0.15557409  0.65892862  1
  Rb  Rb71  1  0.56606867  0.34442591  0.15892862  1
  Bi  Bi72  1  0.00000000  0.50000000  0.50000000  1
  Bi  Bi73  1  0.50000000  0.00000000  0.50000000  1
  Bi  Bi74  1  0.50000000  0.00000000  0.00000000  1
  Bi  Bi75  1  0.00000000  0.50000000  0.00000000  1
  Bi  Bi76  1  0.00254520  0.83049902  0.75000000  1
  Bi  Bi77  1  0.50254520  0.66950098  0.25000000  1
  Bi  Bi78  1  0.49745480  0.33049902  0.75000000  1
  Bi  Bi79  1  0.99745480  0.16950098  0.25000000  1
