# generated using pymatgen
data_Na4As2O7
_symmetry_space_group_name_H-M   'P 1'
_cell_length_a   5.96862248
_cell_length_b   5.96862248
_cell_length_c   12.52781518
_cell_angle_alpha   91.38832471
_cell_angle_beta   91.38832473
_cell_angle_gamma   119.03625843
_symmetry_Int_Tables_number   1
_chemical_formula_structural   Na4As2O7
_chemical_formula_sum   'Na8 As4 O14'
_cell_volume   389.75744395
_cell_formula_units_Z   2
loop_
 _symmetry_equiv_pos_site_id
 _symmetry_equiv_pos_as_xyz
  1  'x, y, z'
loop_
 _atom_site_type_symbol
 _atom_site_label
 _atom_site_symmetry_multiplicity
 _atom_site_fract_x
 _atom_site_fract_y
 _atom_site_fract_z
 _atom_site_occupancy
  O  O0  1  0.02161958  0.44468202  0.18554163  1
  O  O1  1  0.55531798  0.97838042  0.31445837  1
  O  O2  1  0.97838042  0.55531798  0.81445837  1
  O  O3  1  0.44468202  0.02161958  0.68554163  1
  O  O4  1  0.71230141  0.64292830  0.09396490  1
  O  O5  1  0.35707170  0.28769859  0.40603510  1
  O  O6  1  0.28769859  0.35707170  0.90603510  1
  O  O7  1  0.64292830  0.71230141  0.59396490  1
  O  O8  1  0.24438230  0.88787814  0.05614941  1
  O  O9  1  0.11212186  0.75561770  0.44385059  1
  O  O10  1  0.75561770  0.11212186  0.94385059  1
  O  O11  1  0.88787814  0.24438230  0.55614941  1
  O  O12  1  0.93402613  0.06597387  0.75000000  1
  O  O13  1  0.06597387  0.93402613  0.25000000  1
  Na  Na14  1  0.33505253  0.97906623  0.87217474  1
  Na  Na15  1  0.02093377  0.66494747  0.62782526  1
  Na  Na16  1  0.66494747  0.02093377  0.12782526  1
  Na  Na17  1  0.97906623  0.33505253  0.37217474  1
  Na  Na18  1  0.67682394  0.70477554  0.40489586  1
  Na  Na19  1  0.29522446  0.32317606  0.09510414  1
  Na  Na20  1  0.32317606  0.29522446  0.59510414  1
  Na  Na21  1  0.70477554  0.67682394  0.90489586  1
  As  As22  1  0.70366024  0.00829048  0.63900301  1
  As  As23  1  0.99170952  0.29633976  0.86099699  1
  As  As24  1  0.29633976  0.99170952  0.36099699  1
  As  As25  1  0.00829048  0.70366024  0.13900301  1
