# generated using pymatgen
data_Na3NbO4
_symmetry_space_group_name_H-M   'P 1'
_cell_length_a   5.81892819
_cell_length_b   8.67095406
_cell_length_c   8.67095406
_cell_angle_alpha   98.95886094
_cell_angle_beta   102.43462829
_cell_angle_gamma   102.43462831
_symmetry_Int_Tables_number   1
_chemical_formula_structural   Na3NbO4
_chemical_formula_sum   'Na12 Nb4 O16'
_cell_volume   407.73823075
_cell_formula_units_Z   4
loop_
 _symmetry_equiv_pos_site_id
 _symmetry_equiv_pos_as_xyz
  1  'x, y, z'
loop_
 _atom_site_type_symbol
 _atom_site_label
 _atom_site_symmetry_multiplicity
 _atom_site_fract_x
 _atom_site_fract_y
 _atom_site_fract_z
 _atom_site_occupancy
  O  O0  1  0.23400192  0.24623651  0.46254790  1
  O  O1  1  0.76599808  0.53745210  0.75376349  1
  O  O2  1  0.76599808  0.75376349  0.53745210  1
  O  O3  1  0.23400192  0.46254790  0.24623651  1
  O  O4  1  0.18965019  0.99169690  0.76816753  1
  O  O5  1  0.81034981  0.23183247  0.00830310  1
  O  O6  1  0.81034981  0.00830310  0.23183247  1
  O  O7  1  0.18965019  0.76816753  0.99169690  1
  O  O8  1  0.20534912  0.65568682  0.65568682  1
  O  O9  1  0.79465088  0.34431318  0.34431318  1
  O  O10  1  0.77316395  0.12514144  0.66757785  1
  O  O11  1  0.22683605  0.33242215  0.87485856  1
  O  O12  1  0.22683605  0.87485856  0.33242215  1
  O  O13  1  0.80145113  0.88723123  0.88723123  1
  O  O14  1  0.19854887  0.11276877  0.11276877  1
  O  O15  1  0.77316395  0.66757785  0.12514144  1
  Na  Na16  1  0.00000000  0.00000000  0.50000000  1
  Na  Na17  1  0.50000000  0.25907444  0.74092556  1
  Na  Na18  1  0.50000000  0.74092556  0.25907444  1
  Na  Na19  1  0.50000000  0.00000000  0.00000000  1
  Na  Na20  1  0.47899626  0.88145773  0.62953745  1
  Na  Na21  1  0.52100374  0.37046255  0.11854227  1
  Na  Na22  1  0.52100374  0.11854227  0.37046255  1
  Na  Na23  1  0.47899626  0.62953745  0.88145773  1
  Na  Na24  1  0.00000000  0.62389536  0.37610464  1
  Na  Na25  1  0.00000000  0.50000000  0.00000000  1
  Na  Na26  1  0.00000000  0.37610464  0.62389536  1
  Na  Na27  1  0.50000000  0.50000000  0.50000000  1
  Nb  Nb28  1  0.03274670  0.26073899  0.26073899  1
  Nb  Nb29  1  0.96725330  0.73926101  0.73926101  1
  Nb  Nb30  1  0.00000000  0.13365612  0.86634388  1
  Nb  Nb31  1  0.00000000  0.86634388  0.13365612  1
