# generated using pymatgen
data_Cs3Cr2Br9
_symmetry_space_group_name_H-M   'P 1'
_cell_length_a   7.78956420
_cell_length_b   7.78956420
_cell_length_c   19.42099684
_cell_angle_alpha   90.00000000
_cell_angle_beta   90.00000000
_cell_angle_gamma   120.00000001
_symmetry_Int_Tables_number   1
_chemical_formula_structural   Cs3Cr2Br9
_chemical_formula_sum   'Cs6 Cr4 Br18'
_cell_volume   1020.53633353
_cell_formula_units_Z   2
loop_
 _symmetry_equiv_pos_site_id
 _symmetry_equiv_pos_as_xyz
  1  'x, y, z'
loop_
 _atom_site_type_symbol
 _atom_site_label
 _atom_site_symmetry_multiplicity
 _atom_site_fract_x
 _atom_site_fract_y
 _atom_site_fract_z
 _atom_site_occupancy
  Cr  Cr0  1  0.33333333  0.66666667  0.66336938  1
  Cr  Cr1  1  0.66666667  0.33333333  0.16336938  1
  Cr  Cr2  1  0.66666667  0.33333333  0.33663062  1
  Cr  Cr3  1  0.33333333  0.66666667  0.83663062  1
  Br  Br4  1  0.82020673  0.64041346  0.40580158  1
  Br  Br5  1  0.17979327  0.35958654  0.90580158  1
  Br  Br6  1  0.17979327  0.82020673  0.90580158  1
  Br  Br7  1  0.17979327  0.35958654  0.59419842  1
  Br  Br8  1  0.64041346  0.82020673  0.90580158  1
  Br  Br9  1  0.35958654  0.17979327  0.40580158  1
  Br  Br10  1  0.03873256  0.51936628  0.75000000  1
  Br  Br11  1  0.82020673  0.17979327  0.40580158  1
  Br  Br12  1  0.51936628  0.03873256  0.25000000  1
  Br  Br13  1  0.48063372  0.51936628  0.75000000  1
  Br  Br14  1  0.51936628  0.48063372  0.25000000  1
  Br  Br15  1  0.96126744  0.48063372  0.25000000  1
  Br  Br16  1  0.35958654  0.17979327  0.09419842  1
  Br  Br17  1  0.48063372  0.96126744  0.75000000  1
  Br  Br18  1  0.82020673  0.64041346  0.09419842  1
  Br  Br19  1  0.17979327  0.82020673  0.59419842  1
  Br  Br20  1  0.64041346  0.82020673  0.59419842  1
  Br  Br21  1  0.82020673  0.17979327  0.09419842  1
  Cs  Cs22  1  0.66666667  0.33333333  0.92982281  1
  Cs  Cs23  1  0.33333333  0.66666667  0.42982281  1
  Cs  Cs24  1  0.66666667  0.33333333  0.57017719  1
  Cs  Cs25  1  0.33333333  0.66666667  0.07017719  1
  Cs  Cs26  1  0.00000000  0.00000000  0.75000000  1
  Cs  Cs27  1  0.00000000  0.00000000  0.25000000  1
