# generated using pymatgen
data_Na3InCl6
_symmetry_space_group_name_H-M   'P 1'
_cell_length_a   7.00569442
_cell_length_b   7.00569442
_cell_length_c   12.59734832
_cell_angle_alpha   90.00000000
_cell_angle_beta   90.00000000
_cell_angle_gamma   120.00000000
_symmetry_Int_Tables_number   1
_chemical_formula_structural   Na3InCl6
_chemical_formula_sum   'Na6 In2 Cl12'
_cell_volume   535.44164917
_cell_formula_units_Z   2
loop_
 _symmetry_equiv_pos_site_id
 _symmetry_equiv_pos_as_xyz
  1  'x, y, z'
loop_
 _atom_site_type_symbol
 _atom_site_label
 _atom_site_symmetry_multiplicity
 _atom_site_fract_x
 _atom_site_fract_y
 _atom_site_fract_z
 _atom_site_occupancy
  Na  Na0  1  0.33333333  0.66666667  0.04107355  1
  Na  Na1  1  0.33333333  0.66666667  0.45892645  1
  Na  Na2  1  0.00000000  0.00000000  0.75000000  1
  Na  Na3  1  0.00000000  0.00000000  0.25000000  1
  Na  Na4  1  0.66666667  0.33333333  0.95892645  1
  Na  Na5  1  0.66666667  0.33333333  0.54107355  1
  Cl  Cl6  1  0.36526318  0.04787952  0.12919695  1
  Cl  Cl7  1  0.95212048  0.31738366  0.12919695  1
  Cl  Cl8  1  0.68261634  0.63473682  0.12919695  1
  Cl  Cl9  1  0.63473682  0.68261634  0.62919695  1
  Cl  Cl10  1  0.31738366  0.95212048  0.62919695  1
  Cl  Cl11  1  0.63473682  0.95212048  0.87080305  1
  Cl  Cl12  1  0.31738366  0.36526318  0.87080305  1
  Cl  Cl13  1  0.04787952  0.68261634  0.87080305  1
  Cl  Cl14  1  0.36526318  0.31738366  0.37080305  1
  Cl  Cl15  1  0.95212048  0.63473682  0.37080305  1
  Cl  Cl16  1  0.04787952  0.36526318  0.62919695  1
  Cl  Cl17  1  0.68261634  0.04787952  0.37080305  1
  In  In18  1  0.33333333  0.66666667  0.75000000  1
  In  In19  1  0.66666667  0.33333333  0.25000000  1
