# generated using pymatgen
data_Be2TlF5
_symmetry_space_group_name_H-M   'P 1'
_cell_length_a   4.73750164
_cell_length_b   8.21651214
_cell_length_c   12.96736072
_cell_angle_alpha   91.18873368
_cell_angle_beta   90.00000000
_cell_angle_gamma   90.00000000
_symmetry_Int_Tables_number   1
_chemical_formula_structural   Be2TlF5
_chemical_formula_sum   'Be8 Tl4 F20'
_cell_volume   504.65547428
_cell_formula_units_Z   4
loop_
 _symmetry_equiv_pos_site_id
 _symmetry_equiv_pos_as_xyz
  1  'x, y, z'
loop_
 _atom_site_type_symbol
 _atom_site_label
 _atom_site_symmetry_multiplicity
 _atom_site_fract_x
 _atom_site_fract_y
 _atom_site_fract_z
 _atom_site_occupancy
  Be  Be0  1  0.02400618  0.33322228  0.29620929  1
  Be  Be1  1  0.02400618  0.66677772  0.20379071  1
  Be  Be2  1  0.97599382  0.66677772  0.70379071  1
  Be  Be3  1  0.97599382  0.33322228  0.79620929  1
  Be  Be4  1  0.47558165  0.16837258  0.70683834  1
  Be  Be5  1  0.47558165  0.83162742  0.79316166  1
  Be  Be6  1  0.52441835  0.83162742  0.29316166  1
  Be  Be7  1  0.52441835  0.16837258  0.20683834  1
  Tl  Tl8  1  0.50000000  0.50000000  0.50000000  1
  Tl  Tl9  1  0.50000000  0.50000000  0.00000000  1
  Tl  Tl10  1  0.00000000  0.00000000  0.50000000  1
  Tl  Tl11  1  0.00000000  0.00000000  0.00000000  1
  F  F12  1  0.93064469  0.50000000  0.25000000  1
  F  F13  1  0.15926831  0.19628571  0.74148599  1
  F  F14  1  0.84073169  0.19628571  0.24148599  1
  F  F15  1  0.84073169  0.80371429  0.25851401  1
  F  F16  1  0.65872937  0.30329277  0.76343951  1
  F  F17  1  0.15926831  0.80371429  0.75851401  1
  F  F18  1  0.34127063  0.69670723  0.23656049  1
  F  F19  1  0.34127063  0.30329277  0.26343951  1
  F  F20  1  0.50316785  0.82754087  0.90919919  1
  F  F21  1  0.50316785  0.17245913  0.59080081  1
  F  F22  1  0.49683215  0.17245913  0.09080081  1
  F  F23  1  0.49683215  0.82754087  0.40919919  1
  F  F24  1  0.00617925  0.33167497  0.91221332  1
  F  F25  1  0.00617925  0.66832503  0.58778668  1
  F  F26  1  0.99382075  0.66832503  0.08778668  1
  F  F27  1  0.99382075  0.33167497  0.41221332  1
  F  F28  1  0.42811869  0.00000000  0.25000000  1
  F  F29  1  0.57188131  0.00000000  0.75000000  1
  F  F30  1  0.65872937  0.69670723  0.73656049  1
  F  F31  1  0.06935531  0.50000000  0.75000000  1
