# generated using pymatgen
data_BSBr
_symmetry_space_group_name_H-M   'P 1'
_cell_length_a   4.82073839
_cell_length_b   14.63952199
_cell_length_c   18.21675735
_cell_angle_alpha   111.49036443
_cell_angle_beta   90.00000000
_cell_angle_gamma   90.00000000
_symmetry_Int_Tables_number   1
_chemical_formula_structural   BSBr
_chemical_formula_sum   'B12 S12 Br12'
_cell_volume   1196.23966468
_cell_formula_units_Z   12
loop_
 _symmetry_equiv_pos_site_id
 _symmetry_equiv_pos_as_xyz
  1  'x, y, z'
loop_
 _atom_site_type_symbol
 _atom_site_label
 _atom_site_symmetry_multiplicity
 _atom_site_fract_x
 _atom_site_fract_y
 _atom_site_fract_z
 _atom_site_occupancy
  B  B0  1  0.24966199  0.46239601  0.83321162  1
  B  B1  1  0.74966199  0.03760399  0.66678838  1
  B  B2  1  0.75033801  0.53760399  0.16678838  1
  B  B3  1  0.25033801  0.96239601  0.33321162  1
  B  B4  1  0.02026033  0.55679444  0.72954975  1
  B  B5  1  0.52026033  0.94320556  0.77045025  1
  B  B6  1  0.97973967  0.44320556  0.27045025  1
  B  B7  1  0.47973967  0.05679444  0.22954975  1
  B  B8  1  0.02799760  0.66262264  0.90101597  1
  B  B9  1  0.52799760  0.83737736  0.59898403  1
  B  B10  1  0.97200240  0.33737736  0.09898403  1
  B  B11  1  0.47200240  0.16262264  0.40101597  1
  S  S12  1  0.31876056  0.94655769  0.23178312  1
  S  S13  1  0.81876056  0.55344231  0.26821688  1
  S  S14  1  0.68123944  0.05344231  0.76821688  1
  S  S15  1  0.18123944  0.44655769  0.73178312  1
  S  S16  1  0.31310761  0.06474222  0.42399959  1
  S  S17  1  0.81310761  0.43525778  0.07600041  1
  S  S18  1  0.68689239  0.93525778  0.57600041  1
  S  S19  1  0.18689239  0.56474222  0.92399959  1
  S  S20  1  0.57073947  0.17041601  0.30786492  1
  S  S21  1  0.07073947  0.32958399  0.19213508  1
  S  S22  1  0.42926053  0.82958399  0.69213508  1
  S  S23  1  0.92926053  0.67041601  0.80786492  1
  Br  Br24  1  0.42290504  0.35086145  0.84678873  1
  Br  Br25  1  0.92290504  0.14913855  0.65321127  1
  Br  Br26  1  0.57709496  0.64913855  0.15321127  1
  Br  Br27  1  0.07709496  0.85086145  0.34678873  1
  Br  Br28  1  0.92982595  0.55290767  0.62517815  1
  Br  Br29  1  0.42982595  0.94709233  0.87482185  1
  Br  Br30  1  0.07017405  0.44709233  0.37482185  1
  Br  Br31  1  0.57017405  0.05290767  0.12517815  1
  Br  Br32  1  0.94913641  0.77925697  0.99166720  1
  Br  Br33  1  0.44913641  0.72074303  0.50833280  1
  Br  Br34  1  0.05086359  0.22074303  0.00833280  1
  Br  Br35  1  0.55086359  0.27925697  0.49166720  1
