# generated using pymatgen
data_Hg5(BrO2)2
_symmetry_space_group_name_H-M   'P 1'
_cell_length_a   6.31078103
_cell_length_b   9.12276220
_cell_length_c   9.12276221
_cell_angle_alpha   82.40248786
_cell_angle_beta   69.76441282
_cell_angle_gamma   69.76441279
_symmetry_Int_Tables_number   1
_chemical_formula_structural   Hg5(BrO2)2
_chemical_formula_sum   'Hg10 Br4 O8'
_cell_volume   462.33299743
_cell_formula_units_Z   2
loop_
 _symmetry_equiv_pos_site_id
 _symmetry_equiv_pos_as_xyz
  1  'x, y, z'
loop_
 _atom_site_type_symbol
 _atom_site_label
 _atom_site_symmetry_multiplicity
 _atom_site_fract_x
 _atom_site_fract_y
 _atom_site_fract_z
 _atom_site_occupancy
  O  O0  1  0.94449575  0.53214313  0.17826796  1
  O  O1  1  0.65490683  0.96785687  0.32173204  1
  O  O2  1  0.34509317  0.67826796  0.03214313  1
  O  O3  1  0.05550425  0.82173204  0.46785687  1
  O  O4  1  0.94449575  0.17826796  0.53214313  1
  O  O5  1  0.65490683  0.32173204  0.96785687  1
  O  O6  1  0.05550425  0.46785687  0.82173204  1
  O  O7  1  0.34509317  0.03214313  0.67826796  1
  Br  Br8  1  0.38289984  0.39012795  0.39012795  1
  Br  Br9  1  0.16315573  0.10987205  0.10987205  1
  Br  Br10  1  0.61710016  0.60987205  0.60987205  1
  Br  Br11  1  0.83684427  0.89012795  0.89012795  1
  Hg  Hg12  1  0.07567589  0.63928795  0.63928795  1
  Hg  Hg13  1  0.35425178  0.86071205  0.86071205  1
  Hg  Hg14  1  0.92432411  0.36071205  0.36071205  1
  Hg  Hg15  1  0.64574822  0.13928795  0.13928795  1
  Hg  Hg16  1  0.66111393  0.58888607  0.08888607  1
  Hg  Hg17  1  0.33888607  0.91111393  0.41111393  1
  Hg  Hg18  1  0.33888607  0.41111393  0.91111393  1
  Hg  Hg19  1  0.66111393  0.08888607  0.58888607  1
  Hg  Hg20  1  0.00000000  0.25000000  0.75000000  1
  Hg  Hg21  1  0.00000000  0.75000000  0.25000000  1
