# generated using pymatgen
data_Sc4NCl6
_symmetry_space_group_name_H-M   'P 1'
_cell_length_a   3.50663832
_cell_length_b   11.63054837
_cell_length_c   12.13676747
_cell_angle_alpha   90.00000000
_cell_angle_beta   90.00000000
_cell_angle_gamma   90.00000000
_symmetry_Int_Tables_number   1
_chemical_formula_structural   Sc4NCl6
_chemical_formula_sum   'Sc8 N2 Cl12'
_cell_volume   494.98746097
_cell_formula_units_Z   2
loop_
 _symmetry_equiv_pos_site_id
 _symmetry_equiv_pos_as_xyz
  1  'x, y, z'
loop_
 _atom_site_type_symbol
 _atom_site_label
 _atom_site_symmetry_multiplicity
 _atom_site_fract_x
 _atom_site_fract_y
 _atom_site_fract_z
 _atom_site_occupancy
  N  N0  1  0.50000000  0.00000000  0.00000000  1
  N  N1  1  0.50000000  0.50000000  0.50000000  1
  Cl  Cl2  1  0.50000000  0.26564915  0.67567021  1
  Cl  Cl3  1  0.50000000  0.73435085  0.32432979  1
  Cl  Cl4  1  0.50000000  0.76564915  0.82432979  1
  Cl  Cl5  1  0.50000000  0.23435085  0.17567021  1
  Cl  Cl6  1  0.00000000  0.25857636  0.92895724  1
  Cl  Cl7  1  0.00000000  0.74142364  0.07104276  1
  Cl  Cl8  1  0.00000000  0.48480215  0.24244070  1
  Cl  Cl9  1  0.00000000  0.51519785  0.75755930  1
  Cl  Cl10  1  0.00000000  0.98480215  0.25755930  1
  Cl  Cl11  1  0.00000000  0.01519785  0.74244070  1
  Cl  Cl12  1  0.00000000  0.24142364  0.42895724  1
  Cl  Cl13  1  0.00000000  0.75857636  0.57104276  1
  Sc  Sc14  1  0.00000000  0.10126063  0.07761432  1
  Sc  Sc15  1  0.00000000  0.89873937  0.92238568  1
  Sc  Sc16  1  0.00000000  0.60126063  0.42238568  1
  Sc  Sc17  1  0.00000000  0.39873937  0.57761432  1
  Sc  Sc18  1  0.50000000  0.11901833  0.85737868  1
  Sc  Sc19  1  0.50000000  0.88098167  0.14262132  1
  Sc  Sc20  1  0.50000000  0.61901833  0.64262132  1
  Sc  Sc21  1  0.50000000  0.38098167  0.35737868  1
