# generated using pymatgen
data_KClO4
_symmetry_space_group_name_H-M   'P 1'
_cell_length_a   5.79013448
_cell_length_b   7.41812879
_cell_length_c   9.02232637
_cell_angle_alpha   90.00000000
_cell_angle_beta   90.00000000
_cell_angle_gamma   90.00000000
_symmetry_Int_Tables_number   1
_chemical_formula_structural   KClO4
_chemical_formula_sum   'K4 Cl4 O16'
_cell_volume   387.52663098
_cell_formula_units_Z   4
loop_
 _symmetry_equiv_pos_site_id
 _symmetry_equiv_pos_as_xyz
  1  'x, y, z'
loop_
 _atom_site_type_symbol
 _atom_site_label
 _atom_site_symmetry_multiplicity
 _atom_site_fract_x
 _atom_site_fract_y
 _atom_site_fract_z
 _atom_site_occupancy
  O  O0  1  0.25000000  0.59543158  0.42793826  1
  O  O1  1  0.75000000  0.40456842  0.57206174  1
  O  O2  1  0.75000000  0.09543158  0.07206174  1
  O  O3  1  0.25000000  0.90456842  0.92793826  1
  O  O4  1  0.54394788  0.19644306  0.41919470  1
  O  O5  1  0.04394788  0.80355694  0.58080530  1
  O  O6  1  0.45605212  0.69644306  0.08080530  1
  O  O7  1  0.95605212  0.30355694  0.91919470  1
  O  O8  1  0.25000000  0.94060665  0.19184918  1
  O  O9  1  0.75000000  0.05939335  0.80815082  1
  O  O10  1  0.75000000  0.44060665  0.30815082  1
  O  O11  1  0.25000000  0.55939335  0.69184918  1
  O  O12  1  0.04394788  0.69644306  0.08080530  1
  O  O13  1  0.54394788  0.30355694  0.91919470  1
  O  O14  1  0.95605212  0.19644306  0.41919470  1
  O  O15  1  0.45605212  0.80355694  0.58080530  1
  Cl  Cl16  1  0.25000000  0.68842888  0.56951693  1
  Cl  Cl17  1  0.75000000  0.31157112  0.43048307  1
  Cl  Cl18  1  0.75000000  0.18842888  0.93048307  1
  Cl  Cl19  1  0.25000000  0.81157112  0.06951693  1
  K  K20  1  0.25000000  0.16116487  0.68013924  1
  K  K21  1  0.75000000  0.83883513  0.31986076  1
  K  K22  1  0.75000000  0.66116487  0.81986076  1
  K  K23  1  0.25000000  0.33883513  0.18013924  1
