# generated using pymatgen
data_Cd(IO3)2
_symmetry_space_group_name_H-M   'P 1'
_cell_length_a   5.70401666
_cell_length_b   5.92478242
_cell_length_c   17.68944333
_cell_angle_alpha   90.00000000
_cell_angle_beta   90.00000000
_cell_angle_gamma   90.00000000
_symmetry_Int_Tables_number   1
_chemical_formula_structural   Cd(IO3)2
_chemical_formula_sum   'Cd4 I8 O24'
_cell_volume   597.81575679
_cell_formula_units_Z   4
loop_
 _symmetry_equiv_pos_site_id
 _symmetry_equiv_pos_as_xyz
  1  'x, y, z'
loop_
 _atom_site_type_symbol
 _atom_site_label
 _atom_site_symmetry_multiplicity
 _atom_site_fract_x
 _atom_site_fract_y
 _atom_site_fract_z
 _atom_site_occupancy
  O  O0  1  0.54571146  0.60553807  0.51604847  1
  O  O1  1  0.04571146  0.89446193  0.48395153  1
  O  O2  1  0.45428854  0.10553807  0.98395153  1
  O  O3  1  0.95428854  0.39446193  0.01604847  1
  O  O4  1  0.60958634  0.49400856  0.66147669  1
  O  O5  1  0.10958634  0.00599144  0.33852331  1
  O  O6  1  0.39041366  0.99400856  0.83852331  1
  O  O7  1  0.89041366  0.50599144  0.16147669  1
  O  O8  1  0.71725798  0.18333879  0.54590913  1
  O  O9  1  0.21725798  0.31666121  0.45409087  1
  O  O10  1  0.28274202  0.68333879  0.95409087  1
  O  O11  1  0.78274202  0.81666121  0.04590913  1
  O  O12  1  0.04621981  0.01957864  0.16286223  1
  O  O13  1  0.54621981  0.48042136  0.83713777  1
  O  O14  1  0.95378019  0.51957864  0.33713777  1
  O  O15  1  0.45378019  0.98042136  0.66286223  1
  O  O16  1  0.36173722  0.37356826  0.12431805  1
  O  O17  1  0.86173722  0.12643174  0.87568195  1
  O  O18  1  0.63826278  0.87356826  0.37568195  1
  O  O19  1  0.13826278  0.62643174  0.62431805  1
  O  O20  1  0.51683630  0.03324095  0.20748117  1
  O  O21  1  0.01683630  0.46675905  0.79251883  1
  O  O22  1  0.48316370  0.53324095  0.29251883  1
  O  O23  1  0.98316370  0.96675905  0.70748117  1
  Cd  Cd24  1  0.70891576  0.17170537  0.09409212  1
  Cd  Cd25  1  0.20891576  0.32829463  0.90590788  1
  Cd  Cd26  1  0.29108424  0.67170537  0.40590788  1
  Cd  Cd27  1  0.79108424  0.82829463  0.59409212  1
  I  I28  1  0.24461390  0.78477044  0.70828875  1
  I  I29  1  0.74461390  0.71522956  0.29171125  1
  I  I30  1  0.75538610  0.28477044  0.79171125  1
  I  I31  1  0.25538610  0.21522956  0.20828875  1
  I  I32  1  0.03138650  0.63711687  0.07732260  1
  I  I33  1  0.53138650  0.86288313  0.92267740  1
  I  I34  1  0.96861350  0.13711687  0.42267740  1
  I  I35  1  0.46861350  0.36288313  0.57732260  1
