# generated using pymatgen
data_SbI3Cl8
_symmetry_space_group_name_H-M   'P 1'
_cell_length_a   7.57720345
_cell_length_b   7.83465043
_cell_length_c   8.12521350
_cell_angle_alpha   94.50718757
_cell_angle_beta   86.39620413
_cell_angle_gamma   78.89547514
_symmetry_Int_Tables_number   1
_chemical_formula_structural   SbI3Cl8
_chemical_formula_sum   'Sb1 I3 Cl8'
_cell_volume   470.35457090
_cell_formula_units_Z   1
loop_
 _symmetry_equiv_pos_site_id
 _symmetry_equiv_pos_as_xyz
  1  'x, y, z'
loop_
 _atom_site_type_symbol
 _atom_site_label
 _atom_site_symmetry_multiplicity
 _atom_site_fract_x
 _atom_site_fract_y
 _atom_site_fract_z
 _atom_site_occupancy
  Cl  Cl0  1  0.73085371  0.69299802  0.44082922  1
  Cl  Cl1  1  0.26914629  0.30700198  0.55917078  1
  Cl  Cl2  1  0.50962899  0.23625720  0.92516889  1
  Cl  Cl3  1  0.49037101  0.76374280  0.07483111  1
  Cl  Cl4  1  0.84995558  0.24292808  0.46117339  1
  Cl  Cl5  1  0.15004442  0.75707192  0.53882661  1
  Cl  Cl6  1  0.89618394  0.53249452  0.78554734  1
  Cl  Cl7  1  0.10381606  0.46750548  0.21445266  1
  Sb  Sb8  1  0.00000000  0.50000000  0.50000000  1
  I  I9  1  0.00000000  0.00000000  0.00000000  1
  I  I10  1  0.67853838  0.23779674  0.16330397  1
  I  I11  1  0.32146162  0.76220326  0.83669603  1
