# generated using pymatgen
data_Hg6Sb5Br7
_symmetry_space_group_name_H-M   'P 1'
_cell_length_a   13.36882094
_cell_length_b   13.36882094
_cell_length_c   13.36882094
_cell_angle_alpha   90.00000000
_cell_angle_beta   90.00000000
_cell_angle_gamma   90.00000000
_symmetry_Int_Tables_number   1
_chemical_formula_structural   Hg6Sb5Br7
_chemical_formula_sum   'Hg24 Sb20 Br28'
_cell_volume   2389.34751343
_cell_formula_units_Z   4
loop_
 _symmetry_equiv_pos_site_id
 _symmetry_equiv_pos_as_xyz
  1  'x, y, z'
loop_
 _atom_site_type_symbol
 _atom_site_label
 _atom_site_symmetry_multiplicity
 _atom_site_fract_x
 _atom_site_fract_y
 _atom_site_fract_z
 _atom_site_occupancy
  Br  Br0  1  0.00000000  0.50000000  0.50000000  1
  Br  Br1  1  0.50000000  0.50000000  0.00000000  1
  Br  Br2  1  0.50000000  0.00000000  0.50000000  1
  Br  Br3  1  0.00000000  0.00000000  0.00000000  1
  Br  Br4  1  0.95031718  0.20253368  0.45601900  1
  Br  Br5  1  0.45031718  0.29746632  0.54398100  1
  Br  Br6  1  0.04968282  0.70253368  0.04398100  1
  Br  Br7  1  0.29746632  0.54398100  0.45031718  1
  Br  Br8  1  0.04398100  0.04968282  0.70253368  1
  Br  Br9  1  0.54398100  0.45031718  0.29746632  1
  Br  Br10  1  0.20253368  0.45601900  0.95031718  1
  Br  Br11  1  0.45601900  0.95031718  0.20253368  1
  Br  Br12  1  0.70253368  0.04398100  0.04968282  1
  Br  Br13  1  0.79746632  0.95601900  0.54968282  1
  Br  Br14  1  0.95601900  0.54968282  0.79746632  1
  Br  Br15  1  0.54968282  0.79746632  0.95601900  1
  Br  Br16  1  0.04968282  0.79746632  0.54398100  1
  Br  Br17  1  0.54968282  0.70253368  0.45601900  1
  Br  Br18  1  0.95031718  0.29746632  0.95601900  1
  Br  Br19  1  0.70253368  0.45601900  0.54968282  1
  Br  Br20  1  0.95601900  0.95031718  0.29746632  1
  Br  Br21  1  0.45601900  0.54968282  0.70253368  1
  Br  Br22  1  0.79746632  0.54398100  0.04968282  1
  Br  Br23  1  0.54398100  0.04968282  0.79746632  1
  Br  Br24  1  0.29746632  0.95601900  0.95031718  1
  Br  Br25  1  0.20253368  0.04398100  0.45031718  1
  Br  Br26  1  0.04398100  0.45031718  0.20253368  1
  Br  Br27  1  0.45031718  0.20253368  0.04398100  1
  Sb  Sb28  1  0.26214599  0.23785401  0.76214599  1
  Sb  Sb29  1  0.23785401  0.76214599  0.26214599  1
  Sb  Sb30  1  0.76214599  0.26214599  0.23785401  1
  Sb  Sb31  1  0.73785401  0.73785401  0.73785401  1
  Sb  Sb32  1  0.73785401  0.76214599  0.23785401  1
  Sb  Sb33  1  0.76214599  0.23785401  0.73785401  1
  Sb  Sb34  1  0.23785401  0.73785401  0.76214599  1
  Sb  Sb35  1  0.26214599  0.26214599  0.26214599  1
  Sb  Sb36  1  0.13622125  0.36377875  0.63622125  1
  Sb  Sb37  1  0.36377875  0.63622125  0.13622125  1
  Sb  Sb38  1  0.63622125  0.13622125  0.36377875  1
  Sb  Sb39  1  0.86377875  0.86377875  0.86377875  1
  Sb  Sb40  1  0.86377875  0.63622125  0.36377875  1
  Sb  Sb41  1  0.63622125  0.36377875  0.86377875  1
  Sb  Sb42  1  0.36377875  0.86377875  0.63622125  1
  Sb  Sb43  1  0.13622125  0.13622125  0.13622125  1
  Sb  Sb44  1  0.50000000  0.50000000  0.50000000  1
  Sb  Sb45  1  0.00000000  0.00000000  0.50000000  1
  Sb  Sb46  1  0.00000000  0.50000000  0.00000000  1
  Sb  Sb47  1  0.50000000  0.00000000  0.00000000  1
  Hg  Hg48  1  0.68550443  0.29944326  0.05212110  1
  Hg  Hg49  1  0.18550443  0.20055674  0.94787890  1
  Hg  Hg50  1  0.31449557  0.79944326  0.44787890  1
  Hg  Hg51  1  0.20055674  0.94787890  0.18550443  1
  Hg  Hg52  1  0.44787890  0.31449557  0.79944326  1
  Hg  Hg53  1  0.94787890  0.18550443  0.20055674  1
  Hg  Hg54  1  0.29944326  0.05212110  0.68550443  1
  Hg  Hg55  1  0.05212110  0.68550443  0.29944326  1
  Hg  Hg56  1  0.79944326  0.44787890  0.31449557  1
  Hg  Hg57  1  0.70055674  0.55212110  0.81449557  1
  Hg  Hg58  1  0.55212110  0.81449557  0.70055674  1
  Hg  Hg59  1  0.81449557  0.70055674  0.55212110  1
  Hg  Hg60  1  0.31449557  0.70055674  0.94787890  1
  Hg  Hg61  1  0.81449557  0.79944326  0.05212110  1
  Hg  Hg62  1  0.68550443  0.20055674  0.55212110  1
  Hg  Hg63  1  0.79944326  0.05212110  0.81449557  1
  Hg  Hg64  1  0.55212110  0.68550443  0.20055674  1
  Hg  Hg65  1  0.05212110  0.81449557  0.79944326  1
  Hg  Hg66  1  0.70055674  0.94787890  0.31449557  1
  Hg  Hg67  1  0.94787890  0.31449557  0.70055674  1
  Hg  Hg68  1  0.20055674  0.55212110  0.68550443  1
  Hg  Hg69  1  0.29944326  0.44787890  0.18550443  1
  Hg  Hg70  1  0.44787890  0.18550443  0.29944326  1
  Hg  Hg71  1  0.18550443  0.29944326  0.44787890  1
