# generated using pymatgen
data_CsTcO4
_symmetry_space_group_name_H-M   'P 1'
_cell_length_a   5.91515046
_cell_length_b   6.08746718
_cell_length_c   14.78408216
_cell_angle_alpha   90.00000000
_cell_angle_beta   90.00000000
_cell_angle_gamma   90.00000000
_symmetry_Int_Tables_number   1
_chemical_formula_structural   CsTcO4
_chemical_formula_sum   'Cs4 Tc4 O16'
_cell_volume   532.34943338
_cell_formula_units_Z   4
loop_
 _symmetry_equiv_pos_site_id
 _symmetry_equiv_pos_as_xyz
  1  'x, y, z'
loop_
 _atom_site_type_symbol
 _atom_site_label
 _atom_site_symmetry_multiplicity
 _atom_site_fract_x
 _atom_site_fract_y
 _atom_site_fract_z
 _atom_site_occupancy
  O  O0  1  0.49324875  0.98434448  0.18698644  1
  O  O1  1  0.99324875  0.51565552  0.31301356  1
  O  O2  1  0.50675125  0.48434448  0.81301356  1
  O  O3  1  0.00675125  0.01565552  0.68698644  1
  O  O4  1  0.50675125  0.01565552  0.81301356  1
  O  O5  1  0.00675125  0.48434448  0.68698644  1
  O  O6  1  0.49324875  0.51565552  0.18698644  1
  O  O7  1  0.99324875  0.98434448  0.31301356  1
  O  O8  1  0.18667565  0.25000000  0.91964708  1
  O  O9  1  0.68667565  0.25000000  0.58035292  1
  O  O10  1  0.81332435  0.75000000  0.08035292  1
  O  O11  1  0.31332435  0.75000000  0.41964708  1
  O  O12  1  0.65417329  0.25000000  0.96808781  1
  O  O13  1  0.15417329  0.25000000  0.53191219  1
  O  O14  1  0.34582671  0.75000000  0.03191219  1
  O  O15  1  0.84582671  0.75000000  0.46808781  1
  Tc  Tc16  1  0.53643902  0.75000000  0.12151131  1
  Tc  Tc17  1  0.03643902  0.75000000  0.37848869  1
  Tc  Tc18  1  0.46356098  0.25000000  0.87848869  1
  Tc  Tc19  1  0.96356098  0.25000000  0.62151131  1
  Cs  Cs20  1  0.47344500  0.75000000  0.62644624  1
  Cs  Cs21  1  0.97344500  0.75000000  0.87355376  1
  Cs  Cs22  1  0.52655500  0.25000000  0.37355376  1
  Cs  Cs23  1  0.02655500  0.25000000  0.12644624  1
