# generated using pymatgen
data_LiSn2(PO3)5
_symmetry_space_group_name_H-M   'P 1'
_cell_length_a   12.42181988
_cell_length_b   9.85421065
_cell_length_c   5.54771417
_cell_angle_alpha   90.00000000
_cell_angle_beta   91.27786711
_cell_angle_gamma   90.00000000
_symmetry_Int_Tables_number   1
_chemical_formula_structural   LiSn2(PO3)5
_chemical_formula_sum   'Li2 Sn4 P10 O30'
_cell_volume   678.91143419
_cell_formula_units_Z   2
loop_
 _symmetry_equiv_pos_site_id
 _symmetry_equiv_pos_as_xyz
  1  'x, y, z'
loop_
 _atom_site_type_symbol
 _atom_site_label
 _atom_site_symmetry_multiplicity
 _atom_site_fract_x
 _atom_site_fract_y
 _atom_site_fract_z
 _atom_site_occupancy
  Li  Li0  1  0.47621282  0.01683497  0.55623465  1
  Li  Li1  1  0.97621282  0.98316503  0.05623465  1
  O  O2  1  0.02415920  0.16516871  0.18004998  1
  O  O3  1  0.02135486  0.17669322  0.64576501  1
  O  O4  1  0.05510715  0.46103385  0.77859908  1
  O  O5  1  0.12787505  0.34766578  0.39771055  1
  O  O6  1  0.16851876  0.91931289  0.12463633  1
  O  O7  1  0.17276982  0.59306017  0.48222634  1
  O  O8  1  0.19100977  0.10773471  0.44047883  1
  O  O9  1  0.25126072  0.39789434  0.73942220  1
  O  O10  1  0.30676098  0.10115247  0.06644690  1
  O  O11  1  0.32390067  0.58898514  0.01425303  1
  O  O12  1  0.33621962  0.93358197  0.41463698  1
  O  O13  1  0.36909912  0.34275798  0.09067500  1
  O  O14  1  0.44771018  0.46149856  0.72311393  1
  O  O15  1  0.47191566  0.16796129  0.84276387  1
  O  O16  1  0.47657856  0.16665514  0.31270921  1
  O  O17  1  0.52415920  0.83483129  0.68004998  1
  O  O18  1  0.52135486  0.82330678  0.14576501  1
  O  O19  1  0.55510715  0.53896615  0.27859908  1
  O  O20  1  0.62787505  0.65233422  0.89771055  1
  O  O21  1  0.66851876  0.08068711  0.62463633  1
  O  O22  1  0.67276982  0.40693983  0.98222634  1
  O  O23  1  0.69100977  0.89226529  0.94047883  1
  O  O24  1  0.75126072  0.60210566  0.23942220  1
  O  O25  1  0.80676098  0.89884753  0.56644690  1
  O  O26  1  0.82390067  0.41101486  0.51425303  1
  O  O27  1  0.83621962  0.06641803  0.91463698  1
  O  O28  1  0.86909912  0.65724202  0.59067500  1
  O  O29  1  0.94771018  0.53850144  0.22311393  1
  O  O30  1  0.97191566  0.83203871  0.34276387  1
  O  O31  1  0.97657856  0.83334486  0.81270921  1
  P  P32  1  0.08194129  0.19460966  0.41542043  1
  P  P33  1  0.14688926  0.46138783  0.60410870  1
  P  P34  1  0.25052279  0.00152498  0.26202836  1
  P  P35  1  0.35298579  0.45963473  0.88914614  1
  P  P36  1  0.41571869  0.18976819  0.07956754  1
  P  P37  1  0.58194129  0.80539034  0.91542043  1
  P  P38  1  0.64688926  0.53861217  0.10410870  1
  P  P39  1  0.75052279  0.99847502  0.76202836  1
  P  P40  1  0.85298579  0.54036527  0.38914614  1
  P  P41  1  0.91571869  0.81023181  0.57956754  1
  Sn  Sn42  1  0.08707098  0.68911756  0.11523932  1
  Sn  Sn43  1  0.41881827  0.69355424  0.38376763  1
  Sn  Sn44  1  0.58707098  0.31088244  0.61523932  1
  Sn  Sn45  1  0.91881827  0.30644576  0.88376763  1
