# generated using pymatgen
data_Bi3B5O12
_symmetry_space_group_name_H-M   'P 1'
_cell_length_a   6.64616360
_cell_length_b   7.88841879
_cell_length_c   18.67183845
_cell_angle_alpha   90.00000000
_cell_angle_beta   90.00000000
_cell_angle_gamma   90.00000000
_symmetry_Int_Tables_number   1
_chemical_formula_structural   Bi3B5O12
_chemical_formula_sum   'Bi12 B20 O48'
_cell_volume   978.92195219
_cell_formula_units_Z   4
loop_
 _symmetry_equiv_pos_site_id
 _symmetry_equiv_pos_as_xyz
  1  'x, y, z'
loop_
 _atom_site_type_symbol
 _atom_site_label
 _atom_site_symmetry_multiplicity
 _atom_site_fract_x
 _atom_site_fract_y
 _atom_site_fract_z
 _atom_site_occupancy
  B  B0  1  0.93135029  0.75000000  0.61001739  1
  B  B1  1  0.43135029  0.75000000  0.88998261  1
  B  B2  1  0.06864971  0.25000000  0.38998261  1
  B  B3  1  0.56864971  0.25000000  0.11001739  1
  B  B4  1  0.12384875  0.40277424  0.27019248  1
  B  B5  1  0.62384875  0.09722576  0.22980752  1
  B  B6  1  0.87615125  0.90277424  0.72980752  1
  B  B7  1  0.37615125  0.59722576  0.77019248  1
  B  B8  1  0.87615125  0.59722576  0.72980752  1
  B  B9  1  0.37615125  0.90277424  0.77019248  1
  B  B10  1  0.12384875  0.09722576  0.27019248  1
  B  B11  1  0.62384875  0.40277424  0.22980752  1
  B  B12  1  0.83340448  0.75000000  0.48068809  1
  B  B13  1  0.33340448  0.75000000  0.01931191  1
  B  B14  1  0.16659552  0.25000000  0.51931191  1
  B  B15  1  0.66659552  0.25000000  0.98068809  1
  B  B16  1  0.20254979  0.75000000  0.51245858  1
  B  B17  1  0.70254979  0.75000000  0.98754142  1
  B  B18  1  0.79745021  0.25000000  0.48754142  1
  B  B19  1  0.29745021  0.25000000  0.01245858  1
  O  O20  1  0.77575289  0.75000000  0.55213249  1
  O  O21  1  0.27575289  0.75000000  0.94786751  1
  O  O22  1  0.22424711  0.25000000  0.44786751  1
  O  O23  1  0.72424711  0.25000000  0.05213249  1
  O  O24  1  0.88622545  0.75000000  0.76733841  1
  O  O25  1  0.38622545  0.75000000  0.73266159  1
  O  O26  1  0.11377455  0.25000000  0.23266159  1
  O  O27  1  0.61377455  0.25000000  0.26733841  1
  O  O28  1  0.13291790  0.75000000  0.58608661  1
  O  O29  1  0.63291790  0.75000000  0.91391339  1
  O  O30  1  0.86708210  0.25000000  0.41391339  1
  O  O31  1  0.36708210  0.25000000  0.08608661  1
  O  O32  1  0.02996740  0.75000000  0.46004826  1
  O  O33  1  0.52996740  0.75000000  0.03995174  1
  O  O34  1  0.97003260  0.25000000  0.53995174  1
  O  O35  1  0.47003260  0.25000000  0.96004826  1
  O  O36  1  0.11762273  0.40477860  0.34437087  1
  O  O37  1  0.61762273  0.09522140  0.15562913  1
  O  O38  1  0.88237727  0.90477860  0.65562913  1
  O  O39  1  0.38237727  0.59522140  0.84437087  1
  O  O40  1  0.88237727  0.59522140  0.65562913  1
  O  O41  1  0.38237727  0.90477860  0.84437087  1
  O  O42  1  0.11762273  0.09522140  0.34437087  1
  O  O43  1  0.61762273  0.40477860  0.15562913  1
  O  O44  1  0.13781903  0.55259559  0.23431893  1
  O  O45  1  0.63781903  0.94740441  0.26568107  1
  O  O46  1  0.86218097  0.05259559  0.76568107  1
  O  O47  1  0.36218097  0.44740441  0.73431893  1
  O  O48  1  0.86218097  0.44740441  0.76568107  1
  O  O49  1  0.36218097  0.05259559  0.73431893  1
  O  O50  1  0.13781903  0.94740441  0.23431893  1
  O  O51  1  0.63781903  0.55259559  0.26568107  1
  O  O52  1  0.67482350  0.40626224  0.49959913  1
  O  O53  1  0.17482350  0.09373776  0.00040087  1
  O  O54  1  0.32517650  0.90626224  0.50040087  1
  O  O55  1  0.82517650  0.59373776  0.99959913  1
  O  O56  1  0.32517650  0.59373776  0.50040087  1
  O  O57  1  0.82517650  0.90626224  0.99959913  1
  O  O58  1  0.67482350  0.09373776  0.49959913  1
  O  O59  1  0.17482350  0.40626224  0.00040087  1
  O  O60  1  0.34143192  0.75000000  0.35161768  1
  O  O61  1  0.84143192  0.75000000  0.14838232  1
  O  O62  1  0.65856808  0.25000000  0.64838232  1
  O  O63  1  0.15856808  0.25000000  0.85161768  1
  O  O64  1  0.68972244  0.75000000  0.42554527  1
  O  O65  1  0.18972244  0.75000000  0.07445473  1
  O  O66  1  0.31027756  0.25000000  0.57445473  1
  O  O67  1  0.81027756  0.25000000  0.92554527  1
  Bi  Bi68  1  0.48447586  0.51852142  0.40405086  1
  Bi  Bi69  1  0.98447586  0.98147858  0.09594914  1
  Bi  Bi70  1  0.51552414  0.01852142  0.59594914  1
  Bi  Bi71  1  0.01552414  0.48147858  0.90405086  1
  Bi  Bi72  1  0.51552414  0.48147858  0.59594914  1
  Bi  Bi73  1  0.01552414  0.01852142  0.90405086  1
  Bi  Bi74  1  0.48447586  0.98147858  0.40405086  1
  Bi  Bi75  1  0.98447586  0.51852142  0.09594914  1
  Bi  Bi76  1  0.03979889  0.75000000  0.31449278  1
  Bi  Bi77  1  0.53979889  0.75000000  0.18550722  1
  Bi  Bi78  1  0.96020111  0.25000000  0.68550722  1
  Bi  Bi79  1  0.46020111  0.25000000  0.81449278  1
