# generated using pymatgen
data_SbCl4F
_symmetry_space_group_name_H-M   'P 1'
_cell_length_a   8.30129479
_cell_length_b   10.37445476
_cell_length_c   10.37445476
_cell_angle_alpha   80.78922952
_cell_angle_beta   66.41660614
_cell_angle_gamma   66.41660609
_symmetry_Int_Tables_number   1
_chemical_formula_structural   SbCl4F
_chemical_formula_sum   'Sb4 Cl16 F4'
_cell_volume   750.44898441
_cell_formula_units_Z   4
loop_
 _symmetry_equiv_pos_site_id
 _symmetry_equiv_pos_as_xyz
  1  'x, y, z'
loop_
 _atom_site_type_symbol
 _atom_site_label
 _atom_site_symmetry_multiplicity
 _atom_site_fract_x
 _atom_site_fract_y
 _atom_site_fract_z
 _atom_site_occupancy
  F  F0  1  0.12023209  0.95758742  0.79931774  1
  F  F1  1  0.87713725  0.04241258  0.20068226  1
  F  F2  1  0.92218049  0.20068226  0.95758742  1
  F  F3  1  0.08045017  0.79931774  0.04241258  1
  Cl  Cl4  1  0.68921038  0.83604288  0.24502909  1
  Cl  Cl5  1  0.77028234  0.16395712  0.75497091  1
  Cl  Cl6  1  0.47474674  0.75497091  0.83604288  1
  Cl  Cl7  1  0.06576054  0.24502909  0.16395712  1
  Cl  Cl8  1  0.21617873  0.10131053  0.49975621  1
  Cl  Cl9  1  0.28406506  0.49975621  0.89868947  1
  Cl  Cl10  1  0.68251074  0.50024379  0.10131053  1
  Cl  Cl11  1  0.81724548  0.89868947  0.50024379  1
  Cl  Cl12  1  0.62127656  0.29920337  0.41681904  1
  Cl  Cl13  1  0.96190440  0.41681904  0.70079663  1
  Cl  Cl14  1  0.07952007  0.58318096  0.29920337  1
  Cl  Cl15  1  0.33729897  0.70079663  0.58318096  1
  Cl  Cl16  1  0.32515025  0.14718967  0.77363604  1
  Cl  Cl17  1  0.90121371  0.77363604  0.85281033  1
  Cl  Cl18  1  0.52766008  0.22636396  0.14718967  1
  Cl  Cl19  1  0.24597596  0.85281033  0.22636396  1
  Sb  Sb20  1  0.96348421  0.82602965  0.26620742  1
  Sb  Sb21  1  0.77030837  0.26620742  0.17397035  1
  Sb  Sb22  1  0.21048614  0.73379258  0.82602965  1
  Sb  Sb23  1  0.05572128  0.17397035  0.73379258  1
