# generated using pymatgen
data_Li3Cr3(PO4)4
_symmetry_space_group_name_H-M   'P 1'
_cell_length_a   13.12398958
_cell_length_b   8.20593742
_cell_length_c   9.08073315
_cell_angle_alpha   89.90591008
_cell_angle_beta   86.26038098
_cell_angle_gamma   89.93810204
_symmetry_Int_Tables_number   1
_chemical_formula_structural   Li3Cr3(PO4)4
_chemical_formula_sum   'Li9 Cr9 P12 O48'
_cell_volume   975.86219642
_cell_formula_units_Z   3
loop_
 _symmetry_equiv_pos_site_id
 _symmetry_equiv_pos_as_xyz
  1  'x, y, z'
loop_
 _atom_site_type_symbol
 _atom_site_label
 _atom_site_symmetry_multiplicity
 _atom_site_fract_x
 _atom_site_fract_y
 _atom_site_fract_z
 _atom_site_occupancy
  Li  Li0  1  0.16659090  0.47571827  0.34082999  1
  Li  Li1  1  0.49982688  0.52043049  0.98931282  1
  Li  Li2  1  0.17120643  0.14647883  0.43858123  1
  Li  Li3  1  0.16341038  0.01019366  0.81794468  1
  Li  Li4  1  0.51055901  0.99827497  0.51531917  1
  Li  Li5  1  0.83455982  0.02562525  0.17779318  1
  Li  Li6  1  0.84129293  0.35468544  0.27596103  1
  Li  Li7  1  0.49448773  0.85552462  0.89282884  1
  Li  Li8  1  0.82866462  0.49115905  0.64867962  1
  Cr  Cr9  1  0.16881267  0.85474233  0.22813657  1
  Cr  Cr10  1  0.50010066  0.14605064  0.10586322  1
  Cr  Cr11  1  0.16690711  0.64265164  0.72595879  1
  Cr  Cr12  1  0.50607446  0.64690804  0.39390090  1
  Cr  Cr13  1  0.83305382  0.64312286  0.06339060  1
  Cr  Cr14  1  0.16107753  0.34895833  0.94174721  1
  Cr  Cr15  1  0.50297416  0.35394147  0.60809390  1
  Cr  Cr16  1  0.83121851  0.85613359  0.55750013  1
  Cr  Cr17  1  0.83204571  0.15020469  0.77308164  1
  P  P18  1  0.05225765  0.19077359  0.14491478  1
  P  P19  1  0.27904581  0.69977426  0.02475012  1
  P  P20  1  0.05497077  0.29344523  0.63686617  1
  P  P21  1  0.38818885  0.29934663  0.30835993  1
  P  P22  1  0.27868476  0.79276744  0.52147945  1
  P  P23  1  0.61259096  0.80425909  0.18922165  1
  P  P24  1  0.38950876  0.20647606  0.81270654  1
  P  P25  1  0.72201202  0.20627453  0.46942979  1
  P  P26  1  0.61200315  0.70657120  0.69697989  1
  P  P27  1  0.94387056  0.70651171  0.35424322  1
  P  P28  1  0.72157824  0.30340811  0.97676653  1
  P  P29  1  0.94357073  0.79397379  0.85836320  1
  O  O30  1  0.22156533  0.86932794  0.02036317  1
  O  O31  1  0.11073859  0.36206866  0.14609334  1
  O  O32  1  0.10600677  0.07100171  0.24662385  1
  O  O33  1  0.05837067  0.71895838  0.31439531  1
  O  O34  1  0.25162199  0.64948106  0.18872026  1
  O  O35  1  0.07155998  0.36479630  0.48400039  1
  O  O36  1  0.41563463  0.34947843  0.14434143  1
  O  O37  1  0.27707552  0.29705444  0.35600949  1
  O  O38  1  0.22874057  0.91095057  0.41534539  1
  O  O39  1  0.60741335  0.28516413  0.01696528  1
  O  O40  1  0.56639716  0.92911036  0.08655392  1
  O  O41  1  0.22308810  0.62132600  0.52285332  1
  O  O42  1  0.10727777  0.12962149  0.65169291  1
  O  O43  1  0.55412290  0.63553555  0.18574161  1
  O  O44  1  0.44430183  0.12866000  0.31185425  1
  O  O45  1  0.10609625  0.41963478  0.75201494  1
  O  O46  1  0.05736629  0.78459320  0.81161529  1
  O  O47  1  0.44801922  0.41786204  0.41280716  1
  O  O48  1  0.39324115  0.77975866  0.48140757  1
  O  O49  1  0.76637194  0.42882821  0.08057956  1
  O  O50  1  0.25338601  0.84349428  0.68565883  1
  O  O51  1  0.72672300  0.78604309  0.14780390  1
  O  O52  1  0.58989132  0.84598431  0.35654818  1
  O  O53  1  0.92133504  0.84536257  0.02154369  1
  O  O54  1  0.07916698  0.14824513  0.97690957  1
  O  O55  1  0.41398347  0.15471202  0.64914394  1
  O  O56  1  0.27459416  0.21895318  0.85156141  1
  O  O57  1  0.73574697  0.13509179  0.31625865  1
  O  O58  1  0.22014523  0.57950922  0.92063280  1
  O  O59  1  0.60637570  0.20720005  0.52467255  1
  O  O60  1  0.56130422  0.57920782  0.58331533  1
  O  O61  1  0.94033025  0.20526261  0.18595804  1
  O  O62  1  0.89515876  0.58643070  0.24794310  1
  O  O63  1  0.55852818  0.86909005  0.68210603  1
  O  O64  1  0.44556277  0.37686817  0.81207430  1
  O  O65  1  0.88600076  0.87553092  0.35254512  1
  O  O66  1  0.77331287  0.37040220  0.48263730  1
  O  O67  1  0.43851459  0.08801855  0.92030512  1
  O  O68  1  0.39007869  0.70437400  0.97713821  1
  O  O69  1  0.77475727  0.08151807  0.58377021  1
  O  O70  1  0.72761411  0.71038537  0.64253838  1
  O  O71  1  0.59744215  0.63637170  0.85080291  1
  O  O72  1  0.92001164  0.65745797  0.51881860  1
  O  O73  1  0.74428117  0.34594505  0.80971320  1
  O  O74  1  0.93961606  0.29205077  0.69173112  1
  O  O75  1  0.89106224  0.91726553  0.75316623  1
  O  O76  1  0.88768618  0.62565985  0.85442798  1
  O  O77  1  0.78123160  0.13596736  0.98129608  1
