# generated using pymatgen
data_Li6AlFeO6
_symmetry_space_group_name_H-M   'P 1'
_cell_length_a   9.35280100
_cell_length_b   5.39486914
_cell_length_c   9.76335818
_cell_angle_alpha   89.94632532
_cell_angle_beta   89.94889735
_cell_angle_gamma   29.99536083
_symmetry_Int_Tables_number   1
_chemical_formula_structural   Li6AlFeO6
_chemical_formula_sum   'Li12 Al2 Fe2 O12'
_cell_volume   246.28089716
_cell_formula_units_Z   2
loop_
 _symmetry_equiv_pos_site_id
 _symmetry_equiv_pos_as_xyz
  1  'x, y, z'
loop_
 _atom_site_type_symbol
 _atom_site_label
 _atom_site_symmetry_multiplicity
 _atom_site_fract_x
 _atom_site_fract_y
 _atom_site_fract_z
 _atom_site_occupancy
  Li  Li0  1  0.37990626  0.55870810  0.42581598  1
  Li  Li1  1  0.32048773  0.74187038  0.92328063  1
  Li  Li2  1  0.06645567  0.55448357  0.92610971  1
  Li  Li3  1  0.68724137  0.25159522  0.07585548  1
  Li  Li4  1  0.94248163  0.74320603  0.42647238  1
  Li  Li5  1  0.62901919  0.43177896  0.57724906  1
  Li  Li6  1  0.32468534  0.29321405  0.57805369  1
  Li  Li7  1  0.69018653  0.69041541  0.42284098  1
  Li  Li8  1  0.62845453  0.68430454  0.92444879  1
  Li  Li9  1  0.38260333  0.30104700  0.07720781  1
  Li  Li10  1  0.94221854  0.43507838  0.08021210  1
  Li  Li11  1  0.06846582  0.24561208  0.57768880  1
  Al  Al12  1  0.67179487  0.99358622  0.75150102  1
  Al  Al13  1  0.33913725  0.99278070  0.25164585  1
  Fe  Fe14  1  0.00551098  0.99171625  0.25102143  1
  Fe  Fe15  1  0.00508148  0.99247826  0.75109199  1
  O  O16  1  0.30021761  0.75354653  0.13504780  1
  O  O17  1  0.35750770  0.58636850  0.63459921  1
  O  O18  1  0.05968162  0.59248415  0.13454751  1
  O  O19  1  0.65359301  0.40181989  0.36838840  1
  O  O20  1  0.71110699  0.23280682  0.86755678  1
  O  O21  1  0.95191722  0.75223696  0.63451539  1
  O  O22  1  0.71165874  0.63634053  0.63476726  1
  O  O23  1  0.35329651  0.35292441  0.86798352  1
  O  O24  1  0.65369245  0.63991276  0.13496936  1
  O  O25  1  0.29974327  0.35005048  0.36789417  1
  O  O26  1  0.06147248  0.23255102  0.36769652  1
  O  O27  1  0.94695087  0.40372176  0.86787137  1
