# generated using pymatgen
data_K2OsCl6
_symmetry_space_group_name_H-M   'P 1'
_cell_length_a   7.05559598
_cell_length_b   7.05559598
_cell_length_c   7.05559598
_cell_angle_alpha   59.99999999
_cell_angle_beta   60.00000001
_cell_angle_gamma   59.99999998
_symmetry_Int_Tables_number   1
_chemical_formula_structural   K2OsCl6
_chemical_formula_sum   'K2 Os1 Cl6'
_cell_volume   248.36255239
_cell_formula_units_Z   1
loop_
 _symmetry_equiv_pos_site_id
 _symmetry_equiv_pos_as_xyz
  1  'x, y, z'
loop_
 _atom_site_type_symbol
 _atom_site_label
 _atom_site_symmetry_multiplicity
 _atom_site_fract_x
 _atom_site_fract_y
 _atom_site_fract_z
 _atom_site_occupancy
  Cl  Cl0  1  0.76433063  0.23566937  0.76433063  1
  Cl  Cl1  1  0.76433063  0.23566937  0.23566937  1
  Cl  Cl2  1  0.76433063  0.76433063  0.23566937  1
  Cl  Cl3  1  0.23566937  0.76433063  0.23566937  1
  Cl  Cl4  1  0.23566937  0.23566937  0.76433063  1
  Cl  Cl5  1  0.23566937  0.76433063  0.76433063  1
  K  K6  1  0.25000000  0.25000000  0.25000000  1
  K  K7  1  0.75000000  0.75000000  0.75000000  1
  Os  Os8  1  0.00000000  0.00000000  0.00000000  1
