# generated using pymatgen
data_Cs3Cu2I5
_symmetry_space_group_name_H-M   'P 1'
_cell_length_a   10.41957937
_cell_length_b   11.83941423
_cell_length_c   14.59253517
_cell_angle_alpha   90.00000000
_cell_angle_beta   90.00000000
_cell_angle_gamma   90.00000000
_symmetry_Int_Tables_number   1
_chemical_formula_structural   Cs3Cu2I5
_chemical_formula_sum   'Cs12 Cu8 I20'
_cell_volume   1800.16018321
_cell_formula_units_Z   4
loop_
 _symmetry_equiv_pos_site_id
 _symmetry_equiv_pos_as_xyz
  1  'x, y, z'
loop_
 _atom_site_type_symbol
 _atom_site_label
 _atom_site_symmetry_multiplicity
 _atom_site_fract_x
 _atom_site_fract_y
 _atom_site_fract_z
 _atom_site_occupancy
  Cu  Cu0  1  0.74071584  0.25000000  0.12669515  1
  Cu  Cu1  1  0.28681081  0.75000000  0.04418454  1
  Cu  Cu2  1  0.78681081  0.75000000  0.45581546  1
  Cu  Cu3  1  0.71318919  0.25000000  0.95581546  1
  Cu  Cu4  1  0.21318919  0.25000000  0.54418454  1
  Cu  Cu5  1  0.25928416  0.75000000  0.87330485  1
  Cu  Cu6  1  0.75928416  0.75000000  0.62669515  1
  Cu  Cu7  1  0.24071584  0.25000000  0.37330485  1
  I  I8  1  0.33894125  0.75000000  0.70953558  1
  I  I9  1  0.83894125  0.75000000  0.79046442  1
  I  I10  1  0.66105875  0.25000000  0.29046442  1
  I  I11  1  0.16105875  0.25000000  0.20953558  1
  I  I12  1  0.96719914  0.25000000  0.51303798  1
  I  I13  1  0.20335262  0.75000000  0.21069028  1
  I  I14  1  0.46719914  0.25000000  0.98696202  1
  I  I15  1  0.03280086  0.75000000  0.48696202  1
  I  I16  1  0.53280086  0.75000000  0.01303798  1
  I  I17  1  0.29664738  0.25000000  0.71069028  1
  I  I18  1  0.79664738  0.25000000  0.78930972  1
  I  I19  1  0.70335262  0.75000000  0.28930972  1
  I  I20  1  0.69189882  0.56258278  0.55066408  1
  I  I21  1  0.19189882  0.93741722  0.94933592  1
  I  I22  1  0.30810118  0.06258278  0.44933592  1
  I  I23  1  0.80810118  0.43741722  0.05066408  1
  I  I24  1  0.30810118  0.43741722  0.44933592  1
  I  I25  1  0.80810118  0.06258278  0.05066408  1
  I  I26  1  0.69189882  0.93741722  0.55066408  1
  I  I27  1  0.19189882  0.56258278  0.94933592  1
  Cs  Cs28  1  0.55263752  0.98731440  0.82387846  1
  Cs  Cs29  1  0.05263752  0.51268560  0.67612154  1
  Cs  Cs30  1  0.44736248  0.48731440  0.17612154  1
  Cs  Cs31  1  0.94736248  0.01268560  0.32387846  1
  Cs  Cs32  1  0.44736248  0.01268560  0.17612154  1
  Cs  Cs33  1  0.94736248  0.48731440  0.32387846  1
  Cs  Cs34  1  0.55263752  0.51268560  0.82387846  1
  Cs  Cs35  1  0.05263752  0.98731440  0.67612154  1
  Cs  Cs36  1  0.90662548  0.75000000  0.04841740  1
  Cs  Cs37  1  0.40662548  0.75000000  0.45158260  1
  Cs  Cs38  1  0.09337452  0.25000000  0.95158260  1
  Cs  Cs39  1  0.59337452  0.25000000  0.54841740  1
