# generated using pymatgen
data_KSb4F13
_symmetry_space_group_name_H-M   'P 1'
_cell_length_a   6.40137940
_cell_length_b   7.63984536
_cell_length_c   7.63984536
_cell_angle_alpha   79.89128199
_cell_angle_beta   65.23187981
_cell_angle_gamma   65.23187989
_symmetry_Int_Tables_number   1
_chemical_formula_structural   KSb4F13
_chemical_formula_sum   'K1 Sb4 F13'
_cell_volume   308.05244513
_cell_formula_units_Z   1
loop_
 _symmetry_equiv_pos_site_id
 _symmetry_equiv_pos_as_xyz
  1  'x, y, z'
loop_
 _atom_site_type_symbol
 _atom_site_label
 _atom_site_symmetry_multiplicity
 _atom_site_fract_x
 _atom_site_fract_y
 _atom_site_fract_z
 _atom_site_occupancy
  F  F0  1  0.66703577  0.33232327  0.86619656  1
  F  F1  1  0.46676767  0.86619656  0.66767673  1
  F  F2  1  0.00064096  0.13380344  0.33232327  1
  F  F3  1  0.86555560  0.66767673  0.13380344  1
  F  F4  1  0.23714228  0.77440221  0.07599719  1
  F  F5  1  0.75000000  0.50000000  0.50000000  1
  F  F6  1  0.23515853  0.45021036  0.28142939  1
  F  F7  1  0.48341208  0.28142939  0.54978964  1
  F  F8  1  0.31463111  0.71857061  0.45021036  1
  F  F9  1  0.96679829  0.54978964  0.71857061  1
  F  F10  1  0.08754168  0.22559779  0.92400281  1
  F  F11  1  0.98845551  0.92400281  0.77440221  1
  F  F12  1  0.68686053  0.07599719  0.22559779  1
  K  K13  1  0.50000000  0.00000000  0.00000000  1
  Sb  Sb14  1  0.70511317  0.31601113  0.28050083  1
  Sb  Sb15  1  0.01438600  0.28050083  0.68398887  1
  Sb  Sb16  1  0.97887570  0.71949917  0.31601113  1
  Sb  Sb17  1  0.30162513  0.68398887  0.71949917  1
