# generated using pymatgen
data_Cd(BO2)2
_symmetry_space_group_name_H-M   'P 1'
_cell_length_a   7.80156028
_cell_length_b   7.80156029
_cell_length_c   7.80156072
_cell_angle_alpha   96.73042498
_cell_angle_beta   96.73042494
_cell_angle_gamma   96.73042856
_symmetry_Int_Tables_number   1
_chemical_formula_structural   Cd(BO2)2
_chemical_formula_sum   'Cd6 B12 O24'
_cell_volume   464.16955706
_cell_formula_units_Z   6
loop_
 _symmetry_equiv_pos_site_id
 _symmetry_equiv_pos_as_xyz
  1  'x, y, z'
loop_
 _atom_site_type_symbol
 _atom_site_label
 _atom_site_symmetry_multiplicity
 _atom_site_fract_x
 _atom_site_fract_y
 _atom_site_fract_z
 _atom_site_occupancy
  Cd  Cd0  1  0.19162239  0.83058432  0.48828877  1
  Cd  Cd1  1  0.33111331  0.69220558  0.98822686  1
  Cd  Cd2  1  0.69220558  0.98822686  0.33111331  1
  Cd  Cd3  1  0.48828877  0.19162239  0.83058432  1
  Cd  Cd4  1  0.83058432  0.48828877  0.19162239  1
  Cd  Cd5  1  0.98822686  0.33111331  0.69220558  1
  B  B6  1  0.00344995  0.81803457  0.05235696  1
  B  B7  1  0.56480637  0.80691220  0.71989973  1
  B  B8  1  0.31700331  0.50261708  0.55031418  1
  B  B9  1  0.06410756  0.21758915  0.30681931  1
  B  B10  1  0.21758915  0.30681931  0.06410756  1
  B  B11  1  0.50261708  0.55031418  0.31700331  1
  B  B12  1  0.05235696  0.00344995  0.81803457  1
  B  B13  1  0.80691220  0.71989973  0.56480637  1
  B  B14  1  0.71989973  0.56480637  0.80691220  1
  B  B15  1  0.55031418  0.31700331  0.50261708  1
  B  B16  1  0.30681931  0.06410756  0.21758915  1
  B  B17  1  0.81803457  0.05235696  0.00344995  1
  O  O18  1  0.09190342  0.86736579  0.91291286  1
  O  O19  1  0.05706159  0.69028999  0.13374368  1
  O  O20  1  0.39774531  0.93223578  0.23973294  1
  O  O21  1  0.43214678  0.89648667  0.74285406  1
  O  O22  1  0.18905268  0.55725026  0.63195375  1
  O  O23  1  0.09111217  0.32534970  0.17653912  1
  O  O24  1  0.36645431  0.59068003  0.41088979  1
  O  O25  1  0.23973294  0.39774531  0.93223578  1
  O  O26  1  0.67646333  0.82697861  0.59313781  1
  O  O27  1  0.55725026  0.63195375  0.18905268  1
  O  O28  1  0.59313781  0.67646333  0.82697861  1
  O  O29  1  0.86736579  0.91291286  0.09190342  1
  O  O30  1  0.41088979  0.36645431  0.59068003  1
  O  O31  1  0.17653912  0.09111217  0.32534970  1
  O  O32  1  0.13374368  0.05706159  0.69028999  1
  O  O33  1  0.32534970  0.17653912  0.09111217  1
  O  O34  1  0.89648667  0.74285406  0.43214678  1
  O  O35  1  0.59068003  0.41088979  0.36645431  1
  O  O36  1  0.82697861  0.59313781  0.67646333  1
  O  O37  1  0.74285406  0.43214678  0.89648667  1
  O  O38  1  0.63195375  0.18905268  0.55725026  1
  O  O39  1  0.69028999  0.13374368  0.05706159  1
  O  O40  1  0.93223578  0.23973294  0.39774531  1
  O  O41  1  0.91291286  0.09190342  0.86736579  1
