# generated using pymatgen
data_Hg3(SCl)2
_symmetry_space_group_name_H-M   'P 1'
_cell_length_a   7.98592383
_cell_length_b   7.98592383
_cell_length_c   7.98592383
_cell_angle_alpha   109.47122064
_cell_angle_beta   109.47122064
_cell_angle_gamma   109.47122066
_symmetry_Int_Tables_number   1
_chemical_formula_structural   Hg3(SCl)2
_chemical_formula_sum   'Hg6 S4 Cl4'
_cell_volume   392.06096057
_cell_formula_units_Z   2
loop_
 _symmetry_equiv_pos_site_id
 _symmetry_equiv_pos_as_xyz
  1  'x, y, z'
loop_
 _atom_site_type_symbol
 _atom_site_label
 _atom_site_symmetry_multiplicity
 _atom_site_fract_x
 _atom_site_fract_y
 _atom_site_fract_z
 _atom_site_occupancy
  S  S0  1  0.00000000  0.97585246  0.50000000  1
  S  S1  1  0.50000000  0.00000000  0.97585246  1
  S  S2  1  0.97585246  0.50000000  0.00000000  1
  S  S3  1  0.52414754  0.52414754  0.52414754  1
  Cl  Cl4  1  0.00000000  0.48905176  0.50000000  1
  Cl  Cl5  1  0.50000000  0.00000000  0.48905176  1
  Cl  Cl6  1  0.01094824  0.01094824  0.01094824  1
  Cl  Cl7  1  0.48905176  0.50000000  0.00000000  1
  Hg  Hg8  1  0.75000000  0.94732587  0.19732587  1
  Hg  Hg9  1  0.30267413  0.25000000  0.55267413  1
  Hg  Hg10  1  0.55267413  0.30267413  0.25000000  1
  Hg  Hg11  1  0.19732587  0.75000000  0.94732587  1
  Hg  Hg12  1  0.94732587  0.19732587  0.75000000  1
  Hg  Hg13  1  0.25000000  0.55267413  0.30267413  1
