# generated using pymatgen
data_Sb6S2O15
_symmetry_space_group_name_H-M   'P 1'
_cell_length_a   5.96384656
_cell_length_b   11.41810241
_cell_length_c   11.41810240
_cell_angle_alpha   114.14645270
_cell_angle_beta   90.00000000
_cell_angle_gamma   90.00000000
_symmetry_Int_Tables_number   1
_chemical_formula_structural   Sb6S2O15
_chemical_formula_sum   'Sb12 S4 O30'
_cell_volume   709.49370240
_cell_formula_units_Z   2
loop_
 _symmetry_equiv_pos_site_id
 _symmetry_equiv_pos_as_xyz
  1  'x, y, z'
loop_
 _atom_site_type_symbol
 _atom_site_label
 _atom_site_symmetry_multiplicity
 _atom_site_fract_x
 _atom_site_fract_y
 _atom_site_fract_z
 _atom_site_occupancy
  O  O0  1  0.32915684  0.33968717  0.51530361  1
  O  O1  1  0.32915684  0.66031283  0.48469639  1
  O  O2  1  0.82915684  0.48469639  0.66031283  1
  O  O3  1  0.82915684  0.51530361  0.33968717  1
  O  O4  1  0.28225169  0.22709537  0.65786447  1
  O  O5  1  0.28225169  0.77290463  0.34213553  1
  O  O6  1  0.78225169  0.34213553  0.77290463  1
  O  O7  1  0.78225169  0.65786447  0.22709537  1
  O  O8  1  0.15017111  0.13016665  0.43825876  1
  O  O9  1  0.15017111  0.86983335  0.56174124  1
  O  O10  1  0.65017111  0.56174124  0.86983335  1
  O  O11  1  0.65017111  0.43825876  0.13016665  1
  O  O12  1  0.15863219  0.00000000  0.00000000  1
  O  O13  1  0.65863219  0.00000000  0.00000000  1
  O  O14  1  0.12040173  0.24110074  0.23889392  1
  O  O15  1  0.12040173  0.75889926  0.76110608  1
  O  O16  1  0.62040173  0.76110608  0.75889926  1
  O  O17  1  0.62040173  0.23889392  0.24110074  1
  O  O18  1  0.82881193  0.94920835  0.74280421  1
  O  O19  1  0.82881193  0.05079165  0.25719579  1
  O  O20  1  0.32881193  0.25719579  0.05079165  1
  O  O21  1  0.32881193  0.74280421  0.94920835  1
  O  O22  1  0.10748408  0.17213300  0.84388262  1
  O  O23  1  0.10748408  0.82786700  0.15611738  1
  O  O24  1  0.60748408  0.15611738  0.82786700  1
  O  O25  1  0.60748408  0.84388262  0.17213300  1
  O  O26  1  0.55329610  0.14762497  0.48150748  1
  O  O27  1  0.55329610  0.85237503  0.51849252  1
  O  O28  1  0.05329610  0.51849252  0.85237503  1
  O  O29  1  0.05329610  0.48150748  0.14762497  1
  S  S30  1  0.33733337  0.21518762  0.52454144  1
  S  S31  1  0.33733337  0.78481238  0.47545856  1
  S  S32  1  0.83733337  0.47545856  0.78481238  1
  S  S33  1  0.83733337  0.52454144  0.21518762  1
  Sb  Sb34  1  0.87521637  0.88067005  0.29709800  1
  Sb  Sb35  1  0.87521637  0.11932995  0.70290200  1
  Sb  Sb36  1  0.37521637  0.70290200  0.11932995  1
  Sb  Sb37  1  0.37521637  0.29709800  0.88067005  1
  Sb  Sb38  1  0.39657818  0.62458404  0.75692065  1
  Sb  Sb39  1  0.39657818  0.37541596  0.24307935  1
  Sb  Sb40  1  0.89657818  0.24307935  0.37541596  1
  Sb  Sb41  1  0.89657818  0.75692065  0.62458404  1
  Sb  Sb42  1  0.50981249  0.04261291  0.17329138  1
  Sb  Sb43  1  0.50981249  0.95738709  0.82670862  1
  Sb  Sb44  1  0.00981249  0.82670862  0.95738709  1
  Sb  Sb45  1  0.00981249  0.17329138  0.04261291  1
