# generated using pymatgen
data_Re(AgCl3)2
_symmetry_space_group_name_H-M   'P 1'
_cell_length_a   7.16688767
_cell_length_b   7.16688767
_cell_length_c   7.16688767
_cell_angle_alpha   56.06408532
_cell_angle_beta   56.06408532
_cell_angle_gamma   56.06408532
_symmetry_Int_Tables_number   1
_chemical_formula_structural   Re(AgCl3)2
_chemical_formula_sum   'Re1 Ag2 Cl6'
_cell_volume   236.57323277
_cell_formula_units_Z   1
loop_
 _symmetry_equiv_pos_site_id
 _symmetry_equiv_pos_as_xyz
  1  'x, y, z'
loop_
 _atom_site_type_symbol
 _atom_site_label
 _atom_site_symmetry_multiplicity
 _atom_site_fract_x
 _atom_site_fract_y
 _atom_site_fract_z
 _atom_site_occupancy
  Cl  Cl0  1  0.84759299  0.27480902  0.60753857  1
  Cl  Cl1  1  0.27480902  0.60753857  0.84759299  1
  Cl  Cl2  1  0.60753857  0.84759299  0.27480902  1
  Cl  Cl3  1  0.39246143  0.15240701  0.72519098  1
  Cl  Cl4  1  0.72519098  0.39246143  0.15240701  1
  Cl  Cl5  1  0.15240701  0.72519098  0.39246143  1
  Ag  Ag6  1  0.23429434  0.23429434  0.23429434  1
  Ag  Ag7  1  0.76570566  0.76570566  0.76570566  1
  Re  Re8  1  0.50000000  0.50000000  0.50000000  1
