# generated using pymatgen
data_Li4Co4(OF3)3
_symmetry_space_group_name_H-M   'P 1'
_cell_length_a   5.07652813
_cell_length_b   5.58809079
_cell_length_c   8.92870199
_cell_angle_alpha   86.31470584
_cell_angle_beta   75.55686187
_cell_angle_gamma   118.05901260
_symmetry_Int_Tables_number   1
_chemical_formula_structural   Li4Co4(OF3)3
_chemical_formula_sum   'Li4 Co4 O3 F9'
_cell_volume   211.51161750
_cell_formula_units_Z   1
loop_
 _symmetry_equiv_pos_site_id
 _symmetry_equiv_pos_as_xyz
  1  'x, y, z'
loop_
 _atom_site_type_symbol
 _atom_site_label
 _atom_site_symmetry_multiplicity
 _atom_site_fract_x
 _atom_site_fract_y
 _atom_site_fract_z
 _atom_site_occupancy
  Li  Li0  1  0.31989570  0.75316073  0.15072115  1
  Li  Li1  1  0.78985883  0.99130982  0.40212459  1
  Li  Li2  1  0.30230547  0.25146877  0.64975829  1
  Li  Li3  1  0.79247145  0.49972457  0.91099084  1
  Co  Co4  1  0.97857311  0.50711288  0.49910765  1
  Co  Co5  1  0.04499515  0.03245475  0.00294472  1
  Co  Co6  1  0.50958392  0.26560911  0.25296006  1
  Co  Co7  1  0.48376077  0.78692795  0.75733222  1
  O  O8  1  0.26660779  0.95088086  0.81309941  1
  O  O9  1  0.39477463  0.19602280  0.08252768  1
  O  O10  1  0.61460243  0.30721392  0.42671744  1
  F  F11  1  0.10814068  0.88465729  0.37065036  1
  F  F12  1  0.24409982  0.44682504  0.30399796  1
  F  F13  1  0.38844293  0.68849045  0.55504675  1
  F  F14  1  0.11312791  0.38354676  0.86008763  1
  F  F15  1  0.90889642  0.61915372  0.11590530  1
  F  F16  1  0.63164134  0.79849897  0.94832893  1
  F  F17  1  0.71587567  0.55658503  0.70243239  1
  F  F18  1  0.72720073  0.03260974  0.19926925  1
  F  F19  1  0.89558526  0.12384585  0.61121939  1
