# generated using pymatgen
data_Bi(PO3)3
_symmetry_space_group_name_H-M   'P 1'
_cell_length_a   7.04299119
_cell_length_b   7.27803230
_cell_length_c   13.89734934
_cell_angle_alpha   93.09892590
_cell_angle_beta   90.00000000
_cell_angle_gamma   90.00000000
_symmetry_Int_Tables_number   1
_chemical_formula_structural   Bi(PO3)3
_chemical_formula_sum   'Bi4 P12 O36'
_cell_volume   711.32415759
_cell_formula_units_Z   4
loop_
 _symmetry_equiv_pos_site_id
 _symmetry_equiv_pos_as_xyz
  1  'x, y, z'
loop_
 _atom_site_type_symbol
 _atom_site_label
 _atom_site_symmetry_multiplicity
 _atom_site_fract_x
 _atom_site_fract_y
 _atom_site_fract_z
 _atom_site_occupancy
  O  O0  1  0.34444670  0.56914410  0.59572251  1
  O  O1  1  0.84444670  0.43085590  0.90427749  1
  O  O2  1  0.65555330  0.43085590  0.40427749  1
  O  O3  1  0.15555330  0.56914410  0.09572251  1
  O  O4  1  0.39058336  0.91194197  0.57297389  1
  O  O5  1  0.89058336  0.08805803  0.92702611  1
  O  O6  1  0.60941664  0.08805803  0.42702611  1
  O  O7  1  0.10941664  0.91194197  0.07297389  1
  O  O8  1  0.03653707  0.20564960  0.59044977  1
  O  O9  1  0.53653707  0.79435040  0.90955023  1
  O  O10  1  0.96346293  0.79435040  0.40955023  1
  O  O11  1  0.46346293  0.20564960  0.09044977  1
  O  O12  1  0.18848764  0.70506949  0.87241942  1
  O  O13  1  0.68848764  0.29493051  0.62758058  1
  O  O14  1  0.81151236  0.29493051  0.12758058  1
  O  O15  1  0.31151236  0.70506949  0.37241942  1
  O  O16  1  0.17529501  0.21726506  0.23053173  1
  O  O17  1  0.67529501  0.78273494  0.26946827  1
  O  O18  1  0.82470499  0.78273494  0.76946827  1
  O  O19  1  0.32470499  0.21726506  0.73053173  1
  O  O20  1  0.08868097  0.79888801  0.23942484  1
  O  O21  1  0.58868097  0.20111199  0.26057516  1
  O  O22  1  0.91131903  0.20111199  0.76057516  1
  O  O23  1  0.41131903  0.79888801  0.73942484  1
  O  O24  1  0.22925758  0.27989717  0.41068811  1
  O  O25  1  0.72925758  0.72010283  0.08931189  1
  O  O26  1  0.77074242  0.72010283  0.58931189  1
  O  O27  1  0.27074242  0.27989717  0.91068811  1
  O  O28  1  0.03211821  0.50120707  0.31308706  1
  O  O29  1  0.53211821  0.49879293  0.18691294  1
  O  O30  1  0.96788179  0.49879293  0.68691294  1
  O  O31  1  0.46788179  0.50120707  0.81308706  1
  O  O32  1  0.40362065  0.80738678  0.15450139  1
  O  O33  1  0.90362065  0.19261322  0.34549861  1
  O  O34  1  0.59637935  0.19261322  0.84549861  1
  O  O35  1  0.09637935  0.80738678  0.65450139  1
  P  P36  1  0.31532775  0.76311252  0.63541528  1
  P  P37  1  0.81532775  0.23688748  0.86458472  1
  P  P38  1  0.68467225  0.23688748  0.36458472  1
  P  P39  1  0.18467225  0.76311252  0.13541528  1
  P  P40  1  0.39163861  0.70595334  0.84205350  1
  P  P41  1  0.89163861  0.29404666  0.65794650  1
  P  P42  1  0.60836139  0.29404666  0.15794650  1
  P  P43  1  0.10836139  0.70595334  0.34205350  1
  P  P44  1  0.39870262  0.29406901  0.82615111  1
  P  P45  1  0.89870262  0.70593099  0.67384889  1
  P  P46  1  0.60129738  0.70593099  0.17384889  1
  P  P47  1  0.10129738  0.29406901  0.32615111  1
  Bi  Bi48  1  0.36333316  0.24053218  0.56945307  1
  Bi  Bi49  1  0.86333316  0.75946782  0.93054693  1
  Bi  Bi50  1  0.63666684  0.75946782  0.43054693  1
  Bi  Bi51  1  0.13666684  0.24053218  0.06945307  1
