# generated using pymatgen
data_Sn3BrF5
_symmetry_space_group_name_H-M   'P 1'
_cell_length_a   4.33112124
_cell_length_b   12.91274237
_cell_length_c   12.99505050
_cell_angle_alpha   90.00000000
_cell_angle_beta   89.90216859
_cell_angle_gamma   90.00000000
_symmetry_Int_Tables_number   1
_chemical_formula_structural   Sn3BrF5
_chemical_formula_sum   'Sn12 Br4 F20'
_cell_volume   726.76861680
_cell_formula_units_Z   4
loop_
 _symmetry_equiv_pos_site_id
 _symmetry_equiv_pos_as_xyz
  1  'x, y, z'
loop_
 _atom_site_type_symbol
 _atom_site_label
 _atom_site_symmetry_multiplicity
 _atom_site_fract_x
 _atom_site_fract_y
 _atom_site_fract_z
 _atom_site_occupancy
  F  F0  1  0.51695772  0.34673888  0.65774833  1
  F  F1  1  0.98304228  0.84673888  0.84225167  1
  F  F2  1  0.48304228  0.65326112  0.34225167  1
  F  F3  1  0.01695772  0.15326112  0.15774833  1
  F  F4  1  0.99943777  0.01090389  0.62414150  1
  F  F5  1  0.50056223  0.51090389  0.87585850  1
  F  F6  1  0.00056223  0.98909611  0.37585850  1
  F  F7  1  0.49943777  0.48909611  0.12414150  1
  F  F8  1  0.07516736  0.37916312  0.98778928  1
  F  F9  1  0.42483264  0.87916312  0.51221072  1
  F  F10  1  0.92483264  0.62083688  0.01221072  1
  F  F11  1  0.57516736  0.12083688  0.48778928  1
  F  F12  1  0.01902206  0.22680539  0.60457240  1
  F  F13  1  0.48097794  0.72680539  0.89542760  1
  F  F14  1  0.98097794  0.77319461  0.39542760  1
  F  F15  1  0.51902206  0.27319461  0.10457240  1
  F  F16  1  0.52908633  0.10024569  0.27349674  1
  F  F17  1  0.97091367  0.60024569  0.22650326  1
  F  F18  1  0.47091367  0.89975431  0.72650326  1
  F  F19  1  0.02908633  0.39975431  0.77349674  1
  Br  Br20  1  0.01180486  0.12432517  0.87720322  1
  Br  Br21  1  0.48819514  0.62432517  0.62279678  1
  Br  Br22  1  0.98819514  0.87567483  0.12279678  1
  Br  Br23  1  0.51180486  0.37567483  0.37720322  1
  Sn  Sn24  1  0.63634326  0.12496669  0.65558141  1
  Sn  Sn25  1  0.86365674  0.62496669  0.84441859  1
  Sn  Sn26  1  0.36365674  0.87503331  0.34441859  1
  Sn  Sn27  1  0.13634326  0.37503331  0.15558141  1
  Sn  Sn28  1  0.41961062  0.34258706  0.86788522  1
  Sn  Sn29  1  0.08038938  0.84258706  0.63211478  1
  Sn  Sn30  1  0.58038938  0.65741294  0.13211478  1
  Sn  Sn31  1  0.91961062  0.15741294  0.36788522  1
  Sn  Sn32  1  0.06147212  0.39812684  0.60217931  1
  Sn  Sn33  1  0.43852788  0.89812684  0.89782069  1
  Sn  Sn34  1  0.93852788  0.60187316  0.39782069  1
  Sn  Sn35  1  0.56147212  0.10187316  0.10217931  1
