# generated using pymatgen
data_UBr4
_symmetry_space_group_name_H-M   'P 1'
_cell_length_a   7.65355483
_cell_length_b   7.20690273
_cell_length_c   7.20690273
_cell_angle_alpha   76.15618906
_cell_angle_beta   87.47129547
_cell_angle_gamma   87.47129551
_symmetry_Int_Tables_number   1
_chemical_formula_structural   UBr4
_chemical_formula_sum   'U2 Br8'
_cell_volume   385.36730867
_cell_formula_units_Z   2
loop_
 _symmetry_equiv_pos_site_id
 _symmetry_equiv_pos_as_xyz
  1  'x, y, z'
loop_
 _atom_site_type_symbol
 _atom_site_label
 _atom_site_symmetry_multiplicity
 _atom_site_fract_x
 _atom_site_fract_y
 _atom_site_fract_z
 _atom_site_occupancy
  Br  Br0  1  0.34878375  0.55026765  0.16843414  1
  Br  Br1  1  0.65121625  0.83156586  0.44973235  1
  Br  Br2  1  0.73198893  0.94985377  0.94985377  1
  Br  Br3  1  0.26801107  0.05014623  0.05014623  1
  Br  Br4  1  0.83917266  0.32281726  0.32281726  1
  Br  Br5  1  0.16082734  0.67718274  0.67718274  1
  Br  Br6  1  0.34878375  0.16843414  0.55026765  1
  Br  Br7  1  0.65121625  0.44973235  0.83156586  1
  U  U8  1  0.44224713  0.80404162  0.80404162  1
  U  U9  1  0.55775287  0.19595838  0.19595838  1
