# generated using pymatgen
data_B10(Pb2O7)3
_symmetry_space_group_name_H-M   'P 1'
_cell_length_a   6.95341847
_cell_length_b   7.10452869
_cell_length_c   11.40521252
_cell_angle_alpha   82.97664617
_cell_angle_beta   77.84504572
_cell_angle_gamma   60.93091139
_symmetry_Int_Tables_number   1
_chemical_formula_structural   B10(Pb2O7)3
_chemical_formula_sum   'B10 Pb6 O21'
_cell_volume   481.28240845
_cell_formula_units_Z   1
loop_
 _symmetry_equiv_pos_site_id
 _symmetry_equiv_pos_as_xyz
  1  'x, y, z'
loop_
 _atom_site_type_symbol
 _atom_site_label
 _atom_site_symmetry_multiplicity
 _atom_site_fract_x
 _atom_site_fract_y
 _atom_site_fract_z
 _atom_site_occupancy
  B  B0  1  0.21667122  0.87094956  0.94445952  1
  B  B1  1  0.78332878  0.12905044  0.05554048  1
  B  B2  1  0.52788429  0.67180332  0.57541383  1
  B  B3  1  0.47211571  0.32819668  0.42458617  1
  B  B4  1  0.72257793  0.17657999  0.75740162  1
  B  B5  1  0.27742207  0.82342001  0.24259838  1
  B  B6  1  0.83180360  0.46463497  0.70159454  1
  B  B7  1  0.16819640  0.53536503  0.29840546  1
  B  B8  1  0.44473176  0.56831777  0.79628516  1
  B  B9  1  0.55526824  0.43168223  0.20371484  1
  O  O10  1  0.76562435  0.96585247  0.76015541  1
  O  O11  1  0.88600593  0.23268868  0.70537466  1
  O  O12  1  0.97110030  0.51955650  0.28945974  1
  O  O13  1  0.02889970  0.48044350  0.71054026  1
  O  O14  1  0.24569183  0.43023654  0.41655047  1
  O  O15  1  0.11399407  0.76731132  0.29462534  1
  O  O16  1  0.55183705  0.21978460  0.52435996  1
  O  O17  1  0.44816295  0.78021540  0.47564004  1
  O  O18  1  0.62771890  0.33436665  0.32410623  1
  O  O19  1  0.37228110  0.66563335  0.67589377  1
  O  O20  1  0.35200258  0.42357639  0.20068671  1
  O  O21  1  0.64799742  0.57642361  0.79931329  1
  O  O22  1  0.73850612  0.31578874  0.10792042  1
  O  O23  1  0.26149388  0.68421126  0.89207958  1
  O  O24  1  0.62997030  0.06017999  0.05642107  1
  O  O25  1  0.37002970  0.93982001  0.94357893  1
  O  O26  1  0.00000000  0.00000000  0.00000000  1
  O  O27  1  0.50109677  0.33251997  0.79939704  1
  O  O28  1  0.49890323  0.66748003  0.20060296  1
  O  O29  1  0.75430817  0.56976346  0.58344953  1
  O  O30  1  0.23437565  0.03414753  0.23984459  1
  Pb  Pb31  1  0.75513634  0.73840152  0.93258372  1
  Pb  Pb32  1  0.24486366  0.26159848  0.06741628  1
  Pb  Pb33  1  0.03845221  0.75780030  0.59092139  1
  Pb  Pb34  1  0.96154779  0.24219970  0.40907861  1
  Pb  Pb35  1  0.34625493  0.14471570  0.69715990  1
  Pb  Pb36  1  0.65374507  0.85528430  0.30284010  1
