# generated using pymatgen
data_RbTlF4
_symmetry_space_group_name_H-M   'P 1'
_cell_length_a   6.45444436
_cell_length_b   8.47228643
_cell_length_c   8.56395919
_cell_angle_alpha   90.00000000
_cell_angle_beta   90.00000000
_cell_angle_gamma   90.00000000
_symmetry_Int_Tables_number   1
_chemical_formula_structural   RbTlF4
_chemical_formula_sum   'Rb4 Tl4 F16'
_cell_volume   468.31069963
_cell_formula_units_Z   4
loop_
 _symmetry_equiv_pos_site_id
 _symmetry_equiv_pos_as_xyz
  1  'x, y, z'
loop_
 _atom_site_type_symbol
 _atom_site_label
 _atom_site_symmetry_multiplicity
 _atom_site_fract_x
 _atom_site_fract_y
 _atom_site_fract_z
 _atom_site_occupancy
  Rb  Rb0  1  0.49077532  0.18993688  0.76367021  1
  Rb  Rb1  1  0.50922468  0.81006312  0.26367021  1
  Rb  Rb2  1  0.50922468  0.68993688  0.76367021  1
  Rb  Rb3  1  0.49077532  0.31006312  0.26367021  1
  Tl  Tl4  1  0.99964259  0.00241862  0.01371241  1
  Tl  Tl5  1  0.00035741  0.99758138  0.51371241  1
  Tl  Tl6  1  0.00035741  0.50241862  0.01371241  1
  Tl  Tl7  1  0.99964259  0.49758138  0.51371241  1
  F  F8  1  0.70084830  0.42434427  0.57865137  1
  F  F9  1  0.29915170  0.57565573  0.07865137  1
  F  F10  1  0.29915170  0.92434427  0.57865137  1
  F  F11  1  0.70084830  0.07565573  0.07865137  1
  F  F12  1  0.29798387  0.56953682  0.44550018  1
  F  F13  1  0.70201613  0.43046318  0.94550018  1
  F  F14  1  0.70201613  0.06953682  0.44550018  1
  F  F15  1  0.29798387  0.93046318  0.94550018  1
  F  F16  1  0.13306657  0.25234891  0.01520429  1
  F  F17  1  0.86693343  0.74765109  0.51520429  1
  F  F18  1  0.86693343  0.75234891  0.01520429  1
  F  F19  1  0.13306657  0.24765109  0.51520429  1
  F  F20  1  0.88887425  0.02464728  0.76326154  1
  F  F21  1  0.11112475  0.97535272  0.26326154  1
  F  F22  1  0.11112475  0.52464728  0.76326154  1
  F  F23  1  0.88887425  0.47535272  0.26326154  1
