# generated using pymatgen
data_TlCl2
_symmetry_space_group_name_H-M   'P 1'
_cell_length_a   7.16486143
_cell_length_b   7.16486143
_cell_length_c   9.44554136
_cell_angle_alpha   112.28860487
_cell_angle_beta   112.28860488
_cell_angle_gamma   90.00000000
_symmetry_Int_Tables_number   1
_chemical_formula_structural   TlCl2
_chemical_formula_sum   'Tl4 Cl8'
_cell_volume   409.23759825
_cell_formula_units_Z   4
loop_
 _symmetry_equiv_pos_site_id
 _symmetry_equiv_pos_as_xyz
  1  'x, y, z'
loop_
 _atom_site_type_symbol
 _atom_site_label
 _atom_site_symmetry_multiplicity
 _atom_site_fract_x
 _atom_site_fract_y
 _atom_site_fract_z
 _atom_site_occupancy
  Cl  Cl0  1  0.28535323  0.44648773  0.08016042  1
  Cl  Cl1  1  0.63367269  0.78535323  0.58016042  1
  Cl  Cl2  1  0.94648773  0.29480719  0.58016042  1
  Cl  Cl3  1  0.79480719  0.13367269  0.08016042  1
  Cl  Cl4  1  0.20519281  0.86632731  0.91983958  1
  Cl  Cl5  1  0.05351227  0.70519281  0.41983958  1
  Cl  Cl6  1  0.36632731  0.21464677  0.41983958  1
  Cl  Cl7  1  0.71464677  0.55351227  0.91983958  1
  Tl  Tl8  1  0.62500000  0.87500000  0.25000000  1
  Tl  Tl9  1  0.37500000  0.12500000  0.75000000  1
  Tl  Tl10  1  0.12500000  0.37500000  0.25000000  1
  Tl  Tl11  1  0.87500000  0.62500000  0.75000000  1
