# generated using pymatgen
data_GdBr3
_symmetry_space_group_name_H-M   'P 1'
_cell_length_a   7.46968883
_cell_length_b   7.36784285
_cell_length_c   7.36784285
_cell_angle_alpha   120.10348384
_cell_angle_beta   98.77789176
_cell_angle_gamma   98.77789177
_symmetry_Int_Tables_number   1
_chemical_formula_structural   GdBr3
_chemical_formula_sum   'Gd2 Br6'
_cell_volume   334.00824121
_cell_formula_units_Z   2
loop_
 _symmetry_equiv_pos_site_id
 _symmetry_equiv_pos_as_xyz
  1  'x, y, z'
loop_
 _atom_site_type_symbol
 _atom_site_label
 _atom_site_symmetry_multiplicity
 _atom_site_fract_x
 _atom_site_fract_y
 _atom_site_fract_z
 _atom_site_occupancy
  Br  Br0  1  0.22829295  0.93733984  0.57048206  1
  Br  Br1  1  0.77170705  0.42951794  0.06266016  1
  Br  Br2  1  0.77120500  0.79560296  0.79560296  1
  Br  Br3  1  0.22879500  0.20439704  0.20439704  1
  Br  Br4  1  0.22829295  0.57048206  0.93733984  1
  Br  Br5  1  0.77170705  0.06266016  0.42951794  1
  Gd  Gd6  1  0.00000000  0.16631756  0.83368244  1
  Gd  Gd7  1  0.00000000  0.83368244  0.16631756  1
