# generated using pymatgen
data_Ga4Bi2O9
_symmetry_space_group_name_H-M   'P 1'
_cell_length_a   6.00486839
_cell_length_b   8.03925842
_cell_length_c   8.44455230
_cell_angle_alpha   90.00000000
_cell_angle_beta   90.00000000
_cell_angle_gamma   90.00000000
_symmetry_Int_Tables_number   1
_chemical_formula_structural   Ga4Bi2O9
_chemical_formula_sum   'Ga8 Bi4 O18'
_cell_volume   407.65813404
_cell_formula_units_Z   2
loop_
 _symmetry_equiv_pos_site_id
 _symmetry_equiv_pos_as_xyz
  1  'x, y, z'
loop_
 _atom_site_type_symbol
 _atom_site_label
 _atom_site_symmetry_multiplicity
 _atom_site_fract_x
 _atom_site_fract_y
 _atom_site_fract_z
 _atom_site_occupancy
  O  O0  1  0.50000000  0.50000000  0.00000000  1
  O  O1  1  0.50000000  0.00000000  0.50000000  1
  O  O2  1  0.24356604  0.87311170  0.20951979  1
  O  O3  1  0.24356604  0.12688830  0.79048021  1
  O  O4  1  0.75643396  0.37311170  0.29048021  1
  O  O5  1  0.75643396  0.62688830  0.70951979  1
  O  O6  1  0.75643396  0.12688830  0.79048021  1
  O  O7  1  0.75643396  0.87311170  0.20951979  1
  O  O8  1  0.24356604  0.62688830  0.70951979  1
  O  O9  1  0.24356604  0.37311170  0.29048021  1
  O  O10  1  0.50000000  0.36746720  0.59156074  1
  O  O11  1  0.50000000  0.63253280  0.40843926  1
  O  O12  1  0.00000000  0.14970304  0.06446172  1
  O  O13  1  0.00000000  0.85029696  0.93553828  1
  O  O14  1  0.00000000  0.64970304  0.43553828  1
  O  O15  1  0.00000000  0.35029696  0.56446172  1
  O  O16  1  0.50000000  0.13253280  0.09156074  1
  O  O17  1  0.50000000  0.86746720  0.90843926  1
  Ga  Ga18  1  0.50000000  0.14855849  0.66230306  1
  Ga  Ga19  1  0.50000000  0.85144151  0.33769694  1
  Ga  Ga20  1  0.50000000  0.64855849  0.83769694  1
  Ga  Ga21  1  0.50000000  0.35144151  0.16230306  1
  Ga  Ga22  1  0.25866066  0.50000000  0.50000000  1
  Ga  Ga23  1  0.74133934  0.00000000  0.00000000  1
  Ga  Ga24  1  0.74133934  0.50000000  0.50000000  1
  Ga  Ga25  1  0.25866066  0.00000000  0.00000000  1
  Bi  Bi26  1  0.00000000  0.32322992  0.82663449  1
  Bi  Bi27  1  0.00000000  0.67677008  0.17336551  1
  Bi  Bi28  1  0.00000000  0.82322992  0.67336551  1
  Bi  Bi29  1  0.00000000  0.17677008  0.32663449  1
