# generated using pymatgen
data_Sc3Co
_symmetry_space_group_name_H-M   'P 1'
_cell_length_a   5.81424691
_cell_length_b   8.59064417
_cell_length_c   13.01675562
_cell_angle_alpha   90.00000000
_cell_angle_beta   90.00000000
_cell_angle_gamma   90.00000000
_symmetry_Int_Tables_number   1
_chemical_formula_structural   Sc3Co
_chemical_formula_sum   'Sc24 Co8'
_cell_volume   650.16255399
_cell_formula_units_Z   8
loop_
 _symmetry_equiv_pos_site_id
 _symmetry_equiv_pos_as_xyz
  1  'x, y, z'
loop_
 _atom_site_type_symbol
 _atom_site_label
 _atom_site_symmetry_multiplicity
 _atom_site_fract_x
 _atom_site_fract_y
 _atom_site_fract_z
 _atom_site_occupancy
  Sc  Sc0  1  0.54762607  0.75000000  0.64600915  1
  Sc  Sc1  1  0.04762607  0.25000000  0.85399085  1
  Sc  Sc2  1  0.45237393  0.25000000  0.35399085  1
  Sc  Sc3  1  0.95237393  0.75000000  0.14600915  1
  Sc  Sc4  1  0.78646928  0.75000000  0.89094364  1
  Sc  Sc5  1  0.28646928  0.25000000  0.60905636  1
  Sc  Sc6  1  0.21353072  0.25000000  0.10905636  1
  Sc  Sc7  1  0.71353072  0.75000000  0.39094364  1
  Sc  Sc8  1  0.40752381  0.93268768  0.21261875  1
  Sc  Sc9  1  0.90752381  0.06731232  0.28738125  1
  Sc  Sc10  1  0.59247619  0.43268768  0.78738125  1
  Sc  Sc11  1  0.09247619  0.56731232  0.71261875  1
  Sc  Sc12  1  0.59247619  0.06731232  0.78738125  1
  Sc  Sc13  1  0.09247619  0.93268768  0.71261875  1
  Sc  Sc14  1  0.40752381  0.56731232  0.21261875  1
  Sc  Sc15  1  0.90752381  0.43268768  0.28738125  1
  Sc  Sc16  1  0.24490186  0.93569305  0.46457288  1
  Sc  Sc17  1  0.74490186  0.06430695  0.03542712  1
  Sc  Sc18  1  0.75509814  0.43569305  0.53542712  1
  Sc  Sc19  1  0.25509814  0.56430695  0.96457288  1
  Sc  Sc20  1  0.75509814  0.06430695  0.53542712  1
  Sc  Sc21  1  0.25509814  0.93569305  0.96457288  1
  Sc  Sc22  1  0.24490186  0.56430695  0.46457288  1
  Sc  Sc23  1  0.74490186  0.43569305  0.03542712  1
  Co  Co24  1  0.94613647  0.75000000  0.55951422  1
  Co  Co25  1  0.44613647  0.25000000  0.94048578  1
  Co  Co26  1  0.05386353  0.25000000  0.44048578  1
  Co  Co27  1  0.55386353  0.75000000  0.05951422  1
  Co  Co28  1  0.37260177  0.75000000  0.82016475  1
  Co  Co29  1  0.87260177  0.25000000  0.67983525  1
  Co  Co30  1  0.62739823  0.25000000  0.17983525  1
  Co  Co31  1  0.12739823  0.75000000  0.32016475  1
