# generated using pymatgen
data_Ga(Ag3Se2)3
_symmetry_space_group_name_H-M   'P 1'
_cell_length_a   11.32240034
_cell_length_b   11.32240034
_cell_length_c   11.32240034
_cell_angle_alpha   90.00000000
_cell_angle_beta   90.00000000
_cell_angle_gamma   90.00000000
_symmetry_Int_Tables_number   1
_chemical_formula_structural   Ga(Ag3Se2)3
_chemical_formula_sum   'Ga4 Ag36 Se24'
_cell_volume   1451.49491966
_cell_formula_units_Z   4
loop_
 _symmetry_equiv_pos_site_id
 _symmetry_equiv_pos_as_xyz
  1  'x, y, z'
loop_
 _atom_site_type_symbol
 _atom_site_label
 _atom_site_symmetry_multiplicity
 _atom_site_fract_x
 _atom_site_fract_y
 _atom_site_fract_z
 _atom_site_occupancy
  Ga  Ga0  1  0.50843495  0.50843495  0.50843495  1
  Ga  Ga1  1  0.99156505  0.49156505  0.00843495  1
  Ga  Ga2  1  0.00843495  0.99156505  0.49156505  1
  Ga  Ga3  1  0.49156505  0.00843495  0.99156505  1
  Se  Se4  1  0.02154302  0.02154302  0.02154302  1
  Se  Se5  1  0.47845698  0.97845698  0.52154302  1
  Se  Se6  1  0.52154302  0.47845698  0.97845698  1
  Se  Se7  1  0.97845698  0.52154302  0.47845698  1
  Se  Se8  1  0.63101078  0.63101078  0.63101078  1
  Se  Se9  1  0.86898922  0.36898922  0.13101078  1
  Se  Se10  1  0.13101078  0.86898922  0.36898922  1
  Se  Se11  1  0.36898922  0.13101078  0.86898922  1
  Se  Se12  1  0.26217658  0.26217658  0.26217658  1
  Se  Se13  1  0.23782342  0.73782342  0.76217658  1
  Se  Se14  1  0.76217658  0.23782342  0.73782342  1
  Se  Se15  1  0.73782342  0.76217658  0.23782342  1
  Se  Se16  1  0.39892039  0.62693987  0.36630518  1
  Se  Se17  1  0.36630518  0.39892039  0.62693987  1
  Se  Se18  1  0.62693987  0.36630518  0.39892039  1
  Se  Se19  1  0.87306013  0.63369482  0.89892039  1
  Se  Se20  1  0.86630518  0.10107961  0.37306013  1
  Se  Se21  1  0.37306013  0.86630518  0.10107961  1
  Se  Se22  1  0.13369482  0.60107961  0.12693987  1
  Se  Se23  1  0.63369482  0.89892039  0.87306013  1
  Se  Se24  1  0.12693987  0.13369482  0.60107961  1
  Se  Se25  1  0.89892039  0.87306013  0.63369482  1
  Se  Se26  1  0.60107961  0.12693987  0.13369482  1
  Se  Se27  1  0.10107961  0.37306013  0.86630518  1
  Ag  Ag28  1  0.82463624  0.07003574  0.13449396  1
  Ag  Ag29  1  0.13449396  0.82463624  0.07003574  1
  Ag  Ag30  1  0.07003574  0.13449396  0.82463624  1
  Ag  Ag31  1  0.42996426  0.86550604  0.32463624  1
  Ag  Ag32  1  0.63449396  0.67536376  0.92996426  1
  Ag  Ag33  1  0.92996426  0.63449396  0.67536376  1
  Ag  Ag34  1  0.36550604  0.17536376  0.57003574  1
  Ag  Ag35  1  0.86550604  0.32463624  0.42996426  1
  Ag  Ag36  1  0.57003574  0.36550604  0.17536376  1
  Ag  Ag37  1  0.32463624  0.42996426  0.86550604  1
  Ag  Ag38  1  0.17536376  0.57003574  0.36550604  1
  Ag  Ag39  1  0.67536376  0.92996426  0.63449396  1
  Ag  Ag40  1  0.22695800  0.23234859  0.03031640  1
  Ag  Ag41  1  0.03031640  0.22695800  0.23234859  1
  Ag  Ag42  1  0.23234859  0.03031640  0.22695800  1
  Ag  Ag43  1  0.26765141  0.96968360  0.72695800  1
  Ag  Ag44  1  0.53031640  0.27304200  0.76765141  1
  Ag  Ag45  1  0.76765141  0.53031640  0.27304200  1
  Ag  Ag46  1  0.46968360  0.77304200  0.73234859  1
  Ag  Ag47  1  0.96968360  0.72695800  0.26765141  1
  Ag  Ag48  1  0.73234859  0.46968360  0.77304200  1
  Ag  Ag49  1  0.72695800  0.26765141  0.96968360  1
  Ag  Ag50  1  0.77304200  0.73234859  0.46968360  1
  Ag  Ag51  1  0.27304200  0.76765141  0.53031640  1
  Ag  Ag52  1  0.82977101  0.03771046  0.86281067  1
  Ag  Ag53  1  0.86281067  0.82977101  0.03771046  1
  Ag  Ag54  1  0.03771046  0.86281067  0.82977101  1
  Ag  Ag55  1  0.46228954  0.13718933  0.32977101  1
  Ag  Ag56  1  0.36281067  0.67022899  0.96228954  1
  Ag  Ag57  1  0.96228954  0.36281067  0.67022899  1
  Ag  Ag58  1  0.63718933  0.17022899  0.53771046  1
  Ag  Ag59  1  0.13718933  0.32977101  0.46228954  1
  Ag  Ag60  1  0.53771046  0.63718933  0.17022899  1
  Ag  Ag61  1  0.32977101  0.46228954  0.13718933  1
  Ag  Ag62  1  0.17022899  0.53771046  0.63718933  1
  Ag  Ag63  1  0.67022899  0.96228954  0.36281067  1
