# generated using pymatgen
data_Li3LaO3
_symmetry_space_group_name_H-M   'P 1'
_cell_length_a   10.52719077
_cell_length_b   6.07942535
_cell_length_c   11.15924522
_cell_angle_alpha   90.06650670
_cell_angle_beta   89.93368217
_cell_angle_gamma   150.11882288
_symmetry_Int_Tables_number   1
_chemical_formula_structural   Li3LaO3
_chemical_formula_sum   'Li12 La4 O12'
_cell_volume   355.80807448
_cell_formula_units_Z   4
loop_
 _symmetry_equiv_pos_site_id
 _symmetry_equiv_pos_as_xyz
  1  'x, y, z'
loop_
 _atom_site_type_symbol
 _atom_site_label
 _atom_site_symmetry_multiplicity
 _atom_site_fract_x
 _atom_site_fract_y
 _atom_site_fract_z
 _atom_site_occupancy
  Li  Li0  1  0.36442150  0.42369392  0.44238372  1
  Li  Li1  1  0.30756970  0.24343239  0.94065842  1
  Li  Li2  1  0.05742442  0.42558589  0.94108400  1
  Li  Li3  1  0.68856596  0.74596106  0.05953854  1
  Li  Li4  1  0.94431044  0.25173096  0.44116543  1
  Li  Li5  1  0.63057736  0.57473981  0.55963570  1
  Li  Li6  1  0.31130332  0.68129615  0.56160537  1
  Li  Li7  1  0.68900302  0.32252349  0.44201131  1
  Li  Li8  1  0.63046668  0.31870700  0.94096739  1
  Li  Li9  1  0.36170273  0.66756859  0.05807659  1
  Li  Li10  1  0.94232166  0.57467101  0.05941259  1
  Li  Li11  1  0.05428137  0.74238505  0.55977898  1
  La  La12  1  0.66651979  0.00044961  0.75159316  1
  La  La13  1  0.33212213  -0.00145942  0.25091818  1
  La  La14  1  0.00179877  0.00156490  0.25019133  1
  La  La15  1  0.99780007  -0.00274232  0.75071297  1
  O  O16  1  0.33222761  0.36860043  0.61721874  1
  O  O17  1  0.29679941  0.25772759  0.11503248  1
  O  O18  1  0.69883060  0.73374439  0.88486768  1
  O  O19  1  0.66521824  0.62824575  0.38420878  1
  O  O20  1  0.96310887  0.26344970  0.61689525  1
  O  O21  1  0.03854644  0.37169446  0.11602076  1
  O  O22  1  0.66504358  0.36622258  0.11659833  1
  O  O23  1  0.29934957  0.63509666  0.38547830  1
  O  O24  1  0.69785789  0.36248068  0.61750220  1
  O  O25  1  0.33494821  0.63730580  0.88448316  1
  O  O26  1  0.96490034  0.62933197  0.88540093  1
  O  O27  1  0.03468933  0.73572090  0.38491171  1
