# generated using pymatgen
data_Hg2P2S7
_symmetry_space_group_name_H-M   'P 1'
_cell_length_a   6.03951316
_cell_length_b   6.32554318
_cell_length_c   8.48646206
_cell_angle_alpha   103.20766177
_cell_angle_beta   90.00000000
_cell_angle_gamma   118.51513402
_symmetry_Int_Tables_number   1
_chemical_formula_structural   Hg2P2S7
_chemical_formula_sum   'Hg2 P2 S7'
_cell_volume   275.08114062
_cell_formula_units_Z   1
loop_
 _symmetry_equiv_pos_site_id
 _symmetry_equiv_pos_as_xyz
  1  'x, y, z'
loop_
 _atom_site_type_symbol
 _atom_site_label
 _atom_site_symmetry_multiplicity
 _atom_site_fract_x
 _atom_site_fract_y
 _atom_site_fract_z
 _atom_site_occupancy
  P  P0  1  0.91113861  0.82736989  0.29420313  1
  P  P1  1  0.08376872  0.17263011  0.70579687  1
  S  S2  1  0.19710626  0.94474808  0.76439013  1
  S  S3  1  0.25235818  0.05525192  0.23560987  1
  S  S4  1  0.89962203  0.52625000  0.35032429  1
  S  S5  1  0.37337203  0.47375000  0.64967571  1
  S  S6  1  0.79070890  0.00000000  0.50000000  1
  S  S7  1  0.62662404  0.74526875  0.11707149  1
  S  S8  1  0.88135529  0.25473125  0.88292851  1
  Hg  Hg9  1  0.78648122  0.57661650  0.80372825  1
  Hg  Hg10  1  0.20986472  0.42338350  0.19627175  1
