# generated using pymatgen
data_Tl5SbO5
_symmetry_space_group_name_H-M   'P 1'
_cell_length_a   8.21188650
_cell_length_b   8.21188650
_cell_length_c   14.13347842
_cell_angle_alpha   90.00000000
_cell_angle_beta   90.00000000
_cell_angle_gamma   95.12383717
_symmetry_Int_Tables_number   1
_chemical_formula_structural   Tl5SbO5
_chemical_formula_sum   'Tl20 Sb4 O20'
_cell_volume   949.28368531
_cell_formula_units_Z   4
loop_
 _symmetry_equiv_pos_site_id
 _symmetry_equiv_pos_as_xyz
  1  'x, y, z'
loop_
 _atom_site_type_symbol
 _atom_site_label
 _atom_site_symmetry_multiplicity
 _atom_site_fract_x
 _atom_site_fract_y
 _atom_site_fract_z
 _atom_site_occupancy
  O  O0  1  0.06279262  0.93720738  0.84527416  1
  O  O1  1  0.93720738  0.06279262  0.34527416  1
  O  O2  1  0.94594525  0.05405475  0.11204151  1
  O  O3  1  0.05405475  0.94594525  0.61204151  1
  O  O4  1  0.81931920  0.18068080  0.76417563  1
  O  O5  1  0.18068080  0.81931920  0.26417563  1
  O  O6  1  0.69452330  0.30547670  0.02987914  1
  O  O7  1  0.30547670  0.69452330  0.52987914  1
  O  O8  1  0.24665685  0.01859023  0.01159536  1
  O  O9  1  0.75334315  0.98140977  0.51159536  1
  O  O10  1  0.98140977  0.75334315  0.01159536  1
  O  O11  1  0.01859023  0.24665685  0.51159536  1
  O  O12  1  0.48382822  0.77742336  0.36245240  1
  O  O13  1  0.51617178  0.22257664  0.86245240  1
  O  O14  1  0.22257664  0.51617178  0.36245240  1
  O  O15  1  0.77742336  0.48382822  0.86245240  1
  O  O16  1  0.24166090  0.99862660  0.44005073  1
  O  O17  1  0.75833910  0.00137340  0.94005073  1
  O  O18  1  0.00137340  0.75833910  0.44005073  1
  O  O19  1  0.99862660  0.24166090  0.94005073  1
  Sb  Sb20  1  0.24418505  0.75581495  0.39586712  1
  Sb  Sb21  1  0.75581495  0.24418505  0.89586712  1
  Sb  Sb22  1  0.00636006  0.99363994  0.97930195  1
  Sb  Sb23  1  0.99363994  0.00636006  0.47930195  1
  Tl  Tl24  1  0.74202720  0.25797280  0.59930432  1
  Tl  Tl25  1  0.25797280  0.74202720  0.09930432  1
  Tl  Tl26  1  0.47492106  0.52507894  0.26044733  1
  Tl  Tl27  1  0.52507894  0.47492106  0.76044733  1
  Tl  Tl28  1  0.31221735  0.36097947  0.50455480  1
  Tl  Tl29  1  0.68778265  0.63902053  0.00455480  1
  Tl  Tl30  1  0.63902053  0.68778265  0.50455480  1
  Tl  Tl31  1  0.36097947  0.31221735  0.00455480  1
  Tl  Tl32  1  0.19820299  0.11878526  0.24867320  1
  Tl  Tl33  1  0.80179701  0.88121474  0.74867320  1
  Tl  Tl34  1  0.88121474  0.80179701  0.24867320  1
  Tl  Tl35  1  0.11878526  0.19820299  0.74867320  1
  Tl  Tl36  1  0.96304111  0.36108089  0.10958292  1
  Tl  Tl37  1  0.03695889  0.63891911  0.60958292  1
  Tl  Tl38  1  0.63891911  0.03695889  0.10958292  1
  Tl  Tl39  1  0.36108089  0.96304111  0.60958292  1
  Tl  Tl40  1  0.92820008  0.39677498  0.36664500  1
  Tl  Tl41  1  0.07179992  0.60322502  0.86664500  1
  Tl  Tl42  1  0.60322502  0.07179992  0.36664500  1
  Tl  Tl43  1  0.39677498  0.92820008  0.86664500  1
