# generated using pymatgen
data_NaTe3
_symmetry_space_group_name_H-M   'P 1'
_cell_length_a   9.13363380
_cell_length_b   9.13363380
_cell_length_c   22.19016725
_cell_angle_alpha   90.00000000
_cell_angle_beta   90.00000000
_cell_angle_gamma   120.00000000
_symmetry_Int_Tables_number   1
_chemical_formula_structural   NaTe3
_chemical_formula_sum   'Na12 Te36'
_cell_volume   1603.16564541
_cell_formula_units_Z   12
loop_
 _symmetry_equiv_pos_site_id
 _symmetry_equiv_pos_as_xyz
  1  'x, y, z'
loop_
 _atom_site_type_symbol
 _atom_site_label
 _atom_site_symmetry_multiplicity
 _atom_site_fract_x
 _atom_site_fract_y
 _atom_site_fract_z
 _atom_site_occupancy
  Na  Na0  1  0.00000000  0.00000000  0.12361106  1
  Na  Na1  1  0.00000000  0.00000000  0.37638894  1
  Na  Na2  1  0.00000000  0.00000000  0.87638894  1
  Na  Na3  1  0.00000000  0.00000000  0.62361106  1
  Na  Na4  1  0.33333333  0.66666667  0.95894374  1
  Na  Na5  1  0.66666667  0.33333333  0.54105626  1
  Na  Na6  1  0.66666667  0.33333333  0.04105626  1
  Na  Na7  1  0.33333333  0.66666667  0.45894374  1
  Na  Na8  1  0.33333333  0.66666667  0.20676813  1
  Na  Na9  1  0.66666667  0.33333333  0.29323187  1
  Na  Na10  1  0.66666667  0.33333333  0.79323187  1
  Na  Na11  1  0.33333333  0.66666667  0.70676813  1
  Te  Te12  1  0.79475052  0.66237180  0.20668537  1
  Te  Te13  1  0.33762820  0.13237872  0.20668537  1
  Te  Te14  1  0.86762128  0.20524948  0.20668537  1
  Te  Te15  1  0.13237872  0.33762820  0.29331463  1
  Te  Te16  1  0.20524948  0.86762128  0.29331463  1
  Te  Te17  1  0.66237180  0.79475052  0.29331463  1
  Te  Te18  1  0.20524948  0.33762820  0.79331463  1
  Te  Te19  1  0.66237180  0.86762128  0.79331463  1
  Te  Te20  1  0.13237872  0.79475052  0.79331463  1
  Te  Te21  1  0.86762128  0.66237180  0.70668537  1
  Te  Te22  1  0.79475052  0.13237872  0.70668537  1
  Te  Te23  1  0.33762820  0.20524948  0.70668537  1
  Te  Te24  1  0.67098301  0.84041118  0.54040948  1
  Te  Te25  1  0.15958882  0.83057183  0.54040948  1
  Te  Te26  1  0.16942817  0.32901699  0.54040948  1
  Te  Te27  1  0.83057183  0.15958882  0.95959052  1
  Te  Te28  1  0.32901699  0.16942817  0.95959052  1
  Te  Te29  1  0.84041118  0.67098301  0.95959052  1
  Te  Te30  1  0.32901699  0.15958882  0.45959052  1
  Te  Te31  1  0.84041118  0.16942817  0.45959052  1
  Te  Te32  1  0.83057183  0.67098301  0.45959052  1
  Te  Te33  1  0.16942817  0.84041118  0.04040948  1
  Te  Te34  1  0.67098301  0.83057183  0.04040948  1
  Te  Te35  1  0.15958882  0.32901699  0.04040948  1
  Te  Te36  1  0.00823501  0.52758142  0.62145642  1
  Te  Te37  1  0.47241858  0.48065360  0.62145642  1
  Te  Te38  1  0.51934640  0.99176499  0.62145642  1
  Te  Te39  1  0.48065360  0.47241858  0.87854358  1
  Te  Te40  1  0.99176499  0.51934640  0.87854358  1
  Te  Te41  1  0.52758142  0.00823501  0.87854358  1
  Te  Te42  1  0.99176499  0.47241858  0.37854358  1
  Te  Te43  1  0.52758142  0.51934640  0.37854358  1
  Te  Te44  1  0.48065360  0.00823501  0.37854358  1
  Te  Te45  1  0.51934640  0.52758142  0.12145642  1
  Te  Te46  1  0.00823501  0.48065360  0.12145642  1
  Te  Te47  1  0.47241858  0.99176499  0.12145642  1
