# generated using pymatgen
data_Al2CuCl8
_symmetry_space_group_name_H-M   'P 1'
_cell_length_a   6.95171013
_cell_length_b   7.63845875
_cell_length_c   12.66479497
_cell_angle_alpha   90.00000000
_cell_angle_beta   95.92827771
_cell_angle_gamma   90.00000000
_symmetry_Int_Tables_number   1
_chemical_formula_structural   Al2CuCl8
_chemical_formula_sum   'Al4 Cu2 Cl16'
_cell_volume   668.90847807
_cell_formula_units_Z   2
loop_
 _symmetry_equiv_pos_site_id
 _symmetry_equiv_pos_as_xyz
  1  'x, y, z'
loop_
 _atom_site_type_symbol
 _atom_site_label
 _atom_site_symmetry_multiplicity
 _atom_site_fract_x
 _atom_site_fract_y
 _atom_site_fract_z
 _atom_site_occupancy
  Al  Al0  1  0.18930601  0.26092537  0.17974773  1
  Al  Al1  1  0.18930601  0.23907463  0.67974773  1
  Al  Al2  1  0.81069399  0.73907463  0.82025227  1
  Al  Al3  1  0.81069399  0.76092537  0.32025227  1
  Cl  Cl4  1  0.89724696  0.25946212  0.58951473  1
  Cl  Cl5  1  0.10275304  0.75946212  0.91048527  1
  Cl  Cl6  1  0.28970242  0.01518610  0.10740609  1
  Cl  Cl7  1  0.71029758  0.51518610  0.39259391  1
  Cl  Cl8  1  0.71029758  0.98481390  0.89259391  1
  Cl  Cl9  1  0.28970242  0.48481390  0.60740609  1
  Cl  Cl10  1  0.83433231  0.72915579  0.15560378  1
  Cl  Cl11  1  0.16566769  0.22915579  0.34439622  1
  Cl  Cl12  1  0.16566769  0.27084421  0.84439622  1
  Cl  Cl13  1  0.83433231  0.77084421  0.65560378  1
  Cl  Cl14  1  0.35024850  0.47780828  0.13766737  1
  Cl  Cl15  1  0.64975150  0.97780828  0.36233263  1
  Cl  Cl16  1  0.64975150  0.52219172  0.86233263  1
  Cl  Cl17  1  0.35024850  0.02219172  0.63766737  1
  Cl  Cl18  1  0.89724696  0.24053788  0.08951473  1
  Cl  Cl19  1  0.10275304  0.74053788  0.41048527  1
  Cu  Cu20  1  0.00000000  0.50000000  0.50000000  1
  Cu  Cu21  1  0.00000000  0.00000000  0.00000000  1
