# generated using pymatgen
data_Y6C2I7
_symmetry_space_group_name_H-M   'P 1'
_cell_length_a   3.93349800
_cell_length_b   11.12260298
_cell_length_c   11.79845752
_cell_angle_alpha   68.59096390
_cell_angle_beta   80.40426015
_cell_angle_gamma   79.81514827
_symmetry_Int_Tables_number   1
_chemical_formula_structural   Y6C2I7
_chemical_formula_sum   'Y6 C2 I7'
_cell_volume   470.05218045
_cell_formula_units_Z   1
loop_
 _symmetry_equiv_pos_site_id
 _symmetry_equiv_pos_as_xyz
  1  'x, y, z'
loop_
 _atom_site_type_symbol
 _atom_site_label
 _atom_site_symmetry_multiplicity
 _atom_site_fract_x
 _atom_site_fract_y
 _atom_site_fract_z
 _atom_site_occupancy
  C  C0  1  0.71907420  0.15670951  0.40514209  1
  C  C1  1  0.28092580  0.84329049  0.59485791  1
  Y  Y2  1  0.76238216  0.28206434  0.19317134  1
  Y  Y3  1  0.69184650  0.99188537  0.62442162  1
  Y  Y4  1  0.86323627  0.71940534  0.55412212  1
  Y  Y5  1  0.13676373  0.28059466  0.44587788  1
  Y  Y6  1  0.30815350  0.00811463  0.37557838  1
  Y  Y7  1  0.23761784  0.71793566  0.80682866  1
  I  I8  1  0.84072905  0.49763018  0.82091171  1
  I  I9  1  0.15927095  0.50236982  0.17908829  1
  I  I10  1  0.94119470  0.83788322  0.27972737  1
  I  I11  1  0.05880530  0.16211678  0.72027263  1
  I  I12  1  0.50000000  0.50000000  0.50000000  1
  I  I13  1  0.61318899  0.84786214  0.92575989  1
  I  I14  1  0.38681101  0.15213786  0.07424011  1
