# generated using pymatgen
data_Tl4Bi2S5
_symmetry_space_group_name_H-M   'P 1'
_cell_length_a   4.15355426
_cell_length_b   17.38057606
_cell_length_c   17.77288145
_cell_angle_alpha   90.00000000
_cell_angle_beta   90.00000000
_cell_angle_gamma   90.00000000
_symmetry_Int_Tables_number   1
_chemical_formula_structural   Tl4Bi2S5
_chemical_formula_sum   'Tl16 Bi8 S20'
_cell_volume   1283.04503035
_cell_formula_units_Z   4
loop_
 _symmetry_equiv_pos_site_id
 _symmetry_equiv_pos_as_xyz
  1  'x, y, z'
loop_
 _atom_site_type_symbol
 _atom_site_label
 _atom_site_symmetry_multiplicity
 _atom_site_fract_x
 _atom_site_fract_y
 _atom_site_fract_z
 _atom_site_occupancy
  S  S0  1  0.25000000  0.43578135  0.58153099  1
  S  S1  1  0.75000000  0.56421865  0.41846901  1
  S  S2  1  0.25000000  0.93578135  0.91846901  1
  S  S3  1  0.75000000  0.06421865  0.08153099  1
  S  S4  1  0.75000000  0.54959877  0.09347141  1
  S  S5  1  0.25000000  0.95040123  0.59347141  1
  S  S6  1  0.75000000  0.04959877  0.40652859  1
  S  S7  1  0.25000000  0.17934821  0.26381635  1
  S  S8  1  0.75000000  0.82065179  0.73618365  1
  S  S9  1  0.25000000  0.67934821  0.23618365  1
  S  S10  1  0.75000000  0.32065179  0.76381635  1
  S  S11  1  0.25000000  0.45575758  0.25839240  1
  S  S12  1  0.75000000  0.54424242  0.74160760  1
  S  S13  1  0.25000000  0.95575758  0.24160760  1
  S  S14  1  0.75000000  0.04424242  0.75839240  1
  S  S15  1  0.75000000  0.33676654  0.40404265  1
  S  S16  1  0.25000000  0.66323346  0.59595735  1
  S  S17  1  0.25000000  0.45040123  0.90652859  1
  S  S18  1  0.25000000  0.16323346  0.90404265  1
  S  S19  1  0.75000000  0.83676654  0.09595735  1
  Tl  Tl20  1  0.25000000  0.18899874  0.08010162  1
  Tl  Tl21  1  0.25000000  0.68899874  0.41989838  1
  Tl  Tl22  1  0.75000000  0.81100126  0.91989838  1
  Tl  Tl23  1  0.25000000  0.43048071  0.08357740  1
  Tl  Tl24  1  0.75000000  0.56951929  0.91642260  1
  Tl  Tl25  1  0.25000000  0.93048071  0.41642260  1
  Tl  Tl26  1  0.75000000  0.06951929  0.58357740  1
  Tl  Tl27  1  0.25000000  0.18472172  0.73888293  1
  Tl  Tl28  1  0.75000000  0.81527828  0.26111707  1
  Tl  Tl29  1  0.25000000  0.68472172  0.76111707  1
  Tl  Tl30  1  0.75000000  0.31527828  0.23888293  1
  Tl  Tl31  1  0.25000000  0.18330111  0.42793312  1
  Tl  Tl32  1  0.75000000  0.81669889  0.57206688  1
  Tl  Tl33  1  0.25000000  0.68330111  0.07206688  1
  Tl  Tl34  1  0.75000000  0.31669889  0.92793312  1
  Tl  Tl35  1  0.75000000  0.31100126  0.58010162  1
  Bi  Bi36  1  0.75000000  0.56970880  0.24338502  1
  Bi  Bi37  1  0.25000000  0.43029120  0.75661498  1
  Bi  Bi38  1  0.25000000  0.93029120  0.74338502  1
  Bi  Bi39  1  0.75000000  0.06970880  0.25661498  1
  Bi  Bi40  1  0.25000000  0.44242956  0.41134734  1
  Bi  Bi41  1  0.75000000  0.55757044  0.58865266  1
  Bi  Bi42  1  0.25000000  0.94242956  0.08865266  1
  Bi  Bi43  1  0.75000000  0.05757044  0.91134734  1
