# generated using pymatgen
data_AgBi3S5
_symmetry_space_group_name_H-M   'P 1'
_cell_length_a   4.06071723
_cell_length_b   7.12510473
_cell_length_c   16.69662827
_cell_angle_alpha   95.28072596
_cell_angle_beta   90.00000000
_cell_angle_gamma   106.55636336
_symmetry_Int_Tables_number   1
_chemical_formula_structural   AgBi3S5
_chemical_formula_sum   'Ag2 Bi6 S10'
_cell_volume   460.91597733
_cell_formula_units_Z   2
loop_
 _symmetry_equiv_pos_site_id
 _symmetry_equiv_pos_as_xyz
  1  'x, y, z'
loop_
 _atom_site_type_symbol
 _atom_site_label
 _atom_site_symmetry_multiplicity
 _atom_site_fract_x
 _atom_site_fract_y
 _atom_site_fract_z
 _atom_site_occupancy
  S  S0  1  0.15121714  0.30243428  0.53458290  1
  S  S1  1  0.84878286  0.69756572  0.46541710  1
  S  S2  1  0.42413412  0.84826824  0.63583374  1
  S  S3  1  0.57586588  0.15173176  0.36416626  1
  S  S4  1  0.15378317  0.30756634  0.74423124  1
  S  S5  1  0.84621683  0.69243366  0.25576876  1
  S  S6  1  0.91081013  0.82162027  0.85940672  1
  S  S7  1  0.08918987  0.17837973  0.14059328  1
  S  S8  1  0.35362913  0.70725827  0.05753152  1
  S  S9  1  0.64637087  0.29274173  0.94246848  1
  Ag  Ag10  1  0.50000000  0.00000000  0.50000000  1
  Ag  Ag11  1  0.00000000  0.00000000  0.00000000  1
  Bi  Bi12  1  0.78022698  0.56045396  0.60605336  1
  Bi  Bi13  1  0.21977302  0.43954604  0.39394664  1
  Bi  Bi14  1  0.52554701  0.05109401  0.78297947  1
  Bi  Bi15  1  0.47445299  0.94890599  0.21702053  1
  Bi  Bi16  1  0.26347574  0.52695148  0.89117171  1
  Bi  Bi17  1  0.73652426  0.47304852  0.10882829  1
