# generated using pymatgen
data_K2Sb4O11
_symmetry_space_group_name_H-M   'P 1'
_cell_length_a   7.29153118
_cell_length_b   7.67049981
_cell_length_c   10.61070400
_cell_angle_alpha   111.18933562
_cell_angle_beta   94.80657913
_cell_angle_gamma   89.99999998
_symmetry_Int_Tables_number   1
_chemical_formula_structural   K2Sb4O11
_chemical_formula_sum   'K4 Sb8 O22'
_cell_volume   551.09167902
_cell_formula_units_Z   2
loop_
 _symmetry_equiv_pos_site_id
 _symmetry_equiv_pos_as_xyz
  1  'x, y, z'
loop_
 _atom_site_type_symbol
 _atom_site_label
 _atom_site_symmetry_multiplicity
 _atom_site_fract_x
 _atom_site_fract_y
 _atom_site_fract_z
 _atom_site_occupancy
  O  O0  1  0.18676000  0.43153502  0.25905940  1
  O  O1  1  0.81324000  0.17247561  0.74094060  1
  O  O2  1  0.81324000  0.56846498  0.74094060  1
  O  O3  1  0.18676000  0.82752439  0.25905940  1
  O  O4  1  0.33213958  0.55325046  0.52783084  1
  O  O5  1  0.66786042  0.02541962  0.47216916  1
  O  O6  1  0.66786042  0.44674954  0.47216916  1
  O  O7  1  0.33213958  0.97458038  0.52783084  1
  O  O8  1  0.43134268  0.66810033  0.82375614  1
  O  O9  1  0.56865732  0.84434419  0.17624386  1
  O  O10  1  0.56865732  0.33189967  0.17624386  1
  O  O11  1  0.43134268  0.15565581  0.82375614  1
  O  O12  1  0.00000000  0.67255177  0.00000000  1
  O  O13  1  0.00000000  0.32744823  0.00000000  1
  O  O14  1  0.35065018  0.16018163  0.32036326  1
  O  O15  1  0.64934982  0.83981837  0.67963674  1
  O  O16  1  0.13281269  0.38138840  0.76277680  1
  O  O17  1  0.86718731  0.61861160  0.23722320  1
  O  O18  1  0.49003835  0.33312190  0.66624380  1
  O  O19  1  0.50996165  0.66687810  0.33375620  1
  O  O20  1  0.34498210  0.52341847  0.04683693  1
  O  O21  1  0.65501790  0.47658153  0.95316307  1
  K  K22  1  0.00300194  0.23983562  0.47967124  1
  K  K23  1  0.99699806  0.76016438  0.52032876  1
  K  K24  1  0.26109994  0.01075515  0.02151030  1
  K  K25  1  0.73890006  0.98924485  0.97848970  1
  Sb  Sb26  1  0.09697217  0.57176320  0.14352640  1
  Sb  Sb27  1  0.90302783  0.42823680  0.85647360  1
  Sb  Sb28  1  0.61633912  0.57589160  0.15178320  1
  Sb  Sb29  1  0.38366088  0.42410840  0.84821680  1
  Sb  Sb30  1  0.43497957  0.93218870  0.34907272  1
  Sb  Sb31  1  0.56502043  0.58311598  0.65092728  1
  Sb  Sb32  1  0.56502043  0.06781130  0.65092728  1
  Sb  Sb33  1  0.43497957  0.41688402  0.34907272  1
