# generated using pymatgen
data_Sb2IF15
_symmetry_space_group_name_H-M   'P 1'
_cell_length_a   8.67993234
_cell_length_b   10.14969479
_cell_length_c   15.19317162
_cell_angle_alpha   90.00000000
_cell_angle_beta   90.00000000
_cell_angle_gamma   112.53104741
_symmetry_Int_Tables_number   1
_chemical_formula_structural   Sb2IF15
_chemical_formula_sum   'Sb8 I4 F60'
_cell_volume   1236.33327643
_cell_formula_units_Z   4
loop_
 _symmetry_equiv_pos_site_id
 _symmetry_equiv_pos_as_xyz
  1  'x, y, z'
loop_
 _atom_site_type_symbol
 _atom_site_label
 _atom_site_symmetry_multiplicity
 _atom_site_fract_x
 _atom_site_fract_y
 _atom_site_fract_z
 _atom_site_occupancy
  F  F0  1  0.34229468  0.39153761  0.64692096  1
  F  F1  1  0.65770532  0.10846239  0.14692096  1
  F  F2  1  0.65770532  0.60846239  0.35307904  1
  F  F3  1  0.34229468  0.89153761  0.85307904  1
  F  F4  1  0.13791973  0.15657446  0.55626797  1
  F  F5  1  0.86208027  0.34342554  0.05626797  1
  F  F6  1  0.86208027  0.84342554  0.44373203  1
  F  F7  1  0.13791973  0.65657446  0.94373203  1
  F  F8  1  0.22912278  0.55755172  0.55260888  1
  F  F9  1  0.77087722  0.94244828  0.05260888  1
  F  F10  1  0.77087722  0.44244828  0.44739112  1
  F  F11  1  0.22912278  0.05755172  0.94739112  1
  F  F12  1  0.26410460  0.90857012  0.51487543  1
  F  F13  1  0.73589540  0.59142988  0.01487543  1
  F  F14  1  0.73589540  0.09142988  0.48512457  1
  F  F15  1  0.26410460  0.40857012  0.98512457  1
  F  F16  1  0.48214256  0.81330227  0.54339860  1
  F  F17  1  0.51785744  0.68669773  0.04339860  1
  F  F18  1  0.51785744  0.18669773  0.45660140  1
  F  F19  1  0.48214256  0.31330227  0.95660140  1
  F  F20  1  0.41699345  0.98142831  0.65859524  1
  F  F21  1  0.58300655  0.51857169  0.15859524  1
  F  F22  1  0.58300655  0.01857169  0.34140476  1
  F  F23  1  0.41699345  0.48142831  0.84140476  1
  F  F24  1  0.40895329  0.74051411  0.70078233  1
  F  F25  1  0.59104671  0.75948589  0.20078233  1
  F  F26  1  0.59104671  0.25948589  0.29921767  1
  F  F27  1  0.40895329  0.24051411  0.79921767  1
  F  F28  1  0.74831364  0.90067126  0.83935478  1
  F  F29  1  0.25168636  0.59932874  0.33935478  1
  F  F30  1  0.25168636  0.09932874  0.16064522  1
  F  F31  1  0.74831364  0.40067126  0.66064522  1
  F  F32  1  0.81042198  0.94167021  0.65499876  1
  F  F33  1  0.18957802  0.55832979  0.15499876  1
  F  F34  1  0.18957802  0.05832979  0.34500124  1
  F  F35  1  0.81042198  0.44167021  0.84500124  1
  F  F36  1  0.08120382  0.86487575  0.68631367  1
  F  F37  1  0.91879618  0.63512425  0.18631367  1
  F  F38  1  0.91879618  0.13512425  0.31368633  1
  F  F39  1  0.08120382  0.36487575  0.81368633  1
  F  F40  1  0.05606583  0.07383435  0.78025197  1
  F  F41  1  0.94393417  0.42616565  0.28025197  1
  F  F42  1  0.94393417  0.92616565  0.21974803  1
  F  F43  1  0.05606583  0.57383435  0.71974803  1
  F  F44  1  0.77710246  0.68874326  0.73978865  1
  F  F45  1  0.22289754  0.81125674  0.23978865  1
  F  F46  1  0.22289754  0.31125674  0.26021135  1
  F  F47  1  0.77710246  0.18874326  0.76021135  1
  F  F48  1  0.01087651  0.82499903  0.85988037  1
  F  F49  1  0.98912349  0.67500097  0.35988037  1
  F  F50  1  0.98912349  0.17500097  0.14011963  1
  F  F51  1  0.01087651  0.32499903  0.64011963  1
  F  F52  1  0.02625651  0.83483399  0.03467705  1
  F  F53  1  0.97374349  0.66516601  0.53467705  1
  F  F54  1  0.97374349  0.16516601  0.96532295  1
  F  F55  1  0.02625651  0.33483399  0.46532295  1
  F  F56  1  0.36124642  0.88666528  0.03924473  1
  F  F57  1  0.63875358  0.61333472  0.53924473  1
  F  F58  1  0.63875358  0.11333472  0.96075527  1
  F  F59  1  0.36124642  0.38666528  0.46075527  1
  Sb  Sb60  1  0.19868480  0.35566858  0.54869313  1
  Sb  Sb61  1  0.80131520  0.14433142  0.04869313  1
  Sb  Sb62  1  0.80131520  0.64433142  0.45130687  1
  Sb  Sb63  1  0.19868480  0.85566858  0.95130687  1
  Sb  Sb64  1  0.89971374  0.38595826  0.74552208  1
  Sb  Sb65  1  0.10028626  0.11404174  0.24552208  1
  Sb  Sb66  1  0.10028626  0.61404174  0.25447792  1
  Sb  Sb67  1  0.89971374  0.88595826  0.75447792  1
  I  I68  1  0.30099792  0.30335182  0.88922840  1
  I  I69  1  0.69900208  0.19664818  0.38922840  1
  I  I70  1  0.69900208  0.69664818  0.11077160  1
  I  I71  1  0.30099792  0.80335182  0.61077160  1
