# generated using pymatgen
data_LiFeOF2
_symmetry_space_group_name_H-M   'P 1'
_cell_length_a   5.29250271
_cell_length_b   8.81395212
_cell_length_c   9.53806050
_cell_angle_alpha   93.27956105
_cell_angle_beta   90.00000000
_cell_angle_gamma   90.00000000
_symmetry_Int_Tables_number   1
_chemical_formula_structural   LiFeOF2
_chemical_formula_sum   'Li8 Fe8 O8 F16'
_cell_volume   444.20149526
_cell_formula_units_Z   8
loop_
 _symmetry_equiv_pos_site_id
 _symmetry_equiv_pos_as_xyz
  1  'x, y, z'
loop_
 _atom_site_type_symbol
 _atom_site_label
 _atom_site_symmetry_multiplicity
 _atom_site_fract_x
 _atom_site_fract_y
 _atom_site_fract_z
 _atom_site_occupancy
  Li  Li0  1  0.18036886  0.16901185  0.99680788  1
  Li  Li1  1  0.15304814  0.83159658  0.78670524  1
  Li  Li2  1  0.34695186  0.33159658  0.28670524  1
  Li  Li3  1  0.31963114  0.66901185  0.49680788  1
  Li  Li4  1  0.67465263  0.35755755  0.99392023  1
  Li  Li5  1  0.66129513  0.65202573  0.80450138  1
  Li  Li6  1  0.83870487  0.15202573  0.30450138  1
  Li  Li7  1  0.82534737  0.85755755  0.49392023  1
  Fe  Fe8  1  0.17702749  0.48409206  0.80922077  1
  Fe  Fe9  1  0.20679602  0.13721913  0.58060472  1
  Fe  Fe10  1  0.29320398  0.63721913  0.08060472  1
  Fe  Fe11  1  0.32297251  0.98409206  0.30922077  1
  Fe  Fe12  1  0.64134603  0.01610075  0.80115794  1
  Fe  Fe13  1  0.63403707  0.33312627  0.56695418  1
  Fe  Fe14  1  0.86596293  0.83312627  0.06695418  1
  Fe  Fe15  1  0.85865397  0.51610075  0.30115794  1
  O  O16  1  0.04185600  0.01808500  0.43423869  1
  O  O17  1  0.01571121  0.67461317  0.93838756  1
  O  O18  1  0.17241602  0.83301459  0.17214353  1
  O  O19  1  0.16025255  0.49739214  0.20619997  1
  O  O20  1  0.33974745  0.99739214  0.70619997  1
  O  O21  1  0.32758398  0.33301459  0.67214353  1
  O  O22  1  0.48428879  0.17461317  0.43838756  1
  O  O23  1  0.45814400  0.51808500  0.93423869  1
  F  F24  1  0.00826656  0.33510681  0.92373668  1
  F  F25  1  0.18175574  0.15461615  0.19481061  1
  F  F26  1  0.31824426  0.65461615  0.69481061  1
  F  F27  1  0.49173344  0.83510681  0.42373668  1
  F  F28  1  0.52608618  0.16772077  0.94147560  1
  F  F29  1  0.53616367  0.49948090  0.43424338  1
  F  F30  1  0.55208501  0.84134242  0.93496396  1
  F  F31  1  0.67013297  0.66717316  0.17708455  1
  F  F32  1  0.67896991  0.34580554  0.19732533  1
  F  F33  1  0.66736461  0.98491843  0.19429681  1
  F  F34  1  0.83263539  0.48491843  0.69429681  1
  F  F35  1  0.82103009  0.84580554  0.69732533  1
  F  F36  1  0.82986703  0.16717316  0.67708455  1
  F  F37  1  0.94791499  0.34134242  0.43496396  1
  F  F38  1  0.96383633  0.99948090  0.93424338  1
  F  F39  1  0.97391382  0.66772077  0.44147560  1
