# generated using pymatgen
data_RbMgCl3
_symmetry_space_group_name_H-M   'P 1'
_cell_length_a   7.20619492
_cell_length_b   7.20619492
_cell_length_c   12.00319614
_cell_angle_alpha   90.00000000
_cell_angle_beta   90.00000000
_cell_angle_gamma   120.00000002
_symmetry_Int_Tables_number   1
_chemical_formula_structural   RbMgCl3
_chemical_formula_sum   'Rb4 Mg4 Cl12'
_cell_volume   539.80828326
_cell_formula_units_Z   4
loop_
 _symmetry_equiv_pos_site_id
 _symmetry_equiv_pos_as_xyz
  1  'x, y, z'
loop_
 _atom_site_type_symbol
 _atom_site_label
 _atom_site_symmetry_multiplicity
 _atom_site_fract_x
 _atom_site_fract_y
 _atom_site_fract_z
 _atom_site_occupancy
  Mg  Mg0  1  0.33333333  0.66666667  0.38188825  1
  Mg  Mg1  1  0.66666667  0.33333333  0.88188825  1
  Mg  Mg2  1  0.66666667  0.33333333  0.61811175  1
  Mg  Mg3  1  0.33333333  0.66666667  0.11811175  1
  Cl  Cl4  1  0.35204508  0.17602254  0.75000000  1
  Cl  Cl5  1  0.64795492  0.82397746  0.25000000  1
  Cl  Cl6  1  0.17602254  0.82397746  0.25000000  1
  Cl  Cl7  1  0.82397746  0.64795492  0.75000000  1
  Cl  Cl8  1  0.50000000  0.00000000  0.00000000  1
  Cl  Cl9  1  0.50000000  0.50000000  0.50000000  1
  Cl  Cl10  1  0.00000000  0.50000000  0.50000000  1
  Cl  Cl11  1  0.00000000  0.50000000  0.00000000  1
  Cl  Cl12  1  0.50000000  0.50000000  0.00000000  1
  Cl  Cl13  1  0.50000000  0.00000000  0.50000000  1
  Cl  Cl14  1  0.17602254  0.35204508  0.25000000  1
  Cl  Cl15  1  0.82397746  0.17602254  0.75000000  1
  Rb  Rb16  1  0.66666667  0.33333333  0.25000000  1
  Rb  Rb17  1  0.33333333  0.66666667  0.75000000  1
  Rb  Rb18  1  0.00000000  0.00000000  0.50000000  1
  Rb  Rb19  1  0.00000000  0.00000000  0.00000000  1
