# generated using pymatgen
data_Bi2TeO6
_symmetry_space_group_name_H-M   'P 1'
_cell_length_a   5.45762471
_cell_length_b   5.45439407
_cell_length_c   8.85045673
_cell_angle_alpha   107.94729165
_cell_angle_beta   90.00000000
_cell_angle_gamma   90.00000000
_symmetry_Int_Tables_number   1
_chemical_formula_structural   Bi2TeO6
_chemical_formula_sum   'Bi4 Te2 O12'
_cell_volume   250.64081761
_cell_formula_units_Z   2
loop_
 _symmetry_equiv_pos_site_id
 _symmetry_equiv_pos_as_xyz
  1  'x, y, z'
loop_
 _atom_site_type_symbol
 _atom_site_label
 _atom_site_symmetry_multiplicity
 _atom_site_fract_x
 _atom_site_fract_y
 _atom_site_fract_z
 _atom_site_occupancy
  O  O0  1  0.41546818  0.39081927  0.78163855  1
  O  O1  1  0.91546818  0.10918073  0.21836145  1
  O  O2  1  0.58453182  0.60918073  0.21836145  1
  O  O3  1  0.08453182  0.89081927  0.78163855  1
  O  O4  1  0.25000000  0.28215526  0.06431052  1
  O  O5  1  0.75000000  0.21784474  0.93568948  1
  O  O6  1  0.75000000  0.99960175  0.49920350  1
  O  O7  1  0.25000000  0.50039825  0.50079650  1
  O  O8  1  0.25000000  0.00039825  0.50079650  1
  O  O9  1  0.75000000  0.49960175  0.49920350  1
  O  O10  1  0.25000000  0.78215526  0.06431052  1
  O  O11  1  0.75000000  0.71784474  0.93568948  1
  Te  Te12  1  0.50000000  0.50000000  0.00000000  1
  Te  Te13  1  0.00000000  0.00000000  0.00000000  1
  Bi  Bi14  1  0.01109208  0.32680335  0.65360670  1
  Bi  Bi15  1  0.51109208  0.17319665  0.34639330  1
  Bi  Bi16  1  0.98890792  0.67319665  0.34639330  1
  Bi  Bi17  1  0.48890792  0.82680335  0.65360670  1
