# generated using pymatgen
data_CsSn2Br5
_symmetry_space_group_name_H-M   'P 1'
_cell_length_a   8.61771399
_cell_length_b   8.61899048
_cell_length_c   10.10276860
_cell_angle_alpha   115.27883006
_cell_angle_beta   115.24580971
_cell_angle_gamma   89.99999998
_symmetry_Int_Tables_number   1
_chemical_formula_structural   CsSn2Br5
_chemical_formula_sum   'Cs2 Sn4 Br10'
_cell_volume   598.31622166
_cell_formula_units_Z   2
loop_
 _symmetry_equiv_pos_site_id
 _symmetry_equiv_pos_as_xyz
  1  'x, y, z'
loop_
 _atom_site_type_symbol
 _atom_site_label
 _atom_site_symmetry_multiplicity
 _atom_site_fract_x
 _atom_site_fract_y
 _atom_site_fract_z
 _atom_site_occupancy
  Br  Br0  1  0.96518900  0.46515760  0.24874894  1
  Br  Br1  1  0.71632528  0.21636729  0.75091950  1
  Br  Br2  1  0.03481100  0.53484240  0.75125106  1
  Br  Br3  1  0.21644006  0.03484240  0.75125106  1
  Br  Br4  1  0.53459423  0.71636729  0.75091950  1
  Br  Br5  1  0.78355994  0.96515760  0.24874894  1
  Br  Br6  1  0.50000000  0.50000000  0.00000000  1
  Br  Br7  1  0.00000000  0.00000000  0.00000000  1
  Br  Br8  1  0.28367472  0.78363271  0.24908050  1
  Br  Br9  1  0.46540577  0.28363271  0.24908050  1
  Sn  Sn10  1  0.68471301  0.18481445  0.99976768  1
  Sn  Sn11  1  0.81505467  0.68481445  0.99976768  1
  Sn  Sn12  1  0.18494533  0.31518555  0.00023232  1
  Sn  Sn13  1  0.31528699  0.81518555  0.00023232  1
  Cs  Cs14  1  0.24995360  0.25000000  0.50000000  1
  Cs  Cs15  1  0.75004640  0.75000000  0.50000000  1
