# generated using pymatgen
data_Cs2Sb4S7
_symmetry_space_group_name_H-M   'P 1'
_cell_length_a   11.59672234
_cell_length_b   12.15637465
_cell_length_c   12.49294286
_cell_angle_alpha   90.00000000
_cell_angle_beta   90.00000000
_cell_angle_gamma   99.90872940
_symmetry_Int_Tables_number   1
_chemical_formula_structural   Cs2Sb4S7
_chemical_formula_sum   'Cs8 Sb16 S28'
_cell_volume   1734.91006376
_cell_formula_units_Z   4
loop_
 _symmetry_equiv_pos_site_id
 _symmetry_equiv_pos_as_xyz
  1  'x, y, z'
loop_
 _atom_site_type_symbol
 _atom_site_label
 _atom_site_symmetry_multiplicity
 _atom_site_fract_x
 _atom_site_fract_y
 _atom_site_fract_z
 _atom_site_occupancy
  S  S0  1  0.20117982  0.84036321  0.22852316  1
  S  S1  1  0.79882018  0.65963679  0.72852316  1
  S  S2  1  0.79882018  0.15963679  0.77147684  1
  S  S3  1  0.20117982  0.34036321  0.27147684  1
  S  S4  1  0.40837711  0.08201237  0.20560030  1
  S  S5  1  0.59162289  0.41798763  0.70560030  1
  S  S6  1  0.59162289  0.91798763  0.79439970  1
  S  S7  1  0.40837711  0.58201237  0.29439970  1
  S  S8  1  0.19616296  0.93869580  0.97587952  1
  S  S9  1  0.80383704  0.56130420  0.47587952  1
  S  S10  1  0.80383704  0.06130420  0.02412048  1
  S  S11  1  0.19616296  0.43869580  0.52412048  1
  S  S12  1  0.24521566  0.22200826  0.00512460  1
  S  S13  1  0.75478434  0.27799174  0.50512460  1
  S  S14  1  0.75478434  0.77799174  0.99487540  1
  S  S15  1  0.24521566  0.72200826  0.49487540  1
  S  S16  1  0.33060178  0.13323725  0.74020303  1
  S  S17  1  0.66939822  0.36676275  0.24020303  1
  S  S18  1  0.66939822  0.86676275  0.25979697  1
  S  S19  1  0.33060178  0.63323725  0.75979697  1
  S  S20  1  0.09682907  0.90086882  0.70457339  1
  S  S21  1  0.90317093  0.59913118  0.20457339  1
  S  S22  1  0.90317093  0.09913118  0.29542661  1
  S  S23  1  0.09682907  0.40086882  0.79542661  1
  S  S24  1  0.26151137  0.54003930  0.03431216  1
  S  S25  1  0.73848863  0.95996070  0.53431216  1
  S  S26  1  0.73848863  0.45996070  0.96568784  1
  S  S27  1  0.26151137  0.04003930  0.46568784  1
  Sb  Sb28  1  0.36085259  0.92463219  0.34065572  1
  Sb  Sb29  1  0.63914741  0.57536781  0.84065572  1
  Sb  Sb30  1  0.63914741  0.07536781  0.65934428  1
  Sb  Sb31  1  0.36085259  0.42463219  0.15934428  1
  Sb  Sb32  1  0.20049440  0.05156956  0.14300178  1
  Sb  Sb33  1  0.79950560  0.44843044  0.64300178  1
  Sb  Sb34  1  0.79950560  0.94843044  0.85699822  1
  Sb  Sb35  1  0.20049440  0.55156956  0.35699822  1
  Sb  Sb36  1  0.15333529  0.08878883  0.85466773  1
  Sb  Sb37  1  0.84666471  0.41121117  0.35466773  1
  Sb  Sb38  1  0.84666471  0.91121117  0.14533227  1
  Sb  Sb39  1  0.15333529  0.58878883  0.64533227  1
  Sb  Sb40  1  0.29406654  0.94748876  0.64108771  1
  Sb  Sb41  1  0.70593346  0.55251124  0.14108771  1
  Sb  Sb42  1  0.70593346  0.05251124  0.35891229  1
  Sb  Sb43  1  0.29406654  0.44748876  0.85891229  1
  Cs  Cs44  1  0.01914778  0.67142053  0.92932792  1
  Cs  Cs45  1  0.98085222  0.82857947  0.42932792  1
  Cs  Cs46  1  0.98085222  0.32857947  0.07067208  1
  Cs  Cs47  1  0.01914778  0.17142053  0.57067208  1
  Cs  Cs48  1  0.45263901  0.30566644  0.45514862  1
  Cs  Cs49  1  0.54736099  0.19433356  0.95514862  1
  Cs  Cs50  1  0.54736099  0.69433356  0.54485138  1
  Cs  Cs51  1  0.45263901  0.80566644  0.04485138  1
