# generated using pymatgen
data_Cs3In2Cl9
_symmetry_space_group_name_H-M   'P 1'
_cell_length_a   9.85289856
_cell_length_b   9.85289856
_cell_length_c   9.85289856
_cell_angle_alpha   83.00681669
_cell_angle_beta   83.00681668
_cell_angle_gamma   83.00681670
_symmetry_Int_Tables_number   1
_chemical_formula_structural   Cs3In2Cl9
_chemical_formula_sum   'Cs6 In4 Cl18'
_cell_volume   936.76985256
_cell_formula_units_Z   2
loop_
 _symmetry_equiv_pos_site_id
 _symmetry_equiv_pos_as_xyz
  1  'x, y, z'
loop_
 _atom_site_type_symbol
 _atom_site_label
 _atom_site_symmetry_multiplicity
 _atom_site_fract_x
 _atom_site_fract_y
 _atom_site_fract_z
 _atom_site_occupancy
  Cl  Cl0  1  0.42789393  0.59105708  0.76254947  1
  Cl  Cl1  1  0.59105708  0.76254947  0.42789393  1
  Cl  Cl2  1  0.76254947  0.42789393  0.59105708  1
  Cl  Cl3  1  0.73745053  0.90894292  0.07210607  1
  Cl  Cl4  1  0.90894292  0.07210607  0.73745053  1
  Cl  Cl5  1  0.07210607  0.73745053  0.90894292  1
  Cl  Cl6  1  0.57210607  0.40894292  0.23745053  1
  Cl  Cl7  1  0.40894292  0.23745053  0.57210607  1
  Cl  Cl8  1  0.23745053  0.57210607  0.40894292  1
  Cl  Cl9  1  0.26254947  0.09105708  0.92789393  1
  Cl  Cl10  1  0.25000000  0.40048960  0.09951040  1
  Cl  Cl11  1  0.09951040  0.25000000  0.40048960  1
  Cl  Cl12  1  0.40048960  0.09951040  0.25000000  1
  Cl  Cl13  1  0.75000000  0.59951040  0.90048960  1
  Cl  Cl14  1  0.90048960  0.75000000  0.59951040  1
  Cl  Cl15  1  0.59951040  0.90048960  0.75000000  1
  Cl  Cl16  1  0.92789393  0.26254947  0.09105708  1
  Cl  Cl17  1  0.09105708  0.92789393  0.26254947  1
  In  In18  1  0.15411822  0.15411822  0.15411822  1
  In  In19  1  0.34588178  0.34588178  0.34588178  1
  In  In20  1  0.84588178  0.84588178  0.84588178  1
  In  In21  1  0.65411822  0.65411822  0.65411822  1
  Cs  Cs22  1  0.58959408  0.25000000  0.91040592  1
  Cs  Cs23  1  0.25000000  0.91040592  0.58959408  1
  Cs  Cs24  1  0.91040592  0.58959408  0.25000000  1
  Cs  Cs25  1  0.41040592  0.75000000  0.08959408  1
  Cs  Cs26  1  0.75000000  0.08959408  0.41040592  1
  Cs  Cs27  1  0.08959408  0.41040592  0.75000000  1
