# generated using pymatgen
data_BiPS4
_symmetry_space_group_name_H-M   'P 1'
_cell_length_a   11.28062054
_cell_length_b   10.80448460
_cell_length_c   12.64142888
_cell_angle_alpha   115.29913905
_cell_angle_beta   116.49864452
_cell_angle_gamma   89.99999998
_symmetry_Int_Tables_number   1
_chemical_formula_structural   BiPS4
_chemical_formula_sum   'Bi8 P8 S32'
_cell_volume   1211.52947350
_cell_formula_units_Z   8
loop_
 _symmetry_equiv_pos_site_id
 _symmetry_equiv_pos_as_xyz
  1  'x, y, z'
loop_
 _atom_site_type_symbol
 _atom_site_label
 _atom_site_symmetry_multiplicity
 _atom_site_fract_x
 _atom_site_fract_y
 _atom_site_fract_z
 _atom_site_occupancy
  P  P0  1  0.25000000  0.21961483  0.00000000  1
  P  P1  1  0.78634083  0.25000000  0.50000000  1
  P  P2  1  0.71365917  0.75000000  0.50000000  1
  P  P3  1  0.21365917  0.75000000  0.50000000  1
  P  P4  1  0.28634083  0.25000000  0.50000000  1
  P  P5  1  0.25000000  0.71961483  0.00000000  1
  P  P6  1  0.75000000  0.78038517  0.00000000  1
  P  P7  1  0.75000000  0.28038517  0.00000000  1
  S  S8  1  0.89558790  0.41423522  0.51403136  1
  S  S9  1  0.38155654  0.40020386  0.48596864  1
  S  S10  1  0.39558790  0.09979614  0.51403136  1
  S  S11  1  0.11844346  0.91423522  0.51403136  1
  S  S12  1  0.10441210  0.58576478  0.48596864  1
  S  S13  1  0.61844346  0.59979614  0.51403136  1
  S  S14  1  0.60441210  0.90020386  0.48596864  1
  S  S15  1  0.88155654  0.08576478  0.48596864  1
  S  S16  1  0.10076435  0.11762855  0.00726785  1
  S  S17  1  0.59349650  0.38237145  0.99273215  1
  S  S18  1  0.39923565  0.11036069  0.99273215  1
  S  S19  1  0.90650350  0.38963931  0.00726785  1
  S  S20  1  0.89923565  0.88237145  0.99273215  1
  S  S21  1  0.40650350  0.61762855  0.00726785  1
  S  S22  1  0.60076435  0.88963931  0.00726785  1
  S  S23  1  0.09349650  0.61036069  0.99273215  1
  S  S24  1  0.34645946  0.40958402  0.17190359  1
  S  S25  1  0.67455588  0.09041598  0.82809641  1
  S  S26  1  0.15354054  0.23768043  0.82809641  1
  S  S27  1  0.82544412  0.26231957  0.17190359  1
  S  S28  1  0.65354054  0.59041598  0.82809641  1
  S  S29  1  0.32544412  0.90958402  0.17190359  1
  S  S30  1  0.84645946  0.76231957  0.17190359  1
  S  S31  1  0.17455588  0.73768043  0.82809641  1
  S  S32  1  0.23217436  0.66780095  0.32964235  1
  S  S33  1  0.40253201  0.83219905  0.67035765  1
  S  S34  1  0.26782564  0.33815860  0.67035765  1
  S  S35  1  0.09746799  0.16184140  0.32964235  1
  S  S36  1  0.76782564  0.33219905  0.67035765  1
  S  S37  1  0.59746799  0.16780095  0.32964235  1
  S  S38  1  0.73217436  0.66184140  0.32964235  1
  S  S39  1  0.90253201  0.83815860  0.67035765  1
  Bi  Bi40  1  0.64124504  0.89124504  0.28249008  1
  Bi  Bi41  1  0.85875496  0.60875496  0.71750992  1
  Bi  Bi42  1  0.35875496  0.10875496  0.71750992  1
  Bi  Bi43  1  0.14124504  0.39124504  0.28249008  1
  Bi  Bi44  1  0.89789117  0.14789117  0.79578234  1
  Bi  Bi45  1  0.60210883  0.35210883  0.20421766  1
  Bi  Bi46  1  0.10210883  0.85210883  0.20421766  1
  Bi  Bi47  1  0.39789117  0.64789117  0.79578234  1
