# generated using pymatgen
data_KTa5O13
_symmetry_space_group_name_H-M   'P 1'
_cell_length_a   5.73219332
_cell_length_b   10.85301918
_cell_length_c   17.02449211
_cell_angle_alpha   90.00000000
_cell_angle_beta   90.00000000
_cell_angle_gamma   90.00000000
_symmetry_Int_Tables_number   1
_chemical_formula_structural   KTa5O13
_chemical_formula_sum   'K4 Ta20 O52'
_cell_volume   1059.12096222
_cell_formula_units_Z   4
loop_
 _symmetry_equiv_pos_site_id
 _symmetry_equiv_pos_as_xyz
  1  'x, y, z'
loop_
 _atom_site_type_symbol
 _atom_site_label
 _atom_site_symmetry_multiplicity
 _atom_site_fract_x
 _atom_site_fract_y
 _atom_site_fract_z
 _atom_site_occupancy
  O  O0  1  0.39980889  0.74796709  0.38856570  1
  O  O1  1  0.39980889  0.75203291  0.61143430  1
  O  O2  1  0.60019111  0.24796709  0.11143430  1
  O  O3  1  0.60019111  0.25203291  0.88856570  1
  O  O4  1  0.60019111  0.25203291  0.61143430  1
  O  O5  1  0.60019111  0.24796709  0.38856570  1
  O  O6  1  0.39980889  0.75203291  0.88856570  1
  O  O7  1  0.39980889  0.74796709  0.11143430  1
  O  O8  1  0.40795028  0.99515731  0.36536118  1
  O  O9  1  0.40795028  0.50484269  0.63463882  1
  O  O10  1  0.59204972  0.49515731  0.13463882  1
  O  O11  1  0.59204972  0.00484269  0.86536118  1
  O  O12  1  0.59204972  0.00484269  0.63463882  1
  O  O13  1  0.59204972  0.49515731  0.36536118  1
  O  O14  1  0.40795028  0.50484269  0.86536118  1
  O  O15  1  0.40795028  0.99515731  0.13463882  1
  O  O16  1  0.36024287  0.37461840  0.48733099  1
  O  O17  1  0.36024287  0.12538160  0.51266901  1
  O  O18  1  0.63373123  0.65142759  0.75000000  1
  O  O19  1  0.63975713  0.87461840  0.01266901  1
  O  O20  1  0.63975713  0.62538160  0.51266901  1
  O  O21  1  0.63975713  0.87461840  0.48733099  1
  O  O22  1  0.36024287  0.12538160  0.98733099  1
  O  O23  1  0.36024287  0.37461840  0.01266901  1
  O  O24  1  0.08944727  0.48267215  0.13624760  1
  O  O25  1  0.08944727  0.01732785  0.86375240  1
  O  O26  1  0.91055273  0.98267215  0.36375240  1
  O  O27  1  0.91055273  0.51732785  0.63624760  1
  O  O28  1  0.91055273  0.51732785  0.86375240  1
  O  O29  1  0.91055273  0.98267215  0.13624760  1
  O  O30  1  0.08944727  0.01732785  0.63624760  1
  O  O31  1  0.08944727  0.48267215  0.36375240  1
  O  O32  1  0.13539754  0.21752411  0.12671355  1
  O  O33  1  0.13539754  0.28247589  0.87328645  1
  O  O34  1  0.86460246  0.71752411  0.37328645  1
  O  O35  1  0.86460246  0.78247589  0.62671355  1
  O  O36  1  0.86460246  0.78247589  0.87328645  1
  O  O37  1  0.86460246  0.71752411  0.12671355  1
  O  O38  1  0.13539754  0.28247589  0.62671355  1
  O  O39  1  0.13539754  0.21752411  0.37328645  1
  O  O40  1  0.12967931  0.60670388  0.99689706  1
  O  O41  1  0.12967931  0.89329612  0.00310294  1
  O  O42  1  0.87032069  0.10670388  0.50310294  1
  O  O43  1  0.87032069  0.39329612  0.49689706  1
  O  O44  1  0.87032069  0.39329612  0.00310294  1
  O  O45  1  0.87032069  0.10670388  0.99689706  1
  O  O46  1  0.12967931  0.89329612  0.49689706  1
  O  O47  1  0.12967931  0.60670388  0.50310294  1
  O  O48  1  0.36626877  0.34857241  0.25000000  1
  O  O49  1  0.36626877  0.15142759  0.75000000  1
  O  O50  1  0.63373123  0.84857241  0.25000000  1
  O  O51  1  0.63975713  0.62538160  0.98733099  1
  K  K52  1  0.79700092  0.32552735  0.75000000  1
  K  K53  1  0.79700092  0.17447265  0.25000000  1
  K  K54  1  0.20299908  0.82552735  0.75000000  1
  K  K55  1  0.20299908  0.67447265  0.25000000  1
  Ta  Ta56  1  0.33471433  0.75000000  0.50000000  1
  Ta  Ta57  1  0.66528567  0.25000000  0.00000000  1
  Ta  Ta58  1  0.66528567  0.25000000  0.50000000  1
  Ta  Ta59  1  0.33471433  0.75000000  0.00000000  1
  Ta  Ta60  1  0.34550650  0.36666422  0.36310824  1
  Ta  Ta61  1  0.34550650  0.13333578  0.63689176  1
  Ta  Ta62  1  0.65449350  0.86666422  0.13689176  1
  Ta  Ta63  1  0.65449350  0.63333578  0.86310824  1
  Ta  Ta64  1  0.65449350  0.63333578  0.63689176  1
  Ta  Ta65  1  0.65449350  0.86666422  0.36310824  1
  Ta  Ta66  1  0.34550650  0.13333578  0.86310824  1
  Ta  Ta67  1  0.34550650  0.36666422  0.13689176  1
  Ta  Ta68  1  0.16070630  0.06350302  0.42414916  1
  Ta  Ta69  1  0.16070630  0.43649698  0.57585084  1
  Ta  Ta70  1  0.83929370  0.56350302  0.07585084  1
  Ta  Ta71  1  0.83929370  0.93649698  0.92414916  1
  Ta  Ta72  1  0.83929370  0.93649698  0.57585084  1
  Ta  Ta73  1  0.83929370  0.56350302  0.42414916  1
  Ta  Ta74  1  0.16070630  0.43649698  0.92414916  1
  Ta  Ta75  1  0.16070630  0.06350302  0.07585084  1
