# generated using pymatgen
data_KSn2Cl5
_symmetry_space_group_name_H-M   'P 1'
_cell_length_a   8.09330459
_cell_length_b   8.09330459
_cell_length_c   9.20058954
_cell_angle_alpha   116.09273681
_cell_angle_beta   116.09273678
_cell_angle_gamma   89.99999996
_symmetry_Int_Tables_number   1
_chemical_formula_structural   KSn2Cl5
_chemical_formula_sum   'K2 Sn4 Cl10'
_cell_volume   471.88447962
_cell_formula_units_Z   2
loop_
 _symmetry_equiv_pos_site_id
 _symmetry_equiv_pos_as_xyz
  1  'x, y, z'
loop_
 _atom_site_type_symbol
 _atom_site_label
 _atom_site_symmetry_multiplicity
 _atom_site_fract_x
 _atom_site_fract_y
 _atom_site_fract_z
 _atom_site_occupancy
  Cl  Cl0  1  0.19860322  0.69860322  0.73549351  1
  Cl  Cl1  1  0.46310971  0.96310971  0.26450649  1
  Cl  Cl2  1  0.80139678  0.30139678  0.26450649  1
  Cl  Cl3  1  0.96310971  0.80139678  0.26450649  1
  Cl  Cl4  1  0.30139678  0.46310971  0.26450649  1
  Cl  Cl5  1  0.03689029  0.19860322  0.73549351  1
  Cl  Cl6  1  0.00000000  0.00000000  0.00000000  1
  Cl  Cl7  1  0.50000000  0.50000000  0.00000000  1
  Cl  Cl8  1  0.53689029  0.03689029  0.73549351  1
  Cl  Cl9  1  0.69860322  0.53689029  0.73549351  1
  K  K10  1  0.25000000  0.25000000  0.50000000  1
  K  K11  1  0.75000000  0.75000000  0.50000000  1
  Sn  Sn12  1  0.32552444  0.17447556  0.00000000  1
  Sn  Sn13  1  0.17447556  0.67447556  0.00000000  1
  Sn  Sn14  1  0.67447556  0.82552444  0.00000000  1
  Sn  Sn15  1  0.82552444  0.32552444  0.00000000  1
