# generated using pymatgen
data_TlPO3
_symmetry_space_group_name_H-M   'P 1'
_cell_length_a   7.79382277
_cell_length_b   7.79382277
_cell_length_c   11.37951834
_cell_angle_alpha   90.00000000
_cell_angle_beta   90.00000000
_cell_angle_gamma   90.00000000
_symmetry_Int_Tables_number   1
_chemical_formula_structural   TlPO3
_chemical_formula_sum   'Tl8 P8 O24'
_cell_volume   691.23374515
_cell_formula_units_Z   8
loop_
 _symmetry_equiv_pos_site_id
 _symmetry_equiv_pos_as_xyz
  1  'x, y, z'
loop_
 _atom_site_type_symbol
 _atom_site_label
 _atom_site_symmetry_multiplicity
 _atom_site_fract_x
 _atom_site_fract_y
 _atom_site_fract_z
 _atom_site_occupancy
  O  O0  1  0.62520152  0.80631237  0.53797976  1
  O  O1  1  0.37479848  0.19368763  0.53797976  1
  O  O2  1  0.69368763  0.87479848  0.03797976  1
  O  O3  1  0.19368763  0.62520152  0.46202024  1
  O  O4  1  0.80631237  0.37479848  0.46202024  1
  O  O5  1  0.87479848  0.30631237  0.96202024  1
  O  O6  1  0.12520152  0.69368763  0.96202024  1
  O  O7  1  0.30631237  0.12520152  0.03797976  1
  O  O8  1  0.80292349  0.77247636  0.34650361  1
  O  O9  1  0.19707651  0.22752364  0.34650361  1
  O  O10  1  0.72752364  0.69707651  0.84650361  1
  O  O11  1  0.22752364  0.80292349  0.65349639  1
  O  O12  1  0.77247636  0.19707651  0.65349639  1
  O  O13  1  0.69707651  0.27247636  0.15349639  1
  O  O14  1  0.30292349  0.72752364  0.15349639  1
  O  O15  1  0.27247636  0.30292349  0.84650361  1
  O  O16  1  0.30292876  0.44620371  0.05179115  1
  O  O17  1  0.44620371  0.69707124  0.94820885  1
  O  O18  1  0.55379629  0.30292876  0.94820885  1
  O  O19  1  0.80292876  0.05379629  0.44820885  1
  O  O20  1  0.19707124  0.94620371  0.44820885  1
  O  O21  1  0.69707124  0.55379629  0.05179115  1
  O  O22  1  0.05379629  0.19707124  0.55179115  1
  O  O23  1  0.94620371  0.80292876  0.55179115  1
  P  P24  1  0.78318218  0.84689817  0.46798034  1
  P  P25  1  0.21681782  0.15310183  0.46798034  1
  P  P26  1  0.65310183  0.71681782  0.96798034  1
  P  P27  1  0.15310183  0.78318218  0.53201966  1
  P  P28  1  0.84689817  0.21681782  0.53201966  1
  P  P29  1  0.71681782  0.34689817  0.03201966  1
  P  P30  1  0.28318218  0.65310183  0.03201966  1
  P  P31  1  0.34689817  0.28318218  0.96798034  1
  Tl  Tl32  1  0.50000000  0.50000000  0.33332946  1
  Tl  Tl33  1  0.50000000  0.50000000  0.66667054  1
  Tl  Tl34  1  0.00000000  0.00000000  0.16667054  1
  Tl  Tl35  1  0.00000000  0.00000000  0.83332946  1
  Tl  Tl36  1  0.00000000  0.50000000  0.27966778  1
  Tl  Tl37  1  0.50000000  0.00000000  0.72033222  1
  Tl  Tl38  1  0.50000000  0.00000000  0.22033222  1
  Tl  Tl39  1  0.00000000  0.50000000  0.77966778  1
