# generated using pymatgen
data_Li4Ni2C4SO16
_symmetry_space_group_name_H-M   'P 1'
_cell_length_a   9.59093833
_cell_length_b   9.27395643
_cell_length_c   9.58839008
_cell_angle_alpha   61.62055075
_cell_angle_beta   94.54073116
_cell_angle_gamma   61.58107389
_symmetry_Int_Tables_number   1
_chemical_formula_structural   Li4Ni2C4SO16
_chemical_formula_sum   'Li8 Ni4 C8 S2 O32'
_cell_volume   606.36428289
_cell_formula_units_Z   2
loop_
 _symmetry_equiv_pos_site_id
 _symmetry_equiv_pos_as_xyz
  1  'x, y, z'
loop_
 _atom_site_type_symbol
 _atom_site_label
 _atom_site_symmetry_multiplicity
 _atom_site_fract_x
 _atom_site_fract_y
 _atom_site_fract_z
 _atom_site_occupancy
  Li  Li0  1  0.08481461  0.83118724  0.83432659  1
  Li  Li1  1  0.08310135  0.24976409  0.83281497  1
  Li  Li2  1  0.33266432  0.74976496  0.58297135  1
  Li  Li3  1  0.33429349  0.33139467  0.58483024  1
  Li  Li4  1  0.66563141  0.66874964  0.41510137  1
  Li  Li5  1  0.66727532  0.25023298  0.41696324  1
  Li  Li6  1  0.91696985  0.75022697  0.16726195  1
  Li  Li7  1  0.91525973  0.16865951  0.16574968  1
  Ni  Ni8  1  -0.00002777  0.50019082  -0.00019692  1
  Ni  Ni9  1  0.50006815  -0.00002705  0.50000057  1
  Ni  Ni10  1  0.49999181  0.50002730  0.99998629  1
  Ni  Ni11  1  0.50001239  0.99998022  0.00000351  1
  C  C12  1  0.34220796  0.94253388  0.76893577  1
  C  C13  1  0.26886828  0.44263628  0.84211851  1
  C  C14  1  0.71544756  0.94233953  0.78854896  1
  C  C15  1  0.71141983  0.55761717  0.78455398  1
  C  C16  1  0.28856851  0.44241950  0.21542291  1
  C  C17  1  0.28458890  0.05760794  0.21146580  1
  C  C18  1  0.73110854  0.55738834  0.15789149  1
  C  C19  1  0.65778526  0.05743294  0.23108448  1
  S  S20  1  0.12499218  0.74999536  0.37500440  1
  S  S21  1  0.87501042  0.24999880  0.62499850  1
  O  O22  1  0.33677217  0.80440510  0.88999922  1
  O  O23  1  0.06756281  0.88520348  0.43340544  1
  O  O24  1  0.35199874  0.94342685  0.63560168  1
  O  O25  1  0.13555270  0.44352670  0.85201540  1
  O  O26  1  0.70473516  0.94346339  0.92080005  1
  O  O27  1  0.27790495  0.58127898  0.83330961  1
  O  O28  1  0.04744957  0.88491392  0.18163865  1
  O  O29  1  0.06656171  0.61492077  0.43234491  1
  O  O30  1  0.41400256  0.91914401  0.35890775  1
  O  O31  1  0.57925165  0.55635240  0.79544017  1
  O  O32  1  0.38993848  0.30442872  0.83665609  1
  O  O33  1  0.31835913  0.61502208  0.45256698  1
  O  O34  1  0.85897826  0.80377037  0.80594696  1
  O  O35  1  0.69406197  0.69595325  0.64105375  1
  O  O36  1  0.33336861  0.08116240  0.77799341  1
  O  O37  1  0.14097433  0.58085034  0.08600744  1
  O  O38  1  0.85902318  0.41912573  0.91399556  1
  O  O39  1  0.66663865  0.91885739  0.22198767  1
  O  O40  1  0.30590361  0.30408687  0.35893923  1
  O  O41  1  0.14103920  0.19614681  0.19411624  1
  O  O42  1  0.68168021  0.38493438  0.54745695  1
  O  O43  1  0.61002807  0.69556846  0.16334790  1
  O  O44  1  0.42076247  0.44364047  0.20456574  1
  O  O45  1  0.58600662  0.08084629  0.64110469  1
  O  O46  1  0.93343552  0.38504060  0.56767693  1
  O  O47  1  0.95253351  0.11511736  0.81832806  1
  O  O48  1  0.72211158  0.41869779  0.16668903  1
  O  O49  1  0.29526748  0.05653844  0.07918565  1
  O  O50  1  0.86444612  0.55647635  0.14803716  1
  O  O51  1  0.64796194  0.05655114  0.36440579  1
  O  O52  1  0.93242354  0.11481971  0.56660687  1
  O  O53  1  0.66321337  0.19560839  0.11003139  1
