# generated using pymatgen
data_KCdCl3
_symmetry_space_group_name_H-M   'P 1'
_cell_length_a   4.06972578
_cell_length_b   9.01363539
_cell_length_c   14.90677931
_cell_angle_alpha   90.00000000
_cell_angle_beta   90.00000000
_cell_angle_gamma   90.00000000
_symmetry_Int_Tables_number   1
_chemical_formula_structural   KCdCl3
_chemical_formula_sum   'K4 Cd4 Cl12'
_cell_volume   546.82574793
_cell_formula_units_Z   4
loop_
 _symmetry_equiv_pos_site_id
 _symmetry_equiv_pos_as_xyz
  1  'x, y, z'
loop_
 _atom_site_type_symbol
 _atom_site_label
 _atom_site_symmetry_multiplicity
 _atom_site_fract_x
 _atom_site_fract_y
 _atom_site_fract_z
 _atom_site_occupancy
  Cl  Cl0  1  0.75000000  0.48083838  0.39905218  1
  Cl  Cl1  1  0.25000000  0.51916162  0.60094782  1
  Cl  Cl2  1  0.75000000  0.98083838  0.10094782  1
  Cl  Cl3  1  0.25000000  0.01916162  0.89905218  1
  Cl  Cl4  1  0.25000000  0.16642109  0.48985932  1
  Cl  Cl5  1  0.75000000  0.83357891  0.51014068  1
  Cl  Cl6  1  0.25000000  0.66642109  0.01014068  1
  Cl  Cl7  1  0.75000000  0.33357891  0.98985932  1
  Cl  Cl8  1  0.25000000  0.29117335  0.20925381  1
  Cl  Cl9  1  0.75000000  0.70882665  0.79074619  1
  Cl  Cl10  1  0.25000000  0.79117335  0.29074619  1
  Cl  Cl11  1  0.75000000  0.20882665  0.70925381  1
  K  K12  1  0.25000000  0.92779972  0.67836969  1
  K  K13  1  0.75000000  0.07220028  0.32163031  1
  K  K14  1  0.25000000  0.42779972  0.82163031  1
  K  K15  1  0.75000000  0.57220028  0.17836969  1
  Cd  Cd16  1  0.75000000  0.32855144  0.55452718  1
  Cd  Cd17  1  0.25000000  0.67144856  0.44547282  1
  Cd  Cd18  1  0.75000000  0.82855144  0.94547282  1
  Cd  Cd19  1  0.25000000  0.17144856  0.05452718  1
