# generated using pymatgen
data_Fe3(O2F)2
_symmetry_space_group_name_H-M   'P 1'
_cell_length_a   4.65097372
_cell_length_b   7.71425832
_cell_length_c   5.59450941
_cell_angle_alpha   93.21273267
_cell_angle_beta   90.00000000
_cell_angle_gamma   90.00000000
_symmetry_Int_Tables_number   1
_chemical_formula_structural   Fe3(O2F)2
_chemical_formula_sum   'Fe6 O8 F4'
_cell_volume   200.40888377
_cell_formula_units_Z   2
loop_
 _symmetry_equiv_pos_site_id
 _symmetry_equiv_pos_as_xyz
  1  'x, y, z'
loop_
 _atom_site_type_symbol
 _atom_site_label
 _atom_site_symmetry_multiplicity
 _atom_site_fract_x
 _atom_site_fract_y
 _atom_site_fract_z
 _atom_site_occupancy
  Fe  Fe0  1  0.51079453  0.66483578  0.14870295  1
  Fe  Fe1  1  0.46933902  0.00982774  0.48441273  1
  Fe  Fe2  1  0.50849485  0.34799842  0.82271299  1
  Fe  Fe3  1  0.01079453  0.66849822  0.68463105  1
  Fe  Fe4  1  0.96933902  0.32350526  0.34892127  1
  Fe  Fe5  1  0.00849485  0.98533458  0.01062001  1
  O  O6  1  0.81295492  0.44309379  0.63099144  1
  O  O7  1  0.80399453  0.76834559  0.96122487  1
  O  O8  1  0.80424113  0.09472444  0.29698202  1
  O  O9  1  0.69209261  0.43334224  0.13336022  1
  O  O10  1  0.30399453  0.56498741  0.87210813  1
  O  O11  1  0.30424113  0.23860956  0.53635198  1
  O  O12  1  0.31295492  0.89023921  0.20234156  1
  O  O13  1  0.19209261  0.89999076  0.69997278  1
  F  F14  1  0.69969516  0.10447924  0.79591359  1
  F  F15  1  0.69839324  0.76601465  0.46523403  1
  F  F16  1  0.19969516  0.22885376  0.03741941  1
  F  F17  1  0.19839324  0.56731835  0.36809897  1
