# generated using pymatgen
data_Ag2BiO3
_symmetry_space_group_name_H-M   'P 1'
_cell_length_a   6.16039952
_cell_length_b   6.34977235
_cell_length_c   9.76762013
_cell_angle_alpha   90.00000000
_cell_angle_beta   90.00000000
_cell_angle_gamma   90.00000000
_symmetry_Int_Tables_number   1
_chemical_formula_structural   Ag2BiO3
_chemical_formula_sum   'Ag8 Bi4 O12'
_cell_volume   382.08131073
_cell_formula_units_Z   4
loop_
 _symmetry_equiv_pos_site_id
 _symmetry_equiv_pos_as_xyz
  1  'x, y, z'
loop_
 _atom_site_type_symbol
 _atom_site_label
 _atom_site_symmetry_multiplicity
 _atom_site_fract_x
 _atom_site_fract_y
 _atom_site_fract_z
 _atom_site_occupancy
  O  O0  1  0.89107633  0.22308850  0.74485919  1
  O  O1  1  0.10892367  0.77691150  0.74485919  1
  O  O2  1  0.60892367  0.72308850  0.24485919  1
  O  O3  1  0.39107633  0.27691150  0.24485919  1
  O  O4  1  0.69473999  0.81938723  0.93287128  1
  O  O5  1  0.30526001  0.18061277  0.93287128  1
  O  O6  1  0.80526001  0.31938723  0.43287128  1
  O  O7  1  0.19473999  0.68061277  0.43287128  1
  O  O8  1  0.32332109  0.31624681  0.55837538  1
  O  O9  1  0.82332109  0.18375319  0.05837538  1
  O  O10  1  0.17667891  0.81624681  0.05837538  1
  O  O11  1  0.67667891  0.68375319  0.55837538  1
  Ag  Ag12  1  0.97054610  0.75154695  0.25195389  1
  Ag  Ag13  1  0.74659055  0.00038156  0.49642203  1
  Ag  Ag14  1  0.24659055  0.49961844  0.99642203  1
  Ag  Ag15  1  0.75340945  0.50038156  0.99642203  1
  Ag  Ag16  1  0.52945390  0.25154695  0.75195389  1
  Ag  Ag17  1  0.47054610  0.74845305  0.75195389  1
  Ag  Ag18  1  0.02945390  0.24845305  0.25195389  1
  Ag  Ag19  1  0.25340945  0.99961844  0.49642203  1
  Bi  Bi20  1  0.00000000  0.00000000  0.89674079  1
  Bi  Bi21  1  0.50000000  0.50000000  0.39674079  1
  Bi  Bi22  1  0.00000000  0.50000000  0.60415567  1
  Bi  Bi23  1  0.50000000  0.00000000  0.10415567  1
