# generated using pymatgen
data_VBP2H5NO9
_symmetry_space_group_name_H-M   'P 1'
_cell_length_a   8.42314546
_cell_length_b   9.58216117
_cell_length_c   9.87863075
_cell_angle_alpha   103.60706353
_cell_angle_beta   90.00000000
_cell_angle_gamma   90.00000000
_symmetry_Int_Tables_number   1
_chemical_formula_structural   VBP2H5NO9
_chemical_formula_sum   'V4 B4 P8 H20 N4 O36'
_cell_volume   774.94415604
_cell_formula_units_Z   4
loop_
 _symmetry_equiv_pos_site_id
 _symmetry_equiv_pos_as_xyz
  1  'x, y, z'
loop_
 _atom_site_type_symbol
 _atom_site_label
 _atom_site_symmetry_multiplicity
 _atom_site_fract_x
 _atom_site_fract_y
 _atom_site_fract_z
 _atom_site_occupancy
  H  H0  1  0.86719567  0.27696585  0.10578730  1
  H  H1  1  0.36719625  0.72303477  0.39421304  1
  H  H2  1  0.13280316  0.72303494  0.89421234  1
  H  H3  1  0.63280375  0.27696603  0.60578762  1
  H  H4  1  0.04510856  0.86140080  0.84747614  1
  H  H5  1  0.54510798  0.13859909  0.65252359  1
  H  H6  1  0.95489144  0.13859891  0.15252326  1
  H  H7  1  0.45489203  0.86140063  0.34747684  1
  H  H8  1  0.00425236  0.82916448  0.00693721  1
  H  H9  1  0.50425296  0.17083614  0.49306312  1
  H  H10  1  0.99574765  0.17083632  0.99306345  1
  H  H11  1  0.58676864  0.39211580  0.00179223  1
  H  H12  1  0.18501216  0.89196639  0.97362712  1
  H  H13  1  0.68501276  0.10803351  0.52637262  1
  H  H14  1  0.81498785  0.10803440  0.02637252  1
  H  H15  1  0.31498725  0.89196622  0.47362781  1
  H  H16  1  0.41323137  0.60788392  0.99820820  1
  H  H17  1  0.08676923  0.60788374  0.49820787  1
  H  H18  1  0.91323078  0.39211598  0.50179256  1
  H  H19  1  0.49574705  0.82916358  0.50693628  1
  B  B20  1  0.06282253  0.66581997  0.30798551  1
  B  B21  1  0.93717748  0.33418083  0.69201413  1
  B  B22  1  0.43717807  0.66581907  0.80798560  1
  B  B23  1  0.56282194  0.33418065  0.19201483  1
  N  N24  1  0.40835230  0.82614423  0.43183290  1
  N  N25  1  0.09164711  0.82614334  0.93183299  1
  N  N26  1  0.59164771  0.17385656  0.56816674  1
  N  N27  1  0.90835290  0.17385638  0.06816642  1
  O  O28  1  0.08095395  0.80888150  0.28000611  1
  O  O29  1  0.22049603  0.36469894  0.06708277  1
  O  O30  1  0.27950338  0.36469912  0.56708310  1
  O  O31  1  0.77950398  0.63530078  0.93291664  1
  O  O32  1  0.04852849  0.68872771  0.46309020  1
  O  O33  1  0.54852909  0.31127291  0.03691013  1
  O  O34  1  0.95147152  0.31127201  0.53691023  1
  O  O35  1  0.45147092  0.68872788  0.96308951  1
  O  O36  1  0.51776471  0.93019095  0.19830772  1
  O  O37  1  0.01776529  0.06980860  0.30169238  1
  O  O38  1  0.48223530  0.06980878  0.80169271  1
  O  O39  1  0.98223471  0.93019112  0.69830703  1
  O  O40  1  0.41904546  0.80888167  0.78000541  1
  O  O41  1  0.91904606  0.19111930  0.71999455  1
  O  O42  1  0.58095455  0.19111912  0.21999423  1
  O  O43  1  0.72049663  0.63530167  0.43291654  1
  O  O44  1  0.57570828  0.58697017  0.73546041  1
  O  O45  1  0.07570769  0.41302973  0.76454035  1
  O  O46  1  0.42429172  0.41302955  0.26454003  1
  O  O47  1  0.92429232  0.58697107  0.23546031  1
  O  O48  1  0.78826533  0.41171448  0.73702714  1
  O  O49  1  0.28826473  0.58828542  0.76297361  1
  O  O50  1  0.64755041  0.88557822  0.65084665  1
  O  O51  1  0.71173527  0.41171430  0.23702682  1
  O  O52  1  0.86415344  0.65067440  0.68970470  1
  O  O53  1  0.63584598  0.65067422  0.18970438  1
  O  O54  1  0.13584657  0.34932532  0.31029573  1
  O  O55  1  0.36415403  0.34932549  0.81029503  1
  O  O56  1  0.66365899  0.91624417  0.91827069  1
  O  O57  1  0.16365957  0.08375572  0.58172905  1
  O  O58  1  0.33634102  0.08375554  0.08172872  1
  O  O59  1  0.83634043  0.91624399  0.41827036  1
  O  O60  1  0.85244901  0.88557804  0.15084633  1
  O  O61  1  0.35244959  0.11442151  0.34915378  1
  O  O62  1  0.14755100  0.11442168  0.84915308  1
  O  O63  1  0.21173468  0.58828632  0.26297352  1
  P  P64  1  0.74497721  0.57861840  0.27590358  1
  P  P65  1  0.24497662  0.42138115  0.22409653  1
  P  P66  1  0.25502280  0.42138132  0.72409583  1
  P  P67  1  0.75502339  0.57861858  0.77590390  1
  P  P68  1  0.94114093  0.92189754  0.29210621  1
  P  P69  1  0.44114033  0.07810308  0.20789412  1
  P  P70  1  0.55885967  0.92189664  0.79210631  1
  P  P71  1  0.05885908  0.07810325  0.70789343  1
  V  V72  1  0.65403883  0.78936463  0.06276891  1
  V  V73  1  0.15403942  0.21063491  0.43723120  1
  V  V74  1  0.34596118  0.21063508  0.93723050  1
  V  V75  1  0.84596059  0.78936481  0.56276923  1
