# generated using pymatgen
data_AuBr3
_symmetry_space_group_name_H-M   'P 1'
_cell_length_a   7.04957126
_cell_length_b   8.67028672
_cell_length_c   20.81271292
_cell_angle_alpha   90.00000000
_cell_angle_beta   90.00000000
_cell_angle_gamma   109.78178365
_symmetry_Int_Tables_number   1
_chemical_formula_structural   AuBr3
_chemical_formula_sum   'Au8 Br24'
_cell_volume   1197.04130544
_cell_formula_units_Z   8
loop_
 _symmetry_equiv_pos_site_id
 _symmetry_equiv_pos_as_xyz
  1  'x, y, z'
loop_
 _atom_site_type_symbol
 _atom_site_label
 _atom_site_symmetry_multiplicity
 _atom_site_fract_x
 _atom_site_fract_y
 _atom_site_fract_z
 _atom_site_occupancy
  Br  Br0  1  0.45862697  0.78834853  0.23289106  1
  Br  Br1  1  0.04137303  0.71165147  0.73289106  1
  Br  Br2  1  0.54137303  0.21165147  0.76710894  1
  Br  Br3  1  0.95862697  0.28834853  0.26710894  1
  Br  Br4  1  0.97697967  0.79296019  0.18859404  1
  Br  Br5  1  0.52302033  0.70703981  0.68859404  1
  Br  Br6  1  0.02302033  0.20703981  0.81140596  1
  Br  Br7  1  0.47697967  0.29296019  0.31140596  1
  Br  Br8  1  0.82338271  0.26733431  0.10577478  1
  Br  Br9  1  0.67661729  0.23266569  0.60577478  1
  Br  Br10  1  0.17661729  0.73266569  0.89422522  1
  Br  Br11  1  0.32338271  0.76733431  0.39422522  1
  Br  Br12  1  0.69931010  0.22990618  0.93974467  1
  Br  Br13  1  0.80068990  0.27009382  0.43974467  1
  Br  Br14  1  0.30068990  0.77009382  0.06025533  1
  Br  Br15  1  0.19931010  0.72990618  0.56025533  1
  Br  Br16  1  0.22307841  0.25402170  0.97862630  1
  Br  Br17  1  0.27692159  0.24597830  0.47862630  1
  Br  Br18  1  0.77692159  0.74597830  0.02137370  1
  Br  Br19  1  0.72307841  0.75402170  0.52137370  1
  Br  Br20  1  0.35999733  0.29181917  0.14334324  1
  Br  Br21  1  0.14000267  0.20818083  0.64334324  1
  Br  Br22  1  0.64000267  0.70818083  0.85665676  1
  Br  Br23  1  0.85999733  0.79181917  0.35665676  1
  Au  Au24  1  0.15402952  0.78513526  0.28930383  1
  Au  Au25  1  0.34597048  0.71486474  0.78930383  1
  Au  Au26  1  0.84597048  0.21486474  0.71069617  1
  Au  Au27  1  0.65402952  0.28513526  0.21069617  1
  Au  Au28  1  0.02476702  0.76001486  0.46197303  1
  Au  Au29  1  0.47523298  0.73998514  0.96197303  1
  Au  Au30  1  0.97523298  0.23998514  0.53802697  1
  Au  Au31  1  0.52476702  0.26001486  0.03802697  1
