# generated using pymatgen
data_AsCl2F3
_symmetry_space_group_name_H-M   'P 1'
_cell_length_a   6.43010777
_cell_length_b   8.94534495
_cell_length_c   8.94534495
_cell_angle_alpha   90.00000000
_cell_angle_beta   90.00000000
_cell_angle_gamma   90.00000000
_symmetry_Int_Tables_number   1
_chemical_formula_structural   AsCl2F3
_chemical_formula_sum   'As4 Cl8 F12'
_cell_volume   514.53205571
_cell_formula_units_Z   4
loop_
 _symmetry_equiv_pos_site_id
 _symmetry_equiv_pos_as_xyz
  1  'x, y, z'
loop_
 _atom_site_type_symbol
 _atom_site_label
 _atom_site_symmetry_multiplicity
 _atom_site_fract_x
 _atom_site_fract_y
 _atom_site_fract_z
 _atom_site_occupancy
  F  F0  1  0.39749471  0.75000000  0.75000000  1
  F  F1  1  0.60250529  0.25000000  0.25000000  1
  F  F2  1  0.67322800  0.56326528  0.68161605  1
  F  F3  1  0.67322800  0.81838395  0.56326528  1
  F  F4  1  0.67322800  0.68161605  0.93673472  1
  F  F5  1  0.67322800  0.93673472  0.81838395  1
  F  F6  1  0.32677200  0.43673472  0.31838395  1
  F  F7  1  0.32677200  0.18161605  0.43673472  1
  F  F8  1  0.32677200  0.31838395  0.06326528  1
  F  F9  1  0.05032941  0.25000000  0.25000000  1
  F  F10  1  0.94967059  0.75000000  0.75000000  1
  F  F11  1  0.32677200  0.06326528  0.18161605  1
  Cl  Cl12  1  0.19134077  0.43599536  0.71333709  1
  Cl  Cl13  1  0.19134077  0.78666291  0.43599536  1
  Cl  Cl14  1  0.80865923  0.28666291  0.93599536  1
  Cl  Cl15  1  0.80865923  0.56400464  0.28666291  1
  Cl  Cl16  1  0.80865923  0.93599536  0.21333709  1
  Cl  Cl17  1  0.80865923  0.21333709  0.56400464  1
  Cl  Cl18  1  0.19134077  0.06400464  0.78666291  1
  Cl  Cl19  1  0.19134077  0.71333709  0.06400464  1
  As  As20  1  0.67522986  0.75000000  0.75000000  1
  As  As21  1  0.32477014  0.25000000  0.25000000  1
  As  As22  1  0.00000000  0.25000000  0.75000000  1
  As  As23  1  0.00000000  0.75000000  0.25000000  1
