# generated using pymatgen
data_Fe5O7F3
_symmetry_space_group_name_H-M   'P 1'
_cell_length_a   4.65852387
_cell_length_b   4.65534940
_cell_length_c   15.20782164
_cell_angle_alpha   89.99779373
_cell_angle_beta   90.02424310
_cell_angle_gamma   89.83884844
_symmetry_Int_Tables_number   1
_chemical_formula_structural   Fe5O7F3
_chemical_formula_sum   'Fe10 O14 F6'
_cell_volume   329.81154981
_cell_formula_units_Z   2
loop_
 _symmetry_equiv_pos_site_id
 _symmetry_equiv_pos_as_xyz
  1  'x, y, z'
loop_
 _atom_site_type_symbol
 _atom_site_label
 _atom_site_symmetry_multiplicity
 _atom_site_fract_x
 _atom_site_fract_y
 _atom_site_fract_z
 _atom_site_occupancy
  Fe  Fe0  1  0.99788622  0.99352997  0.00146779  1
  Fe  Fe1  1  0.01845662  0.03381352  0.20637878  1
  Fe  Fe2  1  0.97310476  0.97227296  0.40004950  1
  Fe  Fe3  1  0.03577441  0.01702401  0.59324492  1
  Fe  Fe4  1  0.00950470  0.98106699  0.79886136  1
  Fe  Fe5  1  0.51901790  0.46518610  0.09384884  1
  Fe  Fe6  1  0.50384312  0.49496361  0.50152695  1
  Fe  Fe7  1  0.49562599  0.50258147  0.29834966  1
  Fe  Fe8  1  0.47210480  0.51324624  0.70553608  1
  Fe  Fe9  1  0.47787622  0.51689781  0.89990361  1
  O  O10  1  0.19246609  0.80022130  0.29984256  1
  O  O11  1  0.19698927  0.79338111  0.49724954  1
  O  O12  1  0.19194457  0.82389335  0.69653339  1
  O  O13  1  0.17787920  0.81050683  0.90362041  1
  O  O14  1  0.30200170  0.29858702  0.99707177  1
  O  O15  1  0.32645967  0.31419110  0.19910207  1
  O  O16  1  0.31864326  0.32133806  0.60000066  1
  O  O17  1  0.29157965  0.30975490  0.80420203  1
  O  O18  1  0.69378734  0.68988119  0.99834546  1
  O  O19  1  0.67616507  0.67568776  0.39976368  1
  O  O20  1  0.68430365  0.70078499  0.80295336  1
  O  O21  1  0.82884397  0.18179334  0.10008103  1
  O  O22  1  0.80258350  0.19115922  0.50009397  1
  O  O23  1  0.79505086  0.19601457  0.30221106  1
  F  F24  1  0.21339112  0.79865458  0.10360807  1
  F  F25  1  0.29249572  0.29128806  0.39975271  1
  F  F26  1  0.71170761  0.69819027  0.19610400  1
  F  F27  1  0.70419299  0.70771268  0.60318622  1
  F  F28  1  0.79380566  0.19749886  0.89862206  1
  F  F29  1  0.80251635  0.20887913  0.69848645  1
