# generated using pymatgen
data_KAuCl4
_symmetry_space_group_name_H-M   'P 1'
_cell_length_a   6.58688167
_cell_length_b   9.10042254
_cell_length_c   12.51330976
_cell_angle_alpha   96.56537606
_cell_angle_beta   90.00000000
_cell_angle_gamma   90.00000000
_symmetry_Int_Tables_number   1
_chemical_formula_structural   KAuCl4
_chemical_formula_sum   'K4 Au4 Cl16'
_cell_volume   745.17135062
_cell_formula_units_Z   4
loop_
 _symmetry_equiv_pos_site_id
 _symmetry_equiv_pos_as_xyz
  1  'x, y, z'
loop_
 _atom_site_type_symbol
 _atom_site_label
 _atom_site_symmetry_multiplicity
 _atom_site_fract_x
 _atom_site_fract_y
 _atom_site_fract_z
 _atom_site_occupancy
  Cl  Cl0  1  0.49959439  0.65162736  0.56339766  1
  Cl  Cl1  1  0.50040561  0.65162736  0.06339766  1
  Cl  Cl2  1  0.99765411  0.32539856  0.42387542  1
  Cl  Cl3  1  0.00234589  0.32539856  0.92387542  1
  Cl  Cl4  1  0.10142666  0.49282880  0.66248179  1
  Cl  Cl5  1  0.89857334  0.49282880  0.16248179  1
  Cl  Cl6  1  0.39708253  0.48277557  0.32478536  1
  Cl  Cl7  1  0.60291747  0.48277557  0.82478536  1
  Cl  Cl8  1  0.46087189  0.10773750  0.95116348  1
  Cl  Cl9  1  0.53912811  0.10773750  0.45116348  1
  Cl  Cl10  1  0.04513102  0.86739725  0.04560202  1
  Cl  Cl11  1  0.95486898  0.86739725  0.54560202  1
  Cl  Cl12  1  0.80284238  0.89613080  0.81919399  1
  Cl  Cl13  1  0.19715762  0.89613080  0.31919399  1
  Cl  Cl14  1  0.70230565  0.07829018  0.17794711  1
  Cl  Cl15  1  0.29769435  0.07829018  0.67794711  1
  K  K16  1  0.69854662  0.77088333  0.31327086  1
  K  K17  1  0.30145338  0.77088333  0.81327086  1
  K  K18  1  0.19993880  0.20081138  0.18079904  1
  K  K19  1  0.80006120  0.20081138  0.68079904  1
  Au  Au20  1  0.24897774  0.48813511  0.49364558  1
  Au  Au21  1  0.75102226  0.48813511  0.99364558  1
  Au  Au22  1  0.24736442  0.98728414  0.49853770  1
  Au  Au23  1  0.75263558  0.98728414  0.99853770  1
