# generated using pymatgen
data_Hg(IO3)2
_symmetry_space_group_name_H-M   'P 1'
_cell_length_a   5.62413465
_cell_length_b   5.97066284
_cell_length_c   9.16421869
_cell_angle_alpha   102.40450984
_cell_angle_beta   90.00000000
_cell_angle_gamma   90.00000000
_symmetry_Int_Tables_number   1
_chemical_formula_structural   Hg(IO3)2
_chemical_formula_sum   'Hg2 I4 O12'
_cell_volume   300.54883252
_cell_formula_units_Z   2
loop_
 _symmetry_equiv_pos_site_id
 _symmetry_equiv_pos_as_xyz
  1  'x, y, z'
loop_
 _atom_site_type_symbol
 _atom_site_label
 _atom_site_symmetry_multiplicity
 _atom_site_fract_x
 _atom_site_fract_y
 _atom_site_fract_z
 _atom_site_occupancy
  O  O0  1  0.93342001  0.48815063  0.34949215  1
  O  O1  1  0.43342001  0.51184937  0.65050785  1
  O  O2  1  0.49876224  0.33601592  0.00614852  1
  O  O3  1  0.99876224  0.66398408  0.99385148  1
  O  O4  1  0.42046830  0.29161085  0.29246452  1
  O  O5  1  0.92046830  0.70838915  0.70753548  1
  O  O6  1  0.93486320  0.97110759  0.41207880  1
  O  O7  1  0.43486320  0.02889241  0.58792120  1
  O  O8  1  0.57575152  0.83033488  0.93354429  1
  O  O9  1  0.07575152  0.16966512  0.06645571  1
  O  O10  1  0.56334295  0.76034550  0.25972400  1
  O  O11  1  0.06334295  0.23965450  0.74027600  1
  I  I12  1  0.26940225  0.42164646  0.14966079  1
  I  I13  1  0.76940225  0.57835354  0.85033921  1
  I  I14  1  0.23793302  0.26762971  0.57222790  1
  I  I15  1  0.73793302  0.73237029  0.42777210  1
  Hg  Hg16  1  0.74513651  0.06732292  0.17321984  1
  Hg  Hg17  1  0.24513651  0.93267708  0.82678016  1
