# generated using pymatgen
data_Bi4Br2O5
_symmetry_space_group_name_H-M   'P 1'
_cell_length_a   5.74144597
_cell_length_b   11.10364370
_cell_length_c   14.80672762
_cell_angle_alpha   98.52866298
_cell_angle_beta   90.00000000
_cell_angle_gamma   90.00000000
_symmetry_Int_Tables_number   1
_chemical_formula_structural   Bi4Br2O5
_chemical_formula_sum   'Bi16 Br8 O20'
_cell_volume   933.50493726
_cell_formula_units_Z   4
loop_
 _symmetry_equiv_pos_site_id
 _symmetry_equiv_pos_as_xyz
  1  'x, y, z'
loop_
 _atom_site_type_symbol
 _atom_site_label
 _atom_site_symmetry_multiplicity
 _atom_site_fract_x
 _atom_site_fract_y
 _atom_site_fract_z
 _atom_site_occupancy
  O  O0  1  0.31497703  0.29509669  0.03255616  1
  O  O1  1  0.81497703  0.70490331  0.96744384  1
  O  O2  1  0.01750620  0.34680017  0.19262960  1
  O  O3  1  0.51750620  0.65319983  0.80737040  1
  O  O4  1  0.51854151  0.35253151  0.19669584  1
  O  O5  1  0.01854151  0.64746849  0.80330416  1
  O  O6  1  0.82817817  0.54080894  0.29719701  1
  O  O7  1  0.32817817  0.45919106  0.70280299  1
  O  O8  1  0.97269192  0.57608316  0.09540942  1
  O  O9  1  0.47269192  0.42391684  0.90459058  1
  O  O10  1  0.47110666  0.57610144  0.08774648  1
  O  O11  1  0.97110666  0.42389856  0.91225352  1
  O  O12  1  0.00208165  0.07811653  0.57938165  1
  O  O13  1  0.50208165  0.92188347  0.42061835  1
  O  O14  1  0.51706006  0.08101875  0.57996531  1
  O  O15  1  0.01706006  0.91898125  0.42003469  1
  O  O16  1  0.49238301  0.74459818  0.26358425  1
  O  O17  1  0.50233243  0.24840353  0.74162598  1
  O  O18  1  0.00233243  0.75159647  0.25837402  1
  O  O19  1  0.99238301  0.25540182  0.73641575  1
  Br  Br20  1  0.26626804  0.21382848  0.37952817  1
  Br  Br21  1  0.76626804  0.78617152  0.62047183  1
  Br  Br22  1  0.79042762  0.37568715  0.55049107  1
  Br  Br23  1  0.29042762  0.62431285  0.44950893  1
  Br  Br24  1  0.76577440  0.05191129  0.22790882  1
  Br  Br25  1  0.78925122  0.12465358  0.93774718  1
  Br  Br26  1  0.28925122  0.87534642  0.06225282  1
  Br  Br27  1  0.26577440  0.94808871  0.77209118  1
  Bi  Bi28  1  0.27212200  0.21096374  0.15162319  1
  Bi  Bi29  1  0.77212200  0.78903626  0.84837681  1
  Bi  Bi30  1  0.77228538  0.35215347  0.30247648  1
  Bi  Bi31  1  0.27228538  0.64784653  0.69752352  1
  Bi  Bi32  1  0.21191811  0.26653636  0.88172842  1
  Bi  Bi33  1  0.71191811  0.73346364  0.11827158  1
  Bi  Bi34  1  0.66007473  0.40347770  0.04138622  1
  Bi  Bi35  1  0.16007473  0.59652230  0.95861378  1
  Bi  Bi36  1  0.18093927  0.56381378  0.21898515  1
  Bi  Bi37  1  0.68093927  0.43618622  0.78101485  1
  Bi  Bi38  1  0.74708279  0.72689711  0.37278294  1
  Bi  Bi39  1  0.24708279  0.27310289  0.62721706  1
  Bi  Bi40  1  0.25960687  0.92220700  0.54258677  1
  Bi  Bi41  1  0.75960687  0.07779300  0.45741323  1
  Bi  Bi42  1  0.75529092  0.09476019  0.70631352  1
  Bi  Bi43  1  0.25529092  0.90523981  0.29368648  1
