# generated using pymatgen
data_NdSBr
_symmetry_space_group_name_H-M   'P 1'
_cell_length_a   7.00377885
_cell_length_b   7.10286394
_cell_length_c   7.10602445
_cell_angle_alpha   90.00000000
_cell_angle_beta   90.00000000
_cell_angle_gamma   100.12044076
_symmetry_Int_Tables_number   1
_chemical_formula_structural   NdSBr
_chemical_formula_sum   'Nd4 S4 Br4'
_cell_volume   348.00229940
_cell_formula_units_Z   4
loop_
 _symmetry_equiv_pos_site_id
 _symmetry_equiv_pos_as_xyz
  1  'x, y, z'
loop_
 _atom_site_type_symbol
 _atom_site_label
 _atom_site_symmetry_multiplicity
 _atom_site_fract_x
 _atom_site_fract_y
 _atom_site_fract_z
 _atom_site_occupancy
  S  S0  1  0.99169986  0.45065977  0.24153357  1
  S  S1  1  0.49169986  0.45065977  0.25846643  1
  S  S2  1  0.00830014  0.54934023  0.75846643  1
  S  S3  1  0.50830014  0.54934023  0.74153357  1
  Br  Br4  1  0.20612445  0.91878945  0.37958575  1
  Br  Br5  1  0.70612445  0.91878945  0.12041425  1
  Br  Br6  1  0.79387555  0.08121055  0.62041425  1
  Br  Br7  1  0.29387555  0.08121055  0.87958575  1
  Nd  Nd8  1  0.70895224  0.31865918  0.96612745  1
  Nd  Nd9  1  0.79104776  0.68134082  0.46612745  1
  Nd  Nd10  1  0.29104776  0.68134082  0.03387255  1
  Nd  Nd11  1  0.20895224  0.31865918  0.53387255  1
