# generated using pymatgen
data_Tl6Si2O7
_symmetry_space_group_name_H-M   'P 1'
_cell_length_a   9.93271449
_cell_length_b   9.93271449
_cell_length_c   8.11057773
_cell_angle_alpha   90.00000000
_cell_angle_beta   90.00000000
_cell_angle_gamma   120.00000001
_symmetry_Int_Tables_number   1
_chemical_formula_structural   Tl6Si2O7
_chemical_formula_sum   'Tl12 Si4 O14'
_cell_volume   692.97621192
_cell_formula_units_Z   2
loop_
 _symmetry_equiv_pos_site_id
 _symmetry_equiv_pos_as_xyz
  1  'x, y, z'
loop_
 _atom_site_type_symbol
 _atom_site_label
 _atom_site_symmetry_multiplicity
 _atom_site_fract_x
 _atom_site_fract_y
 _atom_site_fract_z
 _atom_site_occupancy
  O  O0  1  0.84893518  0.44786680  0.88440691  1
  O  O1  1  0.55213320  0.40106838  0.88440691  1
  O  O2  1  0.59893162  0.15106482  0.88440691  1
  O  O3  1  0.40106838  0.84893518  0.11559309  1
  O  O4  1  0.66666667  0.33333333  0.62309706  1
  O  O5  1  0.33333333  0.66666667  0.37690294  1
  O  O6  1  0.59836427  0.15131543  0.36109304  1
  O  O7  1  0.55295116  0.40163573  0.36109304  1
  O  O8  1  0.84868457  0.44704884  0.36109304  1
  O  O9  1  0.40163573  0.84868457  0.63890696  1
  O  O10  1  0.44704884  0.59836427  0.63890696  1
  O  O11  1  0.15131543  0.55295116  0.63890696  1
  O  O12  1  0.15106482  0.55213320  0.11559309  1
  O  O13  1  0.44786680  0.59893162  0.11559309  1
  Si  Si14  1  0.33333333  0.66666667  0.17045879  1
  Si  Si15  1  0.66666667  0.33333333  0.41698982  1
  Si  Si16  1  0.33333333  0.66666667  0.58301018  1
  Si  Si17  1  0.66666667  0.33333333  0.82954121  1
  Tl  Tl18  1  0.03665094  0.35453488  0.36976363  1
  Tl  Tl19  1  0.31788394  0.96334906  0.36976363  1
  Tl  Tl20  1  0.64546512  0.68211606  0.36976363  1
  Tl  Tl21  1  0.96334906  0.64546512  0.63023637  1
  Tl  Tl22  1  0.68211606  0.03665094  0.63023637  1
  Tl  Tl23  1  0.35453488  0.31788394  0.63023637  1
  Tl  Tl24  1  0.05155989  0.36357892  0.87812040  1
  Tl  Tl25  1  0.31201903  0.94844011  0.87812040  1
  Tl  Tl26  1  0.63642108  0.68798097  0.87812040  1
  Tl  Tl27  1  0.94844011  0.63642108  0.12187960  1
  Tl  Tl28  1  0.68798097  0.05155989  0.12187960  1
  Tl  Tl29  1  0.36357892  0.31201903  0.12187960  1
