# generated using pymatgen
data_Sb4Cl2O5
_symmetry_space_group_name_H-M   'P 1'
_cell_length_a   5.22680836
_cell_length_b   6.38273242
_cell_length_c   13.82230519
_cell_angle_alpha   95.69528235
_cell_angle_beta   90.00000000
_cell_angle_gamma   90.00000000
_symmetry_Int_Tables_number   1
_chemical_formula_structural   Sb4Cl2O5
_chemical_formula_sum   'Sb8 Cl4 O10'
_cell_volume   458.85407796
_cell_formula_units_Z   2
loop_
 _symmetry_equiv_pos_site_id
 _symmetry_equiv_pos_as_xyz
  1  'x, y, z'
loop_
 _atom_site_type_symbol
 _atom_site_label
 _atom_site_symmetry_multiplicity
 _atom_site_fract_x
 _atom_site_fract_y
 _atom_site_fract_z
 _atom_site_occupancy
  O  O0  1  0.50742045  0.93022130  0.58147550  1
  O  O1  1  0.00742045  0.06977870  0.91852450  1
  O  O2  1  0.49257955  0.06977870  0.41852450  1
  O  O3  1  0.99257955  0.93022130  0.08147550  1
  O  O4  1  0.82588009  0.92689319  0.29032179  1
  O  O5  1  0.32588009  0.07310681  0.20967821  1
  O  O6  1  0.17411991  0.07310681  0.70967821  1
  O  O7  1  0.67411991  0.92689319  0.79032179  1
  O  O8  1  0.50000000  0.00000000  0.00000000  1
  O  O9  1  0.00000000  0.00000000  0.50000000  1
  Cl  Cl10  1  0.71489072  0.51106887  0.11737940  1
  Cl  Cl11  1  0.21489072  0.48893113  0.38262060  1
  Cl  Cl12  1  0.28510928  0.48893113  0.88262060  1
  Cl  Cl13  1  0.78510928  0.51106887  0.61737940  1
  Sb  Sb14  1  0.60259302  0.20173388  0.29602934  1
  Sb  Sb15  1  0.10259302  0.79826612  0.20397066  1
  Sb  Sb16  1  0.39740698  0.79826612  0.70397066  1
  Sb  Sb17  1  0.89740698  0.20173388  0.79602934  1
  Sb  Sb18  1  0.72231798  0.81619629  0.45265047  1
  Sb  Sb19  1  0.22231798  0.18380371  0.04734953  1
  Sb  Sb20  1  0.27768202  0.18380371  0.54734953  1
  Sb  Sb21  1  0.77768202  0.81619629  0.95265047  1
