# generated using pymatgen
data_K2SbCl5
_symmetry_space_group_name_H-M   'P 1'
_cell_length_a   9.09560979
_cell_length_b   9.07470589
_cell_length_c   12.76840606
_cell_angle_alpha   90.00000000
_cell_angle_beta   90.00000000
_cell_angle_gamma   109.13952894
_symmetry_Int_Tables_number   1
_chemical_formula_structural   K2SbCl5
_chemical_formula_sum   'K8 Sb4 Cl20'
_cell_volume   995.64730883
_cell_formula_units_Z   4
loop_
 _symmetry_equiv_pos_site_id
 _symmetry_equiv_pos_as_xyz
  1  'x, y, z'
loop_
 _atom_site_type_symbol
 _atom_site_label
 _atom_site_symmetry_multiplicity
 _atom_site_fract_x
 _atom_site_fract_y
 _atom_site_fract_z
 _atom_site_occupancy
  Cl  Cl0  1  0.60753941  0.63911749  0.88552321  1
  Cl  Cl1  1  0.82866485  0.03542609  0.42457501  1
  Cl  Cl2  1  0.17133515  0.46457391  0.92457501  1
  Cl  Cl3  1  0.17133515  0.96457391  0.57542499  1
  Cl  Cl4  1  0.75325489  0.04111805  0.90639819  1
  Cl  Cl5  1  0.24674511  0.45888195  0.40639819  1
  Cl  Cl6  1  0.24674511  0.95888195  0.09360181  1
  Cl  Cl7  1  0.75325489  0.54111805  0.59360181  1
  Cl  Cl8  1  0.00260056  0.78688019  0.84887347  1
  Cl  Cl9  1  0.99739944  0.71311981  0.34887347  1
  Cl  Cl10  1  0.99739944  0.21311981  0.15112653  1
  Cl  Cl11  1  0.00260056  0.28688019  0.65112653  1
  Cl  Cl12  1  0.58700183  0.79086513  0.13905841  1
  Cl  Cl13  1  0.60753941  0.13911749  0.61447679  1
  Cl  Cl14  1  0.41299817  0.20913487  0.86094159  1
  Cl  Cl15  1  0.58700183  0.29086513  0.36094159  1
  Cl  Cl16  1  0.41299817  0.70913487  0.63905841  1
  Cl  Cl17  1  0.39246059  0.86088251  0.38552321  1
  Cl  Cl18  1  0.39246059  0.36088251  0.11447679  1
  Cl  Cl19  1  0.82866485  0.53542609  0.07542499  1
  K  K20  1  0.82134219  0.90536191  0.67192832  1
  K  K21  1  0.63141462  0.15598073  0.13135693  1
  K  K22  1  0.36858538  0.34401927  0.63135693  1
  K  K23  1  0.36858538  0.84401927  0.86864307  1
  K  K24  1  0.82134219  0.40536191  0.82807168  1
  K  K25  1  0.17865781  0.09463809  0.32807168  1
  K  K26  1  0.63141462  0.65598073  0.36864307  1
  K  K27  1  0.17865781  0.59463809  0.17192832  1
  Sb  Sb28  1  0.80835247  0.29323995  0.49646175  1
  Sb  Sb29  1  0.19164753  0.20676005  0.99646175  1
  Sb  Sb30  1  0.19164753  0.70676005  0.50353825  1
  Sb  Sb31  1  0.80835247  0.79323995  0.00353825  1
