# generated using pymatgen
data_Mg(SbO2)2
_symmetry_space_group_name_H-M   'P 1'
_cell_length_a   8.59154916
_cell_length_b   8.59154916
_cell_length_c   6.07500989
_cell_angle_alpha   90.00000000
_cell_angle_beta   90.00000000
_cell_angle_gamma   90.00000000
_symmetry_Int_Tables_number   1
_chemical_formula_structural   Mg(SbO2)2
_chemical_formula_sum   'Mg4 Sb8 O16'
_cell_volume   448.42513561
_cell_formula_units_Z   4
loop_
 _symmetry_equiv_pos_site_id
 _symmetry_equiv_pos_as_xyz
  1  'x, y, z'
loop_
 _atom_site_type_symbol
 _atom_site_label
 _atom_site_symmetry_multiplicity
 _atom_site_fract_x
 _atom_site_fract_y
 _atom_site_fract_z
 _atom_site_occupancy
  Sb  Sb0  1  0.32468971  0.33352723  0.00000000  1
  Sb  Sb1  1  0.66647277  0.32468971  0.50000000  1
  Sb  Sb2  1  0.33352723  0.67531029  0.50000000  1
  Sb  Sb3  1  0.82468971  0.16647277  0.00000000  1
  Sb  Sb4  1  0.17531029  0.83352723  0.00000000  1
  Sb  Sb5  1  0.67531029  0.66647277  0.00000000  1
  Sb  Sb6  1  0.83352723  0.82468971  0.50000000  1
  Sb  Sb7  1  0.16647277  0.17531029  0.50000000  1
  Mg  Mg8  1  0.00000000  0.50000000  0.25000000  1
  Mg  Mg9  1  0.50000000  0.00000000  0.75000000  1
  Mg  Mg10  1  0.00000000  0.50000000  0.75000000  1
  Mg  Mg11  1  0.50000000  0.00000000  0.25000000  1
  O  O12  1  0.09883871  0.36505122  0.00000000  1
  O  O13  1  0.63494878  0.09883871  0.50000000  1
  O  O14  1  0.36505122  0.90116129  0.50000000  1
  O  O15  1  0.59883871  0.13494878  0.00000000  1
  O  O16  1  0.40116129  0.86505122  0.00000000  1
  O  O17  1  0.90116129  0.63494878  0.00000000  1
  O  O18  1  0.86505122  0.59883871  0.50000000  1
  O  O19  1  0.13494878  0.40116129  0.50000000  1
  O  O20  1  0.17657014  0.67657014  0.25000000  1
  O  O21  1  0.32342986  0.17657014  0.75000000  1
  O  O22  1  0.67657014  0.82342986  0.75000000  1
  O  O23  1  0.82342986  0.32342986  0.25000000  1
  O  O24  1  0.82342986  0.32342986  0.75000000  1
  O  O25  1  0.67657014  0.82342986  0.25000000  1
  O  O26  1  0.32342986  0.17657014  0.25000000  1
  O  O27  1  0.17657014  0.67657014  0.75000000  1
