# generated using pymatgen
data_ZnCoO2
_symmetry_space_group_name_H-M   'P 1'
_cell_length_a   5.27269748
_cell_length_b   5.27269748
_cell_length_c   5.27269736
_cell_angle_alpha   33.65332758
_cell_angle_beta   33.65332758
_cell_angle_gamma   33.65332429
_symmetry_Int_Tables_number   1
_chemical_formula_structural   ZnCoO2
_chemical_formula_sum   'Zn1 Co1 O2'
_cell_volume   40.10428066
_cell_formula_units_Z   1
loop_
 _symmetry_equiv_pos_site_id
 _symmetry_equiv_pos_as_xyz
  1  'x, y, z'
loop_
 _atom_site_type_symbol
 _atom_site_label
 _atom_site_symmetry_multiplicity
 _atom_site_fract_x
 _atom_site_fract_y
 _atom_site_fract_z
 _atom_site_occupancy
  Zn  Zn0  1  0.00000000  0.00000000  0.00000000  1
  Co  Co1  1  0.50000000  0.50000000  0.50000000  1
  O  O2  1  0.24939458  0.24939458  0.24939458  1
  O  O3  1  0.75060542  0.75060542  0.75060542  1
