# generated using pymatgen
data_Ge(BrF5)2
_symmetry_space_group_name_H-M   'P 1'
_cell_length_a   5.13214924
_cell_length_b   6.40218069
_cell_length_c   14.18589571
_cell_angle_alpha   90.00000000
_cell_angle_beta   90.00000000
_cell_angle_gamma   110.57411385
_symmetry_Int_Tables_number   1
_chemical_formula_structural   Ge(BrF5)2
_chemical_formula_sum   'Ge2 Br4 F20'
_cell_volume   436.37628465
_cell_formula_units_Z   2
loop_
 _symmetry_equiv_pos_site_id
 _symmetry_equiv_pos_as_xyz
  1  'x, y, z'
loop_
 _atom_site_type_symbol
 _atom_site_label
 _atom_site_symmetry_multiplicity
 _atom_site_fract_x
 _atom_site_fract_y
 _atom_site_fract_z
 _atom_site_occupancy
  F  F0  1  0.94933915  0.94634127  0.32452572  1
  F  F1  1  0.55066085  0.55365873  0.82452572  1
  F  F2  1  0.05066085  0.05365873  0.67547428  1
  F  F3  1  0.44933915  0.44634127  0.17547428  1
  F  F4  1  0.56507702  0.10065720  0.28669014  1
  F  F5  1  0.93492298  0.39934280  0.78669014  1
  F  F6  1  0.70717117  0.73824184  0.03636159  1
  F  F7  1  0.79282883  0.76175816  0.53636159  1
  F  F8  1  0.29282883  0.26175816  0.96363841  1
  F  F9  1  0.20717117  0.23824184  0.46363841  1
  F  F10  1  0.23246380  0.95204745  0.09452050  1
  F  F11  1  0.26753620  0.54795255  0.59452050  1
  F  F12  1  0.76753620  0.04795255  0.90547950  1
  F  F13  1  0.73246380  0.45204745  0.40547950  1
  F  F14  1  0.88720190  0.16009821  0.08002817  1
  F  F15  1  0.61279810  0.33990179  0.58002817  1
  F  F16  1  0.11279810  0.83990179  0.91997183  1
  F  F17  1  0.38720190  0.66009821  0.41997183  1
  F  F18  1  0.06507702  0.60065720  0.21330986  1
  F  F19  1  0.43492298  0.89934280  0.71330986  1
  Ge  Ge20  1  0.00000000  0.00000000  0.00000000  1
  Ge  Ge21  1  0.50000000  0.50000000  0.50000000  1
  Br  Br22  1  0.14662868  0.82770923  0.63404958  1
  Br  Br23  1  0.35337132  0.67229077  0.13404958  1
  Br  Br24  1  0.64662868  0.32770923  0.86595042  1
  Br  Br25  1  0.85337132  0.17229077  0.36595042  1
