# generated using pymatgen
data_Ba2Cu3P4
_symmetry_space_group_name_H-M   'P 1'
_cell_length_a   6.21478888
_cell_length_b   8.38919701
_cell_length_c   8.38919701
_cell_angle_alpha   67.96037385
_cell_angle_beta   68.25944784
_cell_angle_gamma   68.25944783
_symmetry_Int_Tables_number   1
_chemical_formula_structural   Ba2Cu3P4
_chemical_formula_sum   'Ba4 Cu6 P8'
_cell_volume   362.73125271
_cell_formula_units_Z   2
loop_
 _symmetry_equiv_pos_site_id
 _symmetry_equiv_pos_as_xyz
  1  'x, y, z'
loop_
 _atom_site_type_symbol
 _atom_site_label
 _atom_site_symmetry_multiplicity
 _atom_site_fract_x
 _atom_site_fract_y
 _atom_site_fract_z
 _atom_site_occupancy
  P  P0  1  0.12152676  0.51073300  0.24621347  1
  P  P1  1  0.87847324  0.48926700  0.75378653  1
  P  P2  1  0.37847324  0.75378653  0.48926700  1
  P  P3  1  0.62152676  0.24621347  0.51073300  1
  P  P4  1  0.34042699  0.02728508  0.29186095  1
  P  P5  1  0.65957301  0.97271492  0.70813905  1
  P  P6  1  0.84042699  0.29186095  0.02728508  1
  P  P7  1  0.15957301  0.70813905  0.97271492  1
  Cu  Cu8  1  0.75000000  0.50000000  0.50000000  1
  Cu  Cu9  1  0.25000000  0.50000000  0.50000000  1
  Cu  Cu10  1  0.02916715  0.72083285  0.72083285  1
  Cu  Cu11  1  0.47083285  0.27916715  0.27916715  1
  Cu  Cu12  1  0.52916715  0.72083285  0.72083285  1
  Cu  Cu13  1  0.97083285  0.27916715  0.27916715  1
  Ba  Ba14  1  0.89081364  0.90548990  0.31288281  1
  Ba  Ba15  1  0.10918636  0.09451010  0.68711719  1
  Ba  Ba16  1  0.60918636  0.68711719  0.09451010  1
  Ba  Ba17  1  0.39081364  0.31288281  0.90548990  1
