# generated using pymatgen
data_LiMn3(BO3)3
_symmetry_space_group_name_H-M   'P 1'
_cell_length_a   11.80267628
_cell_length_b   5.26075541
_cell_length_c   6.17102588
_cell_angle_alpha   87.91981812
_cell_angle_beta   98.25497302
_cell_angle_gamma   102.36179820
_symmetry_Int_Tables_number   1
_chemical_formula_structural   LiMn3(BO3)3
_chemical_formula_sum   'Li2 Mn6 B6 O18'
_cell_volume   370.39744813
_cell_formula_units_Z   2
loop_
 _symmetry_equiv_pos_site_id
 _symmetry_equiv_pos_as_xyz
  1  'x, y, z'
loop_
 _atom_site_type_symbol
 _atom_site_label
 _atom_site_symmetry_multiplicity
 _atom_site_fract_x
 _atom_site_fract_y
 _atom_site_fract_z
 _atom_site_occupancy
  Li  Li0  1  0.87081188  0.52907310  0.79842985  1
  Li  Li1  1  0.46252112  0.13759390  0.86823715  1
  Mn  Mn2  1  0.78612152  0.99003587  0.95847870  1
  Mn  Mn3  1  0.88005017  0.34762378  0.37631709  1
  Mn  Mn4  1  0.54721248  0.67663113  0.70818730  1
  Mn  Mn5  1  0.45328283  0.31904322  0.29034991  1
  Mn  Mn6  1  0.12814222  0.66535740  0.62179217  1
  Mn  Mn7  1  0.20519078  0.00130960  0.04487483  1
  B  B8  1  0.66336502  0.25643745  0.60794945  1
  B  B9  1  0.99720660  0.92209804  0.25728542  1
  B  B10  1  0.33254435  0.58238214  0.90608671  1
  B  B11  1  0.66996798  0.41022955  0.05871755  1
  B  B12  1  0.00078865  0.08428486  0.76057929  1
  B  B13  1  0.33612640  0.74456896  0.40938058  1
  O  O14  1  0.99130029  0.33371746  0.69560828  1
  O  O15  1  0.90848166  0.89778677  0.81319208  1
  O  O16  1  0.67602327  0.01084552  0.69062001  1
  O  O17  1  0.75314993  0.42893034  0.54213712  1
  O  O18  1  0.55246775  0.31439823  0.61652706  1
  O  O19  1  0.88436406  0.97616101  0.24011741  1
  O  O20  1  0.34203371  0.33294954  0.97105772  1
  O  O21  1  0.78086525  0.35226777  0.05013994  1
  O  O22  1  0.42485134  0.76888023  0.85347492  1
  O  O23  1  0.58018307  0.23773666  0.12452888  1
  O  O24  1  0.22623803  0.66480464  0.90987679  1
  O  O25  1  0.65730973  0.65582148  0.97604699  1
  O  O26  1  0.10709597  0.00186236  0.75679021  1
  O  O27  1  0.44896994  0.69050499  0.42654959  1
  O  O28  1  0.24891397  0.56948003  0.48596955  1
  O  O29  1  0.32011996  0.97500474  0.30252789  1
  O  O30  1  0.08441903  0.09718697  0.18069745  1
  O  O31  1  0.01321404  0.69166226  0.36413911  1
