# generated using pymatgen
data_Ca2Se3O8
_symmetry_space_group_name_H-M   'P 1'
_cell_length_a   5.60354871
_cell_length_b   8.40021083
_cell_length_c   8.87552449
_cell_angle_alpha   92.78612567
_cell_angle_beta   95.82077385
_cell_angle_gamma   97.37169869
_symmetry_Int_Tables_number   1
_chemical_formula_structural   Ca2Se3O8
_chemical_formula_sum   'Ca4 Se6 O16'
_cell_volume   411.38566277
_cell_formula_units_Z   2
loop_
 _symmetry_equiv_pos_site_id
 _symmetry_equiv_pos_as_xyz
  1  'x, y, z'
loop_
 _atom_site_type_symbol
 _atom_site_label
 _atom_site_symmetry_multiplicity
 _atom_site_fract_x
 _atom_site_fract_y
 _atom_site_fract_z
 _atom_site_occupancy
  O  O0  1  0.55011242  0.81928685  0.47654988  1
  O  O1  1  0.44988758  0.18071315  0.52345012  1
  O  O2  1  0.87143622  0.76520322  0.27907942  1
  O  O3  1  0.12856378  0.23479678  0.72092058  1
  O  O4  1  0.49453145  0.47720414  0.68550607  1
  O  O5  1  0.50546855  0.52279586  0.31449393  1
  O  O6  1  0.67774577  0.25516062  0.87036827  1
  O  O7  1  0.32225423  0.74483938  0.12963173  1
  O  O8  1  0.74656530  0.57469348  0.96084188  1
  O  O9  1  0.25343470  0.42530652  0.03915812  1
  O  O10  1  0.08633742  0.87047193  0.58429182  1
  O  O11  1  0.91366258  0.12952807  0.41570818  1
  O  O12  1  0.45222774  0.92688750  0.82187196  1
  O  O13  1  0.54777226  0.07311250  0.17812804  1
  O  O14  1  0.98961493  0.92036611  0.86005870  1
  O  O15  1  0.01038507  0.07963389  0.13994130  1
  Ca  Ca16  1  0.29160013  0.16178558  0.96149136  1
  Ca  Ca17  1  0.70839987  0.83821442  0.03850864  1
  Ca  Ca18  1  0.24169333  0.95571649  0.34823437  1
  Ca  Ca19  1  0.75830667  0.04428351  0.65176563  1
  Se  Se20  1  0.82491592  0.18878097  0.23820437  1
  Se  Se21  1  0.17508408  0.81121903  0.76179563  1
  Se  Se22  1  0.22936368  0.55663722  0.18264731  1
  Se  Se23  1  0.77063632  0.44336278  0.81735269  1
  Se  Se24  1  0.27476050  0.31992051  0.57880109  1
  Se  Se25  1  0.72523950  0.68007949  0.42119891  1
