# generated using pymatgen
data_In3(PO4)2
_symmetry_space_group_name_H-M   'P 1'
_cell_length_a   9.81067271
_cell_length_b   9.81067271
_cell_length_c   9.81067271
_cell_angle_alpha   109.47122066
_cell_angle_beta   109.47122066
_cell_angle_gamma   109.47122063
_symmetry_Int_Tables_number   1
_chemical_formula_structural   In3(PO4)2
_chemical_formula_sum   'In12 P8 O32'
_cell_volume   726.89966994
_cell_formula_units_Z   4
loop_
 _symmetry_equiv_pos_site_id
 _symmetry_equiv_pos_as_xyz
  1  'x, y, z'
loop_
 _atom_site_type_symbol
 _atom_site_label
 _atom_site_symmetry_multiplicity
 _atom_site_fract_x
 _atom_site_fract_y
 _atom_site_fract_z
 _atom_site_occupancy
  O  O0  1  0.93070116  0.93070116  0.93070116  1
  O  O1  1  0.06929884  0.50000000  0.00000000  1
  O  O2  1  0.50000000  0.00000000  0.06929884  1
  O  O3  1  0.00000000  0.06929884  0.50000000  1
  O  O4  1  0.50000000  0.00000000  0.56929884  1
  O  O5  1  0.00000000  0.56929884  0.50000000  1
  O  O6  1  0.56929884  0.50000000  0.00000000  1
  O  O7  1  0.43070116  0.43070116  0.43070116  1
  O  O8  1  0.41813667  0.50816255  0.16367582  1
  O  O9  1  0.99183745  0.40997412  0.65551327  1
  O  O10  1  0.33632418  0.84448673  0.25446084  1
  O  O11  1  0.08186333  0.24553916  0.09002588  1
  O  O12  1  0.24553916  0.09002588  0.08186333  1
  O  O13  1  0.09002588  0.08186333  0.24553916  1
  O  O14  1  0.91813667  0.66367582  0.00816255  1
  O  O15  1  0.15551327  0.90997412  0.49183745  1
  O  O16  1  0.34448673  0.83632418  0.75446084  1
  O  O17  1  0.59002588  0.74553916  0.58186333  1
  O  O18  1  0.74553916  0.58186333  0.59002588  1
  O  O19  1  0.00816255  0.91813667  0.66367582  1
  O  O20  1  0.58186333  0.59002588  0.74553916  1
  O  O21  1  0.40997412  0.65551327  0.99183745  1
  O  O22  1  0.16367582  0.41813667  0.50816255  1
  O  O23  1  0.50816255  0.16367582  0.41813667  1
  O  O24  1  0.25446084  0.33632418  0.84448673  1
  O  O25  1  0.84448673  0.25446084  0.33632418  1
  O  O26  1  0.65551327  0.99183745  0.40997412  1
  O  O27  1  0.83632418  0.75446084  0.34448673  1
  O  O28  1  0.49183745  0.15551327  0.90997412  1
  O  O29  1  0.66367582  0.00816255  0.91813667  1
  O  O30  1  0.75446084  0.34448673  0.83632418  1
  O  O31  1  0.90997412  0.49183745  0.15551327  1
  P  P32  1  0.09224804  0.09224804  0.09224804  1
  P  P33  1  0.90775196  0.50000000  0.00000000  1
  P  P34  1  0.50000000  0.00000000  0.90775196  1
  P  P35  1  0.00000000  0.90775196  0.50000000  1
  P  P36  1  0.50000000  0.00000000  0.40775196  1
  P  P37  1  0.00000000  0.40775196  0.50000000  1
  P  P38  1  0.40775196  0.50000000  0.00000000  1
  P  P39  1  0.59224804  0.59224804  0.59224804  1
  In  In40  1  0.75000000  0.99435793  0.24435793  1
  In  In41  1  0.75000000  0.75564207  0.00564207  1
  In  In42  1  0.49435793  0.25000000  0.74435793  1
  In  In43  1  0.74435793  0.49435793  0.25000000  1
  In  In44  1  0.00564207  0.75000000  0.75564207  1
  In  In45  1  0.75564207  0.00564207  0.75000000  1
  In  In46  1  0.25000000  0.50564207  0.25564207  1
  In  In47  1  0.50564207  0.25564207  0.25000000  1
  In  In48  1  0.99435793  0.24435793  0.75000000  1
  In  In49  1  0.24435793  0.75000000  0.99435793  1
  In  In50  1  0.25564207  0.25000000  0.50564207  1
  In  In51  1  0.25000000  0.74435793  0.49435793  1
