# generated using pymatgen
data_Ba2Bi2O5
_symmetry_space_group_name_H-M   'P 1'
_cell_length_a   6.29630403
_cell_length_b   7.60207144
_cell_length_c   7.59682643
_cell_angle_alpha   90.00000000
_cell_angle_beta   90.00000000
_cell_angle_gamma   100.40004643
_symmetry_Int_Tables_number   1
_chemical_formula_structural   Ba2Bi2O5
_chemical_formula_sum   'Ba4 Bi4 O10'
_cell_volume   357.64791678
_cell_formula_units_Z   2
loop_
 _symmetry_equiv_pos_site_id
 _symmetry_equiv_pos_as_xyz
  1  'x, y, z'
loop_
 _atom_site_type_symbol
 _atom_site_label
 _atom_site_symmetry_multiplicity
 _atom_site_fract_x
 _atom_site_fract_y
 _atom_site_fract_z
 _atom_site_occupancy
  O  O0  1  0.53915845  0.19728579  0.22392577  1
  O  O1  1  0.96084155  0.80271421  0.72392577  1
  O  O2  1  0.46084155  0.80271421  0.77607423  1
  O  O3  1  0.03915845  0.19728579  0.27607423  1
  O  O4  1  0.26856236  0.82002737  0.41175655  1
  O  O5  1  0.23143764  0.17997263  0.91175655  1
  O  O6  1  0.73143764  0.17997263  0.58824345  1
  O  O7  1  0.76856236  0.82002737  0.08824345  1
  O  O8  1  0.00000000  0.50000000  0.00000000  1
  O  O9  1  0.50000000  0.50000000  0.50000000  1
  Ba  Ba10  1  0.22041067  0.86333844  0.07287041  1
  Ba  Ba11  1  0.27958933  0.13666156  0.57287041  1
  Ba  Ba12  1  0.77958933  0.13666156  0.92712959  1
  Ba  Ba13  1  0.72041067  0.86333844  0.42712959  1
  Bi  Bi14  1  0.26960988  0.36798957  0.11779846  1
  Bi  Bi15  1  0.23039012  0.63201043  0.61779846  1
  Bi  Bi16  1  0.73039012  0.63201043  0.88220154  1
  Bi  Bi17  1  0.76960988  0.36798957  0.38220154  1
