# generated using pymatgen
data_Cs4ZrO4
_symmetry_space_group_name_H-M   'P 1'
_cell_length_a   7.30367406
_cell_length_b   7.28816240
_cell_length_c   20.23922995
_cell_angle_alpha   90.00000000
_cell_angle_beta   90.00000000
_cell_angle_gamma   113.28976819
_symmetry_Int_Tables_number   1
_chemical_formula_structural   Cs4ZrO4
_chemical_formula_sum   'Cs16 Zr4 O16'
_cell_volume   989.55653154
_cell_formula_units_Z   4
loop_
 _symmetry_equiv_pos_site_id
 _symmetry_equiv_pos_as_xyz
  1  'x, y, z'
loop_
 _atom_site_type_symbol
 _atom_site_label
 _atom_site_symmetry_multiplicity
 _atom_site_fract_x
 _atom_site_fract_y
 _atom_site_fract_z
 _atom_site_occupancy
  O  O0  1  0.96432413  0.59402874  0.90534458  1
  O  O1  1  0.53567587  0.40597126  0.40534458  1
  O  O2  1  0.03567587  0.40597126  0.09465542  1
  O  O3  1  0.46432413  0.59402874  0.59465542  1
  O  O4  1  0.02122081  1.00098188  0.16707963  1
  O  O5  1  0.47877919  -0.00098188  0.66707963  1
  O  O6  1  0.97877919  -0.00098188  0.83292037  1
  O  O7  1  0.52122081  1.00098188  0.33292037  1
  O  O8  1  0.36093618  0.20937822  0.04831079  1
  O  O9  1  0.13906382  0.79062178  0.54831079  1
  O  O10  1  0.63906382  0.79062178  0.95168921  1
  O  O11  1  0.86093618  0.20937822  0.45168921  1
  O  O12  1  0.39566385  0.42771719  0.18966786  1
  O  O13  1  0.10433615  0.57228281  0.68966786  1
  O  O14  1  0.60433615  0.57228281  0.81033214  1
  O  O15  1  0.89566385  0.42771719  0.31033214  1
  Zr  Zr16  1  0.70113664  0.25460133  0.37741008  1
  Zr  Zr17  1  0.79886336  0.74539867  0.87741008  1
  Zr  Zr18  1  0.29886336  0.74539867  0.62258992  1
  Zr  Zr19  1  0.20113664  0.25460133  0.12258992  1
  Cs  Cs20  1  0.27616621  0.34017409  0.91833156  1
  Cs  Cs21  1  0.22383379  0.65982591  0.41833156  1
  Cs  Cs22  1  0.72383379  0.65982591  0.08166844  1
  Cs  Cs23  1  0.77616621  0.34017409  0.58166844  1
  Cs  Cs24  1  0.68348390  0.18551741  0.18975272  1
  Cs  Cs25  1  0.81651610  0.81448259  0.68975272  1
  Cs  Cs26  1  0.31651610  0.81448259  0.81024728  1
  Cs  Cs27  1  0.18348390  0.18551741  0.31024728  1
  Cs  Cs28  1  0.67747217  0.69837951  0.28401769  1
  Cs  Cs29  1  0.82252783  0.30162049  0.78401769  1
  Cs  Cs30  1  0.32252783  0.30162049  0.71598231  1
  Cs  Cs31  1  0.17747217  0.69837951  0.21598231  1
  Cs  Cs32  1  0.75043865  0.22029951  0.98572234  1
  Cs  Cs33  1  0.74956135  0.77970049  0.48572234  1
  Cs  Cs34  1  0.24956135  0.77970049  0.01427766  1
  Cs  Cs35  1  0.25043865  0.22029951  0.51427766  1
