# generated using pymatgen
data_Li6Fe(OF)3
_symmetry_space_group_name_H-M   'P 1'
_cell_length_a   5.44591517
_cell_length_b   5.44591517
_cell_length_c   5.44591530
_cell_angle_alpha   100.27294841
_cell_angle_beta   100.27294841
_cell_angle_gamma   100.27294592
_symmetry_Int_Tables_number   1
_chemical_formula_structural   Li6Fe(OF)3
_chemical_formula_sum   'Li6 Fe1 O3 F3'
_cell_volume   152.65024089
_cell_formula_units_Z   1
loop_
 _symmetry_equiv_pos_site_id
 _symmetry_equiv_pos_as_xyz
  1  'x, y, z'
loop_
 _atom_site_type_symbol
 _atom_site_label
 _atom_site_symmetry_multiplicity
 _atom_site_fract_x
 _atom_site_fract_y
 _atom_site_fract_z
 _atom_site_occupancy
  Li  Li0  1  -0.00040911  0.66281825  0.35951273  1
  Li  Li1  1  -0.00040911  0.35951273  0.66281825  1
  Li  Li2  1  0.35951273  0.66281825  -0.00040911  1
  Li  Li3  1  0.66281825  0.35951273  -0.00040911  1
  Li  Li4  1  0.35951273  -0.00040911  0.66281825  1
  Li  Li5  1  0.66281825  -0.00040911  0.35951273  1
  Fe  Fe6  1  0.92082822  0.92082822  0.92082822  1
  O  O7  1  0.10420058  0.73224184  0.73224184  1
  O  O8  1  0.73224184  0.73224184  0.10420058  1
  O  O9  1  0.73224184  0.10420058  0.73224184  1
  F  F10  1  0.29256353  0.88151672  0.29256353  1
  F  F11  1  0.29256353  0.29256353  0.88151672  1
  F  F12  1  0.88151672  0.29256353  0.29256353  1
