# generated using pymatgen
data_Ti(ClO4)4
_symmetry_space_group_name_H-M   'P 1'
_cell_length_a   7.64919246
_cell_length_b   7.64919247
_cell_length_c   13.40036057
_cell_angle_alpha   73.89684380
_cell_angle_beta   73.89684378
_cell_angle_gamma   63.75527963
_symmetry_Int_Tables_number   1
_chemical_formula_structural   Ti(ClO4)4
_chemical_formula_sum   'Ti2 Cl8 O32'
_cell_volume   664.66053442
_cell_formula_units_Z   2
loop_
 _symmetry_equiv_pos_site_id
 _symmetry_equiv_pos_as_xyz
  1  'x, y, z'
loop_
 _atom_site_type_symbol
 _atom_site_label
 _atom_site_symmetry_multiplicity
 _atom_site_fract_x
 _atom_site_fract_y
 _atom_site_fract_z
 _atom_site_occupancy
  O  O0  1  0.67313670  0.10498016  0.32897697  1
  O  O1  1  0.89501984  0.32686330  0.17102303  1
  O  O2  1  0.32686330  0.89501984  0.67102303  1
  O  O3  1  0.10498016  0.67313670  0.82897697  1
  O  O4  1  0.54856003  0.41159449  0.39561109  1
  O  O5  1  0.58840551  0.45143997  0.10438891  1
  O  O6  1  0.45143997  0.58840551  0.60438891  1
  O  O7  1  0.41159449  0.54856003  0.89561109  1
  O  O8  1  0.89251656  0.17960001  0.38034865  1
  O  O9  1  0.82039999  0.10748344  0.11965135  1
  O  O10  1  0.78896733  0.07080350  0.86599614  1
  O  O11  1  0.92919650  0.21103267  0.63400386  1
  O  O12  1  0.21103267  0.92919650  0.13400386  1
  O  O13  1  0.07080350  0.78896733  0.36599614  1
  O  O14  1  0.47701483  0.17923476  0.80714483  1
  O  O15  1  0.82076524  0.52298517  0.69285517  1
  O  O16  1  0.52298517  0.82076524  0.19285517  1
  O  O17  1  0.17923476  0.47701483  0.30714483  1
  O  O18  1  0.78374170  0.92655553  0.73746038  1
  O  O19  1  0.07344447  0.21625830  0.76253962  1
  O  O20  1  0.21625830  0.07344447  0.26253962  1
  O  O21  1  0.92655553  0.78374170  0.23746038  1
  O  O22  1  0.60591514  0.85937483  0.91415604  1
  O  O23  1  0.14062517  0.39408486  0.58584396  1
  O  O24  1  0.39408486  0.14062517  0.08584396  1
  O  O25  1  0.85937483  0.60591514  0.41415604  1
  O  O26  1  0.10212240  0.63793678  0.01553388  1
  O  O27  1  0.36206322  0.89787760  0.48446612  1
  O  O28  1  0.89787760  0.36206322  0.98446612  1
  O  O29  1  0.63793678  0.10212240  0.51553388  1
  O  O30  1  0.17960001  0.89251656  0.88034865  1
  O  O31  1  0.10748344  0.82039999  0.61965135  1
  Cl  Cl32  1  0.67582389  0.20788564  0.41246559  1
  Cl  Cl33  1  0.79211436  0.32417611  0.08753441  1
  Cl  Cl34  1  0.32417611  0.79211436  0.58753441  1
  Cl  Cl35  1  0.20788564  0.67582389  0.91246559  1
  Cl  Cl36  1  0.01030700  0.64678244  0.33465271  1
  Cl  Cl37  1  0.35321756  0.98969300  0.16534729  1
  Cl  Cl38  1  0.98969300  0.35321756  0.66534729  1
  Cl  Cl39  1  0.64678244  0.01030700  0.83465271  1
  Ti  Ti40  1  0.96442640  0.03557360  0.25000000  1
  Ti  Ti41  1  0.03557360  0.96442640  0.75000000  1
