# generated using pymatgen
data_Ga3Te3I
_symmetry_space_group_name_H-M   'P 1'
_cell_length_a   4.17004858
_cell_length_b   11.62151636
_cell_length_c   20.94671914
_cell_angle_alpha   90.00000000
_cell_angle_beta   90.00000000
_cell_angle_gamma   90.00000000
_symmetry_Int_Tables_number   1
_chemical_formula_structural   Ga3Te3I
_chemical_formula_sum   'Ga12 Te12 I4'
_cell_volume   1015.12593131
_cell_formula_units_Z   4
loop_
 _symmetry_equiv_pos_site_id
 _symmetry_equiv_pos_as_xyz
  1  'x, y, z'
loop_
 _atom_site_type_symbol
 _atom_site_label
 _atom_site_symmetry_multiplicity
 _atom_site_fract_x
 _atom_site_fract_y
 _atom_site_fract_z
 _atom_site_occupancy
  Ga  Ga0  1  0.75000000  0.83071641  0.37024053  1
  Ga  Ga1  1  0.25000000  0.16928359  0.62975947  1
  Ga  Ga2  1  0.75000000  0.33071641  0.12975947  1
  Ga  Ga3  1  0.25000000  0.66928359  0.87024053  1
  Ga  Ga4  1  0.25000000  0.67065921  0.50400839  1
  Ga  Ga5  1  0.75000000  0.32934079  0.49599161  1
  Ga  Ga6  1  0.25000000  0.17065921  0.99599161  1
  Ga  Ga7  1  0.75000000  0.82934079  0.00400839  1
  Ga  Ga8  1  0.25000000  0.55610035  0.40492681  1
  Ga  Ga9  1  0.75000000  0.44389965  0.59507319  1
  Ga  Ga10  1  0.25000000  0.05610035  0.09507319  1
  Ga  Ga11  1  0.75000000  0.94389965  0.90492681  1
  Te  Te12  1  0.25000000  0.72237534  0.31484609  1
  Te  Te13  1  0.75000000  0.27762466  0.68515391  1
  Te  Te14  1  0.25000000  0.22237534  0.18515391  1
  Te  Te15  1  0.75000000  0.77762466  0.81484609  1
  Te  Te16  1  0.75000000  0.41592815  0.37695081  1
  Te  Te17  1  0.25000000  0.58407185  0.62304919  1
  Te  Te18  1  0.75000000  0.91592815  0.12304919  1
  Te  Te19  1  0.25000000  0.08407185  0.87695081  1
  Te  Te20  1  0.75000000  0.82091063  0.49813459  1
  Te  Te21  1  0.25000000  0.17908937  0.50186541  1
  Te  Te22  1  0.75000000  0.32091063  1.00186541  1
  Te  Te23  1  0.25000000  0.67908937  -0.00186541  1
  I  I24  1  0.75000000  0.04159059  0.33356503  1
  I  I25  1  0.25000000  0.95840941  0.66643497  1
  I  I26  1  0.75000000  0.54159059  0.16643497  1
  I  I27  1  0.25000000  0.45840941  0.83356503  1
