# generated using pymatgen
data_Al3Te3I
_symmetry_space_group_name_H-M   'P 1'
_cell_length_a   4.15318480
_cell_length_b   11.67025180
_cell_length_c   21.30771337
_cell_angle_alpha   90.00000000
_cell_angle_beta   90.00000000
_cell_angle_gamma   90.00000000
_symmetry_Int_Tables_number   1
_chemical_formula_structural   Al3Te3I
_chemical_formula_sum   'Al12 Te12 I4'
_cell_volume   1032.75743098
_cell_formula_units_Z   4
loop_
 _symmetry_equiv_pos_site_id
 _symmetry_equiv_pos_as_xyz
  1  'x, y, z'
loop_
 _atom_site_type_symbol
 _atom_site_label
 _atom_site_symmetry_multiplicity
 _atom_site_fract_x
 _atom_site_fract_y
 _atom_site_fract_z
 _atom_site_occupancy
  Al  Al0  1  0.75000000  0.82354730  0.37165575  1
  Al  Al1  1  0.25000000  0.17645270  0.62834425  1
  Al  Al2  1  0.75000000  0.32354730  0.12834425  1
  Al  Al3  1  0.25000000  0.67645270  0.87165575  1
  Al  Al4  1  0.25000000  0.66392281  0.50534646  1
  Al  Al5  1  0.75000000  0.33607719  0.49465354  1
  Al  Al6  1  0.25000000  0.16392281  0.99465354  1
  Al  Al7  1  0.75000000  0.83607719  0.00534646  1
  Al  Al8  1  0.25000000  0.54400689  0.40501776  1
  Al  Al9  1  0.75000000  0.45599311  0.59498224  1
  Al  Al10  1  0.25000000  0.04400689  0.09498224  1
  Al  Al11  1  0.75000000  0.95599311  0.90501776  1
  Te  Te12  1  0.25000000  0.71372683  0.31858785  1
  Te  Te13  1  0.75000000  0.28627317  0.68141215  1
  Te  Te14  1  0.25000000  0.21372683  0.18141215  1
  Te  Te15  1  0.75000000  0.78627317  0.81858785  1
  Te  Te16  1  0.75000000  0.40642374  0.37454560  1
  Te  Te17  1  0.25000000  0.59357626  0.62545440  1
  Te  Te18  1  0.75000000  0.90642374  0.12545440  1
  Te  Te19  1  0.25000000  0.09357626  0.87454560  1
  Te  Te20  1  0.75000000  0.81360907  0.49703851  1
  Te  Te21  1  0.25000000  0.18639093  0.50296149  1
  Te  Te22  1  0.75000000  0.31360907  1.00296149  1
  Te  Te23  1  0.25000000  0.68639093  -0.00296149  1
  I  I24  1  0.75000000  0.02984407  0.33551339  1
  I  I25  1  0.25000000  0.97015593  0.66448661  1
  I  I26  1  0.75000000  0.52984407  0.16448661  1
  I  I27  1  0.25000000  0.47015593  0.83551339  1
