# generated using pymatgen
data_LaSO
_symmetry_space_group_name_H-M   'P 1'
_cell_length_a   5.94540016
_cell_length_b   5.95045617
_cell_length_c   7.29578856
_cell_angle_alpha   114.06675632
_cell_angle_beta   90.00000000
_cell_angle_gamma   90.00000000
_symmetry_Int_Tables_number   1
_chemical_formula_structural   LaSO
_chemical_formula_sum   'La4 S4 O4'
_cell_volume   235.67206764
_cell_formula_units_Z   4
loop_
 _symmetry_equiv_pos_site_id
 _symmetry_equiv_pos_as_xyz
  1  'x, y, z'
loop_
 _atom_site_type_symbol
 _atom_site_label
 _atom_site_symmetry_multiplicity
 _atom_site_fract_x
 _atom_site_fract_y
 _atom_site_fract_z
 _atom_site_occupancy
  O  O0  1  0.25000000  0.50543716  0.50000000  1
  O  O1  1  0.75000000  0.99456284  0.50000000  1
  O  O2  1  0.75000000  0.49456284  0.50000000  1
  O  O3  1  0.25000000  0.00543716  0.50000000  1
  S  S4  1  0.37443975  0.62525181  0.00000000  1
  S  S5  1  0.87443975  0.87474819  0.00000000  1
  S  S6  1  0.12556025  0.12525181  0.00000000  1
  S  S7  1  0.62556025  0.37474819  0.00000000  1
  La  La8  1  0.50000000  0.83891864  0.67783728  1
  La  La9  1  0.00000000  0.66108136  0.32216272  1
  La  La10  1  0.50000000  0.16108136  0.32216272  1
  La  La11  1  0.00000000  0.33891864  0.67783728  1
