# generated using pymatgen
data_Pb(ClO3)2
_symmetry_space_group_name_H-M   'P 1'
_cell_length_a   7.09291900
_cell_length_b   7.09291900
_cell_length_c   7.45430725
_cell_angle_alpha   106.54391394
_cell_angle_beta   106.54391400
_cell_angle_gamma   113.67094277
_symmetry_Int_Tables_number   1
_chemical_formula_structural   Pb(ClO3)2
_chemical_formula_sum   'Pb2 Cl4 O12'
_cell_volume   293.27120857
_cell_formula_units_Z   2
loop_
 _symmetry_equiv_pos_site_id
 _symmetry_equiv_pos_as_xyz
  1  'x, y, z'
loop_
 _atom_site_type_symbol
 _atom_site_label
 _atom_site_symmetry_multiplicity
 _atom_site_fract_x
 _atom_site_fract_y
 _atom_site_fract_z
 _atom_site_occupancy
  O  O0  1  0.20572844  0.44913818  0.58496458  1
  O  O1  1  0.86417361  0.62076386  0.41503542  1
  O  O2  1  0.19913818  0.45572844  0.08496458  1
  O  O3  1  0.37076386  0.11417361  0.91503542  1
  O  O4  1  0.34329408  0.86533555  0.24425774  1
  O  O5  1  0.62107781  0.09903634  0.75574226  1
  O  O6  1  0.72997264  0.14497093  0.10733549  1
  O  O7  1  0.03763544  0.62263715  0.89266451  1
  O  O8  1  0.89497093  0.97997264  0.60733549  1
  O  O9  1  0.37263715  0.28763544  0.39266451  1
  O  O10  1  0.84903634  0.87107781  0.25574226  1
  O  O11  1  0.61533555  0.59329408  0.74425774  1
  Cl  Cl12  1  0.40964434  0.51355224  0.54372552  1
  Cl  Cl13  1  0.96982672  0.86591882  0.45627448  1
  Cl  Cl14  1  0.26355224  0.65964434  0.04372552  1
  Cl  Cl15  1  0.61591882  0.21982672  0.95627448  1
  Pb  Pb16  1  0.74584693  0.24584693  0.50000000  1
  Pb  Pb17  1  0.99584693  0.99584693  0.00000000  1
