# generated using pymatgen
data_AsS4N4F5
_symmetry_space_group_name_H-M   'P 1'
_cell_length_a   7.94344693
_cell_length_b   10.66100554
_cell_length_c   12.41543213
_cell_angle_alpha   90.00000000
_cell_angle_beta   105.78745221
_cell_angle_gamma   90.00000000
_symmetry_Int_Tables_number   1
_chemical_formula_structural   AsS4N4F5
_chemical_formula_sum   'As4 S16 N16 F20'
_cell_volume   1011.74107956
_cell_formula_units_Z   4
loop_
 _symmetry_equiv_pos_site_id
 _symmetry_equiv_pos_as_xyz
  1  'x, y, z'
loop_
 _atom_site_type_symbol
 _atom_site_label
 _atom_site_symmetry_multiplicity
 _atom_site_fract_x
 _atom_site_fract_y
 _atom_site_fract_z
 _atom_site_occupancy
  As  As0  1  0.58130733  0.18361284  0.21364587  1
  As  As1  1  0.41869267  0.81638716  0.78635413  1
  As  As2  1  0.08130733  0.31638716  0.71364587  1
  As  As3  1  0.91869267  0.68361284  0.28635413  1
  S  S4  1  0.42717505  0.85137276  0.39296379  1
  S  S5  1  0.42557294  0.45359418  0.12530029  1
  S  S6  1  0.52848806  0.42376946  0.35701829  1
  S  S7  1  0.17748182  0.32648349  0.35559546  1
  S  S8  1  0.32251818  0.82648349  0.14440454  1
  S  S9  1  0.57282495  0.14862724  0.60703621  1
  S  S10  1  0.07442706  0.95359418  0.37469971  1
  S  S11  1  0.02848806  0.07623054  0.85701829  1
  S  S12  1  0.92557294  0.04640582  0.62530029  1
  S  S13  1  0.82251818  0.67351651  0.64440454  1
  S  S14  1  0.67748182  0.17351651  0.85559546  1
  S  S15  1  0.97151194  0.92376946  0.14298171  1
  S  S16  1  0.07282495  0.35137276  0.10703621  1
  S  S17  1  0.92717505  0.64862724  0.89296379  1
  S  S18  1  0.57442706  0.54640582  0.87469971  1
  S  S19  1  0.47151194  0.57623054  0.64298171  1
  N  N20  1  0.51277512  0.35883476  0.23246846  1
  N  N21  1  0.85991015  0.10794368  0.89843766  1
  N  N22  1  0.35991015  0.39205632  0.39843766  1
  N  N23  1  0.64008985  0.60794368  0.60156234  1
  N  N24  1  0.77911865  0.57107535  0.92305718  1
  N  N25  1  0.27911865  0.92892465  0.42305718  1
  N  N26  1  0.48722488  0.64116524  0.76753154  1
  N  N27  1  0.98722488  0.85883476  0.26753154  1
  N  N28  1  0.72088135  0.07107535  0.57694282  1
  N  N29  1  0.60802872  0.20989924  0.72719354  1
  N  N30  1  0.01277512  0.14116524  0.73246846  1
  N  N31  1  0.22088135  0.42892465  0.07694282  1
  N  N32  1  0.14008985  0.89205632  0.10156234  1
  N  N33  1  0.89197128  0.70989924  0.77280646  1
  N  N34  1  0.10802872  0.29010076  0.22719354  1
  N  N35  1  0.39197128  0.79010076  0.27280646  1
  F  F36  1  0.69222908  0.23688454  0.11535216  1
  F  F37  1  0.85582011  0.52708611  0.30170065  1
  F  F38  1  0.22817298  0.79328566  0.67359034  1
  F  F39  1  0.19222908  0.26311546  0.61535216  1
  F  F40  1  0.77182702  0.20671434  0.32640966  1
  F  F41  1  0.96594580  0.36635216  0.81178849  1
  F  F42  1  0.61300506  0.83647057  0.89766471  1
  F  F43  1  0.03405420  0.63364784  0.18821151  1
  F  F44  1  0.53405420  0.86635216  0.68821151  1
  F  F45  1  0.27182702  0.29328566  0.82640966  1
  F  F46  1  0.14417989  0.47291389  0.69829935  1
  F  F47  1  0.38699494  0.16352943  0.10233529  1
  F  F48  1  0.46594580  0.13364784  0.31178849  1
  F  F49  1  0.88699494  0.33647057  0.60233529  1
  F  F50  1  0.64417989  0.02708611  0.19829935  1
  F  F51  1  0.35582011  0.97291389  0.80170065  1
  F  F52  1  0.30777092  0.76311546  0.88464784  1
  F  F53  1  0.11300506  0.66352943  0.39766471  1
  F  F54  1  0.72817298  0.70671434  0.17359034  1
  F  F55  1  0.80777092  0.73688454  0.38464784  1
