# generated using pymatgen
data_Hg3(TeI)2
_symmetry_space_group_name_H-M   'P 1'
_cell_length_a   8.96898397
_cell_length_b   8.96898397
_cell_length_c   14.72484218
_cell_angle_alpha   82.80972635
_cell_angle_beta   82.80972634
_cell_angle_gamma   69.88040732
_symmetry_Int_Tables_number   1
_chemical_formula_structural   Hg3(TeI)2
_chemical_formula_sum   'Hg12 Te8 I8'
_cell_volume   1099.18201978
_cell_formula_units_Z   4
loop_
 _symmetry_equiv_pos_site_id
 _symmetry_equiv_pos_as_xyz
  1  'x, y, z'
loop_
 _atom_site_type_symbol
 _atom_site_label
 _atom_site_symmetry_multiplicity
 _atom_site_fract_x
 _atom_site_fract_y
 _atom_site_fract_z
 _atom_site_occupancy
  Te  Te0  1  0.11962753  0.60635455  0.14950387  1
  Te  Te1  1  0.39364545  0.88037247  0.35049613  1
  Te  Te2  1  0.88037247  0.39364545  0.85049613  1
  Te  Te3  1  0.60635455  0.11962753  0.64950387  1
  Te  Te4  1  0.59117473  0.12642760  0.13383660  1
  Te  Te5  1  0.87357240  0.40882527  0.36616340  1
  Te  Te6  1  0.40882527  0.87357240  0.86616340  1
  Te  Te7  1  0.12642760  0.59117473  0.63383660  1
  I  I8  1  0.39065578  0.36111174  0.38230141  1
  I  I9  1  0.63888826  0.60934422  0.11769859  1
  I  I10  1  0.60934422  0.63888826  0.61769859  1
  I  I11  1  0.36111174  0.39065578  0.88230141  1
  I  I12  1  0.91440716  0.86548761  0.88158871  1
  I  I13  1  0.13451239  0.08559284  0.61841129  1
  I  I14  1  0.08559284  0.13451239  0.11841129  1
  I  I15  1  0.86548761  0.91440716  0.38158871  1
  Hg  Hg16  1  0.87670859  0.89101720  0.17128431  1
  Hg  Hg17  1  0.10898280  0.12329141  0.32871569  1
  Hg  Hg18  1  0.12329141  0.10898280  0.82871569  1
  Hg  Hg19  1  0.89101720  0.87670859  0.67128431  1
  Hg  Hg20  1  0.69648123  0.24481431  0.47856365  1
  Hg  Hg21  1  0.75518569  0.30351877  0.02143635  1
  Hg  Hg22  1  0.30351877  0.75518569  0.52143635  1
  Hg  Hg23  1  0.24481431  0.69648123  0.97856365  1
  Hg  Hg24  1  0.00000000  0.50000000  0.50000000  1
  Hg  Hg25  1  0.50000000  0.00000000  0.00000000  1
  Hg  Hg26  1  0.32984029  0.67015971  0.25000000  1
  Hg  Hg27  1  0.67015971  0.32984029  0.75000000  1
