# generated using pymatgen
data_Cr(Si2O5)2
_symmetry_space_group_name_H-M   'P 1'
_cell_length_a   9.56010198
_cell_length_b   7.97909742
_cell_length_c   7.16063127
_cell_angle_alpha   67.09608155
_cell_angle_beta   78.34208855
_cell_angle_gamma   105.05403952
_symmetry_Int_Tables_number   1
_chemical_formula_structural   Cr(Si2O5)2
_chemical_formula_sum   'Cr2 Si8 O20'
_cell_volume   456.80159132
_cell_formula_units_Z   2
loop_
 _symmetry_equiv_pos_site_id
 _symmetry_equiv_pos_as_xyz
  1  'x, y, z'
loop_
 _atom_site_type_symbol
 _atom_site_label
 _atom_site_symmetry_multiplicity
 _atom_site_fract_x
 _atom_site_fract_y
 _atom_site_fract_z
 _atom_site_occupancy
  Cr  Cr0  1  0.41734241  0.32203125  0.74015668  1
  Cr  Cr1  1  0.58265759  0.67796875  0.25984332  1
  Si  Si2  1  0.13163818  0.30155352  0.07556443  1
  Si  Si3  1  0.21335915  0.91360447  0.77296469  1
  Si  Si4  1  0.24593500  0.62640365  0.20214547  1
  Si  Si5  1  0.24495625  0.62179976  0.61917765  1
  Si  Si6  1  0.75504375  0.37820024  0.38082235  1
  Si  Si7  1  0.75406500  0.37359635  0.79785453  1
  Si  Si8  1  0.78664085  0.08639553  0.22703531  1
  Si  Si9  1  0.86836182  0.69844648  0.92443557  1
  O  O10  1  0.03451931  0.88213998  0.78886145  1
  O  O11  1  0.21908777  0.79494110  0.01272999  1
  O  O12  1  0.16733854  0.40988361  0.22324409  1
  O  O13  1  0.17470497  0.62392123  0.43054150  1
  O  O14  1  0.11837832  0.45914774  0.85396327  1
  O  O15  1  0.28937826  0.83596566  0.61140575  1
  O  O16  1  0.26976844  0.23415248  0.00338390  1
  O  O17  1  0.31885615  0.14591759  0.66663252  1
  O  O18  1  0.43293353  0.68521091  0.14508835  1
  O  O19  1  0.39958358  0.56083854  0.57975358  1
  O  O20  1  0.60041642  0.43916146  0.42024642  1
  O  O21  1  0.56706647  0.31478909  0.85491165  1
  O  O22  1  0.68114385  0.85408241  0.33336748  1
  O  O23  1  0.73023156  0.76584752  0.99661610  1
  O  O24  1  0.71062174  0.16403434  0.38859425  1
  O  O25  1  0.88162168  0.54085226  0.14603673  1
  O  O26  1  0.82529503  0.37607877  0.56945850  1
  O  O27  1  0.83266146  0.59011639  0.77675591  1
  O  O28  1  0.78091223  0.20505890  0.98727001  1
  O  O29  1  0.96548069  0.11786002  0.21113855  1
