# generated using pymatgen
data_Na5InTe4
_symmetry_space_group_name_H-M   'P 1'
_cell_length_a   7.49257900
_cell_length_b   17.79727855
_cell_length_c   20.43844846
_cell_angle_alpha   90.00000000
_cell_angle_beta   90.00000000
_cell_angle_gamma   90.00000000
_symmetry_Int_Tables_number   1
_chemical_formula_structural   Na5InTe4
_chemical_formula_sum   'Na40 In8 Te32'
_cell_volume   2725.41632324
_cell_formula_units_Z   8
loop_
 _symmetry_equiv_pos_site_id
 _symmetry_equiv_pos_as_xyz
  1  'x, y, z'
loop_
 _atom_site_type_symbol
 _atom_site_label
 _atom_site_symmetry_multiplicity
 _atom_site_fract_x
 _atom_site_fract_y
 _atom_site_fract_z
 _atom_site_occupancy
  Na  Na0  1  0.67487193  0.33115656  0.99673794  1
  Na  Na1  1  0.00000000  0.75000000  0.87247995  1
  Na  Na2  1  0.83461413  0.08563769  0.38238414  1
  Na  Na3  1  0.97722312  0.99184552  0.76526575  1
  Na  Na4  1  0.32657804  0.67682066  0.74252380  1
  Na  Na5  1  0.32512807  0.16884344  0.99673794  1
  Na  Na6  1  0.67487193  0.83115656  0.00326206  1
  Na  Na7  1  0.66538587  0.08563769  0.88238414  1
  Na  Na8  1  0.17487193  0.66884344  0.50326206  1
  Na  Na9  1  0.17342196  0.67682066  0.24252380  1
  Na  Na10  1  0.16538587  0.41436231  0.38238414  1
  Na  Na11  1  0.17342196  0.17682066  0.75747620  1
  Na  Na12  1  0.50000000  0.75000000  0.37247995  1
  Na  Na13  1  0.16538587  0.91436231  0.61761586  1
  Na  Na14  1  0.32657804  0.17682066  0.25747620  1
  Na  Na15  1  0.83461413  0.58563769  0.61761586  1
  Na  Na16  1  0.33461413  0.41436231  0.88238414  1
  Na  Na17  1  0.02277688  0.00815448  0.23473425  1
  Na  Na18  1  0.52277688  0.99184552  0.26526575  1
  Na  Na19  1  0.52277688  0.49184552  0.73473425  1
  Na  Na20  1  0.66538587  0.58563769  0.11761586  1
  Na  Na21  1  0.47722312  0.00815448  0.73473425  1
  Na  Na22  1  0.00000000  0.25000000  0.12752005  1
  Na  Na23  1  0.82512807  0.33115656  0.49673794  1
  Na  Na24  1  0.02277688  0.50815448  0.76526575  1
  Na  Na25  1  0.50000000  0.00000000  0.50000000  1
  Na  Na26  1  0.32512807  0.66884344  0.00326206  1
  Na  Na27  1  0.97722312  0.49184552  0.23473425  1
  Na  Na28  1  0.33461413  0.91436231  0.11761586  1
  Na  Na29  1  0.67342196  0.32317934  0.25747620  1
  Na  Na30  1  0.82512807  0.83115656  0.50326206  1
  Na  Na31  1  0.67342196  0.82317934  0.74252380  1
  Na  Na32  1  0.82657804  0.82317934  0.24252380  1
  Na  Na33  1  0.00000000  0.00000000  0.00000000  1
  Na  Na34  1  0.50000000  0.25000000  0.62752005  1
  Na  Na35  1  0.82657804  0.32317934  0.75747620  1
  Na  Na36  1  0.17487193  0.16884344  0.49673794  1
  Na  Na37  1  0.50000000  0.50000000  0.50000000  1
  Na  Na38  1  0.47722312  0.50815448  0.26526575  1
  Na  Na39  1  0.00000000  0.50000000  0.00000000  1
  In  In40  1  0.63706143  0.08809512  0.12136575  1
  In  In41  1  0.86293857  0.08809512  0.62136575  1
  In  In42  1  0.13706143  0.91190488  0.37863425  1
  In  In43  1  0.13706143  0.41190488  0.62136575  1
  In  In44  1  0.36293857  0.91190488  0.87863425  1
  In  In45  1  0.86293857  0.58809512  0.37863425  1
  In  In46  1  0.36293857  0.41190488  0.12136575  1
  In  In47  1  0.63706143  0.58809512  0.87863425  1
  Te  Te48  1  0.26096038  0.34675321  0.74103341  1
  Te  Te49  1  0.77522785  0.66145156  0.98873801  1
  Te  Te50  1  0.22477215  0.83854844  0.98873801  1
  Te  Te51  1  0.24004723  0.56422083  0.12541324  1
  Te  Te52  1  0.75995277  0.93577917  0.12541324  1
  Te  Te53  1  0.23903962  0.84675321  0.75896659  1
  Te  Te54  1  0.72477215  0.66145156  0.48873801  1
  Te  Te55  1  0.75886145  0.91331574  0.37242687  1
  Te  Te56  1  0.74004723  0.43577917  0.37458676  1
  Te  Te57  1  0.75886145  0.41331574  0.62757313  1
  Te  Te58  1  0.24004723  0.06422083  0.87458676  1
  Te  Te59  1  0.76096038  0.65324679  0.75896659  1
  Te  Te60  1  0.73903962  0.65324679  0.25896659  1
  Te  Te61  1  0.23903962  0.34675321  0.24103341  1
  Te  Te62  1  0.75995277  0.43577917  0.87458676  1
  Te  Te63  1  0.74004723  0.93577917  0.62541324  1
  Te  Te64  1  0.27522785  0.83854844  0.48873801  1
  Te  Te65  1  0.25886145  0.58668426  0.87242687  1
  Te  Te66  1  0.25995277  0.06422083  0.37458676  1
  Te  Te67  1  0.25995277  0.56422083  0.62541324  1
  Te  Te68  1  0.77522785  0.16145156  0.01126199  1
  Te  Te69  1  0.25886145  0.08668426  0.12757313  1
  Te  Te70  1  0.72477215  0.16145156  0.51126199  1
  Te  Te71  1  0.73903962  0.15324679  0.74103341  1
  Te  Te72  1  0.24113855  0.58668426  0.37242687  1
  Te  Te73  1  0.24113855  0.08668426  0.62757313  1
  Te  Te74  1  0.26096038  0.84675321  0.25896659  1
  Te  Te75  1  0.76096038  0.15324679  0.24103341  1
  Te  Te76  1  0.74113855  0.91331574  0.87242687  1
  Te  Te77  1  0.22477215  0.33854844  0.01126199  1
  Te  Te78  1  0.74113855  0.41331574  0.12757313  1
  Te  Te79  1  0.27522785  0.33854844  0.51126199  1
