# generated using pymatgen
data_Ca5(GaN2)2
_symmetry_space_group_name_H-M   'P 1'
_cell_length_a   4.87959691
_cell_length_b   6.11135971
_cell_length_c   14.33811372
_cell_angle_alpha   90.00000000
_cell_angle_beta   90.00000000
_cell_angle_gamma   113.52964506
_symmetry_Int_Tables_number   1
_chemical_formula_structural   Ca5(GaN2)2
_chemical_formula_sum   'Ca10 Ga4 N8'
_cell_volume   392.02505755
_cell_formula_units_Z   2
loop_
 _symmetry_equiv_pos_site_id
 _symmetry_equiv_pos_as_xyz
  1  'x, y, z'
loop_
 _atom_site_type_symbol
 _atom_site_label
 _atom_site_symmetry_multiplicity
 _atom_site_fract_x
 _atom_site_fract_y
 _atom_site_fract_z
 _atom_site_occupancy
  N  N0  1  0.91986864  0.83973729  0.65707414  1
  N  N1  1  0.80539588  0.61079176  0.41940961  1
  N  N2  1  0.19460412  0.38920824  0.58059039  1
  N  N3  1  0.41986864  0.83973729  0.84292586  1
  N  N4  1  0.58013136  0.16026271  0.15707414  1
  N  N5  1  0.69460412  0.38920824  0.91940961  1
  N  N6  1  0.08013136  0.16026271  0.34292586  1
  N  N7  1  0.30539588  0.61079176  0.08059039  1
  Ca  Ca8  1  0.61529751  0.23059503  0.32684107  1
  Ca  Ca9  1  0.88470249  0.76940497  0.82684107  1
  Ca  Ca10  1  0.38470249  0.76940497  0.67315893  1
  Ca  Ca11  1  0.50000000  0.00000000  0.00000000  1
  Ca  Ca12  1  0.77129877  0.54259755  0.08038179  1
  Ca  Ca13  1  0.27129877  0.54259755  0.41961821  1
  Ca  Ca14  1  0.72870123  0.45740245  0.58038179  1
  Ca  Ca15  1  0.00000000  0.00000000  0.50000000  1
  Ca  Ca16  1  0.11529751  0.23059503  0.17315893  1
  Ca  Ca17  1  0.22870123  0.45740245  0.91961821  1
  Ga  Ga18  1  0.09312778  0.18625557  0.69256132  1
  Ga  Ga19  1  0.90687222  0.81374443  0.30743868  1
  Ga  Ga20  1  0.59312778  0.18625557  0.80743868  1
  Ga  Ga21  1  0.40687222  0.81374443  0.19256132  1
