# generated using pymatgen
data_NbTe5Pd
_symmetry_space_group_name_H-M   'P 1'
_cell_length_a   3.77773116
_cell_length_b   14.00160076
_cell_length_c   15.77879696
_cell_angle_alpha   90.00000000
_cell_angle_beta   90.00000000
_cell_angle_gamma   90.00000000
_symmetry_Int_Tables_number   1
_chemical_formula_structural   NbTe5Pd
_chemical_formula_sum   'Nb4 Te20 Pd4'
_cell_volume   834.60815939
_cell_formula_units_Z   4
loop_
 _symmetry_equiv_pos_site_id
 _symmetry_equiv_pos_as_xyz
  1  'x, y, z'
loop_
 _atom_site_type_symbol
 _atom_site_label
 _atom_site_symmetry_multiplicity
 _atom_site_fract_x
 _atom_site_fract_y
 _atom_site_fract_z
 _atom_site_occupancy
  Nb  Nb0  1  0.25000000  0.25400419  0.84187575  1
  Nb  Nb1  1  0.75000000  0.74599581  0.15812425  1
  Nb  Nb2  1  0.75000000  0.75400419  0.65812425  1
  Nb  Nb3  1  0.25000000  0.24599581  0.34187575  1
  Pd  Pd4  1  0.75000000  0.26118535  0.59234859  1
  Pd  Pd5  1  0.25000000  0.73881465  0.40765141  1
  Pd  Pd6  1  0.25000000  0.76118535  0.90765141  1
  Pd  Pd7  1  0.75000000  0.23881465  0.09234859  1
  Te  Te8  1  0.75000000  0.14368868  0.93797137  1
  Te  Te9  1  0.25000000  0.85631132  0.06202863  1
  Te  Te10  1  0.25000000  0.64368868  0.56202863  1
  Te  Te11  1  0.75000000  0.35631132  0.43797137  1
  Te  Te12  1  0.25000000  0.34164591  0.00905929  1
  Te  Te13  1  0.75000000  0.65835409  0.99094071  1
  Te  Te14  1  0.75000000  0.84164591  0.49094071  1
  Te  Te15  1  0.25000000  0.15835409  0.50905929  1
  Te  Te16  1  0.75000000  0.09061531  0.34858121  1
  Te  Te17  1  0.25000000  0.90938469  0.65141879  1
  Te  Te18  1  0.25000000  0.59061531  0.15141879  1
  Te  Te19  1  0.75000000  0.40938469  0.84858121  1
  Te  Te20  1  0.75000000  0.15363097  0.73929437  1
  Te  Te21  1  0.25000000  0.84636903  0.26070563  1
  Te  Te22  1  0.25000000  0.65363097  0.76070563  1
  Te  Te23  1  0.75000000  0.34636903  0.23929437  1
  Te  Te24  1  0.25000000  0.35992833  0.68054006  1
  Te  Te25  1  0.75000000  0.64007167  0.31945994  1
  Te  Te26  1  0.75000000  0.85992833  0.81945994  1
  Te  Te27  1  0.25000000  0.14007167  0.18054006  1
