# generated using pymatgen
data_Y2NCl3
_symmetry_space_group_name_H-M   'P 1'
_cell_length_a   3.84940540
_cell_length_b   8.46070301
_cell_length_c   9.71122922
_cell_angle_alpha   72.45216508
_cell_angle_beta   78.56865913
_cell_angle_gamma   76.85081491
_symmetry_Int_Tables_number   1
_chemical_formula_structural   Y2NCl3
_chemical_formula_sum   'Y4 N2 Cl6'
_cell_volume   290.78205981
_cell_formula_units_Z   2
loop_
 _symmetry_equiv_pos_site_id
 _symmetry_equiv_pos_as_xyz
  1  'x, y, z'
loop_
 _atom_site_type_symbol
 _atom_site_label
 _atom_site_symmetry_multiplicity
 _atom_site_fract_x
 _atom_site_fract_y
 _atom_site_fract_z
 _atom_site_occupancy
  N  N0  1  0.57616823  0.00503654  0.84262700  1
  N  N1  1  0.42383177  0.99496346  0.15737300  1
  Cl  Cl2  1  0.95367123  0.34313727  0.74952028  1
  Cl  Cl3  1  0.04632877  0.65686273  0.25047972  1
  Cl  Cl4  1  0.33307924  0.82054850  0.51329302  1
  Cl  Cl5  1  0.66692076  0.17945150  0.48670698  1
  Cl  Cl6  1  0.21991761  0.67383687  0.88632790  1
  Cl  Cl7  1  0.78008239  0.32616313  0.11367210  1
  Y  Y8  1  0.13684242  0.01875281  0.70756234  1
  Y  Y9  1  0.86315758  0.98124719  0.29243766  1
  Y  Y10  1  0.41616294  0.21198541  0.95568870  1
  Y  Y11  1  0.58383706  0.78801459  0.04431130  1
