# generated using pymatgen
data_NdTa3O9
_symmetry_space_group_name_H-M   'P 1'
_cell_length_a   5.43975120
_cell_length_b   7.61296502
_cell_length_c   8.30865127
_cell_angle_alpha   90.00000000
_cell_angle_beta   92.42348419
_cell_angle_gamma   90.00000000
_symmetry_Int_Tables_number   1
_chemical_formula_structural   NdTa3O9
_chemical_formula_sum   'Nd2 Ta6 O18'
_cell_volume   343.77539356
_cell_formula_units_Z   2
loop_
 _symmetry_equiv_pos_site_id
 _symmetry_equiv_pos_as_xyz
  1  'x, y, z'
loop_
 _atom_site_type_symbol
 _atom_site_label
 _atom_site_symmetry_multiplicity
 _atom_site_fract_x
 _atom_site_fract_y
 _atom_site_fract_z
 _atom_site_occupancy
  O  O0  1  0.56060366  0.25000000  0.68674922  1
  O  O1  1  0.43939634  0.75000000  0.31325078  1
  O  O2  1  0.91647866  0.25000000  0.01763216  1
  O  O3  1  0.08352134  0.75000000  0.98236784  1
  O  O4  1  0.35205353  0.75000000  0.66100617  1
  O  O5  1  0.64794647  0.25000000  0.33899383  1
  O  O6  1  0.73521859  0.96210122  0.53267051  1
  O  O7  1  0.26478141  0.46210122  0.46732949  1
  O  O8  1  0.15491682  0.44297579  0.78738010  1
  O  O9  1  0.84508318  0.94297579  0.21261990  1
  O  O10  1  0.84508318  0.55702421  0.21261990  1
  O  O11  1  0.15491682  0.05702421  0.78738010  1
  O  O12  1  0.68194655  0.95301408  0.87750248  1
  O  O13  1  0.31805345  0.45301408  0.12249752  1
  O  O14  1  0.31805345  0.04698592  0.12249752  1
  O  O15  1  0.68194655  0.54698592  0.87750248  1
  O  O16  1  0.73521859  0.53789878  0.53267051  1
  O  O17  1  0.26478141  0.03789878  0.46732949  1
  Nd  Nd18  1  0.96547072  0.25000000  0.56546642  1
  Nd  Nd19  1  0.03452928  0.75000000  0.43453358  1
  Ta  Ta20  1  0.47324907  0.50675103  0.69825248  1
  Ta  Ta21  1  0.52675093  0.00675103  0.30174752  1
  Ta  Ta22  1  0.00000000  0.50000000  0.00000000  1
  Ta  Ta23  1  0.00000000  0.00000000  0.00000000  1
  Ta  Ta24  1  0.47324907  0.99324897  0.69825248  1
  Ta  Ta25  1  0.52675093  0.49324897  0.30174752  1
