# generated using pymatgen
data_Na6Be8O11
_symmetry_space_group_name_H-M   'P 1'
_cell_length_a   5.29297858
_cell_length_b   6.43639381
_cell_length_c   8.37461393
_cell_angle_alpha   102.58474956
_cell_angle_beta   95.53626281
_cell_angle_gamma   103.96519789
_symmetry_Int_Tables_number   1
_chemical_formula_structural   Na6Be8O11
_chemical_formula_sum   'Na6 Be8 O11'
_cell_volume   266.85163907
_cell_formula_units_Z   1
loop_
 _symmetry_equiv_pos_site_id
 _symmetry_equiv_pos_as_xyz
  1  'x, y, z'
loop_
 _atom_site_type_symbol
 _atom_site_label
 _atom_site_symmetry_multiplicity
 _atom_site_fract_x
 _atom_site_fract_y
 _atom_site_fract_z
 _atom_site_occupancy
  Be  Be0  1  0.82473097  0.02178470  0.85154085  1
  Be  Be1  1  0.17526903  0.97821530  0.14845915  1
  Be  Be2  1  0.51989575  0.86150827  0.55023142  1
  Be  Be3  1  0.48010425  0.13849173  0.44976858  1
  Be  Be4  1  0.44922269  0.43150452  0.36363205  1
  Be  Be5  1  0.52564154  0.25856993  0.74664706  1
  Be  Be6  1  0.55077731  0.56849548  0.63636795  1
  Be  Be7  1  0.47435846  0.74143007  0.25335294  1
  O  O8  1  0.26744710  0.17160160  0.30776842  1
  O  O9  1  0.63917605  0.95364301  0.39180105  1
  O  O10  1  0.73255290  0.82839840  0.69223158  1
  O  O11  1  0.00000000  0.00000000  0.00000000  1
  O  O12  1  0.23894613  0.75449816  0.13508136  1
  O  O13  1  0.76105387  0.24550184  0.86491864  1
  O  O14  1  0.32985651  0.60787672  0.48707442  1
  O  O15  1  0.67014349  0.39212328  0.51292558  1
  O  O16  1  0.42095096  0.46932823  0.77752313  1
  O  O17  1  0.57904904  0.53067177  0.22247687  1
  O  O18  1  0.36082395  0.04635699  0.60819895  1
  Na  Na19  1  0.79425410  0.22543859  0.20448716  1
  Na  Na20  1  0.20574590  0.77456141  0.79551284  1
  Na  Na21  1  0.77737390  0.61306784  0.00085343  1
  Na  Na22  1  0.22262610  0.38693216  0.99914657  1
  Na  Na23  1  0.96553301  0.74203012  0.43101679  1
  Na  Na24  1  0.03446699  0.25796988  0.56898321  1
