# generated using pymatgen
data_Sr5(B5Rh7)2
_symmetry_space_group_name_H-M   'P 1'
_cell_length_a   5.65531719
_cell_length_b   5.72806055
_cell_length_c   14.79546289
_cell_angle_alpha   84.58639204
_cell_angle_beta   78.98204497
_cell_angle_gamma   60.41921350
_symmetry_Int_Tables_number   1
_chemical_formula_structural   Sr5(B5Rh7)2
_chemical_formula_sum   'Sr5 B10 Rh14'
_cell_volume   409.13155792
_cell_formula_units_Z   1
loop_
 _symmetry_equiv_pos_site_id
 _symmetry_equiv_pos_as_xyz
  1  'x, y, z'
loop_
 _atom_site_type_symbol
 _atom_site_label
 _atom_site_symmetry_multiplicity
 _atom_site_fract_x
 _atom_site_fract_y
 _atom_site_fract_z
 _atom_site_occupancy
  B  B0  1  0.96446985  0.66776780  0.40329250  1
  B  B1  1  0.03553015  0.33223220  0.59670750  1
  B  B2  1  0.36776235  0.66776780  0.59670750  1
  B  B3  1  0.63223765  0.33223220  0.40329250  1
  B  B4  1  0.06393083  0.66990593  0.20223241  1
  B  B5  1  0.93606917  0.33009407  0.79776759  1
  B  B6  1  0.26616324  0.66990593  0.79776759  1
  B  B7  1  0.73383676  0.33009407  0.20223241  1
  B  B8  1  0.16621955  0.66756089  0.00000000  1
  B  B9  1  0.83378045  0.33243911  0.00000000  1
  Sr  Sr10  1  0.28843932  0.00000000  0.42312135  1
  Sr  Sr11  1  0.71156068  0.00000000  0.57687865  1
  Sr  Sr12  1  0.39549356  0.00000000  0.20901289  1
  Sr  Sr13  1  0.60450644  0.00000000  0.79098711  1
  Sr  Sr14  1  0.50000000  0.00000000  0.00000000  1
  Rh  Rh15  1  0.25000000  0.50000000  0.50000000  1
  Rh  Rh16  1  0.75000000  0.50000000  0.50000000  1
  Rh  Rh17  1  0.34849692  0.50000000  0.30300616  1
  Rh  Rh18  1  0.15150308  0.50000000  0.69699384  1
  Rh  Rh19  1  0.65150308  0.50000000  0.69699384  1
  Rh  Rh20  1  0.84849692  0.50000000  0.30300616  1
  Rh  Rh21  1  0.44926248  0.50000000  0.10147505  1
  Rh  Rh22  1  0.05073752  0.50000000  0.89852495  1
  Rh  Rh23  1  0.55073752  0.50000000  0.89852495  1
  Rh  Rh24  1  0.94926248  0.50000000  0.10147505  1
  Rh  Rh25  1  0.15275548  0.00000000  0.69448905  1
  Rh  Rh26  1  0.84724452  0.00000000  0.30551095  1
  Rh  Rh27  1  0.05048440  0.00000000  0.89903120  1
  Rh  Rh28  1  0.94951560  0.00000000  0.10096880  1
