# generated using pymatgen
data_K6Sn3As5
_symmetry_space_group_name_H-M   'P 1'
_cell_length_a   10.88137762
_cell_length_b   11.13857466
_cell_length_c   15.03822543
_cell_angle_alpha   90.00000000
_cell_angle_beta   90.00000000
_cell_angle_gamma   90.00000000
_symmetry_Int_Tables_number   1
_chemical_formula_structural   K6Sn3As5
_chemical_formula_sum   'K24 Sn12 As20'
_cell_volume   1822.67859357
_cell_formula_units_Z   4
loop_
 _symmetry_equiv_pos_site_id
 _symmetry_equiv_pos_as_xyz
  1  'x, y, z'
loop_
 _atom_site_type_symbol
 _atom_site_label
 _atom_site_symmetry_multiplicity
 _atom_site_fract_x
 _atom_site_fract_y
 _atom_site_fract_z
 _atom_site_occupancy
  K  K0  1  0.04207968  0.10488524  0.10269645  1
  K  K1  1  0.54207968  0.89511476  0.89730355  1
  K  K2  1  0.45792032  0.10488524  0.39730355  1
  K  K3  1  0.95792032  0.89511476  0.60269645  1
  K  K4  1  0.95792032  0.89511476  0.89730355  1
  K  K5  1  0.45792032  0.10488524  0.10269645  1
  K  K6  1  0.54207968  0.89511476  0.60269645  1
  K  K7  1  0.04207968  0.10488524  0.39730355  1
  K  K8  1  0.25000000  0.41133234  0.03039513  1
  K  K9  1  0.75000000  0.58866766  0.96960487  1
  K  K10  1  0.25000000  0.41133234  0.46960487  1
  K  K11  1  0.75000000  0.58866766  0.53039513  1
  K  K12  1  0.04799552  0.69998200  0.39851717  1
  K  K13  1  0.54799552  0.30001800  0.60148283  1
  K  K14  1  0.45200448  0.69998200  0.10148283  1
  K  K15  1  0.95200448  0.30001800  0.89851717  1
  K  K16  1  0.95200448  0.30001800  0.60148283  1
  K  K17  1  0.45200448  0.69998200  0.39851717  1
  K  K18  1  0.54799552  0.30001800  0.89851717  1
  K  K19  1  0.04799552  0.69998200  0.10148283  1
  K  K20  1  0.25000000  0.90062025  0.25000000  1
  K  K21  1  0.75000000  0.09937975  0.75000000  1
  K  K22  1  0.75000000  0.58228341  0.25000000  1
  K  K23  1  0.25000000  0.41771659  0.75000000  1
  As  As24  1  0.25000000  0.91061842  0.97559116  1
  As  As25  1  0.75000000  0.08938158  0.47559116  1
  As  As26  1  0.25000000  0.91061842  0.52440884  1
  As  As27  1  0.94253412  0.40798729  0.10578311  1
  As  As28  1  0.75000000  0.08938158  0.02440884  1
  As  As29  1  0.44253412  0.59201271  0.89421689  1
  As  As30  1  0.55746588  0.40798729  0.39421689  1
  As  As31  1  0.05746588  0.59201271  0.60578311  1
  As  As32  1  0.05746588  0.59201271  0.89421689  1
  As  As33  1  0.55746588  0.40798729  0.10578311  1
  As  As34  1  0.44253412  0.59201271  0.60578311  1
  As  As35  1  0.94253412  0.40798729  0.39421689  1
  As  As36  1  0.93208181  0.89887076  0.25000000  1
  As  As37  1  0.43208181  0.10112924  0.75000000  1
  As  As38  1  0.56791819  0.89887076  0.25000000  1
  As  As39  1  0.06791819  0.10112924  0.75000000  1
  As  As40  1  0.25000000  0.21751073  0.25000000  1
  As  As41  1  0.75000000  0.78248927  0.75000000  1
  As  As42  1  0.25000000  0.57414944  0.25000000  1
  As  As43  1  0.75000000  0.42585056  0.75000000  1
  Sn  Sn44  1  0.75000000  0.26736935  0.14768990  1
  Sn  Sn45  1  0.25000000  0.73263065  0.85231010  1
  Sn  Sn46  1  0.75000000  0.26736935  0.35231010  1
  Sn  Sn47  1  0.25000000  0.73263065  0.64768990  1
  Sn  Sn48  1  0.75000000  0.88070097  0.12441491  1
  Sn  Sn49  1  0.25000000  0.11929903  0.87558509  1
  Sn  Sn50  1  0.75000000  0.88070097  0.37558509  1
  Sn  Sn51  1  0.91904852  0.60423198  0.75000000  1
  Sn  Sn52  1  0.41904852  0.39576802  0.25000000  1
  Sn  Sn53  1  0.58095148  0.60423198  0.75000000  1
  Sn  Sn54  1  0.08095148  0.39576802  0.25000000  1
  Sn  Sn55  1  0.25000000  0.11929903  0.62441491  1
