# generated using pymatgen
data_Y4OsBr4
_symmetry_space_group_name_H-M   'P 1'
_cell_length_a   6.59038176
_cell_length_b   8.98264319
_cell_length_c   8.98264319
_cell_angle_alpha   89.36340509
_cell_angle_beta   89.51183476
_cell_angle_gamma   89.51183477
_symmetry_Int_Tables_number   1
_chemical_formula_structural   Y4OsBr4
_chemical_formula_sum   'Y8 Os2 Br8'
_cell_volume   531.69292539
_cell_formula_units_Z   2
loop_
 _symmetry_equiv_pos_site_id
 _symmetry_equiv_pos_as_xyz
  1  'x, y, z'
loop_
 _atom_site_type_symbol
 _atom_site_label
 _atom_site_symmetry_multiplicity
 _atom_site_fract_x
 _atom_site_fract_y
 _atom_site_fract_z
 _atom_site_occupancy
  Br  Br0  1  0.40772004  0.41908287  0.81718574  1
  Br  Br1  1  0.59476480  0.18972594  0.41470620  1
  Br  Br2  1  0.90523520  0.58529380  0.81027406  1
  Br  Br3  1  0.40523520  0.81027406  0.58529380  1
  Br  Br4  1  0.09476480  0.41470620  0.18972594  1
  Br  Br5  1  0.59227996  0.58091713  0.18281426  1
  Br  Br6  1  0.90772004  0.81718574  0.41908287  1
  Br  Br7  1  0.09227996  0.18281426  0.58091713  1
  Y  Y8  1  0.01036085  0.24956869  0.90095750  1
  Y  Y9  1  0.51036085  0.90095750  0.24956869  1
  Y  Y10  1  0.00853263  0.90234723  0.75147995  1
  Y  Y11  1  0.50853263  0.75147995  0.90234723  1
  Y  Y12  1  0.99146737  0.09765277  0.24852005  1
  Y  Y13  1  0.48963915  0.09904250  0.75043131  1
  Y  Y14  1  0.98963915  0.75043131  0.09904250  1
  Y  Y15  1  0.49146737  0.24852005  0.09765277  1
  Os  Os16  1  0.75000000  0.00488225  0.99511775  1
  Os  Os17  1  0.25000000  0.99511775  0.00488225  1
