# generated using pymatgen
data_Ba(ClO3)2
_symmetry_space_group_name_H-M   'P 1'
_cell_length_a   7.19231835
_cell_length_b   7.19231835
_cell_length_c   7.83362018
_cell_angle_alpha   106.12755614
_cell_angle_beta   106.12755618
_cell_angle_gamma   113.26040906
_symmetry_Int_Tables_number   1
_chemical_formula_structural   Ba(ClO3)2
_chemical_formula_sum   'Ba2 Cl4 O12'
_cell_volume   321.32961936
_cell_formula_units_Z   2
loop_
 _symmetry_equiv_pos_site_id
 _symmetry_equiv_pos_as_xyz
  1  'x, y, z'
loop_
 _atom_site_type_symbol
 _atom_site_label
 _atom_site_symmetry_multiplicity
 _atom_site_fract_x
 _atom_site_fract_y
 _atom_site_fract_z
 _atom_site_occupancy
  O  O0  1  0.21412895  0.45272531  0.59136441  1
  O  O1  1  0.86136090  0.62276455  0.40863559  1
  O  O2  1  0.20272531  0.46412895  0.09136441  1
  O  O3  1  0.37276455  0.11136090  0.90863559  1
  O  O4  1  0.32296750  0.86064945  0.21960322  1
  O  O5  1  0.64104623  0.10336428  0.78039678  1
  O  O6  1  0.72308266  0.15500448  0.11302836  1
  O  O7  1  0.04197613  0.61005430  0.88697164  1
  O  O8  1  0.90500448  0.97308266  0.61302836  1
  O  O9  1  0.36005430  0.29197613  0.38697164  1
  O  O10  1  0.85336428  0.89104623  0.28039678  1
  O  O11  1  0.61064945  0.57296750  0.71960322  1
  Cl  Cl12  1  0.40765995  0.51003399  0.54077249  1
  Cl  Cl13  1  0.96926151  0.86688746  0.45922751  1
  Cl  Cl14  1  0.26003399  0.65765995  0.04077249  1
  Cl  Cl15  1  0.61688746  0.21926151  0.95922751  1
  Ba  Ba16  1  0.75231617  0.25231617  0.50000000  1
  Ba  Ba17  1  0.00231617  0.00231617  0.00000000  1
