# generated using pymatgen
data_Sc3C4
_symmetry_space_group_name_H-M   'P 1'
_cell_length_a   7.51921038
_cell_length_b   7.51921038
_cell_length_c   15.08178544
_cell_angle_alpha   90.00000000
_cell_angle_beta   90.00000000
_cell_angle_gamma   90.00000000
_symmetry_Int_Tables_number   1
_chemical_formula_structural   Sc3C4
_chemical_formula_sum   'Sc30 C40'
_cell_volume   852.70189920
_cell_formula_units_Z   10
loop_
 _symmetry_equiv_pos_site_id
 _symmetry_equiv_pos_as_xyz
  1  'x, y, z'
loop_
 _atom_site_type_symbol
 _atom_site_label
 _atom_site_symmetry_multiplicity
 _atom_site_fract_x
 _atom_site_fract_y
 _atom_site_fract_z
 _atom_site_occupancy
  C  C0  1  0.35001957  0.14998043  0.75000000  1
  C  C1  1  0.85001957  0.35001957  0.75000000  1
  C  C2  1  0.14998043  0.64998043  0.75000000  1
  C  C3  1  0.64998043  0.85001957  0.75000000  1
  C  C4  1  0.64998043  0.85001957  0.25000000  1
  C  C5  1  0.14998043  0.64998043  0.25000000  1
  C  C6  1  0.85001957  0.35001957  0.25000000  1
  C  C7  1  0.35001957  0.14998043  0.25000000  1
  C  C8  1  0.69262502  0.90262287  0.66745643  1
  C  C9  1  0.30737498  0.09737713  0.66745643  1
  C  C10  1  0.40262287  0.19262502  0.83254357  1
  C  C11  1  0.90262287  0.30737498  0.66745643  1
  C  C12  1  0.09737713  0.69262502  0.66745643  1
  C  C13  1  0.80737498  0.40262287  0.83254357  1
  C  C14  1  0.19262502  0.59737713  0.83254357  1
  C  C15  1  0.59737713  0.80737498  0.83254357  1
  C  C16  1  0.30737498  0.09737713  0.33254357  1
  C  C17  1  0.69262502  0.90262287  0.33254357  1
  C  C18  1  0.59737713  0.80737498  0.16745643  1
  C  C19  1  0.09737713  0.69262502  0.33254357  1
  C  C20  1  0.90262287  0.30737498  0.33254357  1
  C  C21  1  0.19262502  0.59737713  0.16745643  1
  C  C22  1  0.80737498  0.40262287  0.16745643  1
  C  C23  1  0.40262287  0.19262502  0.16745643  1
  C  C24  1  0.39327395  0.80331319  0.50000000  1
  C  C25  1  0.60672605  0.19668681  0.50000000  1
  C  C26  1  0.30331319  0.89327395  0.00000000  1
  C  C27  1  0.80331319  0.60672605  0.50000000  1
  C  C28  1  0.19668681  0.39327395  0.50000000  1
  C  C29  1  0.10672605  0.30331319  0.00000000  1
  C  C30  1  0.00000000  0.00000000  0.54283479  1
  C  C31  1  0.50000000  0.50000000  0.95716521  1
  C  C32  1  0.00000000  0.00000000  0.45716521  1
  C  C33  1  0.50000000  0.50000000  0.04283479  1
  C  C34  1  0.00000000  0.00000000  0.15669378  1
  C  C35  1  0.50000000  0.50000000  0.34330622  1
  C  C36  1  0.00000000  0.00000000  0.84330622  1
  C  C37  1  0.50000000  0.50000000  0.65669378  1
  C  C38  1  0.69668681  0.10672605  0.00000000  1
  C  C39  1  0.89327395  0.69668681  0.00000000  1
  Sc  Sc40  1  0.78740991  0.60044048  0.64341422  1
  Sc  Sc41  1  0.21259009  0.39955952  0.64341422  1
  Sc  Sc42  1  0.10044048  0.28740991  0.85658578  1
  Sc  Sc43  1  0.60044048  0.21259009  0.64341422  1
  Sc  Sc44  1  0.39955952  0.78740991  0.64341422  1
  Sc  Sc45  1  0.71259009  0.10044048  0.85658578  1
  Sc  Sc46  1  0.28740991  0.89955952  0.85658578  1
  Sc  Sc47  1  0.89955952  0.71259009  0.85658578  1
  Sc  Sc48  1  0.21259009  0.39955952  0.35658578  1
  Sc  Sc49  1  0.78740991  0.60044048  0.35658578  1
  Sc  Sc50  1  0.89955952  0.71259009  0.14341422  1
  Sc  Sc51  1  0.39955952  0.78740991  0.35658578  1
  Sc  Sc52  1  0.60044048  0.21259009  0.35658578  1
  Sc  Sc53  1  0.28740991  0.89955952  0.14341422  1
  Sc  Sc54  1  0.71259009  0.10044048  0.14341422  1
  Sc  Sc55  1  0.10044048  0.28740991  0.14341422  1
  Sc  Sc56  1  0.30137723  0.09680752  0.50000000  1
  Sc  Sc57  1  0.69862277  0.90319248  0.50000000  1
  Sc  Sc58  1  0.59680752  0.80137723  0.00000000  1
  Sc  Sc59  1  0.09680752  0.69862277  0.50000000  1
  Sc  Sc60  1  0.90319248  0.30137723  0.50000000  1
  Sc  Sc61  1  0.19862277  0.59680752  0.00000000  1
  Sc  Sc62  1  0.80137723  0.40319248  0.00000000  1
  Sc  Sc63  1  0.40319248  0.19862277  0.00000000  1
  Sc  Sc64  1  0.50000000  0.50000000  0.81232123  1
  Sc  Sc65  1  0.00000000  0.00000000  0.68767877  1
  Sc  Sc66  1  0.50000000  0.50000000  0.18767877  1
  Sc  Sc67  1  0.00000000  0.00000000  0.31232123  1
  Sc  Sc68  1  0.50000000  0.50000000  0.50000000  1
  Sc  Sc69  1  0.00000000  0.00000000  0.00000000  1
