# generated using pymatgen
data_CuPtF6
_symmetry_space_group_name_H-M   'P 1'
_cell_length_a   5.02854647
_cell_length_b   5.04458692
_cell_length_c   9.72806977
_cell_angle_alpha   76.10322523
_cell_angle_beta   76.04876630
_cell_angle_gamma   60.85113665
_symmetry_Int_Tables_number   1
_chemical_formula_structural   CuPtF6
_chemical_formula_sum   'Cu2 Pt2 F12'
_cell_volume   206.95729874
_cell_formula_units_Z   2
loop_
 _symmetry_equiv_pos_site_id
 _symmetry_equiv_pos_as_xyz
  1  'x, y, z'
loop_
 _atom_site_type_symbol
 _atom_site_label
 _atom_site_symmetry_multiplicity
 _atom_site_fract_x
 _atom_site_fract_y
 _atom_site_fract_z
 _atom_site_occupancy
  F  F0  1  0.90876708  0.20090565  0.37130708  1
  F  F1  1  0.09123292  0.79909435  0.62869292  1
  F  F2  1  0.54153789  0.85078339  0.37431990  1
  F  F3  1  0.45846211  0.14921661  0.62568010  1
  F  F4  1  0.35863881  0.75083504  0.87344961  1
  F  F5  1  0.64136119  0.24916496  0.12655039  1
  F  F6  1  0.71174395  0.04538615  0.87538302  1
  F  F7  1  0.28825605  0.95461385  0.12461698  1
  F  F8  1  -0.01097864  0.41942767  0.87087774  1
  F  F9  1  1.01097864  0.58057233  0.12912226  1
  F  F10  1  0.75252350  0.50703065  0.62598533  1
  F  F11  1  0.24747650  0.49296935  0.37401467  1
  Cu  Cu12  1  0.00000000  0.00000000  0.00000000  1
  Cu  Cu13  1  0.50000000  0.50000000  0.50000000  1
  Pt  Pt14  1  0.72698609  0.78154262  0.74990140  1
  Pt  Pt15  1  0.27301391  0.21845738  0.25009860  1
