# generated using pymatgen
data_Fe5O7F3
_symmetry_space_group_name_H-M   'P 1'
_cell_length_a   4.66366702
_cell_length_b   4.65767053
_cell_length_c   15.20911370
_cell_angle_alpha   90.00000000
_cell_angle_beta   89.86679403
_cell_angle_gamma   90.00000000
_symmetry_Int_Tables_number   1
_chemical_formula_structural   Fe5O7F3
_chemical_formula_sum   'Fe10 O14 F6'
_cell_volume   330.36880474
_cell_formula_units_Z   2
loop_
 _symmetry_equiv_pos_site_id
 _symmetry_equiv_pos_as_xyz
  1  'x, y, z'
loop_
 _atom_site_type_symbol
 _atom_site_label
 _atom_site_symmetry_multiplicity
 _atom_site_fract_x
 _atom_site_fract_y
 _atom_site_fract_z
 _atom_site_occupancy
  Fe  Fe0  1  0.00362135  0.00005433  0.00028413  1
  Fe  Fe1  1  0.96515231  0.97930148  0.20677198  1
  Fe  Fe2  1  0.02092179  0.01873470  0.40082091  1
  Fe  Fe3  1  0.02828943  0.01291003  0.59409887  1
  Fe  Fe4  1  0.01209562  0.98118825  0.79947379  1
  Fe  Fe5  1  0.53484769  0.47930148  0.09322802  1
  Fe  Fe6  1  0.48790438  0.48118825  0.50052621  1
  Fe  Fe7  1  0.49637865  0.50005433  0.29971587  1
  Fe  Fe8  1  0.47171057  0.51291003  0.70590113  1
  Fe  Fe9  1  0.47907821  0.51873470  0.89917909  1
  O  O10  1  0.19367874  0.80290042  0.30247365  1
  O  O11  1  0.20825533  0.80942152  0.49705293  1
  O  O12  1  0.18648982  0.81890816  0.69713884  1
  O  O13  1  0.18289024  0.81610375  0.90266981  1
  O  O14  1  0.30632126  0.30290042  0.99752635  1
  O  O15  1  0.31710976  0.31610375  0.39733019  1
  O  O16  1  0.31351018  0.31890816  0.60286216  1
  O  O17  1  0.29174467  0.30942152  0.80294707  1
  O  O18  1  0.69712129  0.69652018  0.99593519  1
  O  O19  1  0.68205541  0.67093908  0.20045745  1
  O  O20  1  0.68641221  0.70204839  0.80097914  1
  O  O21  1  0.81794459  0.17093908  0.09954255  1
  O  O22  1  0.81358779  0.20204839  0.49902086  1
  O  O23  1  0.80287871  0.19652018  0.30406481  1
  F  F24  1  0.19963469  0.78494357  0.10328621  1
  F  F25  1  0.30036531  0.28494357  0.19671379  1
  F  F26  1  0.70214877  0.70129373  0.40249962  1
  F  F27  1  0.70100603  0.70473241  0.60119918  1
  F  F28  1  0.79785123  0.20129373  0.89750038  1
  F  F29  1  0.79899397  0.20473241  0.69880082  1
