# generated using pymatgen
data_Tl6SeI4
_symmetry_space_group_name_H-M   'P 1'
_cell_length_a   9.49783986
_cell_length_b   9.49783986
_cell_length_c   9.98466661
_cell_angle_alpha   90.00000000
_cell_angle_beta   90.00000000
_cell_angle_gamma   90.00000000
_symmetry_Int_Tables_number   1
_chemical_formula_structural   Tl6SeI4
_chemical_formula_sum   'Tl12 Se2 I8'
_cell_volume   900.70641087
_cell_formula_units_Z   2
loop_
 _symmetry_equiv_pos_site_id
 _symmetry_equiv_pos_as_xyz
  1  'x, y, z'
loop_
 _atom_site_type_symbol
 _atom_site_label
 _atom_site_symmetry_multiplicity
 _atom_site_fract_x
 _atom_site_fract_y
 _atom_site_fract_z
 _atom_site_occupancy
  Se  Se0  1  0.00000000  0.00000000  0.50000000  1
  Se  Se1  1  0.50000000  0.50000000  0.00000000  1
  I  I2  1  0.16757243  0.33242757  0.75000000  1
  I  I3  1  0.66757243  0.16757243  0.75000000  1
  I  I4  1  0.33242757  0.83242757  0.75000000  1
  I  I5  1  0.83242757  0.66757243  0.75000000  1
  I  I6  1  0.83242757  0.66757243  0.25000000  1
  I  I7  1  0.33242757  0.83242757  0.25000000  1
  I  I8  1  0.66757243  0.16757243  0.25000000  1
  I  I9  1  0.16757243  0.33242757  0.25000000  1
  Tl  Tl10  1  0.69138604  0.89578040  0.50000000  1
  Tl  Tl11  1  0.30861396  0.10421960  0.50000000  1
  Tl  Tl12  1  0.60421960  0.80861396  0.00000000  1
  Tl  Tl13  1  0.10421960  0.69138604  0.50000000  1
  Tl  Tl14  1  0.89578040  0.30861396  0.50000000  1
  Tl  Tl15  1  0.19138604  0.60421960  0.00000000  1
  Tl  Tl16  1  0.80861396  0.39578040  0.00000000  1
  Tl  Tl17  1  0.39578040  0.19138604  0.00000000  1
  Tl  Tl18  1  0.00000000  0.00000000  0.79970528  1
  Tl  Tl19  1  0.50000000  0.50000000  0.70029472  1
  Tl  Tl20  1  0.00000000  0.00000000  0.20029472  1
  Tl  Tl21  1  0.50000000  0.50000000  0.29970528  1
