# generated using pymatgen
data_NaLiSe
_symmetry_space_group_name_H-M   'P 1'
_cell_length_a   4.27993939
_cell_length_b   7.20731319
_cell_length_c   7.77681907
_cell_angle_alpha   90.00000000
_cell_angle_beta   90.00000000
_cell_angle_gamma   90.00000000
_symmetry_Int_Tables_number   1
_chemical_formula_structural   NaLiSe
_chemical_formula_sum   'Na4 Li4 Se4'
_cell_volume   239.89047723
_cell_formula_units_Z   4
loop_
 _symmetry_equiv_pos_site_id
 _symmetry_equiv_pos_as_xyz
  1  'x, y, z'
loop_
 _atom_site_type_symbol
 _atom_site_label
 _atom_site_symmetry_multiplicity
 _atom_site_fract_x
 _atom_site_fract_y
 _atom_site_fract_z
 _atom_site_occupancy
  Li  Li0  1  0.75000000  0.35649240  0.92821088  1
  Li  Li1  1  0.25000000  0.64350760  0.07178912  1
  Li  Li2  1  0.75000000  0.85649240  0.57178912  1
  Li  Li3  1  0.25000000  0.14350760  0.42821088  1
  Na  Na4  1  0.75000000  0.48536830  0.31658782  1
  Na  Na5  1  0.25000000  0.51463170  0.68341218  1
  Na  Na6  1  0.75000000  0.98536830  0.18341218  1
  Na  Na7  1  0.25000000  0.01463170  0.81658782  1
  Se  Se8  1  0.75000000  0.72123465  0.89298581  1
  Se  Se9  1  0.25000000  0.27876535  0.10701419  1
  Se  Se10  1  0.75000000  0.22123465  0.60701419  1
  Se  Se11  1  0.25000000  0.77876535  0.39298581  1
