# generated using pymatgen
data_ThTa2O7
_symmetry_space_group_name_H-M   'P 1'
_cell_length_a   3.91518146
_cell_length_b   8.05553903
_cell_length_c   8.41860600
_cell_angle_alpha   95.68653303
_cell_angle_beta   90.00000000
_cell_angle_gamma   104.06436540
_symmetry_Int_Tables_number   1
_chemical_formula_structural   ThTa2O7
_chemical_formula_sum   'Th2 Ta4 O14'
_cell_volume   256.20712950
_cell_formula_units_Z   2
loop_
 _symmetry_equiv_pos_site_id
 _symmetry_equiv_pos_as_xyz
  1  'x, y, z'
loop_
 _atom_site_type_symbol
 _atom_site_label
 _atom_site_symmetry_multiplicity
 _atom_site_fract_x
 _atom_site_fract_y
 _atom_site_fract_z
 _atom_site_occupancy
  O  O0  1  0.98741362  0.97482724  0.85858379  1
  O  O1  1  0.01258638  0.02517276  0.14141621  1
  O  O2  1  0.94363110  0.88726219  0.39203585  1
  O  O3  1  0.05636890  0.11273781  0.60796415  1
  O  O4  1  0.60753671  0.21507341  0.93582262  1
  O  O5  1  0.39246329  0.78492659  0.06417738  1
  O  O6  1  0.41392235  0.82784470  0.61069069  1
  O  O7  1  0.58607765  0.17215530  0.38930931  1
  O  O8  1  0.19529972  0.39059945  0.49776867  1
  O  O9  1  0.80470028  0.60940055  0.50223133  1
  O  O10  1  0.19580662  0.39161323  0.83178373  1
  O  O11  1  0.80419338  0.60838677  0.16821627  1
  O  O12  1  0.16801010  0.33602019  0.19237411  1
  O  O13  1  0.83198990  0.66397981  0.80762589  1
  Ta  Ta14  1  0.89184984  0.78369968  0.01980984  1
  Ta  Ta15  1  0.10815016  0.21630032  0.98019016  1
  Ta  Ta16  1  0.92870974  0.85741948  0.63300959  1
  Ta  Ta17  1  0.07129026  0.14258052  0.36699041  1
  Th  Th18  1  0.68822693  0.37645387  0.66650904  1
  Th  Th19  1  0.31177307  0.62354613  0.33349096  1
