# generated using pymatgen
data_CsSbS6
_symmetry_space_group_name_H-M   'P 1'
_cell_length_a   6.14432437
_cell_length_b   11.33892893
_cell_length_c   15.50597743
_cell_angle_alpha   90.00000000
_cell_angle_beta   90.00000000
_cell_angle_gamma   103.52991309
_symmetry_Int_Tables_number   1
_chemical_formula_structural   CsSbS6
_chemical_formula_sum   'Cs4 Sb4 S24'
_cell_volume   1050.32168911
_cell_formula_units_Z   4
loop_
 _symmetry_equiv_pos_site_id
 _symmetry_equiv_pos_as_xyz
  1  'x, y, z'
loop_
 _atom_site_type_symbol
 _atom_site_label
 _atom_site_symmetry_multiplicity
 _atom_site_fract_x
 _atom_site_fract_y
 _atom_site_fract_z
 _atom_site_occupancy
  S  S0  1  0.06203006  0.38110274  0.61779454  1
  S  S1  1  0.43796994  0.11889726  0.11779454  1
  S  S2  1  0.93796994  0.61889726  0.38220546  1
  S  S3  1  0.56203006  0.88110274  0.88220546  1
  S  S4  1  0.99720997  0.26159836  0.71961144  1
  S  S5  1  0.50279003  0.23840164  0.21961144  1
  S  S6  1  0.00279003  0.73840164  0.28038856  1
  S  S7  1  0.49720997  0.76159836  0.78038856  1
  S  S8  1  0.01888616  0.12650400  0.93391546  1
  S  S9  1  0.48111384  0.37349600  0.43391546  1
  S  S10  1  0.98111384  0.87349600  0.06608454  1
  S  S11  1  0.51888616  0.62650400  0.56608454  1
  S  S12  1  0.89011660  0.63826982  0.93072019  1
  S  S13  1  0.60988340  0.86173018  0.43072019  1
  S  S14  1  0.10988340  0.36173018  0.06927981  1
  S  S15  1  0.39011660  0.13826982  0.56927981  1
  S  S16  1  0.99314984  0.58139906  0.81480284  1
  S  S17  1  0.50685016  0.91860094  0.31480284  1
  S  S18  1  0.00685016  0.41860094  0.18519716  1
  S  S19  1  0.49314984  0.08139906  0.68519716  1
  S  S20  1  0.33332576  0.59071294  0.82403274  1
  S  S21  1  0.16667424  0.90928706  0.32403274  1
  S  S22  1  0.66667424  0.40928706  0.17596726  1
  S  S23  1  0.83332576  0.09071294  0.67596726  1
  Sb  Sb24  1  0.47600648  0.38508699  0.58960852  1
  Sb  Sb25  1  0.02399352  0.11491301  0.08960852  1
  Sb  Sb26  1  0.52399352  0.61491301  0.41039148  1
  Sb  Sb27  1  0.97600648  0.88508699  0.91039148  1
  Cs  Cs28  1  0.60610507  0.30685773  0.91537367  1
  Cs  Cs29  1  0.89389493  0.19314227  0.41537367  1
  Cs  Cs30  1  0.39389493  0.69314227  0.08462633  1
  Cs  Cs31  1  0.10610507  0.80685773  0.58462633  1
