# generated using pymatgen
data_Bi2P4O13
_symmetry_space_group_name_H-M   'P 1'
_cell_length_a   6.98524863
_cell_length_b   7.01177914
_cell_length_c   13.39076242
_cell_angle_alpha   103.85414575
_cell_angle_beta   90.00000000
_cell_angle_gamma   119.87491472
_symmetry_Int_Tables_number   1
_chemical_formula_structural   Bi2P4O13
_chemical_formula_sum   'Bi4 P8 O26'
_cell_volume   546.59746325
_cell_formula_units_Z   2
loop_
 _symmetry_equiv_pos_site_id
 _symmetry_equiv_pos_as_xyz
  1  'x, y, z'
loop_
 _atom_site_type_symbol
 _atom_site_label
 _atom_site_symmetry_multiplicity
 _atom_site_fract_x
 _atom_site_fract_y
 _atom_site_fract_z
 _atom_site_occupancy
  O  O0  1  0.76684011  0.00000000  0.75000000  1
  O  O1  1  0.23315989  0.00000000  0.25000000  1
  O  O2  1  0.69346763  0.00488471  0.93419204  1
  O  O3  1  0.68858293  0.99511529  0.56580796  1
  O  O4  1  0.30653237  0.99511529  0.06580796  1
  O  O5  1  0.31141707  0.00488471  0.43419204  1
  O  O6  1  0.10266198  0.22072043  0.89355907  1
  O  O7  1  0.88194155  0.77927957  0.60644093  1
  O  O8  1  0.89733802  0.77927957  0.10644093  1
  O  O9  1  0.11805845  0.22072043  0.39355907  1
  O  O10  1  0.09333072  0.19347318  0.65526453  1
  O  O11  1  0.89985754  0.80652682  0.84473547  1
  O  O12  1  0.70808486  0.40202685  0.22838453  1
  O  O13  1  0.30605802  0.59797315  0.27161547  1
  O  O14  1  0.29191514  0.59797315  0.77161547  1
  O  O15  1  0.69394198  0.40202685  0.72838453  1
  O  O16  1  0.43329356  0.50797789  0.09585991  1
  O  O17  1  0.92531567  0.49202211  0.40414009  1
  O  O18  1  0.56670644  0.49202211  0.90414009  1
  O  O19  1  0.07468433  0.50797789  0.59585991  1
  O  O20  1  0.07792202  0.49724729  0.09730543  1
  O  O21  1  0.58067473  0.50275271  0.40269457  1
  O  O22  1  0.92207798  0.50275271  0.90269457  1
  O  O23  1  0.41932527  0.49724729  0.59730543  1
  O  O24  1  0.10014246  0.19347318  0.15526453  1
  O  O25  1  0.90666928  0.80652682  0.34473547  1
  P  P26  1  0.84488690  0.97949787  0.63645024  1
  P  P27  1  0.86538903  0.02050213  0.86354976  1
  P  P28  1  0.15511310  0.02050213  0.36354976  1
  P  P29  1  0.13461097  0.97949787  0.13645024  1
  P  P30  1  0.22339491  0.46068748  0.65842438  1
  P  P31  1  0.76270743  0.53931252  0.84157562  1
  P  P32  1  0.77660509  0.53931252  0.34157562  1
  P  P33  1  0.23729257  0.46068748  0.15842438  1
  Bi  Bi34  1  0.30095484  0.60418285  0.94109933  1
  Bi  Bi35  1  0.69677199  0.39581715  0.55890067  1
  Bi  Bi36  1  0.69904516  0.39581715  0.05890067  1
  Bi  Bi37  1  0.30322801  0.60418285  0.44109933  1
