# generated using pymatgen
data_BaH8O5
_symmetry_space_group_name_H-M   'P 1'
_cell_length_a   6.02001556
_cell_length_b   7.62730553
_cell_length_c   11.50427026
_cell_angle_alpha   90.00000000
_cell_angle_beta   90.00000000
_cell_angle_gamma   90.00000000
_symmetry_Int_Tables_number   1
_chemical_formula_structural   BaH8O5
_chemical_formula_sum   'Ba4 H32 O20'
_cell_volume   528.23580206
_cell_formula_units_Z   4
loop_
 _symmetry_equiv_pos_site_id
 _symmetry_equiv_pos_as_xyz
  1  'x, y, z'
loop_
 _atom_site_type_symbol
 _atom_site_label
 _atom_site_symmetry_multiplicity
 _atom_site_fract_x
 _atom_site_fract_y
 _atom_site_fract_z
 _atom_site_occupancy
  H  H0  1  0.26150866  0.46568048  0.02838520  1
  H  H1  1  0.76150866  0.03431952  0.97161480  1
  H  H2  1  0.23849134  0.96568048  0.47161480  1
  H  H3  1  0.73849134  0.53431952  0.52838520  1
  H  H4  1  0.73849134  0.53431952  0.97161480  1
  H  H5  1  0.23849134  0.96568048  0.02838520  1
  H  H6  1  0.76150866  0.03431952  0.52838520  1
  H  H7  1  0.26150866  0.46568048  0.47161480  1
  H  H8  1  0.48242965  0.67376151  0.08448606  1
  H  H9  1  0.98242965  0.82623849  0.91551394  1
  H  H10  1  0.01757035  0.17376151  0.41551394  1
  H  H11  1  0.51757035  0.32623849  0.58448606  1
  H  H12  1  0.51757035  0.32623849  0.91551394  1
  H  H13  1  0.01757035  0.17376151  0.08448606  1
  H  H14  1  0.98242965  0.82623849  0.58448606  1
  H  H15  1  0.48242965  0.67376151  0.41551394  1
  H  H16  1  0.66762287  0.80386896  0.02352482  1
  H  H17  1  0.16762287  0.69613104  0.97647518  1
  H  H18  1  0.83237713  0.30386896  0.47647518  1
  H  H19  1  0.33237713  0.19613104  0.52352482  1
  H  H20  1  0.33237713  0.19613104  0.97647518  1
  H  H21  1  0.83237713  0.30386896  0.02352482  1
  H  H22  1  0.16762287  0.69613104  0.52352482  1
  H  H23  1  0.66762287  0.80386896  0.47647518  1
  H  H24  1  0.39844033  0.46118175  0.31866270  1
  H  H25  1  0.89844033  0.03881825  0.68133730  1
  H  H26  1  0.10155967  0.96118175  0.18133730  1
  H  H27  1  0.60155967  0.53881825  0.81866270  1
  H  H28  1  0.60155967  0.53881825  0.68133730  1
  H  H29  1  0.10155967  0.96118175  0.31866270  1
  H  H30  1  0.89844033  0.03881825  0.81866270  1
  H  H31  1  0.39844033  0.46118175  0.18133730  1
  O  O32  1  0.24874472  0.56482270  0.08203165  1
  O  O33  1  0.74874472  0.93517730  0.91796835  1
  O  O34  1  0.25125528  0.06482270  0.41796835  1
  O  O35  1  0.75125528  0.43517730  0.58203165  1
  O  O36  1  0.75125528  0.43517730  0.91796835  1
  O  O37  1  0.25125528  0.06482270  0.08203165  1
  O  O38  1  0.74874472  0.93517730  0.58203165  1
  O  O39  1  0.24874472  0.56482270  0.41796835  1
  O  O40  1  0.63301643  0.73280239  0.09621092  1
  O  O41  1  0.13301643  0.76719761  0.90378908  1
  O  O42  1  0.86698357  0.23280239  0.40378908  1
  O  O43  1  0.36698357  0.26719761  0.59621092  1
  O  O44  1  0.36698357  0.26719761  0.90378908  1
  O  O45  1  0.86698357  0.23280239  0.09621092  1
  O  O46  1  0.13301643  0.76719761  0.59621092  1
  O  O47  1  0.63301643  0.73280239  0.40378908  1
  O  O48  1  0.52280663  0.59488160  0.75000000  1
  O  O49  1  0.02280663  0.90511840  0.25000000  1
  O  O50  1  0.97719337  0.09488160  0.75000000  1
  O  O51  1  0.47719337  0.40511840  0.25000000  1
  Ba  Ba52  1  0.07915134  0.45581322  0.75000000  1
  Ba  Ba53  1  0.57915134  0.04418678  0.25000000  1
  Ba  Ba54  1  0.42084866  0.95581322  0.75000000  1
  Ba  Ba55  1  0.92084866  0.54418678  0.25000000  1
