# generated using pymatgen
data_La8Nb7S22
_symmetry_space_group_name_H-M   'P 1'
_cell_length_a   5.83937710
_cell_length_b   16.38708187
_cell_length_c   16.38708188
_cell_angle_alpha   90.74233800
_cell_angle_beta   90.00000000
_cell_angle_gamma   90.00000000
_symmetry_Int_Tables_number   1
_chemical_formula_structural   La8Nb7S22
_chemical_formula_sum   'La16 Nb14 S44'
_cell_volume   1567.95399940
_cell_formula_units_Z   2
loop_
 _symmetry_equiv_pos_site_id
 _symmetry_equiv_pos_as_xyz
  1  'x, y, z'
loop_
 _atom_site_type_symbol
 _atom_site_label
 _atom_site_symmetry_multiplicity
 _atom_site_fract_x
 _atom_site_fract_y
 _atom_site_fract_z
 _atom_site_occupancy
  S  S0  1  0.33196626  0.07131881  0.56902194  1
  S  S1  1  0.33196626  0.92868119  0.43097806  1
  S  S2  1  0.83196626  0.43097806  0.92868119  1
  S  S3  1  0.83196626  0.56902194  0.07131881  1
  S  S4  1  0.83189126  0.00363217  0.36021022  1
  S  S5  1  0.83189126  0.99636783  0.63978978  1
  S  S6  1  0.33189126  0.63978978  0.99636783  1
  S  S7  1  0.33189126  0.36021022  0.00363217  1
  S  S8  1  0.82852289  0.13931621  0.49432008  1
  S  S9  1  0.82852289  0.86068379  0.50567992  1
  S  S10  1  0.32852289  0.50567992  0.86068379  1
  S  S11  1  0.32852289  0.49432008  0.13931621  1
  S  S12  1  0.33328633  0.07213629  0.28762573  1
  S  S13  1  0.33328633  0.92786371  0.71237427  1
  S  S14  1  0.83328633  0.71237427  0.92786371  1
  S  S15  1  0.83328633  0.28762573  0.07213629  1
  S  S16  1  0.33028564  0.20974878  0.42861161  1
  S  S17  1  0.33028564  0.79025122  0.57138839  1
  S  S18  1  0.83028564  0.57138839  0.79025122  1
  S  S19  1  0.83028564  0.42861161  0.20974878  1
  S  S20  1  0.82928435  0.14830860  0.21498589  1
  S  S21  1  0.82928435  0.85169140  0.78501411  1
  S  S22  1  0.32928435  0.78501411  0.85169140  1
  S  S23  1  0.32928435  0.21498589  0.14830860  1
  S  S24  1  0.83294247  0.28368079  0.35323008  1
  S  S25  1  0.83294247  0.71631921  0.64676992  1
  S  S26  1  0.33294247  0.64676992  0.71631921  1
  S  S27  1  0.33294247  0.35323008  0.28368079  1
  S  S28  1  0.57822367  0.01292135  0.88776527  1
  S  S29  1  0.57822367  0.98707865  0.11223473  1
  S  S30  1  0.57391829  0.51303817  0.38807333  1
  S  S31  1  0.57391829  0.48696183  0.61192667  1
  S  S32  1  0.07391829  0.61192667  0.48696183  1
  S  S33  1  0.07391829  0.38807333  0.51303817  1
  S  S34  1  0.08300019  0.63727197  0.26350361  1
  S  S35  1  0.08300019  0.36272803  0.73649639  1
  S  S36  1  0.58300019  0.73649639  0.36272803  1
  S  S37  1  0.58300019  0.26350361  0.63727197  1
  S  S38  1  0.57023162  0.76249985  0.13886511  1
  S  S39  1  0.57023162  0.23750015  0.86113489  1
  S  S40  1  0.07023162  0.86113489  0.23750015  1
  S  S41  1  0.07023162  0.13886511  0.76249985  1
  S  S42  1  0.07822367  0.88776527  0.01292135  1
  S  S43  1  0.07822367  0.11223473  0.98707865  1
  Nb  Nb44  1  0.00090636  0.00000000  0.50000000  1
  Nb  Nb45  1  0.50090636  0.50000000  0.00000000  1
  Nb  Nb46  1  0.49785214  0.07010107  0.42833973  1
  Nb  Nb47  1  0.49785214  0.92989893  0.57166027  1
  Nb  Nb48  1  0.99785214  0.57166027  0.92989893  1
  Nb  Nb49  1  0.99785214  0.42833973  0.07010107  1
  Nb  Nb50  1  1.00046098  0.14302000  0.35551937  1
  Nb  Nb51  1  1.00046098  0.85698000  0.64448063  1
  Nb  Nb52  1  0.50046098  0.64448063  0.85698000  1
  Nb  Nb53  1  0.50046098  0.35551937  0.14302000  1
  Nb  Nb54  1  0.49922846  0.21337489  0.28718217  1
  Nb  Nb55  1  0.49922846  0.78662511  0.71281783  1
  Nb  Nb56  1  0.99922846  0.71281783  0.78662511  1
  Nb  Nb57  1  0.99922846  0.28718217  0.21337489  1
  La  La58  1  0.07952411  0.98681616  0.86019822  1
  La  La59  1  0.07952411  0.01318384  0.13980178  1
  La  La60  1  0.57952411  0.13980178  0.01318384  1
  La  La61  1  0.57952411  0.86019822  0.98681616  1
  La  La62  1  0.56061814  0.10986926  0.73443156  1
  La  La63  1  0.56061814  0.89013074  0.26556844  1
  La  La64  1  0.06061814  0.26556844  0.89013074  1
  La  La65  1  0.06061814  0.73443156  0.10986926  1
  La  La66  1  0.08921039  0.23618348  0.60953005  1
  La  La67  1  0.08921039  0.76381652  0.39046995  1
  La  La68  1  0.58921039  0.39046995  0.76381652  1
  La  La69  1  0.58921039  0.60953005  0.23618348  1
  La  La70  1  0.56849962  0.36141245  0.48386761  1
  La  La71  1  0.56849962  0.63858755  0.51613239  1
  La  La72  1  0.06849962  0.51613239  0.63858755  1
  La  La73  1  0.06849962  0.48386761  0.36141245  1
