# generated using pymatgen
data_Ta(ICl)2
_symmetry_space_group_name_H-M   'P 1'
_cell_length_a   7.96765157
_cell_length_b   7.96765156
_cell_length_c   7.96765156
_cell_angle_alpha   94.30030735
_cell_angle_beta   112.30793506
_cell_angle_gamma   123.05416483
_symmetry_Int_Tables_number   1
_chemical_formula_structural   Ta(ICl)2
_chemical_formula_sum   'Ta2 I4 Cl4'
_cell_volume   365.36050666
_cell_formula_units_Z   2
loop_
 _symmetry_equiv_pos_site_id
 _symmetry_equiv_pos_as_xyz
  1  'x, y, z'
loop_
 _atom_site_type_symbol
 _atom_site_label
 _atom_site_symmetry_multiplicity
 _atom_site_fract_x
 _atom_site_fract_y
 _atom_site_fract_z
 _atom_site_occupancy
  Cl  Cl0  1  0.53130179  0.26999190  0.26130989  1
  Cl  Cl1  1  1.00868201  0.26999190  0.73869011  1
  Cl  Cl2  1  -0.00868201  0.73000810  0.26130989  1
  Cl  Cl3  1  0.46869821  0.73000810  0.73869011  1
  I  I4  1  0.00000000  0.82403958  0.82403958  1
  I  I5  1  0.00000000  0.17596042  0.17596042  1
  I  I6  1  0.50000000  0.28956179  0.78956179  1
  I  I7  1  0.50000000  0.71043821  0.21043821  1
  Ta  Ta8  1  0.29080953  0.29080953  0.00000000  1
  Ta  Ta9  1  0.70919047  0.70919047  0.00000000  1
