# generated using pymatgen
data_TiVO4
_symmetry_space_group_name_H-M   'P 1'
_cell_length_a   5.53704990
_cell_length_b   5.53705036
_cell_length_c   5.53705024
_cell_angle_alpha   139.92121901
_cell_angle_beta   139.92122802
_cell_angle_gamma   57.97293011
_symmetry_Int_Tables_number   1
_chemical_formula_structural   TiVO4
_chemical_formula_sum   'Ti1 V1 O4'
_cell_volume   69.74509270
_cell_formula_units_Z   1
loop_
 _symmetry_equiv_pos_site_id
 _symmetry_equiv_pos_as_xyz
  1  'x, y, z'
loop_
 _atom_site_type_symbol
 _atom_site_label
 _atom_site_symmetry_multiplicity
 _atom_site_fract_x
 _atom_site_fract_y
 _atom_site_fract_z
 _atom_site_occupancy
  Ti  Ti0  1  0.75000000  0.25000000  0.50000000  1
  V  V1  1  0.00000000  0.00000000  0.00000000  1
  O  O2  1  0.54127376  0.04127376  0.50000000  1
  O  O3  1  0.20517774  0.20517774  1.00000000  1
  O  O4  1  0.95872624  0.45872624  0.50000000  1
  O  O5  1  0.79482226  0.79482226  0.00000000  1
