# generated using pymatgen
data_Ta5B6
_symmetry_space_group_name_H-M   'P 1'
_cell_length_a   3.15934368
_cell_length_b   3.30715779
_cell_length_c   11.48079641
_cell_angle_alpha   90.00000000
_cell_angle_beta   97.90856029
_cell_angle_gamma   90.00000000
_symmetry_Int_Tables_number   1
_chemical_formula_structural   Ta5B6
_chemical_formula_sum   'Ta5 B6'
_cell_volume   118.81558876
_cell_formula_units_Z   1
loop_
 _symmetry_equiv_pos_site_id
 _symmetry_equiv_pos_as_xyz
  1  'x, y, z'
loop_
 _atom_site_type_symbol
 _atom_site_label
 _atom_site_symmetry_multiplicity
 _atom_site_fract_x
 _atom_site_fract_y
 _atom_site_fract_z
 _atom_site_occupancy
  B  B0  1  0.46029007  0.50000000  0.92058014  1
  B  B1  1  0.53970993  0.50000000  0.07941986  1
  B  B2  1  0.27313230  0.00000000  0.54626461  1
  B  B3  1  0.72686770  0.00000000  0.45373539  1
  B  B4  1  0.08231206  0.50000000  0.16462413  1
  B  B5  1  0.91768794  0.50000000  0.83537587  1
  Ta  Ta6  1  0.19450519  0.50000000  0.38901039  1
  Ta  Ta7  1  0.80549481  0.50000000  0.61098961  1
  Ta  Ta8  1  0.38572802  0.00000000  0.77145603  1
  Ta  Ta9  1  0.61427198  0.00000000  0.22854397  1
  Ta  Ta10  1  0.00000000  0.00000000  0.00000000  1
