# generated using pymatgen
data_Cs2Ni3S4
_symmetry_space_group_name_H-M   'P 1'
_cell_length_a   5.89162853
_cell_length_b   5.89162853
_cell_length_c   15.23618379
_cell_angle_alpha   90.00000000
_cell_angle_beta   90.00000000
_cell_angle_gamma   119.99999994
_symmetry_Int_Tables_number   1
_chemical_formula_structural   Cs2Ni3S4
_chemical_formula_sum   'Cs4 Ni6 S8'
_cell_volume   458.01272889
_cell_formula_units_Z   2
loop_
 _symmetry_equiv_pos_site_id
 _symmetry_equiv_pos_as_xyz
  1  'x, y, z'
loop_
 _atom_site_type_symbol
 _atom_site_label
 _atom_site_symmetry_multiplicity
 _atom_site_fract_x
 _atom_site_fract_y
 _atom_site_fract_z
 _atom_site_occupancy
  S  S0  1  0.33333333  0.66666667  0.34346293  1
  S  S1  1  0.66666667  0.33333333  0.84346293  1
  S  S2  1  0.66666667  0.33333333  0.65653707  1
  S  S3  1  0.33333333  0.66666667  0.15653707  1
  S  S4  1  0.00000000  0.00000000  0.65711097  1
  S  S5  1  0.00000000  0.00000000  0.15711097  1
  S  S6  1  0.00000000  0.00000000  0.84288903  1
  S  S7  1  0.00000000  0.00000000  0.34288903  1
  Ni  Ni8  1  0.16648604  0.83351396  0.25000000  1
  Ni  Ni9  1  0.83351396  0.66702793  0.75000000  1
  Ni  Ni10  1  0.83351396  0.16648604  0.75000000  1
  Ni  Ni11  1  0.16648604  0.33297207  0.25000000  1
  Ni  Ni12  1  0.33297207  0.16648604  0.75000000  1
  Ni  Ni13  1  0.66702793  0.83351396  0.25000000  1
  Cs  Cs14  1  0.33333333  0.66666667  0.90919256  1
  Cs  Cs15  1  0.66666667  0.33333333  0.40919256  1
  Cs  Cs16  1  0.66666667  0.33333333  0.09080744  1
  Cs  Cs17  1  0.33333333  0.66666667  0.59080744  1
