# generated using pymatgen
data_Ca4Ni3C5
_symmetry_space_group_name_H-M   'P 1'
_cell_length_a   3.76499776
_cell_length_b   5.86942623
_cell_length_c   9.37979302
_cell_angle_alpha   76.03677251
_cell_angle_beta   78.42226338
_cell_angle_gamma   71.29294471
_symmetry_Int_Tables_number   1
_chemical_formula_structural   Ca4Ni3C5
_chemical_formula_sum   'Ca4 Ni3 C5'
_cell_volume   188.80444049
_cell_formula_units_Z   1
loop_
 _symmetry_equiv_pos_site_id
 _symmetry_equiv_pos_as_xyz
  1  'x, y, z'
loop_
 _atom_site_type_symbol
 _atom_site_label
 _atom_site_symmetry_multiplicity
 _atom_site_fract_x
 _atom_site_fract_y
 _atom_site_fract_z
 _atom_site_occupancy
  C  C0  1  0.39804259  0.51491570  0.68899912  1
  C  C1  1  0.50000000  0.00000000  0.00000000  1
  C  C2  1  0.67291926  0.26440370  0.38975778  1
  C  C3  1  0.32708074  0.73559630  0.61024222  1
  C  C4  1  0.60195741  0.48508430  0.31100088  1
  Ca  Ca5  1  0.10126676  0.19623716  0.60122932  1
  Ca  Ca6  1  0.74422109  0.67475094  0.83680687  1
  Ca  Ca7  1  0.25577891  0.32524906  0.16319313  1
  Ca  Ca8  1  0.89873324  0.80376284  0.39877068  1
  Ni  Ni9  1  0.54151534  0.75336262  0.16360670  1
  Ni  Ni10  1  0.00000000  0.00000000  0.00000000  1
  Ni  Ni11  1  0.45848466  0.24663738  0.83639330  1
