# generated using pymatgen
data_Cu6As4S9
_symmetry_space_group_name_H-M   'P 1'
_cell_length_a   9.14343592
_cell_length_b   9.13661987
_cell_length_c   9.89847633
_cell_angle_alpha   90.07916927
_cell_angle_beta   107.73607452
_cell_angle_gamma   109.43125844
_symmetry_Int_Tables_number   1
_chemical_formula_structural   Cu6As4S9
_chemical_formula_sum   'Cu12 As8 S18'
_cell_volume   737.88104548
_cell_formula_units_Z   2
loop_
 _symmetry_equiv_pos_site_id
 _symmetry_equiv_pos_as_xyz
  1  'x, y, z'
loop_
 _atom_site_type_symbol
 _atom_site_label
 _atom_site_symmetry_multiplicity
 _atom_site_fract_x
 _atom_site_fract_y
 _atom_site_fract_z
 _atom_site_occupancy
  S  S0  1  0.28776164  0.54477733  0.40357362  1
  S  S1  1  0.37292263  0.22837898  0.00108181  1
  S  S2  1  0.22362530  0.16575768  0.61109853  1
  S  S3  1  0.99111104  0.42404708  0.60367696  1
  S  S4  1  0.92462676  0.08752673  0.80484970  1
  S  S5  1  0.64335700  -0.00407820  0.00660687  1
  S  S6  1  0.07731232  0.13517495  0.19467626  1
  S  S7  1  0.18261066  0.81787190  0.80523584  1
  S  S8  1  0.58551808  0.64170125  0.21707912  1
  S  S9  1  0.02567288  0.77864357  0.41297765  1
  S  S10  1  0.46809334  0.93307314  0.60798131  1
  S  S11  1  0.79055424  0.04328902  0.40798289  1
  S  S12  1  0.32920608  0.88050827  0.19312854  1
  S  S13  1  0.83980858  0.38520293  0.21503984  1
  S  S14  1  0.42663102  0.57486217  0.80222387  1
  S  S15  1  0.13757430  0.48926190  1.00035691  1
  S  S16  1  0.67021069  0.32968889  0.80391278  1
  S  S17  1  0.72092112  0.68751605  0.59956447  1
  Cu  Cu18  1  0.39498454  0.48910634  0.01433447  1
  Cu  Cu19  1  0.27821612  0.79532459  0.39752811  1
  Cu  Cu20  1  0.96779605  0.66647042  0.61097532  1
  Cu  Cu21  1  0.92454659  0.34008936  0.80543797  1
  Cu  Cu22  1  0.08833704  0.39037561  0.20219058  1
  Cu  Cu23  1  0.16634822  0.06131957  0.80882257  1
  Cu  Cu24  1  0.72037282  0.94120433  0.60204869  1
  Cu  Cu25  1  0.44244002  0.83026535  0.81731591  1
  Cu  Cu26  1  0.58916566  0.89546371  0.20617446  1
  Cu  Cu27  1  0.03650157  0.03578404  0.39700259  1
  Cu  Cu28  1  0.63382955  0.24451460  0.01341979  1
  Cu  Cu29  1  0.23820906  0.41848154  0.59326317  1
  As  As30  1  0.46102619  0.17712461  0.57862298  1
  As  As31  1  0.76524886  0.28257397  0.42326986  1
  As  As32  1  0.34546259  0.14729795  0.20857855  1
  As  As33  1  0.51724327  0.50132455  0.40984422  1
  As  As34  1  0.84575642  0.64799902  0.20444824  1
  As  As35  1  0.09741641  0.72307269  0.99013035  1
  As  As36  1  0.68186268  0.59108243  0.81981184  1
  As  As37  1  0.86971865  0.95592168  0.98773335  1
