# generated using pymatgen
data_Ta4SiTe4
_symmetry_space_group_name_H-M   'P 1'
_cell_length_a   4.83555041
_cell_length_b   11.15757167
_cell_length_c   19.28082943
_cell_angle_alpha   90.00000000
_cell_angle_beta   90.00000000
_cell_angle_gamma   90.00000000
_symmetry_Int_Tables_number   1
_chemical_formula_structural   Ta4SiTe4
_chemical_formula_sum   'Ta16 Si4 Te16'
_cell_volume   1040.25859532
_cell_formula_units_Z   4
loop_
 _symmetry_equiv_pos_site_id
 _symmetry_equiv_pos_as_xyz
  1  'x, y, z'
loop_
 _atom_site_type_symbol
 _atom_site_label
 _atom_site_symmetry_multiplicity
 _atom_site_fract_x
 _atom_site_fract_y
 _atom_site_fract_z
 _atom_site_occupancy
  Si  Si0  1  0.25000782  0.50000000  0.50000000  1
  Si  Si1  1  0.74999218  0.00000000  0.00000000  1
  Si  Si2  1  0.74999218  0.50000000  0.50000000  1
  Si  Si3  1  0.25000782  0.00000000  0.00000000  1
  Te  Te4  1  0.00000000  0.39391950  0.69708570  1
  Te  Te5  1  0.00000000  0.60608050  0.30291430  1
  Te  Te6  1  0.00000000  0.89391950  0.80291430  1
  Te  Te7  1  0.00000000  0.10608050  0.19708570  1
  Te  Te8  1  0.50000000  0.18353605  0.59621710  1
  Te  Te9  1  0.50000000  0.81646395  0.40378290  1
  Te  Te10  1  0.50000000  0.68353605  0.90378290  1
  Te  Te11  1  0.50000000  0.31646395  0.09621710  1
  Te  Te12  1  0.50000000  0.66535704  0.68273747  1
  Te  Te13  1  0.50000000  0.33464296  0.31726253  1
  Te  Te14  1  0.50000000  0.16535704  0.81726253  1
  Te  Te15  1  0.50000000  0.83464296  0.18273747  1
  Te  Te16  1  0.00000000  0.34117565  0.93839451  1
  Te  Te17  1  0.00000000  0.65882435  0.06160549  1
  Te  Te18  1  0.00000000  0.84117565  0.56160549  1
  Te  Te19  1  0.00000000  0.15882435  0.43839451  1
  Ta  Ta20  1  0.00000000  0.59619295  0.60589343  1
  Ta  Ta21  1  0.00000000  0.40380705  0.39410657  1
  Ta  Ta22  1  0.00000000  0.09619295  0.89410657  1
  Ta  Ta23  1  0.00000000  0.90380705  0.10589343  1
  Ta  Ta24  1  0.00000000  0.31654628  0.55565122  1
  Ta  Ta25  1  0.00000000  0.68345372  0.44434878  1
  Ta  Ta26  1  0.00000000  0.81654628  0.94434878  1
  Ta  Ta27  1  0.00000000  0.18345372  0.05565122  1
  Ta  Ta28  1  0.50000000  0.30223148  0.46444991  1
  Ta  Ta29  1  0.50000000  0.69776852  0.53555009  1
  Ta  Ta30  1  0.50000000  0.80223148  0.03555009  1
  Ta  Ta31  1  0.50000000  0.19776852  0.96444991  1
  Ta  Ta32  1  0.50000000  0.43824722  0.61417753  1
  Ta  Ta33  1  0.50000000  0.56175278  0.38582247  1
  Ta  Ta34  1  0.50000000  0.93824722  0.88582247  1
  Ta  Ta35  1  0.50000000  0.06175278  0.11417753  1
