# generated using pymatgen
data_Li3BiO3
_symmetry_space_group_name_H-M   'P 1'
_cell_length_a   9.15823116
_cell_length_b   9.37687036
_cell_length_c   9.86621983
_cell_angle_alpha   65.83598186
_cell_angle_beta   72.41869642
_cell_angle_gamma   89.17615915
_symmetry_Int_Tables_number   1
_chemical_formula_structural   Li3BiO3
_chemical_formula_sum   'Li24 Bi8 O24'
_cell_volume   731.07993101
_cell_formula_units_Z   8
loop_
 _symmetry_equiv_pos_site_id
 _symmetry_equiv_pos_as_xyz
  1  'x, y, z'
loop_
 _atom_site_type_symbol
 _atom_site_label
 _atom_site_symmetry_multiplicity
 _atom_site_fract_x
 _atom_site_fract_y
 _atom_site_fract_z
 _atom_site_occupancy
  Li  Li0  1  0.34804878  0.89207546  0.34383347  1
  Li  Li1  1  0.65195122  0.10792454  0.65616653  1
  Li  Li2  1  0.52355009  0.72262127  0.94370694  1
  Li  Li3  1  0.47644991  0.27737873  0.05629306  1
  Li  Li4  1  0.68463936  0.85061769  0.59597249  1
  Li  Li5  1  0.31536064  0.14938231  0.40402751  1
  Li  Li6  1  0.89992100  0.08594438  0.49837635  1
  Li  Li7  1  0.10007900  0.91405562  0.50162365  1
  Li  Li8  1  0.67388829  0.46659275  0.16002367  1
  Li  Li9  1  0.32611171  0.53340725  0.83997633  1
  Li  Li10  1  0.47648365  0.72078631  0.55442120  1
  Li  Li11  1  0.52351635  0.27921369  0.44557880  1
  Li  Li12  1  0.84513027  0.38201969  0.35507015  1
  Li  Li13  1  0.15486973  0.61798031  0.64492985  1
  Li  Li14  1  0.50371669  0.87209250  0.10940518  1
  Li  Li15  1  0.49628331  0.12790750  0.89059482  1
  Li  Li16  1  0.08077563  0.48743299  0.08278844  1
  Li  Li17  1  0.91922437  0.51256701  0.91721156  1
  Li  Li18  1  0.42061879  0.57498919  0.37281677  1
  Li  Li19  1  0.57938121  0.42501081  0.62718323  1
  Li  Li20  1  0.92373661  0.67258357  0.56013003  1
  Li  Li21  1  0.07626339  0.32741643  0.43986997  1
  Li  Li22  1  0.31563450  0.44583457  0.21327106  1
  Li  Li23  1  0.68436550  0.55416543  0.78672894  1
  O  O24  1  0.70052573  0.08094651  0.46312925  1
  O  O25  1  0.95096691  0.48244327  0.72758678  1
  O  O26  1  0.04903309  0.51755673  0.27241322  1
  O  O27  1  0.47142244  0.73262145  0.76040952  1
  O  O28  1  0.29947427  0.91905349  0.53687075  1
  O  O29  1  0.52857756  0.26737855  0.23959048  1
  O  O30  1  0.88634286  0.86196476  0.63178201  1
  O  O31  1  0.11365714  0.13803524  0.36821799  1
  O  O32  1  0.13999608  0.75302450  0.41759345  1
  O  O33  1  0.86000392  0.24697550  0.58240655  1
  O  O34  1  0.87735894  0.35214897  0.14146185  1
  O  O35  1  0.12264106  0.64785103  0.85853815  1
  O  O36  1  0.46436182  0.20270472  0.68340310  1
  O  O37  1  0.53563818  0.79729528  0.31659690  1
  O  O38  1  0.28165611  0.38067420  0.05150545  1
  O  O39  1  0.71834389  0.61932580  0.94849455  1
  O  O40  1  0.36677822  0.04927598  0.11696219  1
  O  O41  1  0.63322178  0.95072402  0.88303781  1
  O  O42  1  0.64922523  0.48443774  0.36109541  1
  O  O43  1  0.35077477  0.51556226  0.63890459  1
  O  O44  1  0.38193270  0.66829881  0.15727380  1
  O  O45  1  0.61806730  0.33170119  0.84272620  1
  O  O46  1  0.71194713  0.66132053  0.54284400  1
  O  O47  1  0.28805287  0.33867947  0.45715600  1
  Bi  Bi48  1  0.83876226  0.25668362  0.79795679  1
  Bi  Bi49  1  0.16123774  0.74331638  0.20204321  1
  Bi  Bi50  1  0.72192202  0.14200504  0.23002716  1
  Bi  Bi51  1  0.25187893  0.29076854  0.69274183  1
  Bi  Bi52  1  0.74812107  0.70923146  0.30725817  1
  Bi  Bi53  1  0.84317442  0.84207115  0.85884085  1
  Bi  Bi54  1  0.15682558  0.15792885  0.14115915  1
  Bi  Bi55  1  0.27807798  0.85799496  0.76997284  1
