# generated using pymatgen
data_K3AuSe13
_symmetry_space_group_name_H-M   'P 1'
_cell_length_a   5.10224257
_cell_length_b   13.89958954
_cell_length_c   15.34597151
_cell_angle_alpha   94.42806422
_cell_angle_beta   90.00000000
_cell_angle_gamma   90.00000000
_symmetry_Int_Tables_number   1
_chemical_formula_structural   K3AuSe13
_chemical_formula_sum   'K6 Au2 Se26'
_cell_volume   1085.07356015
_cell_formula_units_Z   2
loop_
 _symmetry_equiv_pos_site_id
 _symmetry_equiv_pos_as_xyz
  1  'x, y, z'
loop_
 _atom_site_type_symbol
 _atom_site_label
 _atom_site_symmetry_multiplicity
 _atom_site_fract_x
 _atom_site_fract_y
 _atom_site_fract_z
 _atom_site_occupancy
  K  K0  1  0.79859901  0.83607050  0.72179957  1
  K  K1  1  0.79859901  0.66392950  0.27820043  1
  K  K2  1  0.83717661  0.75000000  0.00000000  1
  K  K3  1  0.16282339  0.25000000  0.00000000  1
  K  K4  1  0.20140099  0.16392950  0.27820043  1
  K  K5  1  0.20140099  0.33607050  0.72179957  1
  Se  Se6  1  0.70213998  0.44942123  0.61967441  1
  Se  Se7  1  0.35504625  0.42312075  0.26872134  1
  Se  Se8  1  0.64495375  0.92312075  0.26872134  1
  Se  Se9  1  0.64495375  0.57687925  0.73127866  1
  Se  Se10  1  0.07648966  0.46505389  0.15044523  1
  Se  Se11  1  0.07648966  0.03494611  0.84955477  1
  Se  Se12  1  0.92351034  0.53494611  0.84955477  1
  Se  Se13  1  0.92351034  0.96505389  0.15044523  1
  Se  Se14  1  0.31884789  0.57919007  0.07337223  1
  Se  Se15  1  0.35504625  0.07687925  0.73127866  1
  Se  Se16  1  0.68115211  0.42080993  0.92662777  1
  Se  Se17  1  0.68115211  0.07919007  0.07337223  1
  Se  Se18  1  0.30742381  0.73328036  0.15121535  1
  Se  Se19  1  0.30742381  0.76671964  0.84878465  1
  Se  Se20  1  0.69257619  0.26671964  0.84878465  1
  Se  Se21  1  0.69257619  0.23328036  0.15121535  1
  Se  Se22  1  0.90267810  0.34216754  0.41297109  1
  Se  Se23  1  0.90267810  0.15783246  0.58702891  1
  Se  Se24  1  0.09732190  0.65783246  0.58702891  1
  Se  Se25  1  0.09732190  0.84216754  0.41297109  1
  Se  Se26  1  0.37137460  0.75000000  0.50000000  1
  Se  Se27  1  0.62862540  0.25000000  0.50000000  1
  Se  Se28  1  0.29786002  0.55057877  0.38032559  1
  Se  Se29  1  0.29786002  0.94942123  0.61967441  1
  Se  Se30  1  0.31884789  0.92080993  0.92662777  1
  Se  Se31  1  0.70213998  0.05057877  0.38032559  1
  Au  Au32  1  0.00000000  0.50000000  0.50000000  1
  Au  Au33  1  0.00000000  0.00000000  0.50000000  1
