# generated using pymatgen
data_Gd2CCl
_symmetry_space_group_name_H-M   'P 1'
_cell_length_a   7.20604159
_cell_length_b   7.20604160
_cell_length_c   7.20604160
_cell_angle_alpha   29.74501392
_cell_angle_beta   29.74501389
_cell_angle_gamma   29.74501390
_symmetry_Int_Tables_number   1
_chemical_formula_structural   Gd2CCl
_chemical_formula_sum   'Gd2 C1 Cl1'
_cell_volume   81.55747354
_cell_formula_units_Z   1
loop_
 _symmetry_equiv_pos_site_id
 _symmetry_equiv_pos_as_xyz
  1  'x, y, z'
loop_
 _atom_site_type_symbol
 _atom_site_label
 _atom_site_symmetry_multiplicity
 _atom_site_fract_x
 _atom_site_fract_y
 _atom_site_fract_z
 _atom_site_occupancy
  C  C0  1  0.50000000  0.50000000  0.50000000  1
  Cl  Cl1  1  0.00000000  0.00000000  0.00000000  1
  Gd  Gd2  1  0.77013156  0.77013156  0.77013156  1
  Gd  Gd3  1  0.22986844  0.22986844  0.22986844  1
