# generated using pymatgen
data_NaTiSe4
_symmetry_space_group_name_H-M   'P 1'
_cell_length_a   7.41557780
_cell_length_b   13.12070414
_cell_length_c   13.14288665
_cell_angle_alpha   106.63107508
_cell_angle_beta   90.00000000
_cell_angle_gamma   90.00000000
_symmetry_Int_Tables_number   1
_chemical_formula_structural   NaTiSe4
_chemical_formula_sum   'Na8 Ti8 Se32'
_cell_volume   1225.27713869
_cell_formula_units_Z   8
loop_
 _symmetry_equiv_pos_site_id
 _symmetry_equiv_pos_as_xyz
  1  'x, y, z'
loop_
 _atom_site_type_symbol
 _atom_site_label
 _atom_site_symmetry_multiplicity
 _atom_site_fract_x
 _atom_site_fract_y
 _atom_site_fract_z
 _atom_site_occupancy
  Na  Na0  1  0.68370619  0.09633410  0.87034028  1
  Na  Na1  1  0.18370619  0.90366590  0.62965972  1
  Na  Na2  1  0.31629381  0.90366590  0.12965972  1
  Na  Na3  1  0.81629381  0.09633410  0.37034028  1
  Na  Na4  1  0.66615847  0.46251225  0.88243448  1
  Na  Na5  1  0.16615847  0.53748775  0.61756552  1
  Na  Na6  1  0.33384153  0.53748775  0.11756552  1
  Na  Na7  1  0.83384153  0.46251225  0.38243448  1
  Ti  Ti8  1  0.72817301  0.73141542  0.61489922  1
  Ti  Ti9  1  0.22817301  0.26858458  0.88510078  1
  Ti  Ti10  1  0.27182699  0.26858458  0.38510078  1
  Ti  Ti11  1  0.77182699  0.73141542  0.11489922  1
  Ti  Ti12  1  0.79903888  0.78217674  0.37424599  1
  Ti  Ti13  1  0.29903888  0.21782326  0.12575401  1
  Ti  Ti14  1  0.20096112  0.21782326  0.62575401  1
  Ti  Ti15  1  0.70096112  0.78217674  0.87424599  1
  Se  Se16  1  0.98217434  0.67582571  0.49905152  1
  Se  Se17  1  0.48217434  0.32417429  0.00094848  1
  Se  Se18  1  0.01782566  0.32417429  0.50094848  1
  Se  Se19  1  0.51782566  0.67582571  0.99905152  1
  Se  Se20  1  0.80837934  0.60264027  0.74217780  1
  Se  Se21  1  0.30837934  0.39735973  0.75782220  1
  Se  Se22  1  0.19162066  0.39735973  0.25782220  1
  Se  Se23  1  0.69162066  0.60264027  0.24217780  1
  Se  Se24  1  -0.00019677  0.73229626  0.96429264  1
  Se  Se25  1  0.49980323  0.26770374  0.53570736  1
  Se  Se26  1  1.00019677  0.26770374  0.03570736  1
  Se  Se27  1  0.50019677  0.73229626  0.46429264  1
  Se  Se28  1  0.91576792  0.54981227  0.10447089  1
  Se  Se29  1  0.41576792  0.45018773  0.39552911  1
  Se  Se30  1  0.08423208  0.45018773  0.89552911  1
  Se  Se31  1  0.58423208  0.54981227  0.60447089  1
  Se  Se32  1  0.07353429  0.90854273  0.40255708  1
  Se  Se33  1  0.57353429  0.09145727  0.09744292  1
  Se  Se34  1  0.92646571  0.09145727  0.59744292  1
  Se  Se35  1  0.42646571  0.90854273  0.90255708  1
  Se  Se36  1  0.07650652  0.75100598  0.25274566  1
  Se  Se37  1  0.57650652  0.24899402  0.24725434  1
  Se  Se38  1  0.92349348  0.24899402  0.74725434  1
  Se  Se39  1  0.42349348  0.75100598  0.75274566  1
  Se  Se40  1  0.62735801  0.87750678  0.27067672  1
  Se  Se41  1  0.12735801  0.12249322  0.22932328  1
  Se  Se42  1  0.37264199  0.12249322  0.72932328  1
  Se  Se43  1  0.87264199  0.87750678  0.77067672  1
  Se  Se44  1  0.64629110  0.89601642  0.54985440  1
  Se  Se45  1  0.14629110  0.10398358  0.95014560  1
  Se  Se46  1  0.35370890  0.10398358  0.45014560  1
  Se  Se47  1  0.85370890  0.89601642  0.04985440  1
