# generated using pymatgen
data_Pr3RuI3
_symmetry_space_group_name_H-M   'P 1'
_cell_length_a   4.34669968
_cell_length_b   9.43825637
_cell_length_c   12.69798820
_cell_angle_alpha   93.10575301
_cell_angle_beta   90.00000000
_cell_angle_gamma   90.00000000
_symmetry_Int_Tables_number   1
_chemical_formula_structural   Pr3RuI3
_chemical_formula_sum   'Pr6 Ru2 I6'
_cell_volume   520.17320684
_cell_formula_units_Z   2
loop_
 _symmetry_equiv_pos_site_id
 _symmetry_equiv_pos_as_xyz
  1  'x, y, z'
loop_
 _atom_site_type_symbol
 _atom_site_label
 _atom_site_symmetry_multiplicity
 _atom_site_fract_x
 _atom_site_fract_y
 _atom_site_fract_z
 _atom_site_occupancy
  Ru  Ru0  1  0.25000000  0.10975481  0.12011908  1
  Ru  Ru1  1  0.75000000  0.89024519  0.87988092  1
  I  I2  1  0.25000000  0.13171759  0.61813061  1
  I  I3  1  0.75000000  0.86828241  0.38186939  1
  I  I4  1  0.75000000  0.36528929  0.37595526  1
  I  I5  1  0.25000000  0.63471071  0.62404474  1
  I  I6  1  0.25000000  0.60504097  0.13322547  1
  I  I7  1  0.75000000  0.39495903  0.86677453  1
  Pr  Pr8  1  0.75000000  0.30900645  0.11796779  1
  Pr  Pr9  1  0.25000000  0.69099355  0.88203221  1
  Pr  Pr10  1  0.25000000  0.11541835  0.33027393  1
  Pr  Pr11  1  0.75000000  0.88458165  0.66972607  1
  Pr  Pr12  1  0.25000000  0.09619024  0.89174737  1
  Pr  Pr13  1  0.75000000  0.90380976  0.10825263  1
