# generated using pymatgen
data_BaSe2O5
_symmetry_space_group_name_H-M   'P 1'
_cell_length_a   4.61744841
_cell_length_b   9.96688608
_cell_length_c   12.05553717
_cell_angle_alpha   90.00000000
_cell_angle_beta   90.00000000
_cell_angle_gamma   92.56319660
_symmetry_Int_Tables_number   1
_chemical_formula_structural   BaSe2O5
_chemical_formula_sum   'Ba4 Se8 O20'
_cell_volume   554.25980512
_cell_formula_units_Z   4
loop_
 _symmetry_equiv_pos_site_id
 _symmetry_equiv_pos_as_xyz
  1  'x, y, z'
loop_
 _atom_site_type_symbol
 _atom_site_label
 _atom_site_symmetry_multiplicity
 _atom_site_fract_x
 _atom_site_fract_y
 _atom_site_fract_z
 _atom_site_occupancy
  O  O0  1  0.23874948  0.90411936  0.55873336  1
  O  O1  1  0.76125052  0.59588064  0.05873336  1
  O  O2  1  0.76125052  0.09588064  0.44126664  1
  O  O3  1  0.23874948  0.40411936  0.94126664  1
  O  O4  1  0.83869498  0.74099130  0.65547771  1
  O  O5  1  0.16130502  0.75900870  0.15547771  1
  O  O6  1  0.16130502  0.25900870  0.34452229  1
  O  O7  1  0.83869498  0.24099130  0.84452229  1
  O  O8  1  0.88290792  0.34172127  0.53647768  1
  O  O9  1  0.11709208  0.15827873  0.03647768  1
  O  O10  1  0.11709208  0.65827873  0.46352232  1
  O  O11  1  0.88290792  0.84172127  0.96352232  1
  O  O12  1  0.28801335  0.70018614  0.85767267  1
  O  O13  1  0.71198665  0.79981386  0.35767267  1
  O  O14  1  0.71198665  0.29981386  0.14232733  1
  O  O15  1  0.28801335  0.20018614  0.64232733  1
  O  O16  1  0.23628550  0.96120068  0.80909145  1
  O  O17  1  0.76371450  0.53879932  0.30909145  1
  O  O18  1  0.76371450  0.03879932  0.19090855  1
  O  O19  1  0.23628550  0.46120068  0.69090855  1
  Se  Se20  1  0.18088085  0.74302961  0.60391998  1
  Se  Se21  1  0.81911915  0.75697039  0.10391998  1
  Se  Se22  1  0.81911915  0.25697039  0.39608002  1
  Se  Se23  1  0.18088085  0.24302961  0.89608002  1
  Se  Se24  1  0.27107661  0.35405314  0.58319327  1
  Se  Se25  1  0.72892339  0.14594686  0.08319327  1
  Se  Se26  1  0.72892339  0.64594686  0.41680673  1
  Se  Se27  1  0.27107661  0.85405314  0.91680673  1
  Ba  Ba28  1  0.75826554  0.03896935  0.66835609  1
  Ba  Ba29  1  0.24173446  0.46103065  0.16835609  1
  Ba  Ba30  1  0.24173446  0.96103065  0.33164391  1
  Ba  Ba31  1  0.75826554  0.53896935  0.83164391  1
