# generated using pymatgen
data_LiMn3(BO3)3
_symmetry_space_group_name_H-M   'P 1'
_cell_length_a   9.28054045
_cell_length_b   5.40066173
_cell_length_c   8.10310988
_cell_angle_alpha   92.41514201
_cell_angle_beta   74.90918831
_cell_angle_gamma   106.47580587
_symmetry_Int_Tables_number   1
_chemical_formula_structural   LiMn3(BO3)3
_chemical_formula_sum   'Li2 Mn6 B6 O18'
_cell_volume   375.80910622
_cell_formula_units_Z   2
loop_
 _symmetry_equiv_pos_site_id
 _symmetry_equiv_pos_as_xyz
  1  'x, y, z'
loop_
 _atom_site_type_symbol
 _atom_site_label
 _atom_site_symmetry_multiplicity
 _atom_site_fract_x
 _atom_site_fract_y
 _atom_site_fract_z
 _atom_site_occupancy
  Li  Li0  1  0.96691139  0.31103465  0.28192174  1
  Li  Li1  1  0.36641044  0.35564765  0.05141241  1
  Mn  Mn2  1  0.77042720  0.17137984  0.03212166  1
  Mn  Mn3  1  0.88709895  0.14317747  0.63665513  1
  Mn  Mn4  1  0.56290787  0.49517756  0.30120425  1
  Mn  Mn5  1  0.44624755  0.52353280  0.69667245  1
  Mn  Mn6  1  0.12433292  0.87585426  0.37711283  1
  Mn  Mn7  1  0.20900553  0.79084864  0.95624255  1
  B  B8  1  0.88953036  0.76698513  0.14913087  1
  B  B9  1  0.79272253  0.57771964  0.50593058  1
  B  B10  1  0.44381041  0.89965636  0.18419240  1
  B  B11  1  0.54060227  0.08895440  0.82740980  1
  B  B12  1  0.23261642  0.43375467  0.44974746  1
  B  B13  1  0.10070631  0.23291250  0.88358906  1
  O  O14  1  0.88060721  0.01569115  0.16100713  1
  O  O15  1  0.96910694  0.28914001  0.85761871  1
  O  O16  1  0.91149591  0.79573195  0.52755105  1
  O  O17  1  0.76568346  0.55694915  0.13686450  1
  O  O18  1  0.81478191  0.34220345  0.48471983  1
  O  O19  1  0.65371846  0.62072208  0.49480454  1
  O  O20  1  0.56766547  0.10968986  0.19645146  1
  O  O21  1  0.67962735  0.04599066  0.83851544  1
  O  O22  1  0.45275938  0.65097070  0.17231473  1
  O  O23  1  0.51852909  0.32446102  0.84863259  1
  O  O24  1  0.30907604  0.96322736  0.17356107  1
  O  O25  1  0.42183672  0.87094087  0.80578251  1
  O  O26  1  0.36421868  0.37753289  0.47571277  1
  O  O27  1  0.21248298  0.67098478  0.48409429  1
  O  O28  1  0.21738947  0.42686534  0.92915541  1
  O  O29  1  0.11592253  0.23980386  0.40418930  1
  O  O30  1  0.02427877  0.70344958  0.15976744  1
  O  O31  1  0.12082647  0.99567473  0.84924406  1
