# generated using pymatgen
data_Rb3CuO2
_symmetry_space_group_name_H-M   'P 1'
_cell_length_a   6.82174425
_cell_length_b   9.44409306
_cell_length_c   9.80181566
_cell_angle_alpha   90.00000000
_cell_angle_beta   90.00000000
_cell_angle_gamma   109.99418175
_symmetry_Int_Tables_number   1
_chemical_formula_structural   Rb3CuO2
_chemical_formula_sum   'Rb12 Cu4 O8'
_cell_volume   593.42260778
_cell_formula_units_Z   4
loop_
 _symmetry_equiv_pos_site_id
 _symmetry_equiv_pos_as_xyz
  1  'x, y, z'
loop_
 _atom_site_type_symbol
 _atom_site_label
 _atom_site_symmetry_multiplicity
 _atom_site_fract_x
 _atom_site_fract_y
 _atom_site_fract_z
 _atom_site_occupancy
  O  O0  1  0.12919420  0.62173866  0.19827620  1
  O  O1  1  0.37080580  0.87826134  0.69827620  1
  O  O2  1  0.87080580  0.37826134  0.80172380  1
  O  O3  1  0.62919420  0.12173866  0.30172380  1
  O  O4  1  0.20820111  0.27776815  0.56116353  1
  O  O5  1  0.70820111  0.77776815  0.93883647  1
  O  O6  1  0.29179889  0.22223185  0.06116353  1
  O  O7  1  0.79179889  0.72223185  0.43883647  1
  Cu  Cu8  1  0.46417003  0.17301729  0.17936058  1
  Cu  Cu9  1  0.03582997  0.32698271  0.67936058  1
  Cu  Cu10  1  0.53582997  0.82698271  0.82063942  1
  Cu  Cu11  1  0.96417003  0.67301729  0.32063942  1
  Rb  Rb12  1  0.74163778  0.49520101  0.03451067  1
  Rb  Rb13  1  0.75836222  0.00479899  0.53451067  1
  Rb  Rb14  1  0.25836222  0.50479899  0.96548933  1
  Rb  Rb15  1  0.24163778  0.99520101  0.46548933  1
  Rb  Rb16  1  0.63770551  0.37498220  0.47493630  1
  Rb  Rb17  1  0.86229449  0.12501780  0.97493630  1
  Rb  Rb18  1  0.36229449  0.62501780  0.52506370  1
  Rb  Rb19  1  0.13770551  0.87498220  0.02506370  1
  Rb  Rb20  1  0.57220022  0.81279705  0.20833387  1
  Rb  Rb21  1  0.92779978  0.68720295  0.70833387  1
  Rb  Rb22  1  0.42779978  0.18720295  0.79166613  1
  Rb  Rb23  1  0.07220022  0.31279705  0.29166613  1
