# generated using pymatgen
data_Ba8Ni6N7
_symmetry_space_group_name_H-M   'P 1'
_cell_length_a   9.60208512
_cell_length_b   9.67205705
_cell_length_c   12.09413001
_cell_angle_alpha   81.60373938
_cell_angle_beta   72.89252333
_cell_angle_gamma   60.23902624
_symmetry_Int_Tables_number   1
_chemical_formula_structural   Ba8Ni6N7
_chemical_formula_sum   'Ba16 Ni12 N14'
_cell_volume   931.91667788
_cell_formula_units_Z   2
loop_
 _symmetry_equiv_pos_site_id
 _symmetry_equiv_pos_as_xyz
  1  'x, y, z'
loop_
 _atom_site_type_symbol
 _atom_site_label
 _atom_site_symmetry_multiplicity
 _atom_site_fract_x
 _atom_site_fract_y
 _atom_site_fract_z
 _atom_site_occupancy
  N  N0  1  0.50000000  0.50000000  0.50000000  1
  N  N1  1  0.00000000  0.50000000  0.00000000  1
  N  N2  1  0.40696160  0.18607679  0.75000000  1
  N  N3  1  0.59303840  0.81392321  0.25000000  1
  N  N4  1  0.91505184  0.16989633  0.75000000  1
  N  N5  1  0.08494816  0.83010367  0.25000000  1
  N  N6  1  0.75365367  0.88388665  0.49992861  1
  N  N7  1  0.36245968  0.88388665  0.00007139  1
  N  N8  1  0.24634633  0.11611335  0.50007139  1
  N  N9  1  0.63754032  0.11611335  0.99992861  1
  N  N10  1  0.93110179  0.66152404  0.72881472  1
  N  N11  1  0.40737417  0.66152404  0.77118528  1
  N  N12  1  0.06889821  0.33847596  0.27118528  1
  N  N13  1  0.59262583  0.33847596  0.22881472  1
  Ni  Ni14  1  0.05940938  0.15816989  0.61418673  1
  Ni  Ni15  1  0.78242073  0.15816989  0.88581327  1
  Ni  Ni16  1  0.63399565  0.23798755  0.10106673  1
  Ni  Ni17  1  0.12801680  0.23798755  0.39893327  1
  Ni  Ni18  1  0.36600435  0.76201245  0.89893327  1
  Ni  Ni19  1  0.87198320  0.76201245  0.60106673  1
  Ni  Ni20  1  0.04084884  0.41634979  0.13246653  1
  Ni  Ni21  1  0.54280137  0.41634979  0.36753347  1
  Ni  Ni22  1  0.95915116  0.58365021  0.86753347  1
  Ni  Ni23  1  0.45719863  0.58365021  0.63246653  1
  Ni  Ni24  1  0.21757927  0.84183011  0.11418673  1
  Ni  Ni25  1  0.94059062  0.84183011  0.38581327  1
  Ba  Ba26  1  0.08259287  0.83481427  0.75000000  1
  Ba  Ba27  1  0.91740713  0.16518573  0.25000000  1
  Ba  Ba28  1  0.75281414  0.49437172  0.75000000  1
  Ba  Ba29  1  0.24718586  0.50562828  0.25000000  1
  Ba  Ba30  1  0.70363441  0.17947215  0.59889347  1
  Ba  Ba31  1  0.11689344  0.17947215  0.90110653  1
  Ba  Ba32  1  0.29636559  0.82052785  0.40110653  1
  Ba  Ba33  1  0.88310656  0.82052785  0.09889347  1
  Ba  Ba34  1  0.63645242  0.59553769  0.10334591  1
  Ba  Ba35  1  0.76800989  0.59553769  0.39665409  1
  Ba  Ba36  1  0.36354758  0.40446231  0.89665409  1
  Ba  Ba37  1  0.23199011  0.40446231  0.60334591  1
  Ba  Ba38  1  0.55351247  0.06444387  0.35716367  1
  Ba  Ba39  1  0.38204366  0.06444387  0.14283633  1
  Ba  Ba40  1  0.44648753  0.93555613  0.64283633  1
  Ba  Ba41  1  0.61795634  0.93555613  0.85716367  1
