# generated using pymatgen
data_RbAsSe2
_symmetry_space_group_name_H-M   'P 1'
_cell_length_a   9.70024803
_cell_length_b   10.20703664
_cell_length_c   12.97010322
_cell_angle_alpha   113.17141152
_cell_angle_beta   100.92346437
_cell_angle_gamma   89.99999996
_symmetry_Int_Tables_number   1
_chemical_formula_structural   RbAsSe2
_chemical_formula_sum   'Rb8 As8 Se16'
_cell_volume   1155.23520092
_cell_formula_units_Z   8
loop_
 _symmetry_equiv_pos_site_id
 _symmetry_equiv_pos_as_xyz
  1  'x, y, z'
loop_
 _atom_site_type_symbol
 _atom_site_label
 _atom_site_symmetry_multiplicity
 _atom_site_fract_x
 _atom_site_fract_y
 _atom_site_fract_z
 _atom_site_occupancy
  As  As0  1  0.04284610  0.51031895  0.30532795  1
  As  As1  1  0.15036085  0.80879070  0.21885191  1
  As  As2  1  0.34963915  0.58993878  0.78114809  1
  As  As3  1  0.84963915  0.19120930  0.78114809  1
  As  As4  1  0.65036085  0.41006122  0.21885191  1
  As  As5  1  0.45715390  0.20499100  0.69467205  1
  As  As6  1  0.95715390  0.48968105  0.69467205  1
  As  As7  1  0.54284610  0.79500900  0.30532795  1
  Se  Se8  1  0.55803355  0.19113280  0.20749427  1
  Se  Se9  1  0.94196645  0.98363853  0.79250573  1
  Se  Se10  1  0.44196645  0.80886720  0.79250573  1
  Se  Se11  1  0.34404860  0.91175571  0.39132813  1
  Se  Se12  1  0.05803355  0.01636147  0.20749427  1
  Se  Se13  1  0.84404860  0.47957241  0.39132813  1
  Se  Se14  1  0.65595140  0.08824429  0.60867187  1
  Se  Se15  1  0.15595140  0.52042759  0.60867187  1
  Se  Se16  1  0.49261969  0.77557988  0.11671611  1
  Se  Se17  1  0.00738031  0.65886377  0.88328389  1
  Se  Se18  1  0.50738031  0.22442012  0.88328389  1
  Se  Se19  1  0.99261969  0.34113623  0.11671611  1
  Se  Se20  1  0.46577533  0.55832039  0.30208059  1
  Se  Se21  1  0.03422467  0.25623980  0.69791941  1
  Se  Se22  1  0.53422467  0.44167961  0.69791941  1
  Se  Se23  1  0.96577533  0.74376020  0.30208059  1
  Rb  Rb24  1  0.25000000  0.46537112  0.00000000  1
  Rb  Rb25  1  0.75000000  0.53462888  0.00000000  1
  Rb  Rb26  1  0.25000000  0.00072916  0.00000000  1
  Rb  Rb27  1  0.75000000  0.99927084  0.00000000  1
  Rb  Rb28  1  0.82753572  0.12391055  0.39518630  1
  Rb  Rb29  1  0.67246428  0.72872425  0.60481370  1
  Rb  Rb30  1  0.17246428  0.87608945  0.60481370  1
  Rb  Rb31  1  0.32753572  0.27127575  0.39518630  1
