# generated using pymatgen
data_Nb2Te6I
_symmetry_space_group_name_H-M   'P 1'
_cell_length_a   9.38306788
_cell_length_b   9.82378364
_cell_length_c   14.28549927
_cell_angle_alpha   90.00000000
_cell_angle_beta   90.00000000
_cell_angle_gamma   112.87966711
_symmetry_Int_Tables_number   1
_chemical_formula_structural   Nb2Te6I
_chemical_formula_sum   'Nb8 Te24 I4'
_cell_volume   1213.19661568
_cell_formula_units_Z   4
loop_
 _symmetry_equiv_pos_site_id
 _symmetry_equiv_pos_as_xyz
  1  'x, y, z'
loop_
 _atom_site_type_symbol
 _atom_site_label
 _atom_site_symmetry_multiplicity
 _atom_site_fract_x
 _atom_site_fract_y
 _atom_site_fract_z
 _atom_site_occupancy
  Nb  Nb0  1  0.17544119  0.62966651  0.99203346  1
  Nb  Nb1  1  0.82455881  0.87033349  0.49203346  1
  Nb  Nb2  1  0.82455881  0.37033349  0.00796654  1
  Nb  Nb3  1  0.17544119  0.12966651  0.50796654  1
  Nb  Nb4  1  0.52421940  0.86921262  0.97545947  1
  Nb  Nb5  1  0.47578060  0.63078738  0.47545947  1
  Nb  Nb6  1  0.47578060  0.13078738  0.02454053  1
  Nb  Nb7  1  0.52421940  0.36921262  0.52454053  1
  Te  Te8  1  0.24297484  0.91057125  0.90339260  1
  Te  Te9  1  0.75702516  0.58942875  0.40339260  1
  Te  Te10  1  0.75702516  0.08942875  0.09660740  1
  Te  Te11  1  0.24297484  0.41057125  0.59660740  1
  Te  Te12  1  0.37380026  0.72919524  0.81638276  1
  Te  Te13  1  0.62619974  0.77080476  0.31638276  1
  Te  Te14  1  0.62619974  0.27080476  0.18361724  1
  Te  Te15  1  0.37380026  0.22919524  0.68361724  1
  Te  Te16  1  0.95535365  0.52777608  0.84138423  1
  Te  Te17  1  0.04464635  0.97222392  0.34138423  1
  Te  Te18  1  0.04464635  0.47222392  0.15861577  1
  Te  Te19  1  0.95535365  0.02777608  0.65861577  1
  Te  Te20  1  0.08338268  0.33891263  0.91655497  1
  Te  Te21  1  0.91661732  0.16108737  0.41655497  1
  Te  Te22  1  0.91661732  0.66108737  0.08344503  1
  Te  Te23  1  0.08338268  0.83891263  0.58344503  1
  Te  Te24  1  0.45387994  0.59067923  0.06324970  1
  Te  Te25  1  0.54612006  0.90932077  0.56324970  1
  Te  Te26  1  0.54612006  0.40932077  0.93675030  1
  Te  Te27  1  0.45387994  0.09067923  0.43675030  1
  Te  Te28  1  0.34971915  0.85628061  0.13465791  1
  Te  Te29  1  0.65028085  0.64371939  0.63465791  1
  Te  Te30  1  0.65028085  0.14371939  0.86534209  1
  Te  Te31  1  0.34971915  0.35628061  0.36534209  1
  I  I32  1  0.81169557  0.84851975  0.92049528  1
  I  I33  1  0.18830443  0.65148025  0.42049528  1
  I  I34  1  0.18830443  0.15148025  0.07950472  1
  I  I35  1  0.81169557  0.34851975  0.57950472  1
