# generated using pymatgen
data_RbSF5
_symmetry_space_group_name_H-M   'P 1'
_cell_length_a   6.25890988
_cell_length_b   7.86537149
_cell_length_c   10.20511854
_cell_angle_alpha   90.00000000
_cell_angle_beta   90.00000000
_cell_angle_gamma   90.00000000
_symmetry_Int_Tables_number   1
_chemical_formula_structural   RbSF5
_chemical_formula_sum   'Rb4 S4 F20'
_cell_volume   502.38422237
_cell_formula_units_Z   4
loop_
 _symmetry_equiv_pos_site_id
 _symmetry_equiv_pos_as_xyz
  1  'x, y, z'
loop_
 _atom_site_type_symbol
 _atom_site_label
 _atom_site_symmetry_multiplicity
 _atom_site_fract_x
 _atom_site_fract_y
 _atom_site_fract_z
 _atom_site_occupancy
  F  F0  1  0.25000000  0.22846347  0.74657796  1
  F  F1  1  0.75000000  0.77153653  0.25342204  1
  F  F2  1  0.75000000  0.72846347  0.75342204  1
  F  F3  1  0.25000000  0.27153653  0.24657796  1
  F  F4  1  0.95205539  0.68400049  0.43091702  1
  F  F5  1  0.45205539  0.31599951  0.56908298  1
  F  F6  1  0.04794461  0.18400049  0.06908298  1
  F  F7  1  0.54794461  0.81599951  0.93091702  1
  F  F8  1  0.44843940  0.48561352  0.15047521  1
  F  F9  1  0.94843940  0.51438648  0.84952479  1
  F  F10  1  0.55156060  0.98561352  0.34952479  1
  F  F11  1  0.05156060  0.01438648  0.65047521  1
  F  F12  1  0.55156060  0.51438648  0.84952479  1
  F  F13  1  0.05156060  0.48561352  0.15047521  1
  F  F14  1  0.44843940  0.01438648  0.65047521  1
  F  F15  1  0.94843940  0.98561352  0.34952479  1
  F  F16  1  0.45205539  0.18400049  0.06908298  1
  F  F17  1  0.95205539  0.81599951  0.93091702  1
  F  F18  1  0.54794461  0.68400049  0.43091702  1
  F  F19  1  0.04794461  0.31599951  0.56908298  1
  S  S20  1  0.25000000  0.15881450  0.59690707  1
  S  S21  1  0.75000000  0.84118550  0.40309293  1
  S  S22  1  0.75000000  0.65881450  0.90309293  1
  S  S23  1  0.25000000  0.34118550  0.09690707  1
  Rb  Rb24  1  0.25000000  0.65772831  0.65464920  1
  Rb  Rb25  1  0.75000000  0.34227169  0.34535080  1
  Rb  Rb26  1  0.75000000  0.15772831  0.84535080  1
  Rb  Rb27  1  0.25000000  0.84227169  0.15464920  1
