# generated using pymatgen
data_K2UCl5
_symmetry_space_group_name_H-M   'P 1'
_cell_length_a   8.15593797
_cell_length_b   8.81293952
_cell_length_c   13.04411236
_cell_angle_alpha   90.00000000
_cell_angle_beta   90.00000000
_cell_angle_gamma   90.00000000
_symmetry_Int_Tables_number   1
_chemical_formula_structural   K2UCl5
_chemical_formula_sum   'K8 U4 Cl20'
_cell_volume   937.58194362
_cell_formula_units_Z   4
loop_
 _symmetry_equiv_pos_site_id
 _symmetry_equiv_pos_as_xyz
  1  'x, y, z'
loop_
 _atom_site_type_symbol
 _atom_site_label
 _atom_site_symmetry_multiplicity
 _atom_site_fract_x
 _atom_site_fract_y
 _atom_site_fract_z
 _atom_site_occupancy
  Cl  Cl0  1  0.33734330  0.95887892  0.07899429  1
  Cl  Cl1  1  0.83734330  0.04112108  0.42100571  1
  Cl  Cl2  1  0.66265670  0.45887892  0.92100571  1
  Cl  Cl3  1  0.16265670  0.54112108  0.57899429  1
  Cl  Cl4  1  0.66265670  0.04112108  0.92100571  1
  Cl  Cl5  1  0.16265670  0.95887892  0.57899429  1
  Cl  Cl6  1  0.33734330  0.54112108  0.07899429  1
  Cl  Cl7  1  0.83734330  0.45887892  0.42100571  1
  Cl  Cl8  1  0.37219158  0.75000000  0.82260136  1
  Cl  Cl9  1  0.87219158  0.25000000  0.67739864  1
  Cl  Cl10  1  0.62780842  0.25000000  0.17739864  1
  Cl  Cl11  1  0.12780842  0.75000000  0.32260136  1
  Cl  Cl12  1  0.08079391  0.25000000  0.00698651  1
  Cl  Cl13  1  0.58079391  0.75000000  0.49301349  1
  Cl  Cl14  1  0.91920609  0.75000000  0.99301349  1
  Cl  Cl15  1  0.41920609  0.25000000  0.50698651  1
  Cl  Cl16  1  0.66311258  0.75000000  0.20325028  1
  Cl  Cl17  1  0.16311258  0.25000000  0.29674972  1
  Cl  Cl18  1  0.33688742  0.25000000  0.79674972  1
  Cl  Cl19  1  0.83688742  0.75000000  0.70325028  1
  K  K20  1  0.95011978  0.00480496  0.17075021  1
  K  K21  1  0.45011978  0.99519504  0.32924979  1
  K  K22  1  0.04988022  0.50480496  0.82924979  1
  K  K23  1  0.54988022  0.49519504  0.67075021  1
  K  K24  1  0.04988022  0.99519504  0.82924979  1
  K  K25  1  0.54988022  0.00480496  0.67075021  1
  K  K26  1  0.95011978  0.49519504  0.17075021  1
  K  K27  1  0.45011978  0.50480496  0.32924979  1
  U  U28  1  0.56974244  0.75000000  0.99722337  1
  U  U29  1  0.06974244  0.25000000  0.50277663  1
  U  U30  1  0.43025756  0.25000000  0.00277663  1
  U  U31  1  0.93025756  0.75000000  0.49722337  1
