# generated using pymatgen
data_Ba(AlTe2)2
_symmetry_space_group_name_H-M   'P 1'
_cell_length_a   6.75536532
_cell_length_b   8.69907367
_cell_length_c   8.69907367
_cell_angle_alpha   90.00000000
_cell_angle_beta   90.00000000
_cell_angle_gamma   90.00000000
_symmetry_Int_Tables_number   1
_chemical_formula_structural   Ba(AlTe2)2
_chemical_formula_sum   'Ba2 Al4 Te8'
_cell_volume   511.20472293
_cell_formula_units_Z   2
loop_
 _symmetry_equiv_pos_site_id
 _symmetry_equiv_pos_as_xyz
  1  'x, y, z'
loop_
 _atom_site_type_symbol
 _atom_site_label
 _atom_site_symmetry_multiplicity
 _atom_site_fract_x
 _atom_site_fract_y
 _atom_site_fract_z
 _atom_site_occupancy
  Al  Al0  1  0.50000000  0.25000000  0.75000000  1
  Al  Al1  1  0.50000000  0.75000000  0.25000000  1
  Al  Al2  1  0.00000000  0.75000000  0.25000000  1
  Al  Al3  1  0.00000000  0.25000000  0.75000000  1
  Te  Te4  1  0.25017015  0.08321574  0.91678426  1
  Te  Te5  1  0.25017015  0.41678426  0.58321574  1
  Te  Te6  1  0.74982985  0.91678426  0.08321574  1
  Te  Te7  1  0.74982985  0.41678426  0.91678426  1
  Te  Te8  1  0.74982985  0.08321574  0.58321574  1
  Te  Te9  1  0.74982985  0.58321574  0.41678426  1
  Te  Te10  1  0.25017015  0.91678426  0.41678426  1
  Te  Te11  1  0.25017015  0.58321574  0.08321574  1
  Ba  Ba12  1  0.00000000  0.75000000  0.75000000  1
  Ba  Ba13  1  0.00000000  0.25000000  0.25000000  1
