# generated using pymatgen
data_Rb4PbBr6
_symmetry_space_group_name_H-M   'P 1'
_cell_length_a   9.65659525
_cell_length_b   9.65659525
_cell_length_c   9.65659525
_cell_angle_alpha   89.72761848
_cell_angle_beta   89.72761849
_cell_angle_gamma   89.72761850
_symmetry_Int_Tables_number   1
_chemical_formula_structural   Rb4PbBr6
_chemical_formula_sum   'Rb8 Pb2 Br12'
_cell_volume   900.44545317
_cell_formula_units_Z   2
loop_
 _symmetry_equiv_pos_site_id
 _symmetry_equiv_pos_as_xyz
  1  'x, y, z'
loop_
 _atom_site_type_symbol
 _atom_site_label
 _atom_site_symmetry_multiplicity
 _atom_site_fract_x
 _atom_site_fract_y
 _atom_site_fract_z
 _atom_site_occupancy
  Br  Br0  1  0.57312977  0.44163228  0.80189128  1
  Br  Br1  1  0.44163228  0.80189128  0.57312977  1
  Br  Br2  1  0.80189128  0.57312977  0.44163228  1
  Br  Br3  1  0.69810872  0.05836772  0.92687023  1
  Br  Br4  1  0.05836772  0.92687023  0.69810872  1
  Br  Br5  1  0.92687023  0.69810872  0.05836772  1
  Br  Br6  1  0.42687023  0.55836772  0.19810872  1
  Br  Br7  1  0.55836772  0.19810872  0.42687023  1
  Br  Br8  1  0.19810872  0.42687023  0.55836772  1
  Br  Br9  1  0.30189128  0.94163228  0.07312977  1
  Br  Br10  1  0.07312977  0.30189128  0.94163228  1
  Br  Br11  1  0.94163228  0.07312977  0.30189128  1
  Rb  Rb12  1  0.25000000  0.25000000  0.25000000  1
  Rb  Rb13  1  0.75000000  0.75000000  0.75000000  1
  Rb  Rb14  1  0.12927854  0.75000000  0.37072146  1
  Rb  Rb15  1  0.75000000  0.37072146  0.12927854  1
  Rb  Rb16  1  0.37072146  0.12927854  0.75000000  1
  Rb  Rb17  1  0.87072146  0.25000000  0.62927854  1
  Rb  Rb18  1  0.25000000  0.62927854  0.87072146  1
  Rb  Rb19  1  0.62927854  0.87072146  0.25000000  1
  Pb  Pb20  1  0.00000000  0.00000000  0.00000000  1
  Pb  Pb21  1  0.50000000  0.50000000  0.50000000  1
