# generated using pymatgen
data_Y3IrI3
_symmetry_space_group_name_H-M   'P 1'
_cell_length_a   4.28271267
_cell_length_b   8.91247960
_cell_length_c   12.35048081
_cell_angle_alpha   93.58238356
_cell_angle_beta   90.00000000
_cell_angle_gamma   90.00000000
_symmetry_Int_Tables_number   1
_chemical_formula_structural   Y3IrI3
_chemical_formula_sum   'Y6 Ir2 I6'
_cell_volume   470.49163355
_cell_formula_units_Z   2
loop_
 _symmetry_equiv_pos_site_id
 _symmetry_equiv_pos_as_xyz
  1  'x, y, z'
loop_
 _atom_site_type_symbol
 _atom_site_label
 _atom_site_symmetry_multiplicity
 _atom_site_fract_x
 _atom_site_fract_y
 _atom_site_fract_z
 _atom_site_occupancy
  Y  Y0  1  0.75000000  0.85852379  0.12983903  1
  Y  Y1  1  0.25000000  0.14147621  0.87016097  1
  Y  Y2  1  0.75000000  0.90347871  0.68424982  1
  Y  Y3  1  0.25000000  0.09652129  0.31575018  1
  Y  Y4  1  0.25000000  0.74983033  0.90058172  1
  Y  Y5  1  0.75000000  0.25016967  0.09941828  1
  I  I6  1  0.25000000  0.57255980  0.13295145  1
  I  I7  1  0.75000000  0.42744020  0.86704855  1
  I  I8  1  0.25000000  0.65123943  0.63876141  1
  I  I9  1  0.75000000  0.34876057  0.36123859  1
  I  I10  1  0.75000000  0.85881257  0.39411542  1
  I  I11  1  0.25000000  0.14118743  0.60588458  1
  Ir  Ir12  1  0.75000000  0.95076544  0.90744724  1
  Ir  Ir13  1  0.25000000  0.04923456  0.09255276  1
