# generated using pymatgen
data_Pt(SCl4)2
_symmetry_space_group_name_H-M   'P 1'
_cell_length_a   6.76493975
_cell_length_b   7.49163074
_cell_length_c   13.04422771
_cell_angle_alpha   90.00000000
_cell_angle_beta   100.46899758
_cell_angle_gamma   90.00000000
_symmetry_Int_Tables_number   1
_chemical_formula_structural   Pt(SCl4)2
_chemical_formula_sum   'Pt2 S4 Cl16'
_cell_volume   650.08220468
_cell_formula_units_Z   2
loop_
 _symmetry_equiv_pos_site_id
 _symmetry_equiv_pos_as_xyz
  1  'x, y, z'
loop_
 _atom_site_type_symbol
 _atom_site_label
 _atom_site_symmetry_multiplicity
 _atom_site_fract_x
 _atom_site_fract_y
 _atom_site_fract_z
 _atom_site_occupancy
  S  S0  1  0.28113540  0.19513122  0.01856122  1
  S  S1  1  0.28113540  0.30486878  0.51856122  1
  S  S2  1  0.71886460  0.80486878  0.98143878  1
  S  S3  1  0.71886460  0.69513122  0.48143878  1
  Cl  Cl4  1  0.84333393  0.40311559  0.63703961  1
  Cl  Cl5  1  0.15666607  0.90311559  0.86296039  1
  Cl  Cl6  1  0.21250132  0.10606682  0.41348474  1
  Cl  Cl7  1  0.78749868  0.60606682  0.08651526  1
  Cl  Cl8  1  0.78749868  0.89393318  0.58651526  1
  Cl  Cl9  1  0.21250132  0.39393318  0.91348474  1
  Cl  Cl10  1  0.70471887  0.67285026  0.84550505  1
  Cl  Cl11  1  0.29528113  0.17285026  0.65449495  1
  Cl  Cl12  1  0.29528113  0.32714974  0.15449495  1
  Cl  Cl13  1  0.70471887  0.82714974  0.34550505  1
  Cl  Cl14  1  0.75547374  0.15351158  0.88122404  1
  Cl  Cl15  1  0.24452626  0.65351158  0.61877596  1
  Cl  Cl16  1  0.24452626  0.84648842  0.11877596  1
  Cl  Cl17  1  0.75547374  0.34648842  0.38122404  1
  Cl  Cl18  1  0.84333393  0.09688441  0.13703961  1
  Cl  Cl19  1  0.15666607  0.59688441  0.36296039  1
  Pt  Pt20  1  0.00000000  0.50000000  0.50000000  1
  Pt  Pt21  1  0.00000000  0.00000000  0.00000000  1
