# generated using pymatgen
data_WBr6
_symmetry_space_group_name_H-M   'P 1'
_cell_length_a   7.44515604
_cell_length_b   7.44515604
_cell_length_c   7.44515604
_cell_angle_alpha   55.84984894
_cell_angle_beta   55.84984902
_cell_angle_gamma   55.84984897
_symmetry_Int_Tables_number   1
_chemical_formula_structural   WBr6
_chemical_formula_sum   'W1 Br6'
_cell_volume   263.73829129
_cell_formula_units_Z   1
loop_
 _symmetry_equiv_pos_site_id
 _symmetry_equiv_pos_as_xyz
  1  'x, y, z'
loop_
 _atom_site_type_symbol
 _atom_site_label
 _atom_site_symmetry_multiplicity
 _atom_site_fract_x
 _atom_site_fract_y
 _atom_site_fract_z
 _atom_site_occupancy
  Br  Br0  1  0.36415627  0.08060825  0.78346451  1
  Br  Br1  1  0.21653549  0.63584373  0.91939175  1
  Br  Br2  1  0.91939175  0.21653549  0.63584373  1
  Br  Br3  1  0.63584373  0.91939175  0.21653549  1
  Br  Br4  1  0.78346451  0.36415627  0.08060825  1
  Br  Br5  1  0.08060825  0.78346451  0.36415627  1
  W  W6  1  0.00000000  0.00000000  0.00000000  1
