# generated using pymatgen
data_RbBrF4
_symmetry_space_group_name_H-M   'P 1'
_cell_length_a   7.15134734
_cell_length_b   7.15134734
_cell_length_c   7.51832345
_cell_angle_alpha   118.39806829
_cell_angle_beta   118.39806831
_cell_angle_gamma   90.00000003
_symmetry_Int_Tables_number   1
_chemical_formula_structural   RbBrF4
_chemical_formula_sum   'Rb2 Br2 F8'
_cell_volume   284.53536949
_cell_formula_units_Z   2
loop_
 _symmetry_equiv_pos_site_id
 _symmetry_equiv_pos_as_xyz
  1  'x, y, z'
loop_
 _atom_site_type_symbol
 _atom_site_label
 _atom_site_symmetry_multiplicity
 _atom_site_fract_x
 _atom_site_fract_y
 _atom_site_fract_z
 _atom_site_occupancy
  F  F0  1  0.97788043  0.47788043  0.23617380  1
  F  F1  1  0.74170664  0.24170664  0.76382620  1
  F  F2  1  0.02211957  0.52211957  0.76382620  1
  F  F3  1  0.24170664  0.02211957  0.76382620  1
  F  F4  1  0.25829336  0.75829336  0.23617380  1
  F  F5  1  0.47788043  0.25829336  0.23617380  1
  F  F6  1  0.75829336  0.97788043  0.23617380  1
  F  F7  1  0.52211957  0.74170664  0.76382620  1
  Br  Br8  1  0.50000000  0.00000000  0.00000000  1
  Br  Br9  1  0.00000000  0.50000000  0.00000000  1
  Rb  Rb10  1  0.50000000  0.50000000  0.00000000  1
  Rb  Rb11  1  0.00000000  0.00000000  0.00000000  1
