# generated using pymatgen
data_Na2BeO2
_symmetry_space_group_name_H-M   'P 1'
_cell_length_a   5.34715770
_cell_length_b   7.92981208
_cell_length_c   11.60665112
_cell_angle_alpha   99.31995727
_cell_angle_beta   90.00000000
_cell_angle_gamma   90.00000000
_symmetry_Int_Tables_number   1
_chemical_formula_structural   Na2BeO2
_chemical_formula_sum   'Na16 Be8 O16'
_cell_volume   485.64808498
_cell_formula_units_Z   8
loop_
 _symmetry_equiv_pos_site_id
 _symmetry_equiv_pos_as_xyz
  1  'x, y, z'
loop_
 _atom_site_type_symbol
 _atom_site_label
 _atom_site_symmetry_multiplicity
 _atom_site_fract_x
 _atom_site_fract_y
 _atom_site_fract_z
 _atom_site_occupancy
  Be  Be0  1  0.62191211  0.13246053  0.87250688  1
  Be  Be1  1  0.12191211  0.86753947  0.12749312  1
  Be  Be2  1  0.87984638  0.63471458  0.37164907  1
  Be  Be3  1  0.37984638  0.36528542  0.62835093  1
  Be  Be4  1  0.54424415  0.87789072  0.78904855  1
  Be  Be5  1  0.04424415  0.12210928  0.21095145  1
  Be  Be6  1  0.45776461  0.61962325  0.71224448  1
  Be  Be7  1  0.95776461  0.38037675  0.28775552  1
  O  O8  1  0.22825527  0.47976918  0.72944985  1
  O  O9  1  0.72825527  0.52023082  0.27055015  1
  O  O10  1  0.27468444  0.98281077  0.22801178  1
  O  O11  1  0.77468444  0.01718923  0.77198822  1
  O  O12  1  0.88885954  0.98122749  0.10881606  1
  O  O13  1  0.38885954  0.01877251  0.89118394  1
  O  O14  1  0.61283588  0.47918264  0.60926927  1
  O  O15  1  0.11283588  0.52081736  0.39073073  1
  O  O16  1  0.69739387  0.30455122  0.94291200  1
  O  O17  1  0.19739387  0.69544878  0.05708800  1
  O  O18  1  0.30340263  0.19388601  0.55720816  1
  O  O19  1  0.80340263  0.80611399  0.44279184  1
  O  O20  1  0.86732851  0.19801724  0.32517737  1
  O  O21  1  0.36732851  0.80198276  0.67482263  1
  O  O22  1  0.13430563  0.30447049  0.17352249  1
  O  O23  1  0.63430563  0.69552951  0.82647751  1
  Na  Na24  1  0.55734418  0.20140449  0.12523770  1
  Na  Na25  1  0.05734418  0.79859551  0.87476230  1
  Na  Na26  1  0.83341293  0.42848701  0.78350165  1
  Na  Na27  1  0.33341293  0.57151299  0.21649835  1
  Na  Na28  1  0.66838746  0.92986060  0.28257509  1
  Na  Na29  1  0.16838746  0.07013940  0.71742491  1
  Na  Na30  1  0.61543649  0.00236614  0.58359770  1
  Na  Na31  1  0.11543649  0.99763386  0.41640230  1
  Na  Na32  1  0.88628371  0.50324885  0.08184667  1
  Na  Na33  1  0.38628371  0.49675115  0.91815333  1
  Na  Na34  1  0.44479810  0.30024503  0.37576220  1
  Na  Na35  1  0.94479810  0.69975497  0.62423780  1
  Na  Na36  1  0.06083899  0.15885804  0.98606816  1
  Na  Na37  1  0.56083899  0.84114196  0.01393184  1
  Na  Na38  1  0.94126512  0.34070441  0.51293742  1
  Na  Na39  1  0.44126512  0.65929559  0.48706258  1
