# generated using pymatgen
data_Si2Hg6O7
_symmetry_space_group_name_H-M   'P 1'
_cell_length_a   6.24849375
_cell_length_b   7.17260978
_cell_length_c   7.17260978
_cell_angle_alpha   66.90216805
_cell_angle_beta   71.71003022
_cell_angle_gamma   71.71003027
_symmetry_Int_Tables_number   1
_chemical_formula_structural   Si2Hg6O7
_chemical_formula_sum   'Si2 Hg6 O7'
_cell_volume   273.97893687
_cell_formula_units_Z   1
loop_
 _symmetry_equiv_pos_site_id
 _symmetry_equiv_pos_as_xyz
  1  'x, y, z'
loop_
 _atom_site_type_symbol
 _atom_site_label
 _atom_site_symmetry_multiplicity
 _atom_site_fract_x
 _atom_site_fract_y
 _atom_site_fract_z
 _atom_site_occupancy
  O  O0  1  0.00000000  0.50000000  0.50000000  1
  O  O1  1  0.26259630  0.13455280  0.48092625  1
  O  O2  1  0.73740370  0.51907375  0.86544720  1
  O  O3  1  0.73740370  0.86544720  0.51907375  1
  O  O4  1  0.26259630  0.48092625  0.13455280  1
  O  O5  1  0.11469811  0.69370461  0.69370461  1
  O  O6  1  0.88530189  0.30629539  0.30629539  1
  Si  Si7  1  0.10546764  0.35266978  0.35266978  1
  Si  Si8  1  0.89453236  0.64733022  0.64733022  1
  Hg  Hg9  1  0.41805053  0.87633316  0.35777710  1
  Hg  Hg10  1  0.58194947  0.64222290  0.12366684  1
  Hg  Hg11  1  0.58194947  0.12366684  0.64222290  1
  Hg  Hg12  1  0.41805053  0.35777710  0.87633316  1
  Hg  Hg13  1  0.04186785  0.88509642  0.88509642  1
  Hg  Hg14  1  0.95813215  0.11490358  0.11490358  1
