# generated using pymatgen
data_As2PbO4
_symmetry_space_group_name_H-M   'P 1'
_cell_length_a   6.40119741
_cell_length_b   7.33558234
_cell_length_c   12.16019719
_cell_angle_alpha   90.00000000
_cell_angle_beta   90.00000000
_cell_angle_gamma   112.79567609
_symmetry_Int_Tables_number   1
_chemical_formula_structural   As2PbO4
_chemical_formula_sum   'As8 Pb4 O16'
_cell_volume   526.40095179
_cell_formula_units_Z   4
loop_
 _symmetry_equiv_pos_site_id
 _symmetry_equiv_pos_as_xyz
  1  'x, y, z'
loop_
 _atom_site_type_symbol
 _atom_site_label
 _atom_site_symmetry_multiplicity
 _atom_site_fract_x
 _atom_site_fract_y
 _atom_site_fract_z
 _atom_site_occupancy
  O  O0  1  0.74189365  0.55318505  0.08994103  1
  O  O1  1  0.75810635  0.44681495  0.58994103  1
  O  O2  1  0.25810635  0.44681495  0.91005897  1
  O  O3  1  0.24189365  0.55318505  0.41005897  1
  O  O4  1  0.52492077  0.78897719  0.02133786  1
  O  O5  1  0.97507923  0.21102281  0.52133786  1
  O  O6  1  0.47507923  0.21102281  0.97866214  1
  O  O7  1  0.02492077  0.78897719  0.47866214  1
  O  O8  1  0.51988841  0.19296556  0.19836366  1
  O  O9  1  0.98011159  0.80703444  0.69836366  1
  O  O10  1  0.48011159  0.80703444  0.80163634  1
  O  O11  1  0.01988841  0.19296556  0.30163634  1
  O  O12  1  0.20288586  0.82173929  0.27571251  1
  O  O13  1  0.29711414  0.17826071  0.77571251  1
  O  O14  1  0.79711414  0.17826071  0.72428749  1
  O  O15  1  0.70288586  0.82173929  0.22428749  1
  As  As16  1  0.70162153  0.29179379  0.08402179  1
  As  As17  1  0.79837847  0.70820621  0.58402179  1
  As  As18  1  0.29837847  0.70820621  0.91597821  1
  As  As19  1  0.20162153  0.29179379  0.41597821  1
  As  As20  1  0.51402133  0.62957363  0.14125852  1
  As  As21  1  0.98597867  0.37042637  0.64125852  1
  As  As22  1  0.48597867  0.37042637  0.85874148  1
  As  As23  1  0.01402133  0.62957363  0.35874148  1
  Pb  Pb24  1  0.59700470  0.01590892  0.34190760  1
  Pb  Pb25  1  0.90299530  0.98409108  0.84190760  1
  Pb  Pb26  1  0.40299530  0.98409108  0.65809240  1
  Pb  Pb27  1  0.09700470  0.01590892  0.15809240  1
