# generated using pymatgen
data_Tl3BSe3
_symmetry_space_group_name_H-M   'P 1'
_cell_length_a   5.86516143
_cell_length_b   6.91939698
_cell_length_c   10.47129687
_cell_angle_alpha   90.00000000
_cell_angle_beta   90.00000000
_cell_angle_gamma   97.51674137
_symmetry_Int_Tables_number   1
_chemical_formula_structural   Tl3BSe3
_chemical_formula_sum   'Tl6 B2 Se6'
_cell_volume   421.30880037
_cell_formula_units_Z   2
loop_
 _symmetry_equiv_pos_site_id
 _symmetry_equiv_pos_as_xyz
  1  'x, y, z'
loop_
 _atom_site_type_symbol
 _atom_site_label
 _atom_site_symmetry_multiplicity
 _atom_site_fract_x
 _atom_site_fract_y
 _atom_site_fract_z
 _atom_site_occupancy
  B  B0  1  0.38690597  0.26130602  0.25000000  1
  B  B1  1  0.61309403  0.73869398  0.75000000  1
  Se  Se2  1  0.75430497  0.82880646  0.58620557  1
  Se  Se3  1  0.24569503  0.17119354  0.08620557  1
  Se  Se4  1  0.24569503  0.17119354  0.41379443  1
  Se  Se5  1  0.75430497  0.82880646  0.91379443  1
  Se  Se6  1  0.32757417  0.55331061  0.75000000  1
  Se  Se7  1  0.67242583  0.44668939  0.25000000  1
  Tl  Tl8  1  0.28069748  0.66511900  0.04936644  1
  Tl  Tl9  1  0.71930252  0.33488100  0.54936644  1
  Tl  Tl10  1  0.71930252  0.33488100  0.95063356  1
  Tl  Tl11  1  0.28069748  0.66511900  0.45063356  1
  Tl  Tl12  1  0.82244878  0.99694527  0.25000000  1
  Tl  Tl13  1  0.17755122  0.00305473  0.75000000  1
