# generated using pymatgen
data_Li4Ge5O12
_symmetry_space_group_name_H-M   'P 1'
_cell_length_a   5.20554663
_cell_length_b   9.30536414
_cell_length_c   9.75050004
_cell_angle_alpha   73.00028755
_cell_angle_beta   77.74516388
_cell_angle_gamma   78.88635488
_symmetry_Int_Tables_number   1
_chemical_formula_structural   Li4Ge5O12
_chemical_formula_sum   'Li8 Ge10 O24'
_cell_volume   437.04229205
_cell_formula_units_Z   2
loop_
 _symmetry_equiv_pos_site_id
 _symmetry_equiv_pos_as_xyz
  1  'x, y, z'
loop_
 _atom_site_type_symbol
 _atom_site_label
 _atom_site_symmetry_multiplicity
 _atom_site_fract_x
 _atom_site_fract_y
 _atom_site_fract_z
 _atom_site_occupancy
  Li  Li0  1  0.68794967  0.23177522  0.44396941  1
  Li  Li1  1  0.31205033  0.76822478  0.55603059  1
  Li  Li2  1  0.27295310  0.90647137  0.02294482  1
  Li  Li3  1  0.72704690  0.09352863  0.97705518  1
  Li  Li4  1  0.86142466  0.59311325  0.59466051  1
  Li  Li5  1  0.13857534  0.40688675  0.40533949  1
  Li  Li6  1  0.34880667  0.57626238  0.11233273  1
  Li  Li7  1  0.65119333  0.42373762  0.88766727  1
  O  O8  1  0.09137238  0.93571351  0.37141273  1
  O  O9  1  0.90862762  0.06428649  0.62858727  1
  O  O10  1  0.26695124  0.56700152  0.48377623  1
  O  O11  1  0.73304876  0.43299848  0.51622377  1
  O  O12  1  0.31909077  0.26314154  0.56862022  1
  O  O13  1  0.68090923  0.73685846  0.43137978  1
  O  O14  1  0.44326945  0.58032575  0.72987870  1
  O  O15  1  0.55673055  0.41967425  0.27012130  1
  O  O16  1  0.05071133  0.43245446  0.77519826  1
  O  O17  1  0.94928867  0.56754554  0.22480174  1
  O  O18  1  0.95029633  0.74065557  0.69798582  1
  O  O19  1  0.04970367  0.25934443  0.30201418  1
  O  O20  1  0.51163338  0.27174698  0.81126504  1
  O  O21  1  0.48836662  0.72825302  0.18873496  1
  O  O22  1  0.23318938  0.42274537  0.01331264  1
  O  O23  1  0.76681062  0.57725463  0.98668736  1
  O  O24  1  0.14856995  0.73164157  0.95123540  1
  O  O25  1  0.85143005  0.26835843  0.04876460  1
  O  O26  1  0.43941928  0.93792045  0.66064172  1
  O  O27  1  0.56058072  0.06207955  0.33935828  1
  O  O28  1  0.10268602  0.10121092  0.86712351  1
  O  O29  1  0.89731398  0.89878908  0.13287649  1
  O  O30  1  0.34579669  0.09969132  0.08191965  1
  O  O31  1  0.65420331  0.90030868  0.91808035  1
  Ge  Ge32  1  0.88274218  0.40567405  0.14847837  1
  Ge  Ge33  1  0.11725782  0.59432595  0.85152163  1
  Ge  Ge34  1  0.74022565  0.90362013  0.73248190  1
  Ge  Ge35  1  0.25977435  0.09637987  0.26751810  1
  Ge  Ge36  1  0.59156386  0.57868626  0.35469048  1
  Ge  Ge37  1  0.40843614  0.42131374  0.64530952  1
  Ge  Ge38  1  0.80697215  0.90030935  0.31714410  1
  Ge  Ge39  1  0.19302785  0.09969065  0.68285590  1
  Ge  Ge40  1  0.81149770  0.74492920  0.06511752  1
  Ge  Ge41  1  0.18850230  0.25507080  0.93488248  1
