# generated using pymatgen
data_ZrTe2Br5
_symmetry_space_group_name_H-M   'P 1'
_cell_length_a   9.26186787
_cell_length_b   9.26186787
_cell_length_c   9.59259649
_cell_angle_alpha   106.73605430
_cell_angle_beta   116.61971925
_cell_angle_gamma   103.75008834
_symmetry_Int_Tables_number   1
_chemical_formula_structural   ZrTe2Br5
_chemical_formula_sum   'Zr2 Te4 Br10'
_cell_volume   636.58863620
_cell_formula_units_Z   2
loop_
 _symmetry_equiv_pos_site_id
 _symmetry_equiv_pos_as_xyz
  1  'x, y, z'
loop_
 _atom_site_type_symbol
 _atom_site_label
 _atom_site_symmetry_multiplicity
 _atom_site_fract_x
 _atom_site_fract_y
 _atom_site_fract_z
 _atom_site_occupancy
  Br  Br0  1  0.40784825  0.16404886  0.91480426  1
  Br  Br1  1  0.24924460  0.49304399  0.08519574  1
  Br  Br2  1  0.59215175  0.83595114  0.08519574  1
  Br  Br3  1  0.75075540  0.50695601  0.91480426  1
  Br  Br4  1  0.41881301  0.25673186  0.32909887  1
  Br  Br5  1  0.92763299  0.08971415  0.67090113  1
  Br  Br6  1  0.06926776  0.85053507  0.91980284  1
  Br  Br7  1  0.93073224  0.14946493  0.08019716  1
  Br  Br8  1  0.07236701  0.91028585  0.32909887  1
  Br  Br9  1  0.58118699  0.74326814  0.67090113  1
  Zr  Zr10  1  0.81222863  0.81222863  0.00000000  1
  Zr  Zr11  1  0.18777137  0.18777137  0.00000000  1
  Te  Te12  1  0.83149045  0.33149045  0.50000000  1
  Te  Te13  1  0.16850955  0.66850955  0.50000000  1
  Te  Te14  1  0.81149839  0.55745000  0.36894840  1
  Te  Te15  1  0.18850161  0.44255000  0.63105160  1
