# generated using pymatgen
data_K2Ta15O32
_symmetry_space_group_name_H-M   'P 1'
_cell_length_a   12.88920425
_cell_length_b   12.88920424
_cell_length_c   12.88920425
_cell_angle_alpha   35.56374783
_cell_angle_beta   35.56374783
_cell_angle_gamma   35.56374786
_symmetry_Int_Tables_number   1
_chemical_formula_structural   K2Ta15O32
_chemical_formula_sum   'K2 Ta15 O32'
_cell_volume   647.37276211
_cell_formula_units_Z   1
loop_
 _symmetry_equiv_pos_site_id
 _symmetry_equiv_pos_as_xyz
  1  'x, y, z'
loop_
 _atom_site_type_symbol
 _atom_site_label
 _atom_site_symmetry_multiplicity
 _atom_site_fract_x
 _atom_site_fract_y
 _atom_site_fract_z
 _atom_site_occupancy
  O  O0  1  0.73757267  0.32467437  0.53439416  1
  O  O1  1  0.32467437  0.53439416  0.73757267  1
  O  O2  1  0.53439416  0.73757267  0.32467437  1
  O  O3  1  0.26242733  0.67532563  0.46560584  1
  O  O4  1  0.67532563  0.46560584  0.26242733  1
  O  O5  1  0.46560584  0.26242733  0.67532563  1
  O  O6  1  0.15127732  0.03224715  0.44511376  1
  O  O7  1  0.03224715  0.44511376  0.15127732  1
  O  O8  1  0.44511376  0.15127732  0.03224715  1
  O  O9  1  0.84872268  0.96775285  0.55488624  1
  O  O10  1  0.96775285  0.55488624  0.84872268  1
  O  O11  1  0.55488624  0.84872268  0.96775285  1
  O  O12  1  0.26316322  0.26316322  0.26316322  1
  O  O13  1  0.73683678  0.73683678  0.73683678  1
  O  O14  1  0.96025222  0.14042177  0.70067501  1
  O  O15  1  0.14042177  0.70067501  0.96025222  1
  O  O16  1  0.70067501  0.96025222  0.14042177  1
  O  O17  1  0.25961229  0.16944242  0.57082900  1
  O  O18  1  0.57082900  0.25961229  0.16944242  1
  O  O19  1  0.16944242  0.57082900  0.25961229  1
  O  O20  1  0.74038771  0.83055758  0.42917100  1
  O  O21  1  0.42917100  0.74038771  0.83055758  1
  O  O22  1  0.83055758  0.42917100  0.74038771  1
  O  O23  1  0.15475941  0.45783847  0.57107233  1
  O  O24  1  0.57107233  0.15475941  0.45783847  1
  O  O25  1  0.45783847  0.57107233  0.15475941  1
  O  O26  1  0.84524059  0.54216153  0.42892767  1
  O  O27  1  0.42892767  0.84524059  0.54216153  1
  O  O28  1  0.54216153  0.42892767  0.84524059  1
  O  O29  1  0.29932499  0.03974778  0.85957823  1
  O  O30  1  0.85957823  0.29932499  0.03974778  1
  O  O31  1  0.03974778  0.85957823  0.29932499  1
  K  K32  1  0.85946174  0.85946174  0.85946174  1
  K  K33  1  0.14053826  0.14053826  0.14053826  1
  Ta  Ta34  1  0.50000000  0.50000000  0.50000000  1
  Ta  Ta35  1  0.97452057  0.29824897  0.42930385  1
  Ta  Ta36  1  0.29824897  0.42930385  0.97452057  1
  Ta  Ta37  1  0.42930385  0.97452057  0.29824897  1
  Ta  Ta38  1  0.02547943  0.70175103  0.57069615  1
  Ta  Ta39  1  0.70175103  0.57069615  0.02547943  1
  Ta  Ta40  1  0.57069615  0.02547943  0.70175103  1
  Ta  Ta41  1  0.77125427  0.18572413  0.94655390  1
  Ta  Ta42  1  0.18572413  0.94655390  0.77125427  1
  Ta  Ta43  1  0.94655390  0.77125427  0.18572413  1
  Ta  Ta44  1  0.22874573  0.81427587  0.05344610  1
  Ta  Ta45  1  0.81427587  0.05344610  0.22874573  1
  Ta  Ta46  1  0.05344610  0.22874573  0.81427587  1
  Ta  Ta47  1  0.63734563  0.63734563  0.63734563  1
  Ta  Ta48  1  0.36265437  0.36265437  0.36265437  1
