# generated using pymatgen
data_Li4V2Fe3Cu3O16
_symmetry_space_group_name_H-M   'P 1'
_cell_length_a   5.90484568
_cell_length_b   5.90773238
_cell_length_c   9.53870050
_cell_angle_alpha   90.24908841
_cell_angle_beta   89.92662579
_cell_angle_gamma   119.78978546
_symmetry_Int_Tables_number   1
_chemical_formula_structural   Li4V2Fe3Cu3O16
_chemical_formula_sum   'Li4 V2 Fe3 Cu3 O16'
_cell_volume   288.77589620
_cell_formula_units_Z   1
loop_
 _symmetry_equiv_pos_site_id
 _symmetry_equiv_pos_as_xyz
  1  'x, y, z'
loop_
 _atom_site_type_symbol
 _atom_site_label
 _atom_site_symmetry_multiplicity
 _atom_site_fract_x
 _atom_site_fract_y
 _atom_site_fract_z
 _atom_site_occupancy
  Li  Li0  1  0.32250230  0.66219540  0.90315600  1
  Li  Li1  1  0.00421821  0.00248219  0.99218821  1
  Li  Li2  1  0.01226597  0.00556150  0.48819445  1
  Li  Li3  1  0.65761875  0.32714467  0.40281248  1
  V  V4  1  0.33206017  0.66531369  0.49827942  1
  V  V5  1  0.66599162  0.33184340  0.99728481  1
  Fe  Fe6  1  0.65545278  0.82807599  0.22090862  1
  Fe  Fe7  1  0.82509997  0.65477916  0.71941660  1
  Fe  Fe8  1  0.82526792  0.17042176  0.71878810  1
  Cu  Cu9  1  0.17279823  0.82962256  0.21153065  1
  Cu  Cu10  1  0.17632186  0.34509286  0.21500878  1
  Cu  Cu11  1  0.34692806  0.17472286  0.71491309  1
  O  O12  1  0.17044306  0.81965617  0.58663127  1
  O  O13  1  0.04665348  0.51867012  0.34976242  1
  O  O14  1  0.32611160  0.66694956  0.11093875  1
  O  O15  1  0.01221472  0.00198351  0.29543146  1
  O  O16  1  0.00575462  0.00310281  0.79996713  1
  O  O17  1  0.17093333  0.34954065  0.58725147  1
  O  O18  1  0.48391529  0.95947826  0.34975804  1
  O  O19  1  0.48246007  0.52221344  0.34944698  1
  O  O20  1  0.35075332  0.17982240  0.08396822  1
  O  O21  1  0.65507206  0.82687540  0.58698320  1
  O  O22  1  0.51896551  0.48094589  0.84804660  1
  O  O23  1  0.51870683  0.04006638  0.84795704  1
  O  O24  1  0.66903745  0.33457879  0.60586522  1
  O  O25  1  0.81768369  0.65253545  0.08686430  1
  O  O26  1  0.95766608  0.47889692  0.84916850  1
  O  O27  1  0.81710405  0.16772522  0.08731519  1
