# generated using pymatgen
data_KGaBr4
_symmetry_space_group_name_H-M   'P 1'
_cell_length_a   13.62097005
_cell_length_b   13.62097004
_cell_length_c   13.62097004
_cell_angle_alpha   115.19848575
_cell_angle_beta   115.19848575
_cell_angle_gamma   115.19848578
_symmetry_Int_Tables_number   1
_chemical_formula_structural   KGaBr4
_chemical_formula_sum   'K6 Ga6 Br24'
_cell_volume   1388.40647170
_cell_formula_units_Z   6
loop_
 _symmetry_equiv_pos_site_id
 _symmetry_equiv_pos_as_xyz
  1  'x, y, z'
loop_
 _atom_site_type_symbol
 _atom_site_label
 _atom_site_symmetry_multiplicity
 _atom_site_fract_x
 _atom_site_fract_y
 _atom_site_fract_z
 _atom_site_occupancy
  K  K0  1  0.11716716  0.30662852  0.90234873  1
  K  K1  1  0.90234873  0.11716716  0.30662852  1
  K  K2  1  0.30662852  0.90234873  0.11716716  1
  K  K3  1  0.80662852  0.61716716  0.40234873  1
  K  K4  1  0.40234873  0.80662852  0.61716716  1
  K  K5  1  0.61716716  0.40234873  0.80662852  1
  Ga  Ga6  1  0.12795840  0.91610358  0.31267199  1
  Ga  Ga7  1  0.31267199  0.12795840  0.91610358  1
  Ga  Ga8  1  0.91610358  0.31267199  0.12795840  1
  Ga  Ga9  1  0.41610358  0.62795840  0.81267199  1
  Ga  Ga10  1  0.81267199  0.41610358  0.62795840  1
  Ga  Ga11  1  0.62795840  0.81267199  0.41610358  1
  Br  Br12  1  0.03601924  0.87799397  0.09553802  1
  Br  Br13  1  0.09553802  0.03601924  0.87799397  1
  Br  Br14  1  0.87799397  0.09553802  0.03601924  1
  Br  Br15  1  0.37799397  0.53601924  0.59553802  1
  Br  Br16  1  0.59553802  0.37799397  0.53601924  1
  Br  Br17  1  0.53601924  0.59553802  0.37799397  1
  Br  Br18  1  0.92332546  0.67550228  0.21528711  1
  Br  Br19  1  0.21528711  0.92332546  0.67550228  1
  Br  Br20  1  0.67550228  0.21528711  0.92332546  1
  Br  Br21  1  0.17550228  0.42332546  0.71528711  1
  Br  Br22  1  0.71528711  0.17550228  0.42332546  1
  Br  Br23  1  0.42332546  0.71528711  0.17550228  1
  Br  Br24  1  0.36160407  0.97784867  0.43638866  1
  Br  Br25  1  0.43638866  0.36160407  0.97784867  1
  Br  Br26  1  0.97784867  0.43638866  0.36160407  1
  Br  Br27  1  0.47784867  0.86160407  0.93638866  1
  Br  Br28  1  0.93638866  0.47784867  0.86160407  1
  Br  Br29  1  0.86160407  0.93638866  0.47784867  1
  Br  Br30  1  0.19663175  0.13557088  0.50761154  1
  Br  Br31  1  0.50761154  0.19663175  0.13557088  1
  Br  Br32  1  0.13557088  0.50761154  0.19663175  1
  Br  Br33  1  0.63557088  0.69663175  0.00761154  1
  Br  Br34  1  0.00761154  0.63557088  0.69663175  1
  Br  Br35  1  0.69663175  0.00761154  0.63557088  1
