# generated using pymatgen
data_W(S4Cl3)2
_symmetry_space_group_name_H-M   'P 1'
_cell_length_a   8.51266563
_cell_length_b   8.51737103
_cell_length_c   14.51295587
_cell_angle_alpha   95.80327000
_cell_angle_beta   99.44390675
_cell_angle_gamma   90.11016435
_symmetry_Int_Tables_number   1
_chemical_formula_structural   W(S4Cl3)2
_chemical_formula_sum   'W2 S16 Cl12'
_cell_volume   1032.50424595
_cell_formula_units_Z   2
loop_
 _symmetry_equiv_pos_site_id
 _symmetry_equiv_pos_as_xyz
  1  'x, y, z'
loop_
 _atom_site_type_symbol
 _atom_site_label
 _atom_site_symmetry_multiplicity
 _atom_site_fract_x
 _atom_site_fract_y
 _atom_site_fract_z
 _atom_site_occupancy
  S  S0  1  0.42719282  0.75090439  0.65678295  1
  S  S1  1  0.57280718  0.24909561  0.34321705  1
  S  S2  1  0.26817040  0.89800787  0.58654099  1
  S  S3  1  0.73182960  0.10199213  0.41345901  1
  S  S4  1  0.09257388  0.95775948  0.66548243  1
  S  S5  1  0.90742612  0.04224052  0.33451757  1
  S  S6  1  0.89602525  0.81208120  0.61828564  1
  S  S7  1  0.10397475  0.18791880  0.38171436  1
  S  S8  1  0.90113092  0.62899742  0.70154147  1
  S  S9  1  0.09886908  0.37100258  0.29845853  1
  S  S10  1  0.99686776  0.43392365  0.63677419  1
  S  S11  1  0.00313224  0.56607635  0.36322581  1
  S  S12  1  0.23500862  0.42234005  0.69231895  1
  S  S13  1  0.76499138  0.57765995  0.30768105  1
  S  S14  1  0.63116616  0.48004795  0.39452694  1
  S  S15  1  0.36883384  0.51995205  0.60547306  1
  Cl  Cl16  1  0.75240851  0.25004431  0.05456978  1
  Cl  Cl17  1  0.24759149  0.74995569  0.94543022  1
  Cl  Cl18  1  0.67284363  0.19632586  0.73050840  1
  Cl  Cl19  1  0.32715637  0.80367414  0.26949160  1
  Cl  Cl20  1  0.45096476  0.14731859  0.88924743  1
  Cl  Cl21  1  0.54903524  0.85268141  0.11075257  1
  Cl  Cl22  1  0.63685240  0.48379574  0.89214554  1
  Cl  Cl23  1  0.36314760  0.51620426  0.10785446  1
  Cl  Cl24  1  0.97403563  0.30045904  0.89579727  1
  Cl  Cl25  1  0.02596437  0.69954096  0.10420273  1
  Cl  Cl26  1  0.78812644  0.96305791  0.89285792  1
  Cl  Cl27  1  0.21187356  0.03694209  0.10714208  1
  W  W28  1  0.71266583  0.22347632  0.89277674  1
  W  W29  1  0.28733417  0.77652368  0.10722326  1
