# generated using pymatgen
data_Rb2Ta15O32
_symmetry_space_group_name_H-M   'P 1'
_cell_length_a   12.95987947
_cell_length_b   12.95987947
_cell_length_c   12.95987947
_cell_angle_alpha   35.41494477
_cell_angle_beta   35.41494478
_cell_angle_gamma   35.41494478
_symmetry_Int_Tables_number   1
_chemical_formula_structural   Rb2Ta15O32
_chemical_formula_sum   'Rb2 Ta15 O32'
_cell_volume   653.13566662
_cell_formula_units_Z   1
loop_
 _symmetry_equiv_pos_site_id
 _symmetry_equiv_pos_as_xyz
  1  'x, y, z'
loop_
 _atom_site_type_symbol
 _atom_site_label
 _atom_site_symmetry_multiplicity
 _atom_site_fract_x
 _atom_site_fract_y
 _atom_site_fract_z
 _atom_site_occupancy
  O  O0  1  0.52889827  0.32836940  0.73977414  1
  O  O1  1  0.32836940  0.73977414  0.52889827  1
  O  O2  1  0.73977414  0.52889827  0.32836940  1
  O  O3  1  0.47110173  0.67163060  0.26022586  1
  O  O4  1  0.67163060  0.26022586  0.47110173  1
  O  O5  1  0.26022586  0.47110173  0.67163060  1
  O  O6  1  0.03406285  0.15129369  0.44692700  1
  O  O7  1  0.15129369  0.44692700  0.03406285  1
  O  O8  1  0.44692700  0.03406285  0.15129369  1
  O  O9  1  0.96593715  0.84870631  0.55307300  1
  O  O10  1  0.84870631  0.55307300  0.96593715  1
  O  O11  1  0.55307300  0.96593715  0.84870631  1
  O  O12  1  0.26365651  0.26365651  0.26365651  1
  O  O13  1  0.73634349  0.73634349  0.73634349  1
  O  O14  1  0.14216416  0.95982878  0.70098255  1
  O  O15  1  0.95982878  0.70098255  0.14216416  1
  O  O16  1  0.70098255  0.14216416  0.95982878  1
  O  O17  1  0.42905719  0.82952046  0.74182310  1
  O  O18  1  0.74182310  0.42905719  0.82952046  1
  O  O19  1  0.82952046  0.74182310  0.42905719  1
  O  O20  1  0.57094281  0.17047954  0.25817690  1
  O  O21  1  0.25817690  0.57094281  0.17047954  1
  O  O22  1  0.17047954  0.25817690  0.57094281  1
  O  O23  1  0.45712709  0.15476010  0.57027590  1
  O  O24  1  0.57027590  0.45712709  0.15476010  1
  O  O25  1  0.15476010  0.57027590  0.45712709  1
  O  O26  1  0.54287291  0.84523990  0.42972410  1
  O  O27  1  0.42972410  0.54287291  0.84523990  1
  O  O28  1  0.84523990  0.42972410  0.54287291  1
  O  O29  1  0.29901745  0.85783584  0.04017122  1
  O  O30  1  0.04017122  0.29901745  0.85783584  1
  O  O31  1  0.85783584  0.04017122  0.29901745  1
  Rb  Rb32  1  0.85957524  0.85957524  0.85957524  1
  Rb  Rb33  1  0.14042476  0.14042476  0.14042476  1
  Ta  Ta34  1  0.50000000  0.50000000  0.50000000  1
  Ta  Ta35  1  0.30069187  0.97463694  0.42893085  1
  Ta  Ta36  1  0.97463694  0.42893085  0.30069187  1
  Ta  Ta37  1  0.42893085  0.30069187  0.97463694  1
  Ta  Ta38  1  0.69930813  0.02536306  0.57106915  1
  Ta  Ta39  1  0.02536306  0.57106915  0.69930813  1
  Ta  Ta40  1  0.57106915  0.69930813  0.02536306  1
  Ta  Ta41  1  0.94716786  0.18537008  0.77150732  1
  Ta  Ta42  1  0.18537008  0.77150732  0.94716786  1
  Ta  Ta43  1  0.77150732  0.94716786  0.18537008  1
  Ta  Ta44  1  0.05283214  0.81462992  0.22849268  1
  Ta  Ta45  1  0.81462992  0.22849268  0.05283214  1
  Ta  Ta46  1  0.22849268  0.05283214  0.81462992  1
  Ta  Ta47  1  0.63779844  0.63779844  0.63779844  1
  Ta  Ta48  1  0.36220156  0.36220156  0.36220156  1
