# generated using pymatgen
data_Na3ErCl6
_symmetry_space_group_name_H-M   'P 1'
_cell_length_a   6.91041857
_cell_length_b   7.30309860
_cell_length_c   10.25691829
_cell_angle_alpha   90.00000000
_cell_angle_beta   90.58403468
_cell_angle_gamma   90.00000000
_symmetry_Int_Tables_number   1
_chemical_formula_structural   Na3ErCl6
_chemical_formula_sum   'Na6 Er2 Cl12'
_cell_volume   517.61380548
_cell_formula_units_Z   2
loop_
 _symmetry_equiv_pos_site_id
 _symmetry_equiv_pos_as_xyz
  1  'x, y, z'
loop_
 _atom_site_type_symbol
 _atom_site_label
 _atom_site_symmetry_multiplicity
 _atom_site_fract_x
 _atom_site_fract_y
 _atom_site_fract_z
 _atom_site_occupancy
  Na  Na0  1  0.00000000  0.00000000  0.50000000  1
  Na  Na1  1  0.50000000  0.50000000  0.00000000  1
  Na  Na2  1  0.52362887  0.92465601  0.24195600  1
  Na  Na3  1  0.97637113  0.42465601  0.25804400  1
  Na  Na4  1  0.47637113  0.07534399  0.75804400  1
  Na  Na5  1  0.02362887  0.57534399  0.74195600  1
  Cl  Cl6  1  0.13717836  0.06436908  0.23689543  1
  Cl  Cl7  1  0.66797726  0.19697031  0.42167972  1
  Cl  Cl8  1  0.86282164  0.93563092  0.76310457  1
  Cl  Cl9  1  0.36282164  0.56436908  0.26310457  1
  Cl  Cl10  1  0.81186535  0.67809768  0.43505503  1
  Cl  Cl11  1  0.63717836  0.43563092  0.73689543  1
  Cl  Cl12  1  0.68813465  0.17809768  0.06494497  1
  Cl  Cl13  1  0.33202274  0.80302969  0.57832028  1
  Cl  Cl14  1  0.31186535  0.82190232  0.93505503  1
  Cl  Cl15  1  0.18813465  0.32190232  0.56494497  1
  Cl  Cl16  1  0.16797726  0.30302969  0.92167972  1
  Cl  Cl17  1  0.83202274  0.69697031  0.07832028  1
  Er  Er18  1  0.00000000  0.00000000  0.00000000  1
  Er  Er19  1  0.50000000  0.50000000  0.50000000  1
