# generated using pymatgen
data_RbAg5S3
_symmetry_space_group_name_H-M   'P 1'
_cell_length_a   13.71242495
_cell_length_b   13.71242495
_cell_length_c   8.15911000
_cell_angle_alpha   90.00000000
_cell_angle_beta   90.00000000
_cell_angle_gamma   120.00000001
_symmetry_Int_Tables_number   1
_chemical_formula_structural   RbAg5S3
_chemical_formula_sum   'Rb6 Ag30 S18'
_cell_volume   1328.62355359
_cell_formula_units_Z   6
loop_
 _symmetry_equiv_pos_site_id
 _symmetry_equiv_pos_as_xyz
  1  'x, y, z'
loop_
 _atom_site_type_symbol
 _atom_site_label
 _atom_site_symmetry_multiplicity
 _atom_site_fract_x
 _atom_site_fract_y
 _atom_site_fract_z
 _atom_site_occupancy
  S  S0  1  0.42111764  0.89171664  0.00000000  1
  S  S1  1  0.10828336  0.52940101  0.00000000  1
  S  S2  1  0.47059899  0.57888236  0.00000000  1
  S  S3  1  0.75446346  0.19538351  0.00000000  1
  S  S4  1  0.80461649  0.55907995  0.00000000  1
  S  S5  1  0.44092005  0.24553654  0.00000000  1
  S  S6  1  0.77190911  0.88654067  0.00000000  1
  S  S7  1  0.11345933  0.88536843  0.00000000  1
  S  S8  1  0.11463157  0.22809089  0.00000000  1
  S  S9  1  0.55835345  0.75456002  0.50000000  1
  S  S10  1  0.24543998  0.80379343  0.50000000  1
  S  S11  1  0.19620657  0.44164655  0.50000000  1
  S  S12  1  0.55333761  0.10527212  0.50000000  1
  S  S13  1  0.89472788  0.44806550  0.50000000  1
  S  S14  1  0.55193450  0.44666239  0.50000000  1
  S  S15  1  0.86219916  0.08805352  0.50000000  1
  S  S16  1  0.91194648  0.77414564  0.50000000  1
  S  S17  1  0.22585436  0.13780084  0.50000000  1
  Rb  Rb18  1  0.66666667  0.33333333  0.75101234  1
  Rb  Rb19  1  0.66666667  0.33333333  0.24898766  1
  Rb  Rb20  1  0.33333333  0.66666667  0.74984634  1
  Rb  Rb21  1  0.33333333  0.66666667  0.25015366  1
  Rb  Rb22  1  0.00000000  0.00000000  0.74869356  1
  Rb  Rb23  1  0.00000000  0.00000000  0.25130644  1
  Ag  Ag24  1  0.96437118  0.30070894  0.50000000  1
  Ag  Ag25  1  0.33633776  0.03562882  0.50000000  1
  Ag  Ag26  1  0.69929106  0.66366224  0.50000000  1
  Ag  Ag27  1  0.96714100  0.29760562  0.00000000  1
  Ag  Ag28  1  0.33046462  0.03285900  0.00000000  1
  Ag  Ag29  1  0.70239438  0.66953538  0.00000000  1
  Ag  Ag30  1  0.33337068  0.20325523  0.75002492  1
  Ag  Ag31  1  0.86988455  0.66662932  0.24997508  1
  Ag  Ag32  1  0.79674477  0.13011545  0.24997508  1
  Ag  Ag33  1  0.79674477  0.13011545  0.75002492  1
  Ag  Ag34  1  0.86988455  0.66662932  0.75002492  1
  Ag  Ag35  1  0.33337068  0.20325523  0.24997508  1
  Ag  Ag36  1  0.51766033  0.51831782  0.75060274  1
  Ag  Ag37  1  0.00065749  0.48233967  0.24939726  1
  Ag  Ag38  1  0.48168218  0.99934251  0.24939726  1
  Ag  Ag39  1  0.48168218  0.99934251  0.75060274  1
  Ag  Ag40  1  0.00065749  0.48233967  0.75060274  1
  Ag  Ag41  1  0.51766033  0.51831782  0.24939726  1
  Ag  Ag42  1  0.14880836  0.33412207  0.74949781  1
  Ag  Ag43  1  0.18531370  0.85119164  0.25050219  1
  Ag  Ag44  1  0.66587793  0.81468630  0.25050219  1
  Ag  Ag45  1  0.66587793  0.81468630  0.74949781  1
  Ag  Ag46  1  0.18531370  0.85119164  0.74949781  1
  Ag  Ag47  1  0.14880836  0.33412207  0.25050219  1
  Ag  Ag48  1  0.63006616  0.95815393  0.00000000  1
  Ag  Ag49  1  0.04184607  0.67191223  0.00000000  1
  Ag  Ag50  1  0.32808777  0.36993384  0.00000000  1
  Ag  Ag51  1  0.62536531  0.96368378  0.50000000  1
  Ag  Ag52  1  0.03631622  0.66168153  0.50000000  1
  Ag  Ag53  1  0.33831847  0.37463469  0.50000000  1
