# generated using pymatgen
data_TaTe4I
_symmetry_space_group_name_H-M   'P 1'
_cell_length_a   6.77013650
_cell_length_b   8.22449358
_cell_length_c   9.10017896
_cell_angle_alpha   114.82547700
_cell_angle_beta   101.90279039
_cell_angle_gamma   100.70726538
_symmetry_Int_Tables_number   1
_chemical_formula_structural   TaTe4I
_chemical_formula_sum   'Ta2 Te8 I2'
_cell_volume   428.30507204
_cell_formula_units_Z   2
loop_
 _symmetry_equiv_pos_site_id
 _symmetry_equiv_pos_as_xyz
  1  'x, y, z'
loop_
 _atom_site_type_symbol
 _atom_site_label
 _atom_site_symmetry_multiplicity
 _atom_site_fract_x
 _atom_site_fract_y
 _atom_site_fract_z
 _atom_site_occupancy
  Te  Te0  1  0.12135799  0.32318182  0.17745616  1
  Te  Te1  1  0.02442812  0.87452205  0.18776003  1
  Te  Te2  1  0.38499218  0.85314612  0.70368866  1
  Te  Te3  1  0.61500782  0.14685388  0.29631134  1
  Te  Te4  1  0.87864201  0.67681818  0.82254384  1
  Te  Te5  1  0.53849851  0.24659318  0.93438233  1
  Te  Te6  1  0.46150149  0.75340682  0.06561767  1
  Te  Te7  1  0.97557188  0.12547795  0.81223997  1
  I  I8  1  0.24703562  0.40207933  0.56613023  1
  I  I9  1  0.75296438  0.59792067  0.43386977  1
  Ta  Ta10  1  0.75024336  0.99937797  0.00037770  1
  Ta  Ta11  1  0.24975664  0.00062203  0.99962230  1
