# generated using pymatgen
data_Hf2Ag3F14
_symmetry_space_group_name_H-M   'P 1'
_cell_length_a   5.83697563
_cell_length_b   5.83697563
_cell_length_c   9.25560777
_cell_angle_alpha   89.01329212
_cell_angle_beta   89.01329214
_cell_angle_gamma   71.30920460
_symmetry_Int_Tables_number   1
_chemical_formula_structural   Hf2Ag3F14
_chemical_formula_sum   'Hf2 Ag3 F14'
_cell_volume   298.64356351
_cell_formula_units_Z   1
loop_
 _symmetry_equiv_pos_site_id
 _symmetry_equiv_pos_as_xyz
  1  'x, y, z'
loop_
 _atom_site_type_symbol
 _atom_site_label
 _atom_site_symmetry_multiplicity
 _atom_site_fract_x
 _atom_site_fract_y
 _atom_site_fract_z
 _atom_site_occupancy
  F  F0  1  0.85609458  0.26878083  0.83822237  1
  F  F1  1  0.73121917  0.14390542  0.16177763  1
  F  F2  1  0.14390542  0.73121917  0.16177763  1
  F  F3  1  0.26878083  0.85609458  0.83822237  1
  F  F4  1  0.84752762  0.49457700  0.61625156  1
  F  F5  1  0.50000000  0.50000000  0.00000000  1
  F  F6  1  0.00000000  0.00000000  0.50000000  1
  F  F7  1  0.39206160  0.39206160  0.70617616  1
  F  F8  1  0.60793840  0.60793840  0.29382384  1
  F  F9  1  0.77236492  0.77236492  0.87933698  1
  F  F10  1  0.22763508  0.22763508  0.12066302  1
  F  F11  1  0.49457700  0.84752762  0.61625156  1
  F  F12  1  0.15247238  0.50542300  0.38374844  1
  F  F13  1  0.50542300  0.15247238  0.38374844  1
  Ag  Ag14  1  0.00000000  0.00000000  0.00000000  1
  Ag  Ag15  1  0.18815451  0.18815451  0.60396297  1
  Ag  Ag16  1  0.81184549  0.81184549  0.39603703  1
  Hf  Hf17  1  0.40936460  0.40936460  0.21437820  1
  Hf  Hf18  1  0.59063540  0.59063540  0.78562180  1
