# generated using pymatgen
data_Na(LiSi2)3
_symmetry_space_group_name_H-M   'P 1'
_cell_length_a   3.79969248
_cell_length_b   10.32010451
_cell_length_c   18.00586415
_cell_angle_alpha   90.00000000
_cell_angle_beta   90.00000000
_cell_angle_gamma   90.00000000
_symmetry_Int_Tables_number   1
_chemical_formula_structural   Na(LiSi2)3
_chemical_formula_sum   'Na4 Li12 Si24'
_cell_volume   706.06797521
_cell_formula_units_Z   4
loop_
 _symmetry_equiv_pos_site_id
 _symmetry_equiv_pos_as_xyz
  1  'x, y, z'
loop_
 _atom_site_type_symbol
 _atom_site_label
 _atom_site_symmetry_multiplicity
 _atom_site_fract_x
 _atom_site_fract_y
 _atom_site_fract_z
 _atom_site_occupancy
  Li  Li0  1  0.25000000  0.01548202  0.93227029  1
  Li  Li1  1  0.75000000  0.98451798  0.06772971  1
  Li  Li2  1  0.75000000  0.51548202  0.56772971  1
  Li  Li3  1  0.25000000  0.48451798  0.43227029  1
  Li  Li4  1  0.25000000  0.40880267  0.02790600  1
  Li  Li5  1  0.75000000  0.59119733  0.97209400  1
  Li  Li6  1  0.75000000  0.90880267  0.47209400  1
  Li  Li7  1  0.25000000  0.09119733  0.52790600  1
  Li  Li8  1  0.75000000  0.93901456  0.81261581  1
  Li  Li9  1  0.25000000  0.06098544  0.18738419  1
  Li  Li10  1  0.25000000  0.43901456  0.68738419  1
  Li  Li11  1  0.75000000  0.56098544  0.31261581  1
  Na  Na12  1  0.75000000  0.24965648  0.42451497  1
  Na  Na13  1  0.25000000  0.75034352  0.57548503  1
  Na  Na14  1  0.25000000  0.74965648  0.07548503  1
  Na  Na15  1  0.75000000  0.25034352  0.92451497  1
  Si  Si16  1  0.25000000  0.52255773  0.19654451  1
  Si  Si17  1  0.75000000  0.47744227  0.80345549  1
  Si  Si18  1  0.75000000  0.02255773  0.30345549  1
  Si  Si19  1  0.25000000  0.97744227  0.69654451  1
  Si  Si20  1  0.25000000  0.16578859  0.05463951  1
  Si  Si21  1  0.75000000  0.83421141  0.94536049  1
  Si  Si22  1  0.75000000  0.66578859  0.44536049  1
  Si  Si23  1  0.25000000  0.33421141  0.55463951  1
  Si  Si24  1  0.25000000  0.35853810  0.29518158  1
  Si  Si25  1  0.75000000  0.64146190  0.70481842  1
  Si  Si26  1  0.75000000  0.85853810  0.20481842  1
  Si  Si27  1  0.25000000  0.14146190  0.79518158  1
  Si  Si28  1  0.75000000  0.49608840  0.11794901  1
  Si  Si29  1  0.25000000  0.50391160  0.88205099  1
  Si  Si30  1  0.25000000  0.99608840  0.38205099  1
  Si  Si31  1  0.75000000  0.00391160  0.61794901  1
  Si  Si32  1  0.75000000  0.25821708  0.11732302  1
  Si  Si33  1  0.25000000  0.74178292  0.88267698  1
  Si  Si34  1  0.25000000  0.75821708  0.38267698  1
  Si  Si35  1  0.75000000  0.24178292  0.61732302  1
  Si  Si36  1  0.25000000  0.74108231  0.24907085  1
  Si  Si37  1  0.75000000  0.25891769  0.75092915  1
  Si  Si38  1  0.75000000  0.24108231  0.25092915  1
  Si  Si39  1  0.25000000  0.75891769  0.74907085  1
