# generated using pymatgen
data_K2(NbCl3)3
_symmetry_space_group_name_H-M   'P 1'
_cell_length_a   9.78132301
_cell_length_b   9.89803496
_cell_length_c   9.89803496
_cell_angle_alpha   117.38672026
_cell_angle_beta   102.77908282
_cell_angle_gamma   102.77908284
_symmetry_Int_Tables_number   1
_chemical_formula_structural   K2(NbCl3)3
_chemical_formula_sum   'K4 Nb6 Cl18'
_cell_volume   769.94157459
_cell_formula_units_Z   2
loop_
 _symmetry_equiv_pos_site_id
 _symmetry_equiv_pos_as_xyz
  1  'x, y, z'
loop_
 _atom_site_type_symbol
 _atom_site_label
 _atom_site_symmetry_multiplicity
 _atom_site_fract_x
 _atom_site_fract_y
 _atom_site_fract_z
 _atom_site_occupancy
  Cl  Cl0  1  0.68594320  0.87979843  0.08501338  1
  Cl  Cl1  1  0.67758834  0.49901380  0.89204509  1
  Cl  Cl2  1  0.71480851  0.26937867  0.26937867  1
  Cl  Cl3  1  0.28519149  0.73062133  0.73062133  1
  Cl  Cl4  1  0.67758834  0.89204509  0.49901380  1
  Cl  Cl5  1  0.32241166  0.50098620  0.10795491  1
  Cl  Cl6  1  0.67057030  0.68298323  0.68298323  1
  Cl  Cl7  1  0.32942970  0.31701677  0.31701677  1
  Cl  Cl8  1  0.00000000  0.79424332  0.20575668  1
  Cl  Cl9  1  0.00000000  0.20575668  0.79424332  1
  Cl  Cl10  1  0.68594320  0.08501338  0.87979843  1
  Cl  Cl11  1  0.01564640  0.19468343  0.40126510  1
  Cl  Cl12  1  0.01564640  0.40126510  0.19468343  1
  Cl  Cl13  1  0.98435360  0.80531657  0.59873490  1
  Cl  Cl14  1  0.98435360  0.59873490  0.80531657  1
  Cl  Cl15  1  0.31405680  0.91498662  0.12020157  1
  Cl  Cl16  1  0.31405680  0.12020157  0.91498662  1
  Cl  Cl17  1  0.32241166  0.10795491  0.50098620  1
  K  K18  1  0.32734821  0.44886208  0.77036231  1
  K  K19  1  0.67265179  0.22963769  0.55113792  1
  K  K20  1  0.67265179  0.55113792  0.22963769  1
  K  K21  1  0.32734821  0.77036231  0.44886208  1
  Nb  Nb22  1  0.14029706  0.22052511  0.04657553  1
  Nb  Nb23  1  0.85970294  0.95342447  0.77947489  1
  Nb  Nb24  1  0.14029706  0.04657553  0.22052511  1
  Nb  Nb25  1  0.85970294  0.77947489  0.95342447  1
  Nb  Nb26  1  0.87236964  0.11953052  0.11953052  1
  Nb  Nb27  1  0.12763036  0.88046948  0.88046948  1
