# generated using pymatgen
data_Cs2CuF6
_symmetry_space_group_name_H-M   'P 1'
_cell_length_a   6.43216829
_cell_length_b   6.43216829
_cell_length_c   6.43216829
_cell_angle_alpha   90.00244318
_cell_angle_beta   119.99858947
_cell_angle_gamma   119.99858943
_symmetry_Int_Tables_number   1
_chemical_formula_structural   Cs2CuF6
_chemical_formula_sum   'Cs2 Cu1 F6'
_cell_volume   188.17696377
_cell_formula_units_Z   1
loop_
 _symmetry_equiv_pos_site_id
 _symmetry_equiv_pos_as_xyz
  1  'x, y, z'
loop_
 _atom_site_type_symbol
 _atom_site_label
 _atom_site_symmetry_multiplicity
 _atom_site_fract_x
 _atom_site_fract_y
 _atom_site_fract_z
 _atom_site_occupancy
  F  F0  1  0.59133013  0.79566506  0.79566506  1
  F  F1  1  0.00000000  0.79566506  0.20433494  1
  F  F2  1  0.00000000  0.20433494  0.79566506  1
  F  F3  1  0.00000000  0.20588442  0.20588442  1
  F  F4  1  1.00000000  0.79411558  0.79411558  1
  F  F5  1  0.40866987  0.20433494  0.20433494  1
  Cu  Cu6  1  0.00000000  0.00000000  0.00000000  1
  Cs  Cs7  1  0.50000000  0.25000000  0.75000000  1
  Cs  Cs8  1  0.50000000  0.75000000  0.25000000  1
