# generated using pymatgen
data_Li4Cr2Ni5O12
_symmetry_space_group_name_H-M   'P 1'
_cell_length_a   4.98599753
_cell_length_b   8.87491637
_cell_length_c   9.74950904
_cell_angle_alpha   90.00000289
_cell_angle_beta   100.80113491
_cell_angle_gamma   89.99999998
_symmetry_Int_Tables_number   1
_chemical_formula_structural   Li4Cr2Ni5O12
_chemical_formula_sum   'Li8 Cr4 Ni10 O24'
_cell_volume   423.77559310
_cell_formula_units_Z   2
loop_
 _symmetry_equiv_pos_site_id
 _symmetry_equiv_pos_as_xyz
  1  'x, y, z'
loop_
 _atom_site_type_symbol
 _atom_site_label
 _atom_site_symmetry_multiplicity
 _atom_site_fract_x
 _atom_site_fract_y
 _atom_site_fract_z
 _atom_site_occupancy
  Li  Li0  1  0.24733508  0.08037726  0.99318184  1
  Li  Li1  1  0.75458810  0.07372602  0.50361386  1
  Li  Li2  1  0.49022914  0.41937500  0.75177184  1
  Li  Li3  1  0.75461010  0.42241326  0.50380555  1
  Li  Li4  1  0.25266492  0.58037726  0.50681816  1
  Li  Li5  1  0.74541190  0.57372602  0.99638614  1
  Li  Li6  1  0.00977086  0.91937500  0.74822816  1
  Li  Li7  1  0.74538990  0.92241326  0.99619445  1
  Cr  Cr8  1  0.99342089  0.25758303  0.75053816  1
  Cr  Cr9  1  0.49900317  0.24918060  0.24640289  1
  Cr  Cr10  1  0.00099683  0.74918060  0.25359711  1
  Cr  Cr11  1  0.50657911  0.75758303  0.74946184  1
  Ni  Ni12  1  0.00105543  0.08154357  0.25309717  1
  Ni  Ni13  1  0.49689477  0.08172385  0.74871409  1
  Ni  Ni14  1  0.25794922  0.24955048  0.50385913  1
  Ni  Ni15  1  0.74290003  0.25499665  0.99609057  1
  Ni  Ni16  1  0.00498171  0.41709958  0.24949404  1
  Ni  Ni17  1  0.00310523  0.58172385  0.75128591  1
  Ni  Ni18  1  0.49894457  0.58154357  0.24690283  1
  Ni  Ni19  1  0.24205078  0.74955048  0.99614087  1
  Ni  Ni20  1  0.75709997  0.75499665  0.50390943  1
  Ni  Ni21  1  0.49501829  0.91709958  0.25050596  1
  O  O22  1  0.13921585  0.10232461  0.63838487  1
  O  O23  1  0.38635232  0.09651487  0.36548747  1
  O  O24  1  0.36746862  0.23349342  0.85952711  1
  O  O25  1  0.11873844  0.24520617  0.13619218  1
  O  O26  1  0.61812741  0.08993663  0.13081392  1
  O  O27  1  0.85437845  0.09760904  0.86675360  1
  O  O28  1  0.12161228  0.40814414  0.63066682  1
  O  O29  1  0.64897340  0.24023383  0.62888179  1
  O  O30  1  0.87772329  0.24919329  0.36704046  1
  O  O31  1  0.36971341  0.41022082  0.36586689  1
  O  O32  1  0.64402615  0.41018074  0.13658415  1
  O  O33  1  0.88383126  0.40924013  0.85929213  1
  O  O34  1  0.11364768  0.59651487  0.13451253  1
  O  O35  1  0.36078415  0.60232461  0.86161513  1
  O  O36  1  0.13253138  0.73349342  0.64047289  1
  O  O37  1  0.64562155  0.59760904  0.63324640  1
  O  O38  1  0.38126156  0.74520617  0.36380782  1
  O  O39  1  0.88187259  0.58993663  0.36918608  1
  O  O40  1  0.85102660  0.74023383  0.87111821  1
  O  O41  1  0.13028659  0.91022082  0.13413311  1
  O  O42  1  0.37838772  0.90814414  0.86933318  1
  O  O43  1  0.62227671  0.74919329  0.13295954  1
  O  O44  1  0.61616874  0.90924013  0.64070787  1
  O  O45  1  0.85597385  0.91018074  0.36341585  1
