# generated using pymatgen
data_ThB2O5
_symmetry_space_group_name_H-M   'P 1'
_cell_length_a   6.76213916
_cell_length_b   6.76213917
_cell_length_c   10.51945678
_cell_angle_alpha   80.02783645
_cell_angle_beta   80.02783643
_cell_angle_gamma   62.38564551
_symmetry_Int_Tables_number   1
_chemical_formula_structural   ThB2O5
_chemical_formula_sum   'Th4 B8 O20'
_cell_volume   417.39945203
_cell_formula_units_Z   4
loop_
 _symmetry_equiv_pos_site_id
 _symmetry_equiv_pos_as_xyz
  1  'x, y, z'
loop_
 _atom_site_type_symbol
 _atom_site_label
 _atom_site_symmetry_multiplicity
 _atom_site_fract_x
 _atom_site_fract_y
 _atom_site_fract_z
 _atom_site_occupancy
  B  B0  1  0.27810925  0.76911819  0.50335494  1
  B  B1  1  0.16411308  0.56560327  0.35844862  1
  B  B2  1  0.43439673  0.83588692  0.14155138  1
  B  B3  1  0.83588692  0.43439673  0.64155138  1
  B  B4  1  0.56560327  0.16411308  0.85844862  1
  B  B5  1  0.23088181  0.72189075  0.99664506  1
  B  B6  1  0.72189075  0.23088181  0.49664506  1
  B  B7  1  0.76911819  0.27810925  0.00335494  1
  O  O8  1  0.28012335  0.63996073  0.41584400  1
  O  O9  1  0.63996073  0.28012335  0.91584400  1
  O  O10  1  0.71987665  0.36003927  0.58415600  1
  O  O11  1  0.36003927  0.71987665  0.08415600  1
  O  O12  1  0.35849152  0.27510032  0.81128318  1
  O  O13  1  0.72489968  0.64150848  0.68871682  1
  O  O14  1  0.64150848  0.72489968  0.18871682  1
  O  O15  1  0.27510032  0.35849152  0.31128318  1
  O  O16  1  0.31263076  0.05755341  0.16354832  1
  O  O17  1  0.94244659  0.68736924  0.33645168  1
  O  O18  1  0.68736924  0.94244659  0.83645168  1
  O  O19  1  0.05755341  0.31263076  0.66354832  1
  O  O20  1  0.89257448  0.39775899  0.97074495  1
  O  O21  1  0.60224101  0.10742552  0.52925505  1
  O  O22  1  0.10742552  0.60224101  0.02925505  1
  O  O23  1  0.39775899  0.89257448  0.47074495  1
  O  O24  1  0.22515015  0.82423694  0.87129548  1
  O  O25  1  0.17576306  0.77484985  0.62870452  1
  O  O26  1  0.77484985  0.17576306  0.12870452  1
  O  O27  1  0.82423694  0.22515015  0.37129548  1
  Th  Th28  1  0.97825670  0.38777950  0.19198531  1
  Th  Th29  1  0.61222050  0.02174330  0.30801469  1
  Th  Th30  1  0.02174330  0.61222050  0.80801469  1
  Th  Th31  1  0.38777950  0.97825670  0.69198531  1
