# generated using pymatgen
data_Y3RuI3
_symmetry_space_group_name_H-M   'P 1'
_cell_length_a   4.25448089
_cell_length_b   8.89334380
_cell_length_c   12.34491506
_cell_angle_alpha   93.78514889
_cell_angle_beta   90.00000000
_cell_angle_gamma   90.00000000
_symmetry_Int_Tables_number   1
_chemical_formula_structural   Y3RuI3
_chemical_formula_sum   'Y6 Ru2 I6'
_cell_volume   466.07023251
_cell_formula_units_Z   2
loop_
 _symmetry_equiv_pos_site_id
 _symmetry_equiv_pos_as_xyz
  1  'x, y, z'
loop_
 _atom_site_type_symbol
 _atom_site_label
 _atom_site_symmetry_multiplicity
 _atom_site_fract_x
 _atom_site_fract_y
 _atom_site_fract_z
 _atom_site_occupancy
  Y  Y0  1  0.75000000  0.86769333  0.12663117  1
  Y  Y1  1  0.25000000  0.13230667  0.87336883  1
  Y  Y2  1  0.75000000  0.90045259  0.68433330  1
  Y  Y3  1  0.25000000  0.09954741  0.31566670  1
  Y  Y4  1  0.25000000  0.74105292  0.89632742  1
  Y  Y5  1  0.75000000  0.25894708  0.10367258  1
  Ru  Ru6  1  0.75000000  0.94673937  0.90739895  1
  Ru  Ru7  1  0.25000000  0.05326063  0.09260105  1
  I  I8  1  0.25000000  0.64729612  0.63626568  1
  I  I9  1  0.75000000  0.35270388  0.36373432  1
  I  I10  1  0.75000000  0.85900783  0.39262653  1
  I  I11  1  0.25000000  0.14099217  0.60737347  1
  I  I12  1  0.25000000  0.57455743  0.13246822  1
  I  I13  1  0.75000000  0.42544257  0.86753178  1
