# generated using pymatgen
data_Li2MnP2O7
_symmetry_space_group_name_H-M   'P 1'
_cell_length_a   5.12651827
_cell_length_b   5.45303277
_cell_length_c   11.90692868
_cell_angle_alpha   104.56095717
_cell_angle_beta   102.43163966
_cell_angle_gamma   61.96172468
_symmetry_Int_Tables_number   1
_chemical_formula_structural   Li2MnP2O7
_chemical_formula_sum   'Li4 Mn2 P4 O14'
_cell_volume   282.51356929
_cell_formula_units_Z   2
loop_
 _symmetry_equiv_pos_site_id
 _symmetry_equiv_pos_as_xyz
  1  'x, y, z'
loop_
 _atom_site_type_symbol
 _atom_site_label
 _atom_site_symmetry_multiplicity
 _atom_site_fract_x
 _atom_site_fract_y
 _atom_site_fract_z
 _atom_site_occupancy
  Li  Li0  1  0.89885646  0.87052353  0.13840427  1
  Li  Li1  1  0.63097571  0.62947647  0.36159573  1
  Li  Li2  1  0.36902429  0.37052353  0.63840427  1
  Li  Li3  1  0.10114354  0.12947647  0.86159573  1
  Mn  Mn4  1  0.50000000  0.50000000  0.00000000  1
  Mn  Mn5  1  0.00000000  0.00000000  0.50000000  1
  P  P6  1  0.73526788  0.80422724  0.87395793  1
  P  P7  1  0.66553618  0.69577276  0.62604207  1
  P  P8  1  0.33446282  0.30422724  0.37395793  1
  P  P9  1  0.26473212  0.19577276  0.12604207  1
  O  O10  1  0.49860964  0.88466720  0.11070702  1
  O  O11  1  0.34026795  0.89725955  0.64525385  1
  O  O12  1  0.77916696  0.75914549  0.53414995  1
  O  O13  1  0.86882798  0.75000000  0.75000000  1
  O  O14  1  0.27257082  0.61533280  0.38929298  1
  O  O15  1  0.00416250  0.74085451  0.96585005  1
  O  O16  1  0.59227365  0.60274045  0.85474615  1
  O  O17  1  0.40772635  0.39725955  0.14525385  1
  O  O18  1  0.99583750  0.25914549  0.03414995  1
  O  O19  1  0.72742918  0.38466720  0.61070702  1
  O  O20  1  0.13117202  0.25000000  0.25000000  1
  O  O21  1  0.22083304  0.24085451  0.46585005  1
  O  O22  1  0.65973205  0.10274045  0.35474615  1
  O  O23  1  0.50139036  0.11533280  0.88929298  1
