# generated using pymatgen
data_Na2Te2O5
_symmetry_space_group_name_H-M   'P 1'
_cell_length_a   4.97635974
_cell_length_b   9.97121050
_cell_length_c   12.21044066
_cell_angle_alpha   102.58381155
_cell_angle_beta   101.75778530
_cell_angle_gamma   90.00000002
_symmetry_Int_Tables_number   1
_chemical_formula_structural   Na2Te2O5
_chemical_formula_sum   'Na8 Te8 O20'
_cell_volume   578.29903190
_cell_formula_units_Z   4
loop_
 _symmetry_equiv_pos_site_id
 _symmetry_equiv_pos_as_xyz
  1  'x, y, z'
loop_
 _atom_site_type_symbol
 _atom_site_label
 _atom_site_symmetry_multiplicity
 _atom_site_fract_x
 _atom_site_fract_y
 _atom_site_fract_z
 _atom_site_occupancy
  O  O0  1  0.49460205  0.36575295  0.49271876  1
  O  O1  1  0.00188328  0.13424705  0.50728124  1
  O  O2  1  0.50539795  0.63424705  0.50728124  1
  O  O3  1  0.99811672  0.86575295  0.49271876  1
  O  O4  1  0.63771904  0.25004597  0.29022171  1
  O  O5  1  0.34749733  0.24995403  0.70977829  1
  O  O6  1  0.36228096  0.74995403  0.70977829  1
  O  O7  1  0.65250267  0.75004597  0.29022171  1
  O  O8  1  0.56708106  0.36196861  0.08961604  1
  O  O9  1  0.47746502  0.13803139  0.91038396  1
  O  O10  1  0.43291894  0.63803139  0.91038396  1
  O  O11  1  0.52253498  0.86196861  0.08961604  1
  O  O12  1  0.16710176  0.15503692  0.10430595  1
  O  O13  1  0.06279581  0.34496308  0.89569405  1
  O  O14  1  0.83289824  0.84496308  0.89569405  1
  O  O15  1  0.93720419  0.65503692  0.10430595  1
  O  O16  1  0.05585806  0.96341466  0.29603004  1
  O  O17  1  0.75982801  0.53658534  0.70396996  1
  O  O18  1  0.94414194  0.03658534  0.70396996  1
  O  O19  1  0.24017199  0.46341466  0.29603004  1
  Na  Na20  1  0.16102666  0.20564693  0.34244195  1
  Na  Na21  1  0.81858471  0.29435307  0.65755805  1
  Na  Na22  1  0.83897334  0.79435307  0.65755805  1
  Na  Na23  1  0.18141529  0.70564693  0.34244195  1
  Na  Na24  1  0.06362623  0.41182322  0.10313948  1
  Na  Na25  1  0.96048675  0.08817678  0.89686052  1
  Na  Na26  1  0.93637377  0.58817678  0.89686052  1
  Na  Na27  1  0.03951325  0.91182322  0.10313948  1
  Te  Te28  1  0.54809185  0.18046021  0.11826251  1
  Te  Te29  1  0.42982933  0.31953979  0.88173749  1
  Te  Te30  1  0.45190815  0.81953979  0.88173749  1
  Te  Te31  1  0.57017067  0.68046021  0.11826251  1
  Te  Te32  1  0.59385686  0.45273406  0.37846109  1
  Te  Te33  1  0.21539577  0.04726594  0.62153891  1
  Te  Te34  1  0.40614314  0.54726594  0.62153891  1
  Te  Te35  1  0.78460423  0.95273406  0.37846109  1
