# generated using pymatgen
data_Zr2TeBr12
_symmetry_space_group_name_H-M   'P 1'
_cell_length_a   7.48957557
_cell_length_b   16.61393301
_cell_length_c   19.69091045
_cell_angle_alpha   90.00000000
_cell_angle_beta   97.30248449
_cell_angle_gamma   90.00000000
_symmetry_Int_Tables_number   1
_chemical_formula_structural   Zr2TeBr12
_chemical_formula_sum   'Zr8 Te4 Br48'
_cell_volume   2430.29225820
_cell_formula_units_Z   4
loop_
 _symmetry_equiv_pos_site_id
 _symmetry_equiv_pos_as_xyz
  1  'x, y, z'
loop_
 _atom_site_type_symbol
 _atom_site_label
 _atom_site_symmetry_multiplicity
 _atom_site_fract_x
 _atom_site_fract_y
 _atom_site_fract_z
 _atom_site_occupancy
  Br  Br0  1  0.40387778  0.43885539  0.40726986  1
  Br  Br1  1  0.59612222  0.93885539  0.09273014  1
  Br  Br2  1  0.59612222  0.56114461  0.59273014  1
  Br  Br3  1  0.40387778  0.06114461  0.90726986  1
  Br  Br4  1  0.84762157  0.55160486  0.41392948  1
  Br  Br5  1  0.15237843  0.05160486  0.08607052  1
  Br  Br6  1  0.15237843  0.44839514  0.58607052  1
  Br  Br7  1  0.84762157  0.94839514  0.91392948  1
  Br  Br8  1  0.51297563  0.55273253  0.25458161  1
  Br  Br9  1  0.48702437  0.05273253  0.24541839  1
  Br  Br10  1  0.48702437  0.44726747  0.74541839  1
  Br  Br11  1  0.51297563  0.94726747  0.75458161  1
  Br  Br12  1  0.52775739  0.18416171  0.73748442  1
  Br  Br13  1  0.47224261  0.68416171  0.76251558  1
  Br  Br14  1  0.47224261  0.81583829  0.26251558  1
  Br  Br15  1  0.52775739  0.31583829  0.23748442  1
  Br  Br16  1  0.98036342  0.30006904  0.74299183  1
  Br  Br17  1  0.01963658  0.80006904  0.75700817  1
  Br  Br18  1  0.01963658  0.69993096  0.25700817  1
  Br  Br19  1  0.98036342  0.19993096  0.24299183  1
  Br  Br20  1  0.95773827  0.06829361  0.74148008  1
  Br  Br21  1  0.04226173  0.56829361  0.75851992  1
  Br  Br22  1  0.04226173  0.93170639  0.25851992  1
  Br  Br23  1  0.95773827  0.43170639  0.24148008  1
  Br  Br24  1  0.63578246  0.29561880  0.58171410  1
  Br  Br25  1  0.36421754  0.79561880  0.91828590  1
  Br  Br26  1  0.36421754  0.70438120  0.41828590  1
  Br  Br27  1  0.63578246  0.20438120  0.08171410  1
  Br  Br28  1  0.05377455  0.18623747  0.58143194  1
  Br  Br29  1  0.94622545  0.68623747  0.91856806  1
  Br  Br30  1  0.94622545  0.81376253  0.41856806  1
  Br  Br31  1  0.05377455  0.31376253  0.08143194  1
  Br  Br32  1  0.63841012  0.08176634  0.57609261  1
  Br  Br33  1  0.36158988  0.58176634  0.92390739  1
  Br  Br34  1  0.36158988  0.91823366  0.42390739  1
  Br  Br35  1  0.63841012  0.41823366  0.07609261  1
  Br  Br36  1  0.88278289  0.31182366  0.42924166  1
  Br  Br37  1  0.11721711  0.81182366  0.07075834  1
  Br  Br38  1  0.11721711  0.68817634  0.57075834  1
  Br  Br39  1  0.88278289  0.18817634  0.92924166  1
  Br  Br40  1  0.88084575  0.07916459  0.41587670  1
  Br  Br41  1  0.11915425  0.57916459  0.08412330  1
  Br  Br42  1  0.11915425  0.92083541  0.58412330  1
  Br  Br43  1  0.88084575  0.42083541  0.91587670  1
  Br  Br44  1  0.43113239  0.19275112  0.41490930  1
  Br  Br45  1  0.56886761  0.69275112  0.08509070  1
  Br  Br46  1  0.56886761  0.80724888  0.58509070  1
  Br  Br47  1  0.43113239  0.30724888  0.91490930  1
  Zr  Zr48  1  0.81406447  0.19277441  0.67189314  1
  Zr  Zr49  1  0.18593553  0.69277441  0.82810686  1
  Zr  Zr50  1  0.18593553  0.80722559  0.32810686  1
  Zr  Zr51  1  0.81406447  0.30722559  0.17189314  1
  Zr  Zr52  1  0.73877473  0.31457839  0.98137115  1
  Zr  Zr53  1  0.26122527  0.81457839  0.51862885  1
  Zr  Zr54  1  0.26122527  0.68542161  0.01862885  1
  Zr  Zr55  1  0.73877473  0.18542161  0.48137115  1
  Te  Te56  1  0.66411623  0.04970169  0.83736617  1
  Te  Te57  1  0.33588377  0.54970169  0.66263383  1
  Te  Te58  1  0.33588377  0.95029831  0.16263383  1
  Te  Te59  1  0.66411623  0.45029831  0.33736617  1
