# generated using pymatgen
data_K2(CuTe)5
_symmetry_space_group_name_H-M   'P 1'
_cell_length_a   4.13402780
_cell_length_b   8.29879311
_cell_length_c   18.84191546
_cell_angle_alpha   90.00000000
_cell_angle_beta   90.00000000
_cell_angle_gamma   104.42272522
_symmetry_Int_Tables_number   1
_chemical_formula_structural   K2(CuTe)5
_chemical_formula_sum   'K4 Cu10 Te10'
_cell_volume   626.04569333
_cell_formula_units_Z   2
loop_
 _symmetry_equiv_pos_site_id
 _symmetry_equiv_pos_as_xyz
  1  'x, y, z'
loop_
 _atom_site_type_symbol
 _atom_site_label
 _atom_site_symmetry_multiplicity
 _atom_site_fract_x
 _atom_site_fract_y
 _atom_site_fract_z
 _atom_site_occupancy
  K  K0  1  0.48267191  0.96534382  0.11804868  1
  K  K1  1  0.51732809  0.03465618  0.88195132  1
  K  K2  1  0.51732809  0.03465618  0.61804868  1
  K  K3  1  0.48267191  0.96534382  0.38195132  1
  Cu  Cu4  1  0.32608576  0.65217152  0.75000000  1
  Cu  Cu5  1  0.67391424  0.34782848  0.25000000  1
  Cu  Cu6  1  0.27618155  0.55236310  0.95705120  1
  Cu  Cu7  1  0.72381845  0.44763690  0.04294880  1
  Cu  Cu8  1  0.72381845  0.44763690  0.45705120  1
  Cu  Cu9  1  0.27618155  0.55236310  0.54294880  1
  Cu  Cu10  1  0.19948696  0.39897393  0.35292668  1
  Cu  Cu11  1  0.80051304  0.60102607  0.64707332  1
  Cu  Cu12  1  0.80051304  0.60102607  0.85292668  1
  Cu  Cu13  1  0.19948696  0.39897393  0.14707332  1
  Te  Te14  1  0.92083736  0.84167472  0.75000000  1
  Te  Te15  1  0.07916264  0.15832528  0.25000000  1
  Te  Te16  1  0.80311619  0.60623237  0.16666083  1
  Te  Te17  1  0.19688381  0.39376763  0.83333917  1
  Te  Te18  1  0.19688381  0.39376763  0.66666083  1
  Te  Te19  1  0.80311619  0.60623237  0.33333917  1
  Te  Te20  1  0.12833326  0.25666651  0.02029635  1
  Te  Te21  1  0.87166674  0.74333349  0.97970365  1
  Te  Te22  1  0.87166674  0.74333349  0.52029635  1
  Te  Te23  1  0.12833326  0.25666651  0.47970365  1
