# generated using pymatgen
data_NaGaBr4
_symmetry_space_group_name_H-M   'P 1'
_cell_length_a   7.76493618
_cell_length_b   7.72267193
_cell_length_c   14.23886207
_cell_angle_alpha   90.00000000
_cell_angle_beta   90.00000000
_cell_angle_gamma   90.00000000
_symmetry_Int_Tables_number   1
_chemical_formula_structural   NaGaBr4
_chemical_formula_sum   'Na4 Ga4 Br16'
_cell_volume   853.84838141
_cell_formula_units_Z   4
loop_
 _symmetry_equiv_pos_site_id
 _symmetry_equiv_pos_as_xyz
  1  'x, y, z'
loop_
 _atom_site_type_symbol
 _atom_site_label
 _atom_site_symmetry_multiplicity
 _atom_site_fract_x
 _atom_site_fract_y
 _atom_site_fract_z
 _atom_site_occupancy
  Na  Na0  1  0.94981153  0.75000000  0.34827955  1
  Na  Na1  1  0.44981153  0.25000000  0.15172045  1
  Na  Na2  1  0.05018847  0.25000000  0.65172045  1
  Na  Na3  1  0.55018847  0.75000000  0.84827955  1
  Ga  Ga4  1  0.79839459  0.75000000  0.60133275  1
  Ga  Ga5  1  0.29839459  0.25000000  0.89866725  1
  Ga  Ga6  1  0.20160541  0.25000000  0.39866725  1
  Ga  Ga7  1  0.70160541  0.75000000  0.10133275  1
  Br  Br8  1  0.62787599  0.75000000  0.46538062  1
  Br  Br9  1  0.12787599  0.25000000  0.03461938  1
  Br  Br10  1  0.37212401  0.25000000  0.53461938  1
  Br  Br11  1  0.87212401  0.75000000  0.96538062  1
  Br  Br12  1  0.09032396  0.75000000  0.55374933  1
  Br  Br13  1  0.59032396  0.25000000  0.94625067  1
  Br  Br14  1  0.90967604  0.25000000  0.44625067  1
  Br  Br15  1  0.40967604  0.75000000  0.05374933  1
  Br  Br16  1  0.76119735  -0.00608317  0.19834320  1
  Br  Br17  1  0.26119735  1.00608317  0.30165680  1
  Br  Br18  1  0.23880265  0.49391683  0.80165680  1
  Br  Br19  1  0.73880265  0.50608317  0.69834320  1
  Br  Br20  1  0.23880265  1.00608317  0.80165680  1
  Br  Br21  1  0.73880265  -0.00608317  0.69834320  1
  Br  Br22  1  0.76119735  0.50608317  0.19834320  1
  Br  Br23  1  0.26119735  0.49391683  0.30165680  1
