# generated using pymatgen
data_La3B2N5
_symmetry_space_group_name_H-M   'P 1'
_cell_length_a   7.65741031
_cell_length_b   9.70057776
_cell_length_c   14.83516731
_cell_angle_alpha   90.00000000
_cell_angle_beta   90.00000000
_cell_angle_gamma   90.00099345
_symmetry_Int_Tables_number   1
_chemical_formula_structural   La3B2N5
_chemical_formula_sum   'La24 B16 N40'
_cell_volume   1101.97557466
_cell_formula_units_Z   8
loop_
 _symmetry_equiv_pos_site_id
 _symmetry_equiv_pos_as_xyz
  1  'x, y, z'
loop_
 _atom_site_type_symbol
 _atom_site_label
 _atom_site_symmetry_multiplicity
 _atom_site_fract_x
 _atom_site_fract_y
 _atom_site_fract_z
 _atom_site_occupancy
  B  B0  1  0.03376620  0.44073330  0.14198351  1
  B  B1  1  0.46623380  0.55926670  0.64198351  1
  B  B2  1  0.96623380  0.55926670  0.85801649  1
  B  B3  1  0.53376620  0.44073330  0.35801649  1
  B  B4  1  0.12378076  0.76981560  0.89441810  1
  B  B5  1  0.37621924  0.23018440  0.39441810  1
  B  B6  1  0.87621924  0.23018440  0.10558190  1
  B  B7  1  0.62378076  0.76981560  0.60558190  1
  B  B8  1  0.22041255  0.44077784  0.35393504  1
  B  B9  1  0.27958745  0.55922216  0.85393504  1
  B  B10  1  0.77958745  0.55922216  0.64606496  1
  B  B11  1  0.72041255  0.44077784  0.14606496  1
  B  B12  1  0.62425837  0.09417022  0.75194579  1
  B  B13  1  0.87574163  0.90582978  0.25194579  1
  B  B14  1  0.37574163  0.90582978  0.24805421  1
  B  B15  1  0.12425837  0.09417022  0.74805421  1
  N  N16  1  0.16110053  0.52696445  0.10051426  1
  N  N17  1  0.33889947  0.47303555  0.60051426  1
  N  N18  1  0.83889947  0.47303555  0.89948574  1
  N  N19  1  0.66110053  0.52696445  0.39948574  1
  N  N20  1  0.29147592  0.71224820  0.85955286  1
  N  N21  1  0.20852408  0.28775180  0.35955286  1
  N  N22  1  0.70852408  0.28775180  0.14044714  1
  N  N23  1  0.79147592  0.71224820  0.64044714  1
  N  N24  1  0.95392512  0.71241870  0.86171397  1
  N  N25  1  0.54607488  0.28758130  0.36171397  1
  N  N26  1  0.04607488  0.28758130  0.13828603  1
  N  N27  1  0.45392512  0.71241870  0.63828603  1
  N  N28  1  0.62226897  0.94433537  0.76446415  1
  N  N29  1  0.87773103  0.05566463  0.26446415  1
  N  N30  1  0.37773103  0.05566463  0.23553585  1
  N  N31  1  0.12226897  0.94433537  0.73553585  1
  N  N32  1  0.58839324  0.52734982  0.10901536  1
  N  N33  1  0.91160676  0.47265018  0.60901536  1
  N  N34  1  0.41160676  0.47265018  0.89098464  1
  N  N35  1  0.08839324  0.52734982  0.39098464  1
  N  N36  1  0.87804335  0.83874842  0.16198617  1
  N  N37  1  0.62195665  0.16125158  0.66198617  1
  N  N38  1  0.12195665  0.16125158  0.83801383  1
  N  N39  1  0.37804335  0.83874842  0.33801383  1
  N  N40  1  0.36808761  0.15602217  0.02073376  1
  N  N41  1  0.13191239  0.84397783  0.52073376  1
  N  N42  1  0.63191239  0.84397783  0.97926624  1
  N  N43  1  0.86808761  0.15602217  0.47926624  1
  N  N44  1  0.37201465  0.81524439  0.16733202  1
  N  N45  1  0.12798535  0.18475561  0.66733202  1
  N  N46  1  0.62798535  0.18475561  0.83266798  1
  N  N47  1  0.87201465  0.81524439  0.33266798  1
  N  N48  1  0.87629341  0.13739223  0.02912319  1
  N  N49  1  0.62370659  0.86260777  0.52912319  1
  N  N50  1  0.12370659  0.86260777  0.97087681  1
  N  N51  1  0.37629341  0.13739223  0.47087681  1
  N  N52  1  0.87844551  0.50668268  0.18612558  1
  N  N53  1  0.62155449  0.49331732  0.68612558  1
  N  N54  1  0.12155449  0.49331732  0.81387442  1
  N  N55  1  0.37844551  0.50668268  0.31387442  1
  La  La56  1  0.62174322  0.70215577  0.80621167  1
  La  La57  1  0.87825678  0.29784423  0.30621167  1
  La  La58  1  0.37825678  0.29784423  0.19378833  1
  La  La59  1  0.12174322  0.70215577  0.69378833  1
  La  La60  1  0.87036605  0.98907344  0.88836732  1
  La  La61  1  0.62963395  0.01092656  0.38836732  1
  La  La62  1  0.12963395  0.01092656  0.11163268  1
  La  La63  1  0.37036605  0.98907344  0.61163268  1
  La  La64  1  0.86192630  0.68217636  0.03423248  1
  La  La65  1  0.63807370  0.31782364  0.53423248  1
  La  La66  1  0.13807370  0.31782364  0.96576752  1
  La  La67  1  0.36192630  0.68217636  0.46576752  1
  La  La68  1  0.37658313  0.99549941  0.89030969  1
  La  La69  1  0.12341687  0.00450059  0.39030969  1
  La  La70  1  0.62341687  0.00450059  0.10969031  1
  La  La71  1  0.87658313  0.99549941  0.60969031  1
  La  La72  1  0.12275835  0.67336616  0.24692400  1
  La  La73  1  0.37724165  0.32663384  0.74692400  1
  La  La74  1  0.87724165  0.32663384  0.75307600  1
  La  La75  1  0.62275835  0.67336616  0.25307600  1
  La  La76  1  0.38265616  0.67459453  0.03047228  1
  La  La77  1  0.11734384  0.32540547  0.53047228  1
  La  La78  1  0.61734384  0.32540547  0.96952772  1
  La  La79  1  0.88265616  0.67459453  0.46952772  1
