# generated using pymatgen
data_Na4SeO5
_symmetry_space_group_name_H-M   'P 1'
_cell_length_a   5.67669630
_cell_length_b   10.00399300
_cell_length_c   10.02774403
_cell_angle_alpha   113.34605129
_cell_angle_beta   96.28951588
_cell_angle_gamma   95.75564351
_symmetry_Int_Tables_number   1
_chemical_formula_structural   Na4SeO5
_chemical_formula_sum   'Na16 Se4 O20'
_cell_volume   513.21792777
_cell_formula_units_Z   4
loop_
 _symmetry_equiv_pos_site_id
 _symmetry_equiv_pos_as_xyz
  1  'x, y, z'
loop_
 _atom_site_type_symbol
 _atom_site_label
 _atom_site_symmetry_multiplicity
 _atom_site_fract_x
 _atom_site_fract_y
 _atom_site_fract_z
 _atom_site_occupancy
  O  O0  1  0.21153811  0.60878478  0.19066523  1
  O  O1  1  0.05170378  0.35096793  0.34211585  1
  O  O2  1  0.94829622  0.64903207  0.65788415  1
  O  O3  1  0.78846189  0.39121522  0.80933477  1
  O  O4  1  0.88339265  0.05401649  0.22786492  1
  O  O5  1  0.11660735  0.94598351  0.77213508  1
  O  O6  1  0.86570217  0.22682388  0.07454927  1
  O  O7  1  0.13429783  0.77317612  0.92545073  1
  O  O8  1  0.58921567  0.54683151  0.29290318  1
  O  O9  1  0.41078433  0.45316849  0.70709682  1
  O  O10  1  0.78777248  0.80969402  0.39704708  1
  O  O11  1  0.21222752  0.19030598  0.60295292  1
  O  O12  1  0.61992405  0.68271328  0.10330474  1
  O  O13  1  0.38007595  0.31728672  0.89669526  1
  O  O14  1  0.32475702  0.72866175  0.58471699  1
  O  O15  1  0.67524298  0.27133825  0.41528301  1
  O  O16  1  0.39881194  0.87685298  0.31662624  1
  O  O17  1  0.60118806  0.12314702  0.68337376  1
  O  O18  1  0.48030089  0.15754378  0.15247908  1
  O  O19  1  0.51969911  0.84245622  0.84752092  1
  Na  Na20  1  0.25321993  0.94356020  0.54542803  1
  Na  Na21  1  0.75597865  0.44770696  0.06246788  1
  Na  Na22  1  0.24402135  0.55229304  0.93753212  1
  Na  Na23  1  0.74678007  0.05643980  0.45457197  1
  Na  Na24  1  0.00000000  0.00000000  0.00000000  1
  Na  Na25  1  0.50000000  0.50000000  0.50000000  1
  Na  Na26  1  0.49445401  0.90057080  0.09499426  1
  Na  Na27  1  0.50554599  0.09942920  0.90500574  1
  Na  Na28  1  -0.00164201  0.60244283  0.40024716  1
  Na  Na29  1  1.00164201  0.39755717  0.59975284  1
  Na  Na30  1  0.72007746  0.83348954  0.63747438  1
  Na  Na31  1  0.27992254  0.16651046  0.36252562  1
  Na  Na32  1  0.00669262  0.80618428  0.20290028  1
  Na  Na33  1  0.99330738  0.19381572  0.79709972  1
  Na  Na34  1  0.73139084  0.64055999  0.84266432  1
  Na  Na35  1  0.26860916  0.35944001  0.15733568  1
  Se  Se36  1  0.48348916  0.29489833  0.73296226  1
  Se  Se37  1  0.51651084  0.70510167  0.26703774  1
  Se  Se38  1  0.21274563  0.77963907  0.75526061  1
  Se  Se39  1  0.78725437  0.22036093  0.24473939  1
