# generated using pymatgen
data_Tl2Au4S3
_symmetry_space_group_name_H-M   'P 1'
_cell_length_a   4.88507678
_cell_length_b   7.67382142
_cell_length_c   12.48051883
_cell_angle_alpha   90.00000000
_cell_angle_beta   90.00000000
_cell_angle_gamma   90.00000000
_symmetry_Int_Tables_number   1
_chemical_formula_structural   Tl2Au4S3
_chemical_formula_sum   'Tl4 Au8 S6'
_cell_volume   467.85979076
_cell_formula_units_Z   2
loop_
 _symmetry_equiv_pos_site_id
 _symmetry_equiv_pos_as_xyz
  1  'x, y, z'
loop_
 _atom_site_type_symbol
 _atom_site_label
 _atom_site_symmetry_multiplicity
 _atom_site_fract_x
 _atom_site_fract_y
 _atom_site_fract_z
 _atom_site_occupancy
  S  S0  1  0.18151647  0.75000000  0.75000000  1
  S  S1  1  0.75164524  0.75000000  0.44745210  1
  S  S2  1  0.75164524  0.75000000  0.05254790  1
  S  S3  1  0.24835476  0.25000000  0.94745210  1
  S  S4  1  0.81848353  0.25000000  0.25000000  1
  S  S5  1  0.24835476  0.25000000  0.55254790  1
  Au  Au6  1  0.00000000  0.50000000  0.00000000  1
  Au  Au7  1  0.00000000  0.00000000  0.00000000  1
  Au  Au8  1  0.00000000  0.00000000  0.50000000  1
  Au  Au9  1  0.55157824  0.25000000  0.40607275  1
  Au  Au10  1  0.44842176  0.75000000  0.59392725  1
  Au  Au11  1  0.55157824  0.25000000  0.09392725  1
  Au  Au12  1  0.00000000  0.50000000  0.50000000  1
  Au  Au13  1  0.44842176  0.75000000  0.90607275  1
  Tl  Tl14  1  0.74666358  0.02274768  0.75000000  1
  Tl  Tl15  1  0.74666358  0.47725232  0.75000000  1
  Tl  Tl16  1  0.25333642  0.97725232  0.25000000  1
  Tl  Tl17  1  0.25333642  0.52274768  0.25000000  1
