# generated using pymatgen
data_Ir(Cl2F3)2
_symmetry_space_group_name_H-M   'P 1'
_cell_length_a   5.46532898
_cell_length_b   7.74403100
_cell_length_c   11.41598554
_cell_angle_alpha   90.00000000
_cell_angle_beta   90.00000000
_cell_angle_gamma   91.92840634
_symmetry_Int_Tables_number   1
_chemical_formula_structural   Ir(Cl2F3)2
_chemical_formula_sum   'Ir2 Cl8 F12'
_cell_volume   482.89284651
_cell_formula_units_Z   2
loop_
 _symmetry_equiv_pos_site_id
 _symmetry_equiv_pos_as_xyz
  1  'x, y, z'
loop_
 _atom_site_type_symbol
 _atom_site_label
 _atom_site_symmetry_multiplicity
 _atom_site_fract_x
 _atom_site_fract_y
 _atom_site_fract_z
 _atom_site_occupancy
  F  F0  1  0.36897559  0.29584763  0.07039056  1
  F  F1  1  0.63102441  0.20415237  0.57039056  1
  F  F2  1  0.63102441  0.70415237  0.92960944  1
  F  F3  1  0.36897559  0.79584763  0.42960944  1
  F  F4  1  0.61042311  0.36890626  0.87086176  1
  F  F5  1  0.38957689  0.13109374  0.37086176  1
  F  F6  1  0.38957689  0.63109374  0.12913824  1
  F  F7  1  0.61042311  0.86890626  0.62913824  1
  F  F8  1  0.79729077  0.46780061  0.07994420  1
  F  F9  1  0.20270923  0.03219939  0.57994420  1
  F  F10  1  0.79729077  0.96780061  0.42005580  1
  F  F11  1  0.20270923  0.53219939  0.92005580  1
  Cl  Cl12  1  0.23933774  0.96082385  0.85612020  1
  Cl  Cl13  1  0.76066226  0.53917615  0.35612020  1
  Cl  Cl14  1  0.76066226  0.03917615  0.14387980  1
  Cl  Cl15  1  0.23933774  0.46082385  0.64387980  1
  Cl  Cl16  1  0.96258788  0.11785225  0.84834512  1
  Cl  Cl17  1  0.03741212  0.38214775  0.34834512  1
  Cl  Cl18  1  0.03741212  0.88214775  0.15165488  1
  Cl  Cl19  1  0.96258788  0.61785225  0.65165488  1
  Ir  Ir20  1  0.50000000  0.50000000  0.00000000  1
  Ir  Ir21  1  0.50000000  0.00000000  0.50000000  1
