# generated using pymatgen
data_Be2Te7Cl6
_symmetry_space_group_name_H-M   'P 1'
_cell_length_a   5.53118672
_cell_length_b   10.33191621
_cell_length_c   16.82092867
_cell_angle_alpha   90.00000000
_cell_angle_beta   90.00000000
_cell_angle_gamma   90.00000000
_symmetry_Int_Tables_number   1
_chemical_formula_structural   Be2Te7Cl6
_chemical_formula_sum   'Be4 Te14 Cl12'
_cell_volume   961.27835648
_cell_formula_units_Z   2
loop_
 _symmetry_equiv_pos_site_id
 _symmetry_equiv_pos_as_xyz
  1  'x, y, z'
loop_
 _atom_site_type_symbol
 _atom_site_label
 _atom_site_symmetry_multiplicity
 _atom_site_fract_x
 _atom_site_fract_y
 _atom_site_fract_z
 _atom_site_occupancy
  Be  Be0  1  0.00000000  0.50000000  0.41930904  1
  Be  Be1  1  0.50000000  0.00000000  0.08069096  1
  Be  Be2  1  0.00000000  0.50000000  0.58069096  1
  Be  Be3  1  0.50000000  0.00000000  0.91930904  1
  Cl  Cl4  1  0.34744743  0.86129947  0.14673211  1
  Cl  Cl5  1  0.84744743  0.63870053  0.35326789  1
  Cl  Cl6  1  0.15255257  0.36129947  0.35326789  1
  Cl  Cl7  1  0.65255257  0.13870053  0.14673211  1
  Cl  Cl8  1  0.65255257  0.13870053  0.85326789  1
  Cl  Cl9  1  0.15255257  0.36129947  0.64673211  1
  Cl  Cl10  1  0.84744743  0.63870053  0.64673211  1
  Cl  Cl11  1  0.34744743  0.86129947  0.85326789  1
  Cl  Cl12  1  0.26711473  0.08528016  0.00000000  1
  Cl  Cl13  1  0.76711473  0.41471984  0.50000000  1
  Cl  Cl14  1  0.73288527  0.91471984  0.00000000  1
  Cl  Cl15  1  0.23288527  0.58528016  0.50000000  1
  Te  Te16  1  0.50000000  0.50000000  0.76077270  1
  Te  Te17  1  0.00000000  0.00000000  0.73922730  1
  Te  Te18  1  0.50000000  0.50000000  0.23922730  1
  Te  Te19  1  0.00000000  0.00000000  0.26077270  1
  Te  Te20  1  0.32833384  0.89614241  0.62857478  1
  Te  Te21  1  0.82833384  0.60385759  0.87142522  1
  Te  Te22  1  0.17166616  0.39614241  0.87142522  1
  Te  Te23  1  0.67166616  0.10385759  0.62857478  1
  Te  Te24  1  0.67166616  0.10385759  0.37142522  1
  Te  Te25  1  0.17166616  0.39614241  0.12857478  1
  Te  Te26  1  0.82833384  0.60385759  0.12857478  1
  Te  Te27  1  0.32833384  0.89614241  0.37142522  1
  Te  Te28  1  0.50000000  0.50000000  0.00000000  1
  Te  Te29  1  0.00000000  0.00000000  0.50000000  1
