# generated using pymatgen
data_Pr(ClO4)3
_symmetry_space_group_name_H-M   'P 1'
_cell_length_a   9.55786061
_cell_length_b   9.55786061
_cell_length_c   5.90392248
_cell_angle_alpha   90.00000000
_cell_angle_beta   90.00000000
_cell_angle_gamma   119.99999999
_symmetry_Int_Tables_number   1
_chemical_formula_structural   Pr(ClO4)3
_chemical_formula_sum   'Pr2 Cl6 O24'
_cell_volume   467.08149686
_cell_formula_units_Z   2
loop_
 _symmetry_equiv_pos_site_id
 _symmetry_equiv_pos_as_xyz
  1  'x, y, z'
loop_
 _atom_site_type_symbol
 _atom_site_label
 _atom_site_symmetry_multiplicity
 _atom_site_fract_x
 _atom_site_fract_y
 _atom_site_fract_z
 _atom_site_occupancy
  O  O0  1  0.80675164  0.78519672  0.75000000  1
  O  O1  1  0.02155492  0.80675164  0.25000000  1
  O  O2  1  0.78519672  0.97844508  0.25000000  1
  O  O3  1  0.21480328  0.02155492  0.75000000  1
  O  O4  1  0.97844508  0.19324836  0.75000000  1
  O  O5  1  0.19324836  0.21480328  0.25000000  1
  O  O6  1  0.80393082  0.25943178  0.54954101  1
  O  O7  1  0.54449904  0.80393082  0.04954101  1
  O  O8  1  0.46593013  0.43741509  0.25000000  1
  O  O9  1  0.02851505  0.46593013  0.75000000  1
  O  O10  1  0.43741509  0.97148495  0.75000000  1
  O  O11  1  0.56258491  0.02851505  0.25000000  1
  O  O12  1  0.97148495  0.53406987  0.25000000  1
  O  O13  1  0.53406987  0.56258491  0.75000000  1
  O  O14  1  0.80393082  0.25943178  0.95045899  1
  O  O15  1  0.54449904  0.80393082  0.45045899  1
  O  O16  1  0.25943178  0.45550096  0.45045899  1
  O  O17  1  0.74056822  0.54449904  0.95045899  1
  O  O18  1  0.45550096  0.19606918  0.95045899  1
  O  O19  1  0.19606918  0.74056822  0.45045899  1
  O  O20  1  0.19606918  0.74056822  0.04954101  1
  O  O21  1  0.45550096  0.19606918  0.54954101  1
  O  O22  1  0.74056822  0.54449904  0.54954101  1
  O  O23  1  0.25943178  0.45550096  0.04954101  1
  Cl  Cl24  1  0.70709469  0.61458737  0.75000000  1
  Cl  Cl25  1  0.09250732  0.70709469  0.25000000  1
  Cl  Cl26  1  0.61458737  0.90749268  0.25000000  1
  Cl  Cl27  1  0.38541263  0.09250732  0.75000000  1
  Cl  Cl28  1  0.90749268  0.29290531  0.75000000  1
  Cl  Cl29  1  0.29290531  0.38541263  0.25000000  1
  Pr  Pr30  1  0.33333333  0.66666667  0.75000000  1
  Pr  Pr31  1  0.66666667  0.33333333  0.25000000  1
