# generated using pymatgen
data_MgB9N
_symmetry_space_group_name_H-M   'P 1'
_cell_length_a   7.39770450
_cell_length_b   7.39770449
_cell_length_c   7.39770449
_cell_angle_alpha   43.60080160
_cell_angle_beta   43.60080162
_cell_angle_gamma   43.60080162
_symmetry_Int_Tables_number   1
_chemical_formula_structural   MgB9N
_chemical_formula_sum   'Mg2 B18 N2'
_cell_volume   174.73470850
_cell_formula_units_Z   2
loop_
 _symmetry_equiv_pos_site_id
 _symmetry_equiv_pos_as_xyz
  1  'x, y, z'
loop_
 _atom_site_type_symbol
 _atom_site_label
 _atom_site_symmetry_multiplicity
 _atom_site_fract_x
 _atom_site_fract_y
 _atom_site_fract_z
 _atom_site_occupancy
  B  B0  1  0.85781089  0.17578335  0.85781089  1
  B  B1  1  0.17578335  0.85781089  0.85781089  1
  B  B2  1  0.85781089  0.85781089  0.17578335  1
  B  B3  1  0.14218911  0.82421665  0.14218911  1
  B  B4  1  0.33910087  0.33910087  0.86998556  1
  B  B5  1  0.86998556  0.33910087  0.33910087  1
  B  B6  1  0.33910087  0.86998556  0.33910087  1
  B  B7  1  0.66089913  0.66089913  0.13001444  1
  B  B8  1  0.13001444  0.66089913  0.66089913  1
  B  B9  1  0.66089913  0.13001444  0.66089913  1
  B  B10  1  0.32471808  0.32471808  0.64782164  1
  B  B11  1  0.64782164  0.32471808  0.32471808  1
  B  B12  1  0.32471808  0.64782164  0.32471808  1
  B  B13  1  0.67528192  0.67528192  0.35217836  1
  B  B14  1  0.35217836  0.67528192  0.67528192  1
  B  B15  1  0.67528192  0.35217836  0.67528192  1
  B  B16  1  0.14218911  0.14218911  0.82421665  1
  B  B17  1  0.82421665  0.14218911  0.14218911  1
  N  N18  1  0.80052346  0.80052346  0.80052346  1
  N  N19  1  0.19947654  0.19947654  0.19947654  1
  Mg  Mg20  1  0.69560630  0.69560630  0.69560630  1
  Mg  Mg21  1  0.30439370  0.30439370  0.30439370  1
