# generated using pymatgen
data_AsCl3O
_symmetry_space_group_name_H-M   'P 1'
_cell_length_a   6.70106324
_cell_length_b   8.51237172
_cell_length_c   10.92701741
_cell_angle_alpha   111.80928029
_cell_angle_beta   90.00000000
_cell_angle_gamma   90.00000000
_symmetry_Int_Tables_number   1
_chemical_formula_structural   AsCl3O
_chemical_formula_sum   'As4 Cl12 O4'
_cell_volume   578.68612364
_cell_formula_units_Z   4
loop_
 _symmetry_equiv_pos_site_id
 _symmetry_equiv_pos_as_xyz
  1  'x, y, z'
loop_
 _atom_site_type_symbol
 _atom_site_label
 _atom_site_symmetry_multiplicity
 _atom_site_fract_x
 _atom_site_fract_y
 _atom_site_fract_z
 _atom_site_occupancy
  O  O0  1  0.67699823  0.52108340  0.99320481  1
  O  O1  1  0.17699823  0.47891660  0.50679519  1
  O  O2  1  0.32300177  0.47891660  0.00679519  1
  O  O3  1  0.82300177  0.52108340  0.49320481  1
  Cl  Cl4  1  0.03552072  0.34127149  0.69740951  1
  Cl  Cl5  1  0.53552072  0.65872851  0.80259049  1
  Cl  Cl6  1  0.96447928  0.65872851  0.30259049  1
  Cl  Cl7  1  0.46447928  0.34127149  0.19740951  1
  Cl  Cl8  1  0.06897708  0.13556200  0.34549991  1
  Cl  Cl9  1  0.56897708  0.86443800  0.15450009  1
  Cl  Cl10  1  0.93102292  0.86443800  0.65450009  1
  Cl  Cl11  1  0.43102292  0.13556200  0.84549991  1
  Cl  Cl12  1  0.65473294  0.21823343  0.50497334  1
  Cl  Cl13  1  0.15473294  0.78176657  0.99502666  1
  Cl  Cl14  1  0.34526706  0.78176657  0.49502666  1
  Cl  Cl15  1  0.84526706  0.21823343  0.00497334  1
  As  As16  1  0.55481972  0.34513437  0.00901060  1
  As  As17  1  0.05481972  0.65486563  0.49098940  1
  As  As18  1  0.44518028  0.65486563  0.99098940  1
  As  As19  1  0.94518028  0.34513437  0.50901060  1
