# generated using pymatgen
data_Li3CuP2O7
_symmetry_space_group_name_H-M   'P 1'
_cell_length_a   5.15523805
_cell_length_b   7.90351217
_cell_length_c   9.01740630
_cell_angle_alpha   111.44016640
_cell_angle_beta   92.30109845
_cell_angle_gamma   70.59967898
_symmetry_Int_Tables_number   1
_chemical_formula_structural   Li3CuP2O7
_chemical_formula_sum   'Li6 Cu2 P4 O14'
_cell_volume   321.18231436
_cell_formula_units_Z   2
loop_
 _symmetry_equiv_pos_site_id
 _symmetry_equiv_pos_as_xyz
  1  'x, y, z'
loop_
 _atom_site_type_symbol
 _atom_site_label
 _atom_site_symmetry_multiplicity
 _atom_site_fract_x
 _atom_site_fract_y
 _atom_site_fract_z
 _atom_site_occupancy
  Li  Li0  1  0.19676837  0.86394609  0.54606160  1
  Li  Li1  1  0.52433034  0.13334068  0.97407278  1
  Li  Li2  1  0.82801274  0.18655281  0.80170365  1
  Li  Li3  1  0.17199127  0.81344225  0.19829605  1
  Li  Li4  1  0.47567006  0.86665951  0.02592829  1
  Li  Li5  1  0.80323207  0.13605436  0.45393877  1
  Cu  Cu6  1  0.50000201  0.49999568  0.49999642  1
  Cu  Cu7  1  0.49999644  0.49999657  0.99999718  1
  P  P8  1  0.02920707  0.71743056  0.82010551  1
  P  P9  1  0.24612305  0.28718024  0.68033151  1
  P  P10  1  0.75387696  0.71282015  0.31966994  1
  P  P11  1  0.97079368  0.28256925  0.17989409  1
  O  O12  1  0.20991350  0.72647520  0.96442846  1
  O  O13  1  0.73545167  0.85706731  0.87785063  1
  O  O14  1  0.16314526  0.73730546  0.68332409  1
  O  O15  1  0.42178189  0.25375894  0.81616640  1
  O  O16  1  0.00821179  0.49973722  0.75630233  1
  O  O17  1  0.57746085  0.72091086  0.45573558  1
  O  O18  1  0.07332781  0.15174173  0.62985859  1
  O  O19  1  0.92667165  0.84825819  0.37014175  1
  O  O20  1  0.42253880  0.27908905  0.54426447  1
  O  O21  1  0.99178803  0.50026279  0.24369793  1
  O  O22  1  0.57821884  0.74624159  0.18383332  1
  O  O23  1  0.83685462  0.26269522  0.31667822  1
  O  O24  1  0.26454873  0.14293314  0.12215038  1
  O  O25  1  0.79008650  0.27352514  0.03557208  1
