# generated using pymatgen
data_LiMn3(BO3)3
_symmetry_space_group_name_H-M   'P 1'
_cell_length_a   9.27090202
_cell_length_b   7.98365982
_cell_length_c   5.92584551
_cell_angle_alpha   80.67521776
_cell_angle_beta   78.18385073
_cell_angle_gamma   115.63867595
_symmetry_Int_Tables_number   1
_chemical_formula_structural   LiMn3(BO3)3
_chemical_formula_sum   'Li2 Mn6 B6 O18'
_cell_volume   371.10222499
_cell_formula_units_Z   2
loop_
 _symmetry_equiv_pos_site_id
 _symmetry_equiv_pos_as_xyz
  1  'x, y, z'
loop_
 _atom_site_type_symbol
 _atom_site_label
 _atom_site_symmetry_multiplicity
 _atom_site_fract_x
 _atom_site_fract_y
 _atom_site_fract_z
 _atom_site_occupancy
  Li  Li0  1  0.05664139  0.17095116  0.50900710  1
  Li  Li1  1  0.38903721  0.83446523  0.84163915  1
  Mn  Mn2  1  0.26586507  0.14843492  0.08984199  1
  Mn  Mn3  1  0.41918614  0.20690306  0.52506463  1
  Mn  Mn4  1  0.06057787  0.52196547  0.22098196  1
  Mn  Mn5  1  0.92619366  0.48541225  0.76736486  1
  Mn  Mn6  1  0.60042071  0.80442805  0.44695047  1
  Mn  Mn7  1  0.74316798  0.83887368  0.90555911  1
  B  B8  1  0.93264903  0.13948580  0.12111337  1
  B  B9  1  0.72505517  0.18438567  0.57166490  1
  B  B10  1  0.38668209  0.52951214  0.22108418  1
  B  B11  1  0.60982386  0.46945591  0.77773217  1
  B  B12  1  0.27246220  0.81263511  0.44990087  1
  B  B13  1  0.07319282  0.86769257  0.85997775  1
  O  O14  1  0.02137605  0.07886063  0.23172323  1
  O  O15  1  0.77440903  0.00847256  0.11334752  1
  O  O16  1  0.65339364  0.98906627  0.68371205  1
  O  O17  1  0.30725036  0.33409246  0.34889093  1
  O  O18  1  0.64868502  0.26424063  0.45591262  1
  O  O19  1  0.30512090  0.60810190  0.11026998  1
  O  O20  1  0.89802072  0.30714294  0.55355738  1
  O  O21  1  0.55602013  0.64289311  0.19526333  1
  O  O22  1  0.99304531  0.66678464  0.96236409  1
  O  O23  1  0.98472183  0.33649484  0.03039526  1
  O  O24  1  0.44862379  0.35704963  0.76257513  1
  O  O25  1  0.10645946  0.68424364  0.45073513  1
  O  O26  1  0.68776951  0.38265208  0.87849840  1
  O  O27  1  0.35571775  0.74244831  0.56015020  1
  O  O28  1  0.67813074  0.66937180  0.69714507  1
  O  O29  1  0.33338013  0.01069229  0.34842423  1
  O  O30  1  0.24056267  0.97191435  0.84945007  1
  O  O31  1  0.98972478  0.95508093  0.77253086  1
