# generated using pymatgen
data_La3AsI3
_symmetry_space_group_name_H-M   'P 1'
_cell_length_a   10.97376256
_cell_length_b   10.97376256
_cell_length_c   10.97376256
_cell_angle_alpha   109.47122062
_cell_angle_beta   109.47122062
_cell_angle_gamma   109.47122065
_symmetry_Int_Tables_number   1
_chemical_formula_structural   La3AsI3
_chemical_formula_sum   'La12 As4 I12'
_cell_volume   1017.29002599
_cell_formula_units_Z   4
loop_
 _symmetry_equiv_pos_site_id
 _symmetry_equiv_pos_as_xyz
  1  'x, y, z'
loop_
 _atom_site_type_symbol
 _atom_site_label
 _atom_site_symmetry_multiplicity
 _atom_site_fract_x
 _atom_site_fract_y
 _atom_site_fract_z
 _atom_site_occupancy
  As  As0  1  0.50000000  0.00000000  0.75000000  1
  As  As1  1  0.00000000  0.75000000  0.50000000  1
  As  As2  1  0.75000000  0.50000000  0.00000000  1
  As  As3  1  0.75000000  0.75000000  0.75000000  1
  I  I4  1  0.48261903  0.49130951  0.24130951  1
  I  I5  1  0.24130951  0.48261903  0.49130951  1
  I  I6  1  0.24130951  0.25869049  0.75000000  1
  I  I7  1  0.49130951  0.75000000  0.00869049  1
  I  I8  1  0.49130951  0.24130951  0.48261903  1
  I  I9  1  0.75000000  0.24130951  0.25869049  1
  I  I10  1  0.75000000  0.00869049  0.49130951  1
  I  I11  1  0.00869049  0.49130951  0.75000000  1
  I  I12  1  0.01738097  0.25869049  0.00869049  1
  I  I13  1  0.25869049  0.75000000  0.24130951  1
  I  I14  1  0.00869049  0.01738097  0.25869049  1
  I  I15  1  0.25869049  0.00869049  0.01738097  1
  La  La16  1  0.25000000  0.98465657  0.51534343  1
  La  La17  1  0.76534343  0.73465657  0.25000000  1
  La  La18  1  0.73465657  0.25000000  0.76534343  1
  La  La19  1  0.98465657  0.96931315  0.73465657  1
  La  La20  1  0.51534343  0.76534343  0.53068685  1
  La  La21  1  0.53068685  0.51534343  0.76534343  1
  La  La22  1  0.96931315  0.73465657  0.98465657  1
  La  La23  1  0.73465657  0.98465657  0.96931315  1
  La  La24  1  0.98465657  0.51534343  0.25000000  1
  La  La25  1  0.51534343  0.25000000  0.98465657  1
  La  La26  1  0.76534343  0.53068685  0.51534343  1
  La  La27  1  0.25000000  0.76534343  0.73465657  1
