# generated using pymatgen
data_ZnNi10P3
_symmetry_space_group_name_H-M   'P 1'
_cell_length_a   7.64932883
_cell_length_b   7.64932883
_cell_length_c   9.34364541
_cell_angle_alpha   90.00000000
_cell_angle_beta   90.00000000
_cell_angle_gamma   119.99999996
_symmetry_Int_Tables_number   1
_chemical_formula_structural   ZnNi10P3
_chemical_formula_sum   'Zn3 Ni30 P9'
_cell_volume   473.47128167
_cell_formula_units_Z   3
loop_
 _symmetry_equiv_pos_site_id
 _symmetry_equiv_pos_as_xyz
  1  'x, y, z'
loop_
 _atom_site_type_symbol
 _atom_site_label
 _atom_site_symmetry_multiplicity
 _atom_site_fract_x
 _atom_site_fract_y
 _atom_site_fract_z
 _atom_site_occupancy
  P  P0  1  0.83483917  0.16516083  0.69105075  1
  P  P1  1  0.83483917  0.66967833  0.69105075  1
  P  P2  1  0.33032167  0.16516083  0.69105075  1
  P  P3  1  0.16516083  0.83483917  0.30894925  1
  P  P4  1  0.50000000  0.50000000  0.00000000  1
  P  P5  1  0.00000000  0.50000000  0.00000000  1
  P  P6  1  0.50000000  0.00000000  0.00000000  1
  P  P7  1  0.66967833  0.83483917  0.30894925  1
  P  P8  1  0.16516083  0.33032167  0.30894925  1
  Ni  Ni9  1  0.00000000  0.00000000  0.62123384  1
  Ni  Ni10  1  0.00000000  0.34054439  0.50000000  1
  Ni  Ni11  1  0.65945561  0.65945561  0.50000000  1
  Ni  Ni12  1  0.65945561  0.00000000  0.50000000  1
  Ni  Ni13  1  0.00000000  0.65945561  0.50000000  1
  Ni  Ni14  1  0.34054439  0.34054439  0.50000000  1
  Ni  Ni15  1  0.18266724  0.81733276  0.06639742  1
  Ni  Ni16  1  0.18266724  0.36533448  0.06639742  1
  Ni  Ni17  1  0.63466552  0.81733276  0.06639742  1
  Ni  Ni18  1  0.36533448  0.18266724  0.93360258  1
  Ni  Ni19  1  0.34054439  0.00000000  0.50000000  1
  Ni  Ni20  1  0.81733276  0.18266724  0.93360258  1
  Ni  Ni21  1  0.14001803  0.85998197  0.79484749  1
  Ni  Ni22  1  0.14001803  0.28003605  0.79484749  1
  Ni  Ni23  1  0.71996395  0.85998197  0.79484749  1
  Ni  Ni24  1  0.28003605  0.14001803  0.20515251  1
  Ni  Ni25  1  0.85998197  0.71996395  0.20515251  1
  Ni  Ni26  1  0.85998197  0.14001803  0.20515251  1
  Ni  Ni27  1  0.49135883  0.50864117  0.24050568  1
  Ni  Ni28  1  0.49135883  0.98271767  0.24050568  1
  Ni  Ni29  1  0.01728233  0.50864117  0.24050568  1
  Ni  Ni30  1  0.98271767  0.49135883  0.75949432  1
  Ni  Ni31  1  0.50864117  0.01728233  0.75949432  1
  Ni  Ni32  1  0.50864117  0.49135883  0.75949432  1
  Ni  Ni33  1  0.66666667  0.33333333  0.09748422  1
  Ni  Ni34  1  0.33333333  0.66666667  0.90251578  1
  Ni  Ni35  1  0.66666667  0.33333333  0.61408966  1
  Ni  Ni36  1  0.33333333  0.66666667  0.38591034  1
  Ni  Ni37  1  0.81733276  0.63466552  0.93360258  1
  Ni  Ni38  1  0.00000000  0.00000000  0.37876616  1
  Zn  Zn39  1  0.66666667  0.33333333  0.36017828  1
  Zn  Zn40  1  0.33333333  0.66666667  0.63982172  1
  Zn  Zn41  1  0.00000000  0.00000000  0.00000000  1
