# generated using pymatgen
data_K5Sb4
_symmetry_space_group_name_H-M   'P 1'
_cell_length_a   5.53623831
_cell_length_b   6.86553021
_cell_length_c   11.16903100
_cell_angle_alpha   74.28132210
_cell_angle_beta   75.65034013
_cell_angle_gamma   66.22219214
_symmetry_Int_Tables_number   1
_chemical_formula_structural   K5Sb4
_chemical_formula_sum   'K5 Sb4'
_cell_volume   369.30386775
_cell_formula_units_Z   1
loop_
 _symmetry_equiv_pos_site_id
 _symmetry_equiv_pos_as_xyz
  1  'x, y, z'
loop_
 _atom_site_type_symbol
 _atom_site_label
 _atom_site_symmetry_multiplicity
 _atom_site_fract_x
 _atom_site_fract_y
 _atom_site_fract_z
 _atom_site_occupancy
  K  K0  1  0.89960629  0.80945191  0.39133552  1
  K  K1  1  0.10039371  0.19054809  0.60866448  1
  K  K2  1  0.24522632  0.34360998  0.16593738  1
  K  K3  1  0.75477368  0.65639002  0.83406262  1
  K  K4  1  0.00000000  0.00000000  0.00000000  1
  Sb  Sb5  1  0.54391188  0.73628046  0.17589579  1
  Sb  Sb6  1  0.45608812  0.26371954  0.82410421  1
  Sb  Sb7  1  0.60475151  0.39884986  0.39164713  1
  Sb  Sb8  1  0.39524849  0.60115014  0.60835287  1
