# generated using pymatgen
data_Tb16B4Br23
_symmetry_space_group_name_H-M   'P 1'
_cell_length_a   10.80129840
_cell_length_b   10.80129839
_cell_length_c   12.16386644
_cell_angle_alpha   78.18028330
_cell_angle_beta   78.18028328
_cell_angle_gamma   68.62723473
_symmetry_Int_Tables_number   1
_chemical_formula_structural   Tb16B4Br23
_chemical_formula_sum   'Tb16 B4 Br23'
_cell_volume   1280.25716972
_cell_formula_units_Z   1
loop_
 _symmetry_equiv_pos_site_id
 _symmetry_equiv_pos_as_xyz
  1  'x, y, z'
loop_
 _atom_site_type_symbol
 _atom_site_label
 _atom_site_symmetry_multiplicity
 _atom_site_fract_x
 _atom_site_fract_y
 _atom_site_fract_z
 _atom_site_occupancy
  B  B0  1  0.66662223  0.66662223  0.77288889  1
  B  B1  1  0.33337777  0.33337777  0.22711111  1
  B  B2  1  0.66919180  0.33080820  0.00000000  1
  B  B3  1  0.33080820  0.66919180  0.00000000  1
  Br  Br4  1  0.00000000  0.00000000  0.00000000  1
  Br  Br5  1  0.98558681  0.98558681  0.69279601  1
  Br  Br6  1  0.01441319  0.01441319  0.30720399  1
  Br  Br7  1  0.33321637  0.33321637  0.88717970  1
  Br  Br8  1  0.66678363  0.66678363  0.11282030  1
  Br  Br9  1  0.34062583  0.00192620  0.44150768  1
  Br  Br10  1  0.99807380  0.65937417  0.55849232  1
  Br  Br11  1  0.65937417  0.99807380  0.55849232  1
  Br  Br12  1  0.00192620  0.34062583  0.44150768  1
  Br  Br13  1  0.33786624  0.66819056  0.33498500  1
  Br  Br14  1  0.33180944  0.66213376  0.66501500  1
  Br  Br15  1  0.66213376  0.33180944  0.66501500  1
  Br  Br16  1  0.34078305  0.00284142  0.10556893  1
  Br  Br17  1  0.99715858  0.65921695  0.89443107  1
  Br  Br18  1  0.65921695  0.99715858  0.89443107  1
  Br  Br19  1  0.00284142  0.34078305  0.10556893  1
  Br  Br20  1  0.32745483  0.99774158  0.77650914  1
  Br  Br21  1  0.00225842  0.67254517  0.22349086  1
  Br  Br22  1  0.67254517  0.00225842  0.22349086  1
  Br  Br23  1  0.99774158  0.32745483  0.77650914  1
  Br  Br24  1  0.33519276  0.33519276  0.54997886  1
  Br  Br25  1  0.66480724  0.66480724  0.45002114  1
  Br  Br26  1  0.66819056  0.33786624  0.33498500  1
  Tb  Tb27  1  0.81144316  0.81144316  0.72735456  1
  Tb  Tb28  1  0.18855684  0.18855684  0.27264544  1
  Tb  Tb29  1  0.80856788  0.19575752  0.15037454  1
  Tb  Tb30  1  0.80424248  0.19143212  0.84962546  1
  Tb  Tb31  1  0.19143212  0.80424248  0.84962546  1
  Tb  Tb32  1  0.19575752  0.80856788  0.15037454  1
  Tb  Tb33  1  0.48492472  0.19119083  0.37051039  1
  Tb  Tb34  1  0.80880917  0.51507528  0.62948961  1
  Tb  Tb35  1  0.51507528  0.80880917  0.62948961  1
  Tb  Tb36  1  0.19119083  0.48492472  0.37051039  1
  Tb  Tb37  1  0.79734666  0.49896929  0.93721130  1
  Tb  Tb38  1  0.50103071  0.20265334  0.06278870  1
  Tb  Tb39  1  0.20265334  0.50103071  0.06278870  1
  Tb  Tb40  1  0.49896929  0.79734666  0.93721130  1
  Tb  Tb41  1  0.50603470  0.50603470  0.85048372  1
  Tb  Tb42  1  0.49396530  0.49396530  0.14951628  1
