# generated using pymatgen
data_SnCl4
_symmetry_space_group_name_H-M   'P 1'
_cell_length_a   7.26838238
_cell_length_b   10.77969812
_cell_length_c   10.88708805
_cell_angle_alpha   103.11996241
_cell_angle_beta   90.00000000
_cell_angle_gamma   90.00000000
_symmetry_Int_Tables_number   1
_chemical_formula_structural   SnCl4
_chemical_formula_sum   'Sn4 Cl16'
_cell_volume   830.74761426
_cell_formula_units_Z   4
loop_
 _symmetry_equiv_pos_site_id
 _symmetry_equiv_pos_as_xyz
  1  'x, y, z'
loop_
 _atom_site_type_symbol
 _atom_site_label
 _atom_site_symmetry_multiplicity
 _atom_site_fract_x
 _atom_site_fract_y
 _atom_site_fract_z
 _atom_site_occupancy
  Cl  Cl0  1  0.92669121  0.80306388  0.96155021  1
  Cl  Cl1  1  0.42669121  0.19693612  0.53844979  1
  Cl  Cl2  1  0.07330879  0.19693612  0.03844979  1
  Cl  Cl3  1  0.57330879  0.80306388  0.46155021  1
  Cl  Cl4  1  0.42579117  0.92608935  0.80096773  1
  Cl  Cl5  1  0.92579117  0.07391065  0.69903227  1
  Cl  Cl6  1  0.57420883  0.07391065  0.19903227  1
  Cl  Cl7  1  0.07420883  0.92608935  0.30096773  1
  Cl  Cl8  1  0.12312472  0.69303388  0.57606760  1
  Cl  Cl9  1  0.62312472  0.30696612  0.92393240  1
  Cl  Cl10  1  0.87687528  0.30696612  0.42393240  1
  Cl  Cl11  1  0.37687528  0.69303388  0.07606760  1
  Cl  Cl12  1  0.57497875  0.58398473  0.68878833  1
  Cl  Cl13  1  0.07497875  0.41601527  0.81121167  1
  Cl  Cl14  1  0.42502125  0.41601527  0.31121167  1
  Cl  Cl15  1  0.92502125  0.58398473  0.18878833  1
  Sn  Sn16  1  0.07608922  0.75167906  0.13131486  1
  Sn  Sn17  1  0.57608922  0.24832094  0.36868514  1
  Sn  Sn18  1  0.92391078  0.24832094  0.86868514  1
  Sn  Sn19  1  0.42391078  0.75167906  0.63131486  1
