# generated using pymatgen
data_TlTeF5
_symmetry_space_group_name_H-M   'P 1'
_cell_length_a   4.95224263
_cell_length_b   6.28077468
_cell_length_c   17.12731099
_cell_angle_alpha   90.00000000
_cell_angle_beta   90.00000000
_cell_angle_gamma   90.00000000
_symmetry_Int_Tables_number   1
_chemical_formula_structural   TlTeF5
_chemical_formula_sum   'Tl4 Te4 F20'
_cell_volume   532.72651290
_cell_formula_units_Z   4
loop_
 _symmetry_equiv_pos_site_id
 _symmetry_equiv_pos_as_xyz
  1  'x, y, z'
loop_
 _atom_site_type_symbol
 _atom_site_label
 _atom_site_symmetry_multiplicity
 _atom_site_fract_x
 _atom_site_fract_y
 _atom_site_fract_z
 _atom_site_occupancy
  F  F0  1  0.21928155  0.47290581  0.30150027  1
  F  F1  1  0.71928155  0.52709419  0.19849973  1
  F  F2  1  0.78071845  0.97290581  0.69849973  1
  F  F3  1  0.28071845  0.02709419  0.80150027  1
  F  F4  1  0.78071845  0.52709419  0.69849973  1
  F  F5  1  0.28071845  0.47290581  0.80150027  1
  F  F6  1  0.21928155  0.02709419  0.30150027  1
  F  F7  1  0.71928155  0.97290581  0.19849973  1
  F  F8  1  0.69626598  0.75000000  0.07496534  1
  F  F9  1  0.19626598  0.25000000  0.42503466  1
  F  F10  1  0.30373402  0.25000000  0.92503466  1
  F  F11  1  0.80373402  0.75000000  0.57496534  1
  F  F12  1  0.28184908  0.97632769  0.09579994  1
  F  F13  1  0.78184908  0.02367231  0.40420006  1
  F  F14  1  0.71815092  0.47632769  0.90420006  1
  F  F15  1  0.21815092  0.52367231  0.59579994  1
  F  F16  1  0.71815092  0.02367231  0.90420006  1
  F  F17  1  0.21815092  0.97632769  0.59579994  1
  F  F18  1  0.28184908  0.52367231  0.09579994  1
  F  F19  1  0.78184908  0.47632769  0.40420006  1
  Te  Te20  1  0.04456651  0.75000000  0.66392806  1
  Te  Te21  1  0.54456651  0.25000000  0.83607194  1
  Te  Te22  1  0.95543349  0.25000000  0.33607194  1
  Te  Te23  1  0.45543349  0.75000000  0.16392806  1
  Tl  Tl24  1  0.32229704  0.75000000  0.43436784  1
  Tl  Tl25  1  0.82229704  0.25000000  0.06563216  1
  Tl  Tl26  1  0.67770296  0.25000000  0.56563216  1
  Tl  Tl27  1  0.17770296  0.75000000  0.93436784  1
