# generated using pymatgen
data_Rb3Bi2I9
_symmetry_space_group_name_H-M   'P 1'
_cell_length_a   8.45412596
_cell_length_b   15.09137655
_cell_length_c   21.53507771
_cell_angle_alpha   91.60785866
_cell_angle_beta   90.00000000
_cell_angle_gamma   90.00000000
_symmetry_Int_Tables_number   1
_chemical_formula_structural   Rb3Bi2I9
_chemical_formula_sum   'Rb12 Bi8 I36'
_cell_volume   2746.45815862
_cell_formula_units_Z   4
loop_
 _symmetry_equiv_pos_site_id
 _symmetry_equiv_pos_as_xyz
  1  'x, y, z'
loop_
 _atom_site_type_symbol
 _atom_site_label
 _atom_site_symmetry_multiplicity
 _atom_site_fract_x
 _atom_site_fract_y
 _atom_site_fract_z
 _atom_site_occupancy
  Rb  Rb0  1  0.77780865  0.80028862  0.45246248  1
  Rb  Rb1  1  0.22219135  0.30028862  0.95246248  1
  Rb  Rb2  1  0.26611021  0.34535159  0.40543330  1
  Rb  Rb3  1  0.73388979  0.84535159  0.90543330  1
  Rb  Rb4  1  0.22707199  0.62647556  0.62392243  1
  Rb  Rb5  1  0.77292801  0.12647556  0.12392243  1
  Rb  Rb6  1  0.23219584  0.96704654  0.28875992  1
  Rb  Rb7  1  0.76780416  0.46704654  0.78875992  1
  Rb  Rb8  1  0.72626250  0.18909923  0.56843903  1
  Rb  Rb9  1  0.27373750  0.68909923  0.06843903  1
  Rb  Rb10  1  0.71791517  0.51372354  0.23997253  1
  Rb  Rb11  1  0.28208483  0.01372354  0.73997253  1
  I  I12  1  0.33146436  0.82966439  0.42793817  1
  I  I13  1  0.44045986  0.39773965  0.56327283  1
  I  I14  1  0.34261770  0.16589967  0.09069931  1
  I  I15  1  0.65738230  0.66589967  0.59069931  1
  I  I16  1  0.17765733  0.82723028  0.93097193  1
  I  I17  1  0.82234267  0.32723028  0.43097193  1
  I  I18  1  0.44052061  0.06836300  0.90512779  1
  I  I19  1  0.55947939  0.56836300  0.40512779  1
  I  I20  1  0.54826159  0.23272293  0.73066087  1
  I  I21  1  0.45173841  0.73272293  0.23066087  1
  I  I22  1  0.03964742  0.52673418  0.93652017  1
  I  I23  1  0.55954014  0.89773965  0.06327283  1
  I  I24  1  0.94940581  0.08477737  0.96308975  1
  I  I25  1  0.05059419  0.58477737  0.46308975  1
  I  I26  1  0.95114120  0.70132064  0.76328156  1
  I  I27  1  0.04885880  0.20132064  0.26328156  1
  I  I28  1  0.84277607  0.65065149  0.10315572  1
  I  I29  1  0.15722393  0.15065149  0.60315572  1
  I  I30  1  0.43098214  0.45941961  0.09496891  1
  I  I31  1  0.56901786  0.95941961  0.59496891  1
  I  I32  1  0.05453759  0.25234689  0.78717111  1
  I  I33  1  0.94546241  0.75234689  0.28717111  1
  I  I34  1  0.92875610  0.35624252  0.10164144  1
  I  I35  1  0.07124390  0.85624252  0.60164144  1
  I  I36  1  0.46567290  0.78739955  0.76055174  1
  I  I37  1  0.53432710  0.28739955  0.26055174  1
  I  I38  1  0.93906530  0.41823637  0.62890226  1
  I  I39  1  0.06093470  0.91823637  0.12890226  1
  I  I40  1  0.55297189  0.61070858  0.92961838  1
  I  I41  1  0.44702811  0.11070858  0.42961838  1
  I  I42  1  0.32406333  0.49057130  0.76116111  1
  I  I43  1  0.67593667  0.99057130  0.26116111  1
  I  I44  1  0.16175651  0.48343937  0.26819932  1
  I  I45  1  0.83824349  0.98343937  0.76819932  1
  I  I46  1  0.96035258  0.02673418  0.43652017  1
  I  I47  1  0.66853564  0.32966439  0.92793817  1
  Bi  Bi48  1  0.24133455  0.32533321  0.18781024  1
  Bi  Bi49  1  0.75866545  0.82533321  0.68781024  1
  Bi  Bi50  1  0.75913032  0.49358722  0.50564698  1
  Bi  Bi51  1  0.24086968  0.99358722  0.00564698  1
  Bi  Bi52  1  0.74184100  0.82431161  0.18691011  1
  Bi  Bi53  1  0.25815900  0.32431161  0.68691011  1
  Bi  Bi54  1  0.25610189  0.98901507  0.50771062  1
  Bi  Bi55  1  0.74389811  0.48901507  0.00771062  1
