# generated using pymatgen
data_Sc5Re2C7
_symmetry_space_group_name_H-M   'P 1'
_cell_length_a   3.21922331
_cell_length_b   7.81242341
_cell_length_c   7.89308406
_cell_angle_alpha   119.66252494
_cell_angle_beta   90.00000000
_cell_angle_gamma   90.00000000
_symmetry_Int_Tables_number   1
_chemical_formula_structural   Sc5Re2C7
_chemical_formula_sum   'Sc5 Re2 C7'
_cell_volume   172.49681700
_cell_formula_units_Z   1
loop_
 _symmetry_equiv_pos_site_id
 _symmetry_equiv_pos_as_xyz
  1  'x, y, z'
loop_
 _atom_site_type_symbol
 _atom_site_label
 _atom_site_symmetry_multiplicity
 _atom_site_fract_x
 _atom_site_fract_y
 _atom_site_fract_z
 _atom_site_occupancy
  C  C0  1  0.00000000  0.00000000  0.00000000  1
  C  C1  1  0.00000000  0.50000000  0.50000000  1
  C  C2  1  0.00000000  0.00000000  0.50000000  1
  C  C3  1  0.00000000  0.17349012  0.00000000  1
  C  C4  1  0.00000000  0.82650988  0.00000000  1
  C  C5  1  0.50000000  0.38122716  0.76245432  1
  C  C6  1  0.50000000  0.61877284  0.23754568  1
  Sc  Sc7  1  0.50000000  0.33860314  0.25531118  1
  Sc  Sc8  1  0.50000000  0.08329197  0.74468882  1
  Sc  Sc9  1  0.00000000  0.50000000  0.00000000  1
  Sc  Sc10  1  0.50000000  0.66139686  0.74468882  1
  Sc  Sc11  1  0.50000000  0.91670803  0.25531118  1
  Re  Re12  1  0.00000000  0.28468232  0.56936464  1
  Re  Re13  1  0.00000000  0.71531768  0.43063536  1
