# generated using pymatgen
data_Hg7(PO5)2
_symmetry_space_group_name_H-M   'P 1'
_cell_length_a   6.38375346
_cell_length_b   9.99412576
_cell_length_c   10.21306912
_cell_angle_alpha   90.00000000
_cell_angle_beta   90.00000000
_cell_angle_gamma   95.78043884
_symmetry_Int_Tables_number   1
_chemical_formula_structural   Hg7(PO5)2
_chemical_formula_sum   'Hg14 P4 O20'
_cell_volume   648.28090914
_cell_formula_units_Z   2
loop_
 _symmetry_equiv_pos_site_id
 _symmetry_equiv_pos_as_xyz
  1  'x, y, z'
loop_
 _atom_site_type_symbol
 _atom_site_label
 _atom_site_symmetry_multiplicity
 _atom_site_fract_x
 _atom_site_fract_y
 _atom_site_fract_z
 _atom_site_occupancy
  O  O0  1  0.67972439  0.22686132  0.43288731  1
  O  O1  1  0.32027561  0.27313868  0.93288731  1
  O  O2  1  0.32027561  0.77313868  0.56711269  1
  O  O3  1  0.67972439  0.72686132  0.06711269  1
  O  O4  1  0.72301165  0.33778114  0.90640668  1
  O  O5  1  0.27698835  0.16221886  0.40640668  1
  O  O6  1  0.27698835  0.66221886  0.09359332  1
  O  O7  1  0.72301165  0.83778114  0.59359332  1
  O  O8  1  0.46064866  0.00372947  0.65753173  1
  O  O9  1  0.53935134  0.49627053  0.15753173  1
  O  O10  1  0.53935134  0.99627053  0.34246827  1
  O  O11  1  0.46064866  0.50372947  0.84246827  1
  O  O12  1  0.81302587  0.06320221  0.03318391  1
  O  O13  1  0.18697413  0.43679779  0.53318391  1
  O  O14  1  0.18697413  0.93679779  0.96681609  1
  O  O15  1  0.81302587  0.56320221  0.46681609  1
  O  O16  1  0.49837064  0.29271528  0.70848593  1
  O  O17  1  0.50162936  0.20728472  0.20848593  1
  O  O18  1  0.49837064  0.79271528  0.79151407  1
  O  O19  1  0.50162936  0.70728472  0.29151407  1
  P  P20  1  0.49956927  0.35260067  0.85118005  1
  P  P21  1  0.50043073  0.14739933  0.35118005  1
  P  P22  1  0.50043073  0.64739933  0.14881995  1
  P  P23  1  0.49956927  0.85260067  0.64881995  1
  Hg  Hg24  1  0.50000000  0.00000000  0.00000000  1
  Hg  Hg25  1  0.50000000  0.50000000  0.50000000  1
  Hg  Hg26  1  0.19084308  0.19071319  0.61679165  1
  Hg  Hg27  1  0.80915692  0.30928681  0.11679165  1
  Hg  Hg28  1  0.80915692  0.80928681  0.38320835  1
  Hg  Hg29  1  0.19084308  0.69071319  0.88320835  1
  Hg  Hg30  1  0.01566980  0.08816760  0.84944674  1
  Hg  Hg31  1  0.98433020  0.41183240  0.34944674  1
  Hg  Hg32  1  0.98433020  0.91183240  0.15055326  1
  Hg  Hg33  1  0.01566980  0.58816760  0.65055326  1
  Hg  Hg34  1  0.76115754  0.14834077  0.63941783  1
  Hg  Hg35  1  0.23884246  0.35165923  0.13941783  1
  Hg  Hg36  1  0.23884246  0.85165923  0.36058217  1
  Hg  Hg37  1  0.76115754  0.64834077  0.86058217  1
