# generated using pymatgen
data_Ba(GaSb)2
_symmetry_space_group_name_H-M   'P 1'
_cell_length_a   4.51779643
_cell_length_b   10.40841921
_cell_length_c   25.87914726
_cell_angle_alpha   90.00000000
_cell_angle_beta   90.00000000
_cell_angle_gamma   90.00000000
_symmetry_Int_Tables_number   1
_chemical_formula_structural   Ba(GaSb)2
_chemical_formula_sum   'Ba8 Ga16 Sb16'
_cell_volume   1216.91822508
_cell_formula_units_Z   8
loop_
 _symmetry_equiv_pos_site_id
 _symmetry_equiv_pos_as_xyz
  1  'x, y, z'
loop_
 _atom_site_type_symbol
 _atom_site_label
 _atom_site_symmetry_multiplicity
 _atom_site_fract_x
 _atom_site_fract_y
 _atom_site_fract_z
 _atom_site_occupancy
  Ga  Ga0  1  0.25000000  0.60297430  0.96582489  1
  Ga  Ga1  1  0.75000000  0.39702570  0.03417511  1
  Ga  Ga2  1  0.75000000  0.10297430  0.53417511  1
  Ga  Ga3  1  0.25000000  0.89702570  0.46582489  1
  Ga  Ga4  1  0.75000000  0.79714983  0.78491093  1
  Ga  Ga5  1  0.25000000  0.20285017  0.21508907  1
  Ga  Ga6  1  0.25000000  0.29714983  0.71508907  1
  Ga  Ga7  1  0.75000000  0.70285017  0.28491093  1
  Ga  Ga8  1  0.75000000  0.32304676  0.57873000  1
  Ga  Ga9  1  0.25000000  0.67695324  0.42127000  1
  Ga  Ga10  1  0.75000000  0.03273956  0.81832905  1
  Ga  Ga11  1  0.25000000  0.96726044  0.18167095  1
  Ga  Ga12  1  0.25000000  0.53273956  0.68167095  1
  Ga  Ga13  1  0.75000000  0.46726044  0.31832905  1
  Ga  Ga14  1  0.25000000  0.82304676  0.92127000  1
  Ga  Ga15  1  0.75000000  0.17695324  0.07873000  1
  Sb  Sb16  1  0.25000000  0.02567548  0.07826498  1
  Sb  Sb17  1  0.75000000  0.97432452  0.92173502  1
  Sb  Sb18  1  0.75000000  0.52567548  0.42173502  1
  Sb  Sb19  1  0.25000000  0.47432452  0.57826498  1
  Sb  Sb20  1  0.25000000  0.51762547  0.07058509  1
  Sb  Sb21  1  0.75000000  0.48237453  0.92941491  1
  Sb  Sb22  1  0.75000000  0.01762547  0.42941491  1
  Sb  Sb23  1  0.25000000  0.98237453  0.57058509  1
  Sb  Sb24  1  0.25000000  0.18649983  0.81454081  1
  Sb  Sb25  1  0.75000000  0.81350017  0.18545919  1
  Sb  Sb26  1  0.25000000  0.69975014  0.82927904  1
  Sb  Sb27  1  0.75000000  0.30024986  0.17072096  1
  Sb  Sb28  1  0.75000000  0.19975014  0.67072096  1
  Sb  Sb29  1  0.25000000  0.80024986  0.32927904  1
  Sb  Sb30  1  0.75000000  0.68649983  0.68545919  1
  Sb  Sb31  1  0.25000000  0.31350017  0.31454081  1
  Ba  Ba32  1  0.75000000  0.72189257  0.53811833  1
  Ba  Ba33  1  0.25000000  0.27810743  0.46188167  1
  Ba  Ba34  1  0.25000000  0.22189257  0.96188167  1
  Ba  Ba35  1  0.75000000  0.77810743  0.03811833  1
  Ba  Ba36  1  0.25000000  0.95066680  0.70814537  1
  Ba  Ba37  1  0.75000000  0.04933320  0.29185463  1
  Ba  Ba38  1  0.75000000  0.45066680  0.79185463  1
  Ba  Ba39  1  0.25000000  0.54933320  0.20814537  1
