# generated using pymatgen
data_Nb3B3C
_symmetry_space_group_name_H-M   'P 1'
_cell_length_a   3.14221547
_cell_length_b   3.28113428
_cell_length_c   14.54130070
_cell_angle_alpha   96.47797167
_cell_angle_beta   90.00000000
_cell_angle_gamma   90.00000000
_symmetry_Int_Tables_number   1
_chemical_formula_structural   Nb3B3C
_chemical_formula_sum   'Nb6 B6 C2'
_cell_volume   148.96405809
_cell_formula_units_Z   2
loop_
 _symmetry_equiv_pos_site_id
 _symmetry_equiv_pos_as_xyz
  1  'x, y, z'
loop_
 _atom_site_type_symbol
 _atom_site_label
 _atom_site_symmetry_multiplicity
 _atom_site_fract_x
 _atom_site_fract_y
 _atom_site_fract_z
 _atom_site_occupancy
  B  B0  1  0.25000000  0.01544790  0.03089581  1
  B  B1  1  0.75000000  0.98455210  0.96910419  1
  B  B2  1  0.25000000  0.88788672  0.77577344  1
  B  B3  1  0.75000000  0.11211328  0.22422656  1
  B  B4  1  0.25000000  0.07904006  0.15808012  1
  B  B5  1  0.75000000  0.92095994  0.84191988  1
  C  C6  1  0.25000000  0.71221255  0.42442510  1
  C  C7  1  0.75000000  0.28778745  0.57557490  1
  Nb  Nb8  1  0.25000000  0.45323738  0.90647477  1
  Nb  Nb9  1  0.75000000  0.54676262  0.09352523  1
  Nb  Nb10  1  0.25000000  0.78741680  0.57483361  1
  Nb  Nb11  1  0.75000000  0.21258320  0.42516639  1
  Nb  Nb12  1  0.75000000  0.36210992  0.72421985  1
  Nb  Nb13  1  0.25000000  0.63789008  0.27578015  1
