# generated using pymatgen
data_Nb7(B2C)3
_symmetry_space_group_name_H-M   'P 1'
_cell_length_a   3.14884481
_cell_length_b   3.26336617
_cell_length_c   16.76258706
_cell_angle_alpha   90.00000000
_cell_angle_beta   95.38943788
_cell_angle_gamma   90.00000000
_symmetry_Int_Tables_number   1
_chemical_formula_structural   Nb7(B2C)3
_chemical_formula_sum   'Nb7 B6 C3'
_cell_volume   171.48809121
_cell_formula_units_Z   1
loop_
 _symmetry_equiv_pos_site_id
 _symmetry_equiv_pos_as_xyz
  1  'x, y, z'
loop_
 _atom_site_type_symbol
 _atom_site_label
 _atom_site_symmetry_multiplicity
 _atom_site_fract_x
 _atom_site_fract_y
 _atom_site_fract_z
 _atom_site_occupancy
  B  B0  1  0.65247618  0.50000000  0.30495236  1
  B  B1  1  0.34752382  0.50000000  0.69504764  1
  B  B2  1  0.76345105  0.50000000  0.52690210  1
  B  B3  1  0.23654895  0.50000000  0.47309790  1
  B  B4  1  0.18159503  0.50000000  0.36319005  1
  B  B5  1  0.81840497  0.50000000  0.63680995  1
  C  C6  1  0.06612184  0.00000000  0.13224368  1
  C  C7  1  0.50000000  0.50000000  0.00000000  1
  C  C8  1  0.93387816  0.00000000  0.86775632  1
  Nb  Nb9  1  0.70950369  0.00000000  0.41900737  1
  Nb  Nb10  1  0.29049631  0.00000000  0.58099263  1
  Nb  Nb11  1  0.56715187  0.50000000  0.13430373  1
  Nb  Nb12  1  0.43284813  0.50000000  0.86569627  1
  Nb  Nb13  1  0.13059119  0.00000000  0.26118239  1
  Nb  Nb14  1  0.86940881  0.00000000  0.73881761  1
  Nb  Nb15  1  0.00000000  0.00000000  0.00000000  1
