# generated using pymatgen
data_Rh3S4
_symmetry_space_group_name_H-M   'P 1'
_cell_length_a   6.31925137
_cell_length_b   7.56293995
_cell_length_c   7.56293995
_cell_angle_alpha   92.22812100
_cell_angle_beta   102.30523087
_cell_angle_gamma   102.30523084
_symmetry_Int_Tables_number   1
_chemical_formula_structural   Rh3S4
_chemical_formula_sum   'Rh9 S12'
_cell_volume   343.68392691
_cell_formula_units_Z   3
loop_
 _symmetry_equiv_pos_site_id
 _symmetry_equiv_pos_as_xyz
  1  'x, y, z'
loop_
 _atom_site_type_symbol
 _atom_site_label
 _atom_site_symmetry_multiplicity
 _atom_site_fract_x
 _atom_site_fract_y
 _atom_site_fract_z
 _atom_site_occupancy
  S  S0  1  0.89923786  0.85883002  0.44060520  1
  S  S1  1  0.10076214  0.55939480  0.14116998  1
  S  S2  1  0.10076214  0.14116998  0.55939480  1
  S  S3  1  0.89923786  0.44060520  0.85883002  1
  S  S4  1  0.88832940  0.11725766  0.11725766  1
  S  S5  1  0.11167060  0.88274234  0.88274234  1
  S  S6  1  0.61433470  0.03295182  0.71616496  1
  S  S7  1  0.38566530  0.28383504  0.96704818  1
  S  S8  1  0.38566530  0.96704818  0.28383504  1
  S  S9  1  0.27354655  0.58412769  0.58412769  1
  S  S10  1  0.72645345  0.41587231  0.41587231  1
  S  S11  1  0.61433470  0.71616496  0.03295182  1
  Rh  Rh12  1  0.00000000  0.16085201  0.83914799  1
  Rh  Rh13  1  0.00000000  0.83914799  0.16085201  1
  Rh  Rh14  1  0.50000000  0.00000000  0.00000000  1
  Rh  Rh15  1  0.05236253  0.34994990  0.34994990  1
  Rh  Rh16  1  0.94763747  0.65005010  0.65005010  1
  Rh  Rh17  1  0.54935520  0.78424141  0.49154976  1
  Rh  Rh18  1  0.45064480  0.50845024  0.21575859  1
  Rh  Rh19  1  0.45064480  0.21575859  0.50845024  1
  Rh  Rh20  1  0.54935520  0.49154976  0.78424141  1
