# generated using pymatgen
data_Tb4BBr6
_symmetry_space_group_name_H-M   'P 1'
_cell_length_a   10.81461349
_cell_length_b   10.81461348
_cell_length_c   12.68004214
_cell_angle_alpha   84.66484167
_cell_angle_beta   84.66484167
_cell_angle_gamma   63.23996302
_symmetry_Int_Tables_number   1
_chemical_formula_structural   Tb4BBr6
_chemical_formula_sum   'Tb16 B4 Br24'
_cell_volume   1316.25791605
_cell_formula_units_Z   4
loop_
 _symmetry_equiv_pos_site_id
 _symmetry_equiv_pos_as_xyz
  1  'x, y, z'
loop_
 _atom_site_type_symbol
 _atom_site_label
 _atom_site_symmetry_multiplicity
 _atom_site_fract_x
 _atom_site_fract_y
 _atom_site_fract_z
 _atom_site_occupancy
  B  B0  1  0.33936835  0.58764728  0.60528253  1
  B  B1  1  0.41235272  0.66063165  0.89471747  1
  B  B2  1  0.66063165  0.41235272  0.39471747  1
  B  B3  1  0.58764728  0.33936835  0.10528253  1
  Br  Br4  1  0.85589897  0.62056419  0.25302964  1
  Br  Br5  1  0.37943581  0.14410103  0.24697036  1
  Br  Br6  1  0.14410103  0.37943581  0.74697036  1
  Br  Br7  1  0.62056419  0.85589897  0.75302964  1
  Br  Br8  1  0.84155925  0.08627316  0.60347463  1
  Br  Br9  1  0.91372684  0.15844075  0.89652537  1
  Br  Br10  1  0.15844075  0.91372684  0.39652537  1
  Br  Br11  1  0.08627316  0.84155925  0.10347463  1
  Br  Br12  1  0.94779954  0.69185647  0.53353336  1
  Br  Br13  1  0.30814353  0.05220046  0.96646664  1
  Br  Br14  1  0.05220046  0.30814353  0.46646664  1
  Br  Br15  1  0.69185647  0.94779954  0.03353336  1
  Br  Br16  1  0.01698009  0.77472662  0.81886837  1
  Br  Br17  1  0.22527338  0.98301991  0.68113163  1
  Br  Br18  1  0.98301991  0.22527338  0.18113163  1
  Br  Br19  1  0.77472662  0.01698009  0.31886837  1
  Br  Br20  1  0.53078547  0.25276886  0.81497497  1
  Br  Br21  1  0.74723114  0.46921453  0.68502503  1
  Br  Br22  1  0.46921453  0.74723114  0.18502503  1
  Br  Br23  1  0.25276886  0.53078547  0.31497497  1
  Br  Br24  1  0.19391913  0.45493606  0.02508782  1
  Br  Br25  1  0.54506394  0.80608087  0.47491218  1
  Br  Br26  1  0.80608087  0.54506394  0.97491218  1
  Br  Br27  1  0.45493606  0.19391913  0.52508782  1
  Tb  Tb28  1  0.28934351  0.52954858  0.80819119  1
  Tb  Tb29  1  0.47045142  0.71065649  0.69180881  1
  Tb  Tb30  1  0.71065649  0.47045142  0.19180881  1
  Tb  Tb31  1  0.52954858  0.28934351  0.30819119  1
  Tb  Tb32  1  0.21667575  0.45627348  0.54545382  1
  Tb  Tb33  1  0.54372652  0.78332425  0.95454618  1
  Tb  Tb34  1  0.78332425  0.54372652  0.45454618  1
  Tb  Tb35  1  0.45627348  0.21667575  0.04545382  1
  Tb  Tb36  1  0.41837619  0.64091652  0.41187306  1
  Tb  Tb37  1  0.35908348  0.58162381  0.08812694  1
  Tb  Tb38  1  0.58162381  0.35908348  0.58812694  1
  Tb  Tb39  1  0.64091652  0.41837619  0.91187306  1
  Tb  Tb40  1  0.88393868  0.18851565  0.39583929  1
  Tb  Tb41  1  0.81148435  0.11606132  0.10416071  1
  Tb  Tb42  1  0.11606132  0.81148435  0.60416071  1
  Tb  Tb43  1  0.18851565  0.88393868  0.89583929  1
