# generated using pymatgen
data_Sn5(BRh3)2
_symmetry_space_group_name_H-M   'P 1'
_cell_length_a   6.67733867
_cell_length_b   6.67733867
_cell_length_c   5.63220428
_cell_angle_alpha   90.00000000
_cell_angle_beta   90.00000000
_cell_angle_gamma   119.99999995
_symmetry_Int_Tables_number   1
_chemical_formula_structural   Sn5(BRh3)2
_chemical_formula_sum   'Sn5 B2 Rh6'
_cell_volume   217.47825414
_cell_formula_units_Z   1
loop_
 _symmetry_equiv_pos_site_id
 _symmetry_equiv_pos_as_xyz
  1  'x, y, z'
loop_
 _atom_site_type_symbol
 _atom_site_label
 _atom_site_symmetry_multiplicity
 _atom_site_fract_x
 _atom_site_fract_y
 _atom_site_fract_z
 _atom_site_occupancy
  B  B0  1  0.00000000  0.00000000  0.50000000  1
  B  B1  1  0.00000000  0.00000000  0.00000000  1
  Rh  Rh2  1  0.25115038  0.00000000  0.74714080  1
  Rh  Rh3  1  0.74884962  0.74884962  0.25285920  1
  Rh  Rh4  1  0.00000000  0.25115038  0.25285920  1
  Rh  Rh5  1  0.25115038  0.00000000  0.25285920  1
  Rh  Rh6  1  0.74884962  0.74884962  0.74714080  1
  Rh  Rh7  1  0.00000000  0.25115038  0.74714080  1
  Sn  Sn8  1  0.40410190  0.40410190  0.00000000  1
  Sn  Sn9  1  0.59589810  0.00000000  0.00000000  1
  Sn  Sn10  1  0.00000000  0.59589810  0.00000000  1
  Sn  Sn11  1  0.66666667  0.33333333  0.50000000  1
  Sn  Sn12  1  0.33333333  0.66666667  0.50000000  1
