# generated using pymatgen
data_Rb2ZnI4
_symmetry_space_group_name_H-M   'P 1'
_cell_length_a   7.93802962
_cell_length_b   8.35640404
_cell_length_c   10.53940478
_cell_angle_alpha   90.00000000
_cell_angle_beta   109.22225867
_cell_angle_gamma   90.00000000
_symmetry_Int_Tables_number   1
_chemical_formula_structural   Rb2ZnI4
_chemical_formula_sum   'Rb4 Zn2 I8'
_cell_volume   660.13772367
_cell_formula_units_Z   2
loop_
 _symmetry_equiv_pos_site_id
 _symmetry_equiv_pos_as_xyz
  1  'x, y, z'
loop_
 _atom_site_type_symbol
 _atom_site_label
 _atom_site_symmetry_multiplicity
 _atom_site_fract_x
 _atom_site_fract_y
 _atom_site_fract_z
 _atom_site_occupancy
  Zn  Zn0  1  0.29938691  0.25000000  0.21370048  1
  Zn  Zn1  1  0.70061309  0.75000000  0.78629952  1
  Rb  Rb2  1  0.21245779  0.75000000  0.41729941  1
  Rb  Rb3  1  0.78754221  0.25000000  0.58270059  1
  Rb  Rb4  1  0.70076395  0.25000000  0.03958757  1
  Rb  Rb5  1  0.29923605  0.75000000  0.96041243  1
  I  I6  1  0.86920552  0.75000000  0.04924362  1
  I  I7  1  0.13079448  0.25000000  0.95075638  1
  I  I8  1  0.91860944  0.75000000  0.64402451  1
  I  I9  1  0.08139056  0.25000000  0.35597549  1
  I  I10  1  0.48661933  1.00152932  0.72530410  1
  I  I11  1  0.51338067  0.50152932  0.27469590  1
  I  I12  1  0.51338067  -0.00152932  0.27469590  1
  I  I13  1  0.48661933  0.49847068  0.72530410  1
