# generated using pymatgen
data_Li2B2Se5
_symmetry_space_group_name_H-M   'P 1'
_cell_length_a   5.33443946
_cell_length_b   6.01645697
_cell_length_c   12.15722629
_cell_angle_alpha   79.84931020
_cell_angle_beta   77.32657124
_cell_angle_gamma   63.68405439
_symmetry_Int_Tables_number   1
_chemical_formula_structural   Li2B2Se5
_chemical_formula_sum   'Li4 B4 Se10'
_cell_volume   339.82699953
_cell_formula_units_Z   2
loop_
 _symmetry_equiv_pos_site_id
 _symmetry_equiv_pos_as_xyz
  1  'x, y, z'
loop_
 _atom_site_type_symbol
 _atom_site_label
 _atom_site_symmetry_multiplicity
 _atom_site_fract_x
 _atom_site_fract_y
 _atom_site_fract_z
 _atom_site_occupancy
  Li  Li0  1  0.85562111  0.31767434  0.93239052  1
  Li  Li1  1  0.10568596  0.18232566  0.56760948  1
  Li  Li2  1  0.14437889  0.68232566  0.06760948  1
  Li  Li3  1  0.89431404  0.81767434  0.43239052  1
  B  B4  1  0.30748889  0.57371110  0.70737449  1
  B  B5  1  0.58857448  0.92628890  0.79262551  1
  B  B6  1  0.69251111  0.42628890  0.29262551  1
  B  B7  1  0.41142552  0.07371110  0.20737449  1
  Se  Se8  1  0.75440700  0.75000000  0.25000000  1
  Se  Se9  1  0.24559300  0.25000000  0.75000000  1
  Se  Se10  1  0.43223892  0.65380811  0.83946300  1
  Se  Se11  1  0.92551003  0.84619189  0.66053700  1
  Se  Se12  1  0.56776108  0.34619189  0.16053700  1
  Se  Se13  1  0.07448997  0.15380811  0.33946300  1
  Se  Se14  1  0.59879422  0.57014063  0.56138189  1
  Se  Se15  1  0.73031674  0.92985937  0.93861811  1
  Se  Se16  1  0.40120578  0.42985937  0.43861811  1
  Se  Se17  1  0.26968326  0.07014063  0.06138189  1
