# generated using pymatgen
data_CaAsPd
_symmetry_space_group_name_H-M   'P 1'
_cell_length_a   7.23139167
_cell_length_b   8.75733636
_cell_length_c   16.75695170
_cell_angle_alpha   90.00000000
_cell_angle_beta   90.00000000
_cell_angle_gamma   90.00000000
_symmetry_Int_Tables_number   1
_chemical_formula_structural   CaAsPd
_chemical_formula_sum   'Ca16 As16 Pd16'
_cell_volume   1061.17969956
_cell_formula_units_Z   16
loop_
 _symmetry_equiv_pos_site_id
 _symmetry_equiv_pos_as_xyz
  1  'x, y, z'
loop_
 _atom_site_type_symbol
 _atom_site_label
 _atom_site_symmetry_multiplicity
 _atom_site_fract_x
 _atom_site_fract_y
 _atom_site_fract_z
 _atom_site_occupancy
  Ca  Ca0  1  0.76670598  0.00919170  0.18814395  1
  Ca  Ca1  1  0.26670598  0.49080830  0.31185605  1
  Ca  Ca2  1  0.23329402  0.50919170  0.81185605  1
  Ca  Ca3  1  0.73329402  0.99080830  0.68814395  1
  Ca  Ca4  1  0.23329402  0.99080830  0.81185605  1
  Ca  Ca5  1  0.73329402  0.50919170  0.68814395  1
  Ca  Ca6  1  0.76670598  0.49080830  0.18814395  1
  Ca  Ca7  1  0.26670598  0.00919170  0.31185605  1
  Ca  Ca8  1  0.25065274  0.02206441  0.06101780  1
  Ca  Ca9  1  0.75065274  0.47793559  0.43898220  1
  Ca  Ca10  1  0.74934726  0.52206441  0.93898220  1
  Ca  Ca11  1  0.24934726  0.97793559  0.56101780  1
  Ca  Ca12  1  0.74934726  0.97793559  0.93898220  1
  Ca  Ca13  1  0.24934726  0.52206441  0.56101780  1
  Ca  Ca14  1  0.25065274  0.47793559  0.06101780  1
  Ca  Ca15  1  0.75065274  0.02206441  0.43898220  1
  As  As16  1  0.56960646  0.75000000  0.28875479  1
  As  As17  1  0.93039354  0.25000000  0.78875479  1
  As  As18  1  0.43039354  0.25000000  0.71124521  1
  As  As19  1  0.57761016  0.75000000  0.57060919  1
  As  As20  1  0.07761016  0.75000000  0.92939081  1
  As  As21  1  0.42238984  0.25000000  0.42939081  1
  As  As22  1  0.92238984  0.25000000  0.07060919  1
  As  As23  1  0.64403794  0.75000000  0.06722255  1
  As  As24  1  0.06960646  0.75000000  0.21124521  1
  As  As25  1  0.14403794  0.75000000  0.43277745  1
  As  As26  1  0.35596206  0.25000000  0.93277745  1
  As  As27  1  0.85596206  0.25000000  0.56722255  1
  As  As28  1  0.04959217  0.75000000  0.67702555  1
  As  As29  1  0.54959217  0.75000000  0.82297445  1
  As  As30  1  0.95040783  0.25000000  0.32297445  1
  As  As31  1  0.45040783  0.25000000  0.17702555  1
  Pd  Pd32  1  0.39155249  0.75000000  0.16551345  1
  Pd  Pd33  1  0.89155249  0.75000000  0.33448655  1
  Pd  Pd34  1  0.60844751  0.25000000  0.83448655  1
  Pd  Pd35  1  0.10844751  0.25000000  0.66551345  1
  Pd  Pd36  1  0.98653795  0.75000000  0.07114435  1
  Pd  Pd37  1  0.48653795  0.75000000  0.42885565  1
  Pd  Pd38  1  0.01346205  0.25000000  0.92885565  1
  Pd  Pd39  1  0.39016015  0.75000000  0.69227583  1
  Pd  Pd40  1  0.89016015  0.75000000  0.80772417  1
  Pd  Pd41  1  0.60983985  0.25000000  0.30772417  1
  Pd  Pd42  1  0.10983985  0.25000000  0.19227583  1
  Pd  Pd43  1  0.90656160  0.75000000  0.53774245  1
  Pd  Pd44  1  0.40656160  0.75000000  0.96225755  1
  Pd  Pd45  1  0.09343840  0.25000000  0.46225755  1
  Pd  Pd46  1  0.59343840  0.25000000  0.03774245  1
  Pd  Pd47  1  0.51346205  0.25000000  0.57114435  1
