# generated using pymatgen
data_LiSb3O8
_symmetry_space_group_name_H-M   'P 1'
_cell_length_a   4.78437542
_cell_length_b   5.70544353
_cell_length_c   10.45115045
_cell_angle_alpha   96.37903312
_cell_angle_beta   90.00000000
_cell_angle_gamma   90.00000000
_symmetry_Int_Tables_number   1
_chemical_formula_structural   LiSb3O8
_chemical_formula_sum   'Li2 Sb6 O16'
_cell_volume   283.51858387
_cell_formula_units_Z   2
loop_
 _symmetry_equiv_pos_site_id
 _symmetry_equiv_pos_as_xyz
  1  'x, y, z'
loop_
 _atom_site_type_symbol
 _atom_site_label
 _atom_site_symmetry_multiplicity
 _atom_site_fract_x
 _atom_site_fract_y
 _atom_site_fract_z
 _atom_site_occupancy
  Li  Li0  1  0.50000000  0.00000000  0.50000000  1
  Li  Li1  1  0.00000000  0.00000000  0.00000000  1
  O  O2  1  0.33057775  0.23634422  0.08207792  1
  O  O3  1  0.83057775  0.76365578  0.41792208  1
  O  O4  1  0.66942225  0.76365578  0.91792208  1
  O  O5  1  0.16942225  0.23634422  0.58207792  1
  O  O6  1  0.21980207  0.48021028  0.32680427  1
  O  O7  1  0.71980207  0.51978972  0.17319573  1
  O  O8  1  0.78019793  0.51978972  0.67319573  1
  O  O9  1  0.28019793  0.48021028  0.82680427  1
  O  O10  1  0.70829032  0.27944680  0.42041966  1
  O  O11  1  0.20829032  0.72055320  0.07958034  1
  O  O12  1  0.29170968  0.72055320  0.57958034  1
  O  O13  1  0.79170968  0.27944680  0.92041966  1
  O  O14  1  0.19126747  0.98870160  0.82464029  1
  O  O15  1  0.69126747  0.01129840  0.67535971  1
  O  O16  1  0.80873253  0.01129840  0.17535971  1
  O  O17  1  0.30873253  0.98870160  0.32464029  1
  Sb  Sb18  1  0.50000000  0.50000000  0.00000000  1
  Sb  Sb19  1  0.00000000  0.50000000  0.50000000  1
  Sb  Sb20  1  0.97692865  0.23687742  0.75118938  1
  Sb  Sb21  1  0.47692865  0.76312258  0.74881062  1
  Sb  Sb22  1  0.02307135  0.76312258  0.24881062  1
  Sb  Sb23  1  0.52307135  0.23687742  0.25118938  1
