# generated using pymatgen
data_Tb10B2Br15
_symmetry_space_group_name_H-M   'P 1'
_cell_length_a   9.09736488
_cell_length_b   9.86602985
_cell_length_c   10.72410661
_cell_angle_alpha   91.21495718
_cell_angle_beta   114.51435623
_cell_angle_gamma   110.75748135
_symmetry_Int_Tables_number   1
_chemical_formula_structural   Tb10B2Br15
_chemical_formula_sum   'Tb10 B2 Br15'
_cell_volume   802.75330547
_cell_formula_units_Z   1
loop_
 _symmetry_equiv_pos_site_id
 _symmetry_equiv_pos_as_xyz
  1  'x, y, z'
loop_
 _atom_site_type_symbol
 _atom_site_label
 _atom_site_symmetry_multiplicity
 _atom_site_fract_x
 _atom_site_fract_y
 _atom_site_fract_z
 _atom_site_occupancy
  B  B0  1  0.46743018  0.81952845  0.87710701  1
  B  B1  1  0.53256982  0.18047155  0.12289299  1
  Br  Br2  1  0.00000000  0.00000000  0.00000000  1
  Br  Br3  1  0.63794802  0.88297038  0.58421403  1
  Br  Br4  1  0.36205198  0.11702962  0.41578597  1
  Br  Br5  1  0.88428140  0.29961242  0.52869754  1
  Br  Br6  1  0.11571860  0.70038758  0.47130246  1
  Br  Br7  1  0.29042237  0.76160455  0.18026341  1
  Br  Br8  1  0.70957763  0.23839545  0.81973659  1
  Br  Br9  1  0.05615476  0.34225704  0.22708677  1
  Br  Br10  1  0.16514264  0.05811380  0.70247172  1
  Br  Br11  1  0.83485736  0.94188620  0.29752828  1
  Br  Br12  1  0.23098209  0.41020225  0.94321003  1
  Br  Br13  1  0.76901791  0.58979775  0.05678997  1
  Br  Br14  1  0.40839573  0.46276337  0.65924006  1
  Br  Br15  1  0.59160427  0.53723663  0.34075994  1
  Br  Br16  1  0.94384524  0.65774296  0.77291323  1
  Tb  Tb17  1  0.79895636  0.40750626  0.27516297  1
  Tb  Tb18  1  0.20104364  0.59249374  0.72483703  1
  Tb  Tb19  1  0.67415253  0.74674985  0.82205137  1
  Tb  Tb20  1  0.32584747  0.25325015  0.17794863  1
  Tb  Tb21  1  0.52522031  0.70468461  0.09442304  1
  Tb  Tb22  1  0.47477969  0.29531539  0.90557696  1
  Tb  Tb23  1  0.58499666  0.04089409  0.32289422  1
  Tb  Tb24  1  0.41500334  0.95910591  0.67710578  1
  Tb  Tb25  1  0.72115139  0.07421545  0.04806773  1
  Tb  Tb26  1  0.27884861  0.92578455  0.95193227  1
