# generated using pymatgen
data_SbClF10
_symmetry_space_group_name_H-M   'P 1'
_cell_length_a   5.99957549
_cell_length_b   8.37174457
_cell_length_c   15.43880508
_cell_angle_alpha   90.00000000
_cell_angle_beta   90.00000000
_cell_angle_gamma   90.00000000
_symmetry_Int_Tables_number   1
_chemical_formula_structural   SbClF10
_chemical_formula_sum   'Sb4 Cl4 F40'
_cell_volume   775.44352777
_cell_formula_units_Z   4
loop_
 _symmetry_equiv_pos_site_id
 _symmetry_equiv_pos_as_xyz
  1  'x, y, z'
loop_
 _atom_site_type_symbol
 _atom_site_label
 _atom_site_symmetry_multiplicity
 _atom_site_fract_x
 _atom_site_fract_y
 _atom_site_fract_z
 _atom_site_occupancy
  F  F0  1  0.41029546  0.44992821  0.84317413  1
  F  F1  1  0.41029546  0.55007179  0.65682587  1
  F  F2  1  0.58970454  0.94992821  0.15682587  1
  F  F3  1  0.58970454  0.05007179  0.34317413  1
  F  F4  1  0.16537419  0.75000000  0.77899913  1
  F  F5  1  0.16537419  0.25000000  0.72100087  1
  F  F6  1  0.83462581  0.25000000  0.22100087  1
  F  F7  1  0.83462581  0.75000000  0.27899913  1
  F  F8  1  0.10467002  0.75000000  0.95475620  1
  F  F9  1  0.10467002  0.25000000  0.54524380  1
  F  F10  1  0.89532998  0.25000000  0.04524380  1
  F  F11  1  0.89532998  0.75000000  0.45475620  1
  F  F12  1  0.71628119  0.75000000  0.75475487  1
  F  F13  1  0.71628119  0.25000000  0.74524513  1
  F  F14  1  0.28371881  0.25000000  0.24524513  1
  F  F15  1  0.28371881  0.75000000  0.25475487  1
  F  F16  1  0.91084613  0.97709111  0.85355422  1
  F  F17  1  0.91084613  0.02290889  0.64644578  1
  F  F18  1  0.08915387  0.47709111  0.14644578  1
  F  F19  1  0.08915387  0.52290889  0.35355422  1
  F  F20  1  0.08915387  0.02290889  0.14644578  1
  F  F21  1  0.08915387  0.97709111  0.35355422  1
  F  F22  1  0.91084613  0.52290889  0.85355422  1
  F  F23  1  0.91084613  0.47709111  0.64644578  1
  F  F24  1  0.64863972  0.75000000  0.92895740  1
  F  F25  1  0.64863972  0.25000000  0.57104260  1
  F  F26  1  0.35136028  0.25000000  0.07104260  1
  F  F27  1  0.35136028  0.75000000  0.42895740  1
  F  F28  1  0.58970454  0.55007179  0.15682587  1
  F  F29  1  0.58970454  0.44992821  0.34317413  1
  F  F30  1  0.41029546  0.05007179  0.84317413  1
  F  F31  1  0.41029546  0.94992821  0.65682587  1
  F  F32  1  0.59511274  0.75000000  0.58634619  1
  F  F33  1  0.59511274  0.25000000  0.91365381  1
  F  F34  1  0.40488726  0.25000000  0.41365381  1
  F  F35  1  0.40488726  0.75000000  0.08634619  1
  F  F36  1  0.19517720  0.75000000  0.60039852  1
  F  F37  1  0.19517720  0.25000000  0.89960148  1
  F  F38  1  0.80482280  0.25000000  0.39960148  1
  F  F39  1  0.80482280  0.75000000  0.10039852  1
  Cl  Cl40  1  0.58902465  0.75000000  0.16074945  1
  Cl  Cl41  1  0.58902465  0.25000000  0.33925055  1
  Cl  Cl42  1  0.41097535  0.25000000  0.83925055  1
  Cl  Cl43  1  0.41097535  0.75000000  0.66074945  1
  Sb  Sb44  1  0.09193773  0.75000000  0.35784129  1
  Sb  Sb45  1  0.09193773  0.25000000  0.14215871  1
  Sb  Sb46  1  0.90806227  0.25000000  0.64215871  1
  Sb  Sb47  1  0.90806227  0.75000000  0.85784129  1
