# generated using pymatgen
data_Li2O2
_symmetry_space_group_name_H-M   'P 1'
_cell_length_a   6.67238742
_cell_length_b   6.67238725
_cell_length_c   7.90047456
_cell_angle_alpha   90.00000000
_cell_angle_beta   90.00000000
_cell_angle_gamma   120.00000086
_symmetry_Int_Tables_number   1
_chemical_formula_structural   Li2O2
_chemical_formula_sum   'Li16 O16'
_cell_volume   304.61150714
_cell_formula_units_Z   8
loop_
 _symmetry_equiv_pos_site_id
 _symmetry_equiv_pos_as_xyz
  1  'x, y, z'
loop_
 _atom_site_type_symbol
 _atom_site_label
 _atom_site_symmetry_multiplicity
 _atom_site_fract_x
 _atom_site_fract_y
 _atom_site_fract_z
 _atom_site_occupancy
  Li  Li0  1  0.16666841  0.33333682  0.64762776  1
  Li  Li1  1  0.66666700  0.33333300  0.64762641  1
  Li  Li2  1  0.50000080  0.00000160  0.14762835  1
  Li  Li3  1  0.16666841  0.83333159  0.64762776  1
  Li  Li4  1  0.16666841  0.83333159  0.35237224  1
  Li  Li5  1  0.50000080  0.49999920  0.14762835  1
  Li  Li6  1  0.99999840  0.49999920  0.14762835  1
  Li  Li7  1  0.00000000  0.00000000  0.85236876  1
  Li  Li8  1  0.66666318  0.83333159  0.35237224  1
  Li  Li9  1  0.50000080  0.49999920  0.85237165  1
  Li  Li10  1  0.00000000  0.00000000  0.14763124  1
  Li  Li11  1  0.16666841  0.33333682  0.35237224  1
  Li  Li12  1  0.66666318  0.83333159  0.64762776  1
  Li  Li13  1  0.50000080  0.00000160  0.85237165  1
  Li  Li14  1  0.99999840  0.49999920  0.85237165  1
  Li  Li15  1  0.66666700  0.33333300  0.35237359  1
  O  O16  1  0.66666466  0.83333233  0.90386246  1
  O  O17  1  0.66666700  0.33333300  0.09613737  1
  O  O18  1  0.16666767  0.33333534  0.90386246  1
  O  O19  1  0.50000063  0.00000127  0.40386233  1
  O  O20  1  0.50000063  0.49999937  0.40386233  1
  O  O21  1  0.00000000  0.00000000  0.40386743  1
  O  O22  1  0.50000063  0.49999937  0.59613767  1
  O  O23  1  0.00000000  0.00000000  0.59613257  1
  O  O24  1  0.50000063  0.00000127  0.59613767  1
  O  O25  1  0.66666700  0.33333300  0.90386263  1
  O  O26  1  0.16666767  0.33333534  0.09613754  1
  O  O27  1  0.66666466  0.83333233  0.09613754  1
  O  O28  1  0.99999873  0.49999937  0.59613767  1
  O  O29  1  0.16666767  0.83333233  0.90386246  1
  O  O30  1  0.99999873  0.49999937  0.40386233  1
  O  O31  1  0.16666767  0.83333233  0.09613754  1
