# generated using pymatgen
data_La3SbI3
_symmetry_space_group_name_H-M   'P 1'
_cell_length_a   11.22880971
_cell_length_b   11.22880970
_cell_length_c   11.22880971
_cell_angle_alpha   109.47122064
_cell_angle_beta   109.47122064
_cell_angle_gamma   109.47122064
_symmetry_Int_Tables_number   1
_chemical_formula_structural   La3SbI3
_chemical_formula_sum   'La12 Sb4 I12'
_cell_volume   1089.88148594
_cell_formula_units_Z   4
loop_
 _symmetry_equiv_pos_site_id
 _symmetry_equiv_pos_as_xyz
  1  'x, y, z'
loop_
 _atom_site_type_symbol
 _atom_site_label
 _atom_site_symmetry_multiplicity
 _atom_site_fract_x
 _atom_site_fract_y
 _atom_site_fract_z
 _atom_site_occupancy
  Sb  Sb0  1  0.50000000  0.00000000  0.25000000  1
  Sb  Sb1  1  0.00000000  0.25000000  0.50000000  1
  Sb  Sb2  1  0.25000000  0.50000000  0.00000000  1
  Sb  Sb3  1  0.25000000  0.25000000  0.25000000  1
  I  I4  1  0.25000000  0.75647983  0.74352017  1
  I  I5  1  0.99352017  0.50647983  0.25000000  1
  I  I6  1  0.50647983  0.25000000  0.99352017  1
  I  I7  1  0.75647983  0.51295966  0.50647983  1
  I  I8  1  0.74352017  0.99352017  0.98704034  1
  I  I9  1  0.98704034  0.74352017  0.99352017  1
  I  I10  1  0.51295966  0.50647983  0.75647983  1
  I  I11  1  0.50647983  0.75647983  0.51295966  1
  I  I12  1  0.25000000  0.99352017  0.50647983  1
  I  I13  1  0.99352017  0.98704034  0.74352017  1
  I  I14  1  0.74352017  0.25000000  0.75647983  1
  I  I15  1  0.75647983  0.74352017  0.25000000  1
  La  La16  1  0.01897737  0.25948868  0.00948868  1
  La  La17  1  0.00948868  0.01897737  0.25948868  1
  La  La18  1  0.00948868  0.49051132  0.75000000  1
  La  La19  1  0.25948868  0.75000000  0.24051132  1
  La  La20  1  0.25948868  0.00948868  0.01897737  1
  La  La21  1  0.75000000  0.00948868  0.49051132  1
  La  La22  1  0.75000000  0.24051132  0.25948868  1
  La  La23  1  0.24051132  0.25948868  0.75000000  1
  La  La24  1  0.49051132  0.24051132  0.48102263  1
  La  La25  1  0.24051132  0.48102263  0.49051132  1
  La  La26  1  0.49051132  0.75000000  0.00948868  1
  La  La27  1  0.48102263  0.49051132  0.24051132  1
