# generated using pymatgen
data_Co2(GeTe)3
_symmetry_space_group_name_H-M   'P 1'
_cell_length_a   8.78124381
_cell_length_b   8.78124381
_cell_length_c   8.78124381
_cell_angle_alpha   89.98961578
_cell_angle_beta   89.98961579
_cell_angle_gamma   89.98961578
_symmetry_Int_Tables_number   1
_chemical_formula_structural   Co2(GeTe)3
_chemical_formula_sum   'Co8 Ge12 Te12'
_cell_volume   677.12380970
_cell_formula_units_Z   4
loop_
 _symmetry_equiv_pos_site_id
 _symmetry_equiv_pos_as_xyz
  1  'x, y, z'
loop_
 _atom_site_type_symbol
 _atom_site_label
 _atom_site_symmetry_multiplicity
 _atom_site_fract_x
 _atom_site_fract_y
 _atom_site_fract_z
 _atom_site_occupancy
  Co  Co0  1  0.24513856  0.24513856  0.24513856  1
  Co  Co1  1  0.75486144  0.75486144  0.75486144  1
  Co  Co2  1  0.24875024  0.74583488  0.74806485  1
  Co  Co3  1  0.74806485  0.24875024  0.74583488  1
  Co  Co4  1  0.74583488  0.74806485  0.24875024  1
  Co  Co5  1  0.75124976  0.25416512  0.25193515  1
  Co  Co6  1  0.25193515  0.75124976  0.25416512  1
  Co  Co7  1  0.25416512  0.25193515  0.75124976  1
  Ge  Ge8  1  0.99658652  0.31912159  0.16765375  1
  Ge  Ge9  1  0.16765375  0.99658652  0.31912159  1
  Ge  Ge10  1  0.31912159  0.16765375  0.99658652  1
  Ge  Ge11  1  0.00341348  0.68087841  0.83234625  1
  Ge  Ge12  1  0.83234625  0.00341348  0.68087841  1
  Ge  Ge13  1  0.68087841  0.83234625  0.00341348  1
  Ge  Ge14  1  0.50077440  0.81909165  0.33164579  1
  Ge  Ge15  1  0.33164579  0.50077440  0.81909165  1
  Ge  Ge16  1  0.81909165  0.33164579  0.50077440  1
  Ge  Ge17  1  0.49922560  0.18090835  0.66835421  1
  Ge  Ge18  1  0.66835421  0.49922560  0.18090835  1
  Ge  Ge19  1  0.18090835  0.66835421  0.49922560  1
  Te  Te20  1  0.99919831  0.34406376  0.85156655  1
  Te  Te21  1  0.85156655  0.99919831  0.34406376  1
  Te  Te22  1  0.34406376  0.85156655  0.99919831  1
  Te  Te23  1  0.00080169  0.65593624  0.14843345  1
  Te  Te24  1  0.14843345  0.00080169  0.65593624  1
  Te  Te25  1  0.65593624  0.14843345  0.00080169  1
  Te  Te26  1  0.50421268  0.84447146  0.64796403  1
  Te  Te27  1  0.64796403  0.50421268  0.84447146  1
  Te  Te28  1  0.84447146  0.64796403  0.50421268  1
  Te  Te29  1  0.49578732  0.15552854  0.35203597  1
  Te  Te30  1  0.35203597  0.49578732  0.15552854  1
  Te  Te31  1  0.15552854  0.35203597  0.49578732  1
