# generated using pymatgen
data_TaAgF6
_symmetry_space_group_name_H-M   'P 1'
_cell_length_a   5.11829781
_cell_length_b   5.11829781
_cell_length_c   9.70782654
_cell_angle_alpha   90.00000000
_cell_angle_beta   90.00000000
_cell_angle_gamma   90.00000000
_symmetry_Int_Tables_number   1
_chemical_formula_structural   TaAgF6
_chemical_formula_sum   'Ta2 Ag2 F12'
_cell_volume   254.31566463
_cell_formula_units_Z   2
loop_
 _symmetry_equiv_pos_site_id
 _symmetry_equiv_pos_as_xyz
  1  'x, y, z'
loop_
 _atom_site_type_symbol
 _atom_site_label
 _atom_site_symmetry_multiplicity
 _atom_site_fract_x
 _atom_site_fract_y
 _atom_site_fract_z
 _atom_site_occupancy
  F  F0  1  0.80984749  0.19015251  0.86063864  1
  F  F1  1  0.19015251  0.80984749  0.86063864  1
  F  F2  1  0.19015251  0.80984749  0.13936136  1
  F  F3  1  0.19015251  0.19015251  0.36063864  1
  F  F4  1  0.73362861  0.73362861  0.00000000  1
  F  F5  1  0.26637139  0.73362861  0.50000000  1
  F  F6  1  0.73362861  0.26637139  0.50000000  1
  F  F7  1  0.26637139  0.26637139  0.00000000  1
  F  F8  1  0.80984749  0.19015251  0.13936136  1
  F  F9  1  0.80984749  0.80984749  0.63936136  1
  F  F10  1  0.19015251  0.19015251  0.63936136  1
  F  F11  1  0.80984749  0.80984749  0.36063864  1
  Ag  Ag12  1  0.50000000  0.50000000  0.25000000  1
  Ag  Ag13  1  0.50000000  0.50000000  0.75000000  1
  Ta  Ta14  1  0.00000000  0.00000000  0.00000000  1
  Ta  Ta15  1  0.00000000  0.00000000  0.50000000  1
