# generated using pymatgen
data_La3PI3
_symmetry_space_group_name_H-M   'P 1'
_cell_length_a   10.87722175
_cell_length_b   10.87722174
_cell_length_c   10.87722174
_cell_angle_alpha   109.47122064
_cell_angle_beta   109.47122062
_cell_angle_gamma   109.47122063
_symmetry_Int_Tables_number   1
_chemical_formula_structural   La3PI3
_chemical_formula_sum   'La12 P4 I12'
_cell_volume   990.67694350
_cell_formula_units_Z   4
loop_
 _symmetry_equiv_pos_site_id
 _symmetry_equiv_pos_as_xyz
  1  'x, y, z'
loop_
 _atom_site_type_symbol
 _atom_site_label
 _atom_site_symmetry_multiplicity
 _atom_site_fract_x
 _atom_site_fract_y
 _atom_site_fract_z
 _atom_site_occupancy
  P  P0  1  0.50000000  0.00000000  0.25000000  1
  P  P1  1  0.00000000  0.25000000  0.50000000  1
  P  P2  1  0.25000000  0.50000000  0.00000000  1
  P  P3  1  0.25000000  0.25000000  0.25000000  1
  I  I4  1  0.25000000  0.75884482  0.74115518  1
  I  I5  1  0.99115518  0.50884482  0.25000000  1
  I  I6  1  0.50884482  0.25000000  0.99115518  1
  I  I7  1  0.75884482  0.51768964  0.50884482  1
  I  I8  1  0.74115518  0.99115518  0.98231036  1
  I  I9  1  0.98231036  0.74115518  0.99115518  1
  I  I10  1  0.51768964  0.50884482  0.75884482  1
  I  I11  1  0.50884482  0.75884482  0.51768964  1
  I  I12  1  0.25000000  0.99115518  0.50884482  1
  I  I13  1  0.99115518  0.98231036  0.74115518  1
  I  I14  1  0.74115518  0.25000000  0.75884482  1
  I  I15  1  0.75884482  0.74115518  0.25000000  1
  La  La16  1  0.03673535  0.26836767  0.01836767  1
  La  La17  1  0.01836767  0.03673535  0.26836767  1
  La  La18  1  0.01836767  0.48163233  0.75000000  1
  La  La19  1  0.26836767  0.75000000  0.23163233  1
  La  La20  1  0.26836767  0.01836767  0.03673535  1
  La  La21  1  0.75000000  0.01836767  0.48163233  1
  La  La22  1  0.75000000  0.23163233  0.26836767  1
  La  La23  1  0.23163233  0.26836767  0.75000000  1
  La  La24  1  0.48163233  0.23163233  0.46326465  1
  La  La25  1  0.23163233  0.46326465  0.48163233  1
  La  La26  1  0.48163233  0.75000000  0.01836767  1
  La  La27  1  0.46326465  0.48163233  0.23163233  1
