# generated using pymatgen
data_Rb2BeF4
_symmetry_space_group_name_H-M   'P 1'
_cell_length_a   5.98264726
_cell_length_b   7.80509873
_cell_length_c   10.43513884
_cell_angle_alpha   90.00000000
_cell_angle_beta   90.00000000
_cell_angle_gamma   90.00000000
_symmetry_Int_Tables_number   1
_chemical_formula_structural   Rb2BeF4
_chemical_formula_sum   'Rb8 Be4 F16'
_cell_volume   487.27039982
_cell_formula_units_Z   4
loop_
 _symmetry_equiv_pos_site_id
 _symmetry_equiv_pos_as_xyz
  1  'x, y, z'
loop_
 _atom_site_type_symbol
 _atom_site_label
 _atom_site_symmetry_multiplicity
 _atom_site_fract_x
 _atom_site_fract_y
 _atom_site_fract_z
 _atom_site_occupancy
  Be  Be0  1  0.74733081  0.76301923  0.58131605  1
  Be  Be1  1  0.24733081  0.73698077  0.08131605  1
  Be  Be2  1  0.74733081  0.26301923  0.91868395  1
  Be  Be3  1  0.24733081  0.23698077  0.41868395  1
  F  F4  1  0.03216088  0.80902848  0.14904853  1
  F  F5  1  0.53216088  0.19097152  0.85095147  1
  F  F6  1  0.53216088  0.69097152  0.64904853  1
  F  F7  1  0.03216088  0.30902848  0.35095147  1
  F  F8  1  0.46153455  0.30722573  0.34889282  1
  F  F9  1  0.46153455  0.80722573  0.15110718  1
  F  F10  1  0.96153455  0.69277427  0.65110718  1
  F  F11  1  0.96153455  0.19277427  0.84889282  1
  F  F12  1  0.24558626  0.03693897  0.41407231  1
  F  F13  1  0.74558626  0.96306103  0.58592769  1
  F  F14  1  0.74558626  0.46306103  0.91407231  1
  F  F15  1  0.24558626  0.53693897  0.08592769  1
  F  F16  1  0.24966115  0.30580247  0.56118261  1
  F  F17  1  0.74966115  0.69419753  0.43881739  1
  F  F18  1  0.74966115  0.19419753  0.06118261  1
  F  F19  1  0.24966115  0.80580247  0.93881739  1
  Rb  Rb20  1  0.24827405  0.48783344  0.80844246  1
  Rb  Rb21  1  0.74827405  0.51216656  0.19155754  1
  Rb  Rb22  1  0.74827405  0.01216656  0.30844246  1
  Rb  Rb23  1  0.24827405  0.98783344  0.69155754  1
  Rb  Rb24  1  0.24825231  0.16315641  0.09208419  1
  Rb  Rb25  1  0.74825231  0.83684359  0.90791581  1
  Rb  Rb26  1  0.74825231  0.33684359  0.59208419  1
  Rb  Rb27  1  0.24825231  0.66315641  0.40791581  1
