# generated using pymatgen
data_Th2AuF11
_symmetry_space_group_name_H-M   'P 1'
_cell_length_a   6.37086666
_cell_length_b   8.72257092
_cell_length_c   8.72257091
_cell_angle_alpha   82.33580442
_cell_angle_beta   68.58045823
_cell_angle_gamma   68.58045818
_symmetry_Int_Tables_number   1
_chemical_formula_structural   Th2AuF11
_chemical_formula_sum   'Th4 Au2 F22'
_cell_volume   420.07110676
_cell_formula_units_Z   2
loop_
 _symmetry_equiv_pos_site_id
 _symmetry_equiv_pos_as_xyz
  1  'x, y, z'
loop_
 _atom_site_type_symbol
 _atom_site_label
 _atom_site_symmetry_multiplicity
 _atom_site_fract_x
 _atom_site_fract_y
 _atom_site_fract_z
 _atom_site_occupancy
  F  F0  1  0.39602710  0.96924508  0.23870072  1
  F  F1  1  0.60397290  0.03075492  0.76129928  1
  F  F2  1  0.63472782  0.76129928  0.96924508  1
  F  F3  1  0.36527218  0.23870072  0.03075492  1
  F  F4  1  0.10397290  0.76129928  0.03075492  1
  F  F5  1  0.13472782  0.96924508  0.76129928  1
  F  F6  1  0.00000000  0.50000000  0.50000000  1
  F  F7  1  0.50000000  0.50000000  0.50000000  1
  F  F8  1  0.00000000  0.50000000  0.00000000  1
  F  F9  1  0.00000000  0.00000000  0.50000000  1
  F  F10  1  0.50000000  0.00000000  0.50000000  1
  F  F11  1  0.50000000  0.50000000  0.00000000  1
  F  F12  1  0.55965581  0.69034419  0.69034419  1
  F  F13  1  0.25000000  0.30965581  0.69034419  1
  F  F14  1  0.25000000  0.69034419  0.30965581  1
  F  F15  1  0.94034419  0.30965581  0.30965581  1
  F  F16  1  0.44034419  0.30965581  0.30965581  1
  F  F17  1  0.75000000  0.69034419  0.30965581  1
  F  F18  1  0.75000000  0.30965581  0.69034419  1
  F  F19  1  0.05965581  0.69034419  0.69034419  1
  F  F20  1  0.89602710  0.23870072  0.96924508  1
  F  F21  1  0.86527218  0.03075492  0.23870072  1
  Au  Au22  1  0.50000000  0.00000000  0.00000000  1
  Au  Au23  1  0.00000000  0.00000000  0.00000000  1
  Th  Th24  1  0.14347562  0.50000000  0.21304877  1
  Th  Th25  1  0.35652438  0.78695123  0.50000000  1
  Th  Th26  1  0.64347562  0.21304877  0.50000000  1
  Th  Th27  1  0.85652438  0.50000000  0.78695123  1
