# generated using pymatgen
data_Er(ClO4)3
_symmetry_space_group_name_H-M   'P 1'
_cell_length_a   9.45847390
_cell_length_b   9.45847390
_cell_length_c   5.57079997
_cell_angle_alpha   90.00000000
_cell_angle_beta   90.00000000
_cell_angle_gamma   119.99999997
_symmetry_Int_Tables_number   1
_chemical_formula_structural   Er(ClO4)3
_chemical_formula_sum   'Er2 Cl6 O24'
_cell_volume   431.60884478
_cell_formula_units_Z   2
loop_
 _symmetry_equiv_pos_site_id
 _symmetry_equiv_pos_as_xyz
  1  'x, y, z'
loop_
 _atom_site_type_symbol
 _atom_site_label
 _atom_site_symmetry_multiplicity
 _atom_site_fract_x
 _atom_site_fract_y
 _atom_site_fract_z
 _atom_site_occupancy
  O  O0  1  0.80766478  0.78070109  0.75000000  1
  O  O1  1  0.02696369  0.80766478  0.25000000  1
  O  O2  1  0.78070109  0.97303631  0.25000000  1
  O  O3  1  0.21929891  0.02696369  0.75000000  1
  O  O4  1  0.97303631  0.19233522  0.75000000  1
  O  O5  1  0.19233522  0.21929891  0.25000000  1
  O  O6  1  0.79821893  0.26031717  0.53768101  1
  O  O7  1  0.53790176  0.79821893  0.03768101  1
  O  O8  1  0.46872376  0.44276010  0.25000000  1
  O  O9  1  0.02596365  0.46872376  0.75000000  1
  O  O10  1  0.44276010  0.97403635  0.75000000  1
  O  O11  1  0.55723990  0.02596365  0.25000000  1
  O  O12  1  0.97403635  0.53127624  0.25000000  1
  O  O13  1  0.53127624  0.55723990  0.75000000  1
  O  O14  1  0.79821893  0.26031717  0.96231899  1
  O  O15  1  0.53790176  0.79821893  0.46231899  1
  O  O16  1  0.26031717  0.46209824  0.46231899  1
  O  O17  1  0.73968283  0.53790176  0.96231899  1
  O  O18  1  0.46209824  0.20178107  0.96231899  1
  O  O19  1  0.20178107  0.73968283  0.46231899  1
  O  O20  1  0.20178107  0.73968283  0.03768101  1
  O  O21  1  0.46209824  0.20178107  0.53768101  1
  O  O22  1  0.73968283  0.53790176  0.53768101  1
  O  O23  1  0.26031717  0.46209824  0.03768101  1
  Cl  Cl24  1  0.70466984  0.60891884  0.75000000  1
  Cl  Cl25  1  0.09575100  0.70466984  0.25000000  1
  Cl  Cl26  1  0.60891884  0.90424900  0.25000000  1
  Cl  Cl27  1  0.39108116  0.09575100  0.75000000  1
  Cl  Cl28  1  0.90424900  0.29533016  0.75000000  1
  Cl  Cl29  1  0.29533016  0.39108116  0.25000000  1
  Er  Er30  1  0.33333333  0.66666667  0.75000000  1
  Er  Er31  1  0.66666667  0.33333333  0.25000000  1
