# generated using pymatgen
data_Nd(AlBr4)3
_symmetry_space_group_name_H-M   'P 1'
_cell_length_a   10.88746663
_cell_length_b   10.88746664
_cell_length_c   18.90611273
_cell_angle_alpha   90.00000000
_cell_angle_beta   90.00000000
_cell_angle_gamma   120.00000001
_symmetry_Int_Tables_number   1
_chemical_formula_structural   Nd(AlBr4)3
_chemical_formula_sum   'Nd3 Al9 Br36'
_cell_volume   1940.82576468
_cell_formula_units_Z   3
loop_
 _symmetry_equiv_pos_site_id
 _symmetry_equiv_pos_as_xyz
  1  'x, y, z'
loop_
 _atom_site_type_symbol
 _atom_site_label
 _atom_site_symmetry_multiplicity
 _atom_site_fract_x
 _atom_site_fract_y
 _atom_site_fract_z
 _atom_site_occupancy
  Al  Al0  1  0.90289557  0.90289557  0.50000000  1
  Al  Al1  1  0.34032093  0.70302863  0.38730132  1
  Al  Al2  1  0.29697137  0.63729229  0.72063466  1
  Al  Al3  1  0.36270771  0.65967907  0.05396799  1
  Al  Al4  1  0.09710443  0.00000000  0.83333333  1
  Al  Al5  1  0.00000000  0.09710443  0.16666667  1
  Al  Al6  1  0.70302863  0.34032093  0.61269868  1
  Al  Al7  1  0.65967907  0.36270771  0.94603201  1
  Al  Al8  1  0.63729229  0.29697137  0.27936534  1
  Br  Br9  1  0.29111967  0.51314936  0.45619750  1
  Br  Br10  1  0.22202969  0.70888033  0.12286417  1
  Br  Br11  1  0.48685064  0.77797031  0.78953084  1
  Br  Br12  1  0.71591471  0.48613621  0.71021745  1
  Br  Br13  1  0.51386379  0.22977850  0.04355079  1
  Br  Br14  1  0.77022150  0.28408529  0.37688412  1
  Br  Br15  1  0.22977850  0.51386379  0.95644921  1
  Br  Br16  1  0.28408529  0.77022150  0.62311588  1
  Br  Br17  1  0.48613621  0.71591471  0.28978255  1
  Br  Br18  1  0.92007771  0.51292644  0.55597724  1
  Br  Br19  1  0.48707356  0.40715127  0.88931058  1
  Br  Br20  1  0.59284873  0.07992229  0.22264391  1
  Br  Br21  1  0.40715127  0.48707356  0.11068942  1
  Br  Br22  1  0.07992229  0.59284873  0.77735609  1
  Br  Br23  1  0.51292644  0.92007771  0.44402276  1
  Br  Br24  1  0.12069215  0.92632625  0.53100351  1
  Br  Br25  1  0.07367375  0.19436589  0.86433684  1
  Br  Br26  1  0.80563411  0.87930785  0.19767017  1
  Br  Br27  1  0.19436589  0.07367375  0.13566316  1
  Br  Br28  1  0.87930785  0.80563411  0.80232983  1
  Br  Br29  1  0.92632625  0.12069215  0.46899649  1
  Br  Br30  1  0.22850361  0.02721085  0.73092923  1
  Br  Br31  1  0.97278915  0.20129276  0.06426256  1
  Br  Br32  1  0.79870724  0.77149639  0.39759590  1
  Br  Br33  1  0.20129276  0.97278915  0.93573744  1
  Br  Br34  1  0.77149639  0.79870724  0.60240410  1
  Br  Br35  1  0.02721085  0.22850361  0.26907077  1
  Br  Br36  1  0.15272304  0.72283780  0.34980986  1
  Br  Br37  1  0.27716220  0.42988525  0.68314320  1
  Br  Br38  1  0.57011475  0.84727696  0.01647653  1
  Br  Br39  1  0.42988525  0.27716220  0.31685680  1
  Br  Br40  1  0.84727696  0.57011475  0.98352347  1
  Br  Br41  1  0.72283780  0.15272304  0.65019014  1
  Br  Br42  1  0.51314936  0.29111967  0.54380250  1
  Br  Br43  1  0.70888033  0.22202969  0.87713583  1
  Br  Br44  1  0.77797031  0.48685064  0.21046916  1
  Nd  Nd45  1  0.00000000  0.73392402  0.66666667  1
  Nd  Nd46  1  0.73392402  0.00000000  0.33333333  1
  Nd  Nd47  1  0.26607598  0.26607598  0.00000000  1
