# generated using pymatgen
data_Fe3(O2F)2
_symmetry_space_group_name_H-M   'P 1'
_cell_length_a   4.68692097
_cell_length_b   7.68465711
_cell_length_c   5.62693587
_cell_angle_alpha   94.71175274
_cell_angle_beta   92.11633503
_cell_angle_gamma   88.87116207
_symmetry_Int_Tables_number   1
_chemical_formula_structural   Fe3(O2F)2
_chemical_formula_sum   'Fe6 O8 F4'
_cell_volume   201.81654986
_cell_formula_units_Z   2
loop_
 _symmetry_equiv_pos_site_id
 _symmetry_equiv_pos_as_xyz
  1  'x, y, z'
loop_
 _atom_site_type_symbol
 _atom_site_label
 _atom_site_symmetry_multiplicity
 _atom_site_fract_x
 _atom_site_fract_y
 _atom_site_fract_z
 _atom_site_occupancy
  Fe  Fe0  1  0.50262780  0.65975064  0.17168748  1
  Fe  Fe1  1  0.48784386  0.99751753  0.48944840  1
  Fe  Fe2  1  0.50904884  0.35557762  0.81392494  1
  Fe  Fe3  1  0.00321934  0.67397385  0.66294819  1
  Fe  Fe4  1  0.96992093  0.31933056  0.35347557  1
  Fe  Fe5  1  0.02336281  0.99713628  0.00914967  1
  O  O6  1  0.81354105  0.44735576  0.63428768  1
  O  O7  1  0.81052168  0.09210190  0.29016844  1
  O  O8  1  0.69416731  0.76449184  0.46001755  1
  O  O9  1  0.69030817  0.43698516  0.12996224  1
  O  O10  1  0.30000157  0.57554874  0.87612562  1
  O  O11  1  0.31225935  0.23179077  0.53725155  1
  O  O12  1  0.30587081  0.88289368  0.20130010  1
  O  O13  1  0.18568695  0.89788833  0.70594251  1
  F  F14  1  0.79394509  0.77256445  0.96140183  1
  F  F15  1  0.70165319  0.10367817  0.80074885  1
  F  F16  1  0.20046210  0.23412580  0.03396017  1
  F  F17  1  0.19555815  0.55728692  0.36820221  1
