# generated using pymatgen
data_ZrCu2Te3
_symmetry_space_group_name_H-M   'P 1'
_cell_length_a   4.08450515
_cell_length_b   7.37421665
_cell_length_c   10.47921079
_cell_angle_alpha   98.42753235
_cell_angle_beta   101.23807027
_cell_angle_gamma   89.99999999
_symmetry_Int_Tables_number   1
_chemical_formula_structural   ZrCu2Te3
_chemical_formula_sum   'Zr2 Cu4 Te6'
_cell_volume   306.10650822
_cell_formula_units_Z   2
loop_
 _symmetry_equiv_pos_site_id
 _symmetry_equiv_pos_as_xyz
  1  'x, y, z'
loop_
 _atom_site_type_symbol
 _atom_site_label
 _atom_site_symmetry_multiplicity
 _atom_site_fract_x
 _atom_site_fract_y
 _atom_site_fract_z
 _atom_site_occupancy
  Cu  Cu0  1  0.54872116  0.14944292  0.09744232  1
  Cu  Cu1  1  0.45127884  0.85055708  0.90255768  1
  Cu  Cu2  1  0.78649003  0.57384189  0.57298007  1
  Cu  Cu3  1  0.21350997  0.42615811  0.42701993  1
  Zr  Zr4  1  0.85392843  0.94580556  0.70785686  1
  Zr  Zr5  1  0.14607157  0.05419444  0.29214314  1
  Te  Te6  1  0.57996135  0.82007135  0.15992269  1
  Te  Te7  1  0.42003865  0.17992865  0.84007731  1
  Te  Te8  1  0.25004734  0.78192004  0.50009469  1
  Te  Te9  1  0.74995266  0.21807996  0.49990531  1
  Te  Te10  1  0.91607550  0.63560137  0.83215100  1
  Te  Te11  1  0.08392450  0.36439863  0.16784900  1
