# generated using pymatgen
data_Bi2Te7Cl8
_symmetry_space_group_name_H-M   'P 1'
_cell_length_a   5.59870815
_cell_length_b   13.55310495
_cell_length_c   15.51883623
_cell_angle_alpha   103.82341430
_cell_angle_beta   95.23459505
_cell_angle_gamma   96.45966433
_symmetry_Int_Tables_number   1
_chemical_formula_structural   Bi2Te7Cl8
_chemical_formula_sum   'Bi4 Te14 Cl16'
_cell_volume   1127.65639793
_cell_formula_units_Z   2
loop_
 _symmetry_equiv_pos_site_id
 _symmetry_equiv_pos_as_xyz
  1  'x, y, z'
loop_
 _atom_site_type_symbol
 _atom_site_label
 _atom_site_symmetry_multiplicity
 _atom_site_fract_x
 _atom_site_fract_y
 _atom_site_fract_z
 _atom_site_occupancy
  Cl  Cl0  1  0.80283830  0.15281478  0.11134293  1
  Cl  Cl1  1  0.19716170  0.84718522  0.88865707  1
  Cl  Cl2  1  0.35400737  0.27535829  0.22945571  1
  Cl  Cl3  1  0.64599263  0.72464171  0.77054429  1
  Cl  Cl4  1  0.90308139  0.44950292  0.22529705  1
  Cl  Cl5  1  0.09691861  0.55049708  0.77470295  1
  Cl  Cl6  1  0.84574117  0.73850733  0.53519861  1
  Cl  Cl7  1  0.15425883  0.26149267  0.46480139  1
  Cl  Cl8  1  0.72732298  0.42328009  0.44112632  1
  Cl  Cl9  1  0.27267702  0.57671991  0.55887368  1
  Cl  Cl10  1  0.47122029  0.60328355  0.33036915  1
  Cl  Cl11  1  0.52877971  0.39671645  0.66963085  1
  Cl  Cl12  1  0.01250474  0.75721426  0.31312634  1
  Cl  Cl13  1  0.98749526  0.24278574  0.68687366  1
  Cl  Cl14  1  0.35471370  0.91859854  0.69167134  1
  Cl  Cl15  1  0.64528630  0.08140146  0.30832866  1
  Te  Te16  1  0.81170984  0.98237188  0.56286072  1
  Te  Te17  1  0.18829016  0.01762812  0.43713928  1
  Te  Te18  1  0.46732726  0.80926492  0.16628220  1
  Te  Te19  1  0.53267274  0.19073508  0.83371780  1
  Te  Te20  1  0.16981925  0.95675239  0.15111168  1
  Te  Te21  1  0.83018075  0.04324761  0.84888832  1
  Te  Te22  1  0.77858720  0.83642967  0.03564392  1
  Te  Te23  1  0.22141280  0.16357033  0.96435608  1
  Te  Te24  1  0.05834216  0.65033894  0.04655219  1
  Te  Te25  1  0.94165784  0.34966106  0.95344781  1
  Te  Te26  1  0.35430510  0.49133889  0.06834169  1
  Te  Te27  1  0.64569490  0.50866111  0.93165831  1
  Te  Te28  1  0.55944941  0.14710700  0.56386458  1
  Te  Te29  1  0.44055059  0.85289300  0.43613542  1
  Bi  Bi30  1  0.79160404  0.25940400  0.27426192  1
  Bi  Bi31  1  0.20839596  0.74059600  0.72573808  1
  Bi  Bi32  1  0.90575202  0.59181125  0.38978873  1
  Bi  Bi33  1  0.09424798  0.40818875  0.61021127  1
