# generated using pymatgen
data_K2GaSb2
_symmetry_space_group_name_H-M   'P 1'
_cell_length_a   9.27020784
_cell_length_b   10.55011216
_cell_length_c   15.29524415
_cell_angle_alpha   90.00000000
_cell_angle_beta   90.00000000
_cell_angle_gamma   90.00000000
_symmetry_Int_Tables_number   1
_chemical_formula_structural   K2GaSb2
_chemical_formula_sum   'K16 Ga8 Sb16'
_cell_volume   1495.90137625
_cell_formula_units_Z   8
loop_
 _symmetry_equiv_pos_site_id
 _symmetry_equiv_pos_as_xyz
  1  'x, y, z'
loop_
 _atom_site_type_symbol
 _atom_site_label
 _atom_site_symmetry_multiplicity
 _atom_site_fract_x
 _atom_site_fract_y
 _atom_site_fract_z
 _atom_site_occupancy
  K  K0  1  0.77034209  0.02673819  0.48519008  1
  K  K1  1  0.72965791  0.47326181  0.98519008  1
  K  K2  1  0.22965791  0.52673819  0.51480992  1
  K  K3  1  0.27034209  0.97326181  0.01480992  1
  K  K4  1  0.27034209  0.52673819  0.01480992  1
  K  K5  1  0.77034209  0.47326181  0.48519008  1
  K  K6  1  0.72965791  0.02673819  0.98519008  1
  K  K7  1  0.22965791  0.97326181  0.51480992  1
  K  K8  1  0.41125100  0.52937602  0.26579789  1
  K  K9  1  0.91125100  0.47062398  0.23420211  1
  K  K10  1  0.58874900  0.02937602  0.73420211  1
  K  K11  1  0.91125100  0.02937602  0.23420211  1
  K  K12  1  0.58874900  0.47062398  0.73420211  1
  K  K13  1  0.08874900  0.52937602  0.76579789  1
  K  K14  1  0.41125100  0.97062398  0.26579789  1
  K  K15  1  0.08874900  0.97062398  0.76579789  1
  Ga  Ga16  1  0.58399141  0.75000000  0.59490580  1
  Ga  Ga17  1  0.27622107  0.25000000  0.67886256  1
  Ga  Ga18  1  0.22377893  0.25000000  0.17886256  1
  Ga  Ga19  1  0.72377893  0.75000000  0.32113744  1
  Ga  Ga20  1  0.08399141  0.25000000  0.90509420  1
  Ga  Ga21  1  0.91600859  0.75000000  0.09490580  1
  Ga  Ga22  1  0.41600859  0.25000000  0.40509420  1
  Ga  Ga23  1  0.77622107  0.75000000  0.82113744  1
  Sb  Sb24  1  0.84890269  0.75000000  0.65218797  1
  Sb  Sb25  1  0.00217145  0.25000000  0.06891293  1
  Sb  Sb26  1  0.49782855  0.25000000  0.56891293  1
  Sb  Sb27  1  0.99782855  0.75000000  0.93108707  1
  Sb  Sb28  1  0.50217145  0.75000000  0.43108707  1
  Sb  Sb29  1  0.34890269  0.25000000  0.84781203  1
  Sb  Sb30  1  0.15109731  0.25000000  0.34781203  1
  Sb  Sb31  1  0.65109731  0.75000000  0.15218797  1
  Sb  Sb32  1  0.50522839  0.75000000  0.87169003  1
  Sb  Sb33  1  0.00522839  0.25000000  0.62830997  1
  Sb  Sb34  1  0.49477161  0.25000000  0.12830997  1
  Sb  Sb35  1  0.99477161  0.75000000  0.37169003  1
  Sb  Sb36  1  0.36540309  0.75000000  0.70304528  1
  Sb  Sb37  1  0.86540309  0.25000000  0.79695472  1
  Sb  Sb38  1  0.63459691  0.25000000  0.29695472  1
  Sb  Sb39  1  0.13459691  0.75000000  0.20304528  1
