# generated using pymatgen
data_Ba4I6O
_symmetry_space_group_name_H-M   'P 1'
_cell_length_a   11.06984113
_cell_length_b   11.06984114
_cell_length_c   8.62625512
_cell_angle_alpha   90.00000000
_cell_angle_beta   90.00000000
_cell_angle_gamma   120.00000001
_symmetry_Int_Tables_number   1
_chemical_formula_structural   Ba4I6O
_chemical_formula_sum   'Ba8 I12 O2'
_cell_volume   915.45227089
_cell_formula_units_Z   2
loop_
 _symmetry_equiv_pos_site_id
 _symmetry_equiv_pos_as_xyz
  1  'x, y, z'
loop_
 _atom_site_type_symbol
 _atom_site_label
 _atom_site_symmetry_multiplicity
 _atom_site_fract_x
 _atom_site_fract_y
 _atom_site_fract_z
 _atom_site_occupancy
  O  O0  1  0.66666667  0.33333333  0.22446615  1
  O  O1  1  0.33333333  0.66666667  0.72446615  1
  I  I2  1  0.86056911  0.72113822  0.51079363  1
  I  I3  1  0.13943089  0.86056911  0.01079363  1
  I  I4  1  0.72113822  0.86056911  0.01079363  1
  I  I5  1  0.27886178  0.13943089  0.51079363  1
  I  I6  1  0.86056911  0.13943089  0.51079363  1
  I  I7  1  0.13943089  0.27886178  0.01079363  1
  I  I8  1  0.53318341  0.46681659  0.82713741  1
  I  I9  1  0.06636682  0.53318341  0.32713741  1
  I  I10  1  0.46681659  0.93363318  0.32713741  1
  I  I11  1  0.53318341  0.06636682  0.82713741  1
  I  I12  1  0.93363318  0.46681659  0.82713741  1
  I  I13  1  0.46681659  0.53318341  0.32713741  1
  Ba  Ba14  1  0.79551989  0.59103979  0.12996518  1
  Ba  Ba15  1  0.20448011  0.79551989  0.62996518  1
  Ba  Ba16  1  0.59103979  0.79551989  0.62996518  1
  Ba  Ba17  1  0.40896021  0.20448011  0.12996518  1
  Ba  Ba18  1  0.79551989  0.20448011  0.12996518  1
  Ba  Ba19  1  0.20448011  0.40896021  0.62996518  1
  Ba  Ba20  1  0.66666667  0.33333333  0.52373519  1
  Ba  Ba21  1  0.33333333  0.66666667  0.02373519  1
