# generated using pymatgen
data_Co2O3F
_symmetry_space_group_name_H-M   'P 1'
_cell_length_a   4.40209299
_cell_length_b   9.25118840
_cell_length_c   5.91010851
_cell_angle_alpha   71.40000572
_cell_angle_beta   90.11875842
_cell_angle_gamma   89.13146092
_symmetry_Int_Tables_number   1
_chemical_formula_structural   Co2O3F
_chemical_formula_sum   'Co8 O12 F4'
_cell_volume   228.08304320
_cell_formula_units_Z   4
loop_
 _symmetry_equiv_pos_site_id
 _symmetry_equiv_pos_as_xyz
  1  'x, y, z'
loop_
 _atom_site_type_symbol
 _atom_site_label
 _atom_site_symmetry_multiplicity
 _atom_site_fract_x
 _atom_site_fract_y
 _atom_site_fract_z
 _atom_site_occupancy
  Co  Co0  1  0.46737948  0.23804765  0.62928717  1
  Co  Co1  1  0.52021597  0.26439980  0.11934578  1
  Co  Co2  1  0.51167900  0.74501286  0.38391180  1
  Co  Co3  1  0.53278342  0.75501373  0.86430753  1
  Co  Co4  1  0.98795331  0.99444749  0.50321456  1
  Co  Co5  1  0.00897224  0.49971491  0.74763606  1
  Co  Co6  1  0.96506935  0.00436186  0.99743669  1
  Co  Co7  1  0.00616503  0.50111866  0.25276315  1
  O  O8  1  0.80262222  0.89655423  0.30400920  1
  O  O9  1  0.80896850  0.40650292  0.04726085  1
  O  O10  1  0.80147505  0.90011198  0.79599405  1
  O  O11  1  0.67549746  0.15606640  0.92390063  1
  O  O12  1  0.70318052  0.65341350  0.17290231  1
  O  O13  1  0.68508798  0.15096722  0.42231178  1
  O  O14  1  0.70420025  0.65274893  0.67280875  1
  O  O15  1  0.30180031  0.34614533  0.82743438  1
  O  O16  1  0.30344535  0.34631003  0.32698066  1
  O  O17  1  0.31726127  0.84418300  0.57771299  1
  O  O18  1  0.20215359  0.59711582  0.45190001  1
  O  O19  1  0.18160874  0.09449386  0.70191287  1
  F  F20  1  0.78287606  0.38996323  0.55502962  1
  F  F21  1  0.30999720  0.85063212  0.07573545  1
  F  F22  1  0.22163348  0.60862566  0.94638140  1
  F  F23  1  0.19797520  0.10404782  0.19982432  1
