# generated using pymatgen
data_Hg3(SI)2
_symmetry_space_group_name_H-M   'P 1'
_cell_length_a   9.77515834
_cell_length_b   10.02467857
_cell_length_c   11.98400332
_cell_angle_alpha   114.72430927
_cell_angle_beta   114.06934080
_cell_angle_gamma   89.99999999
_symmetry_Int_Tables_number   1
_chemical_formula_structural   Hg3(SI)2
_chemical_formula_sum   'Hg12 S8 I8'
_cell_volume   953.12494034
_cell_formula_units_Z   4
loop_
 _symmetry_equiv_pos_site_id
 _symmetry_equiv_pos_as_xyz
  1  'x, y, z'
loop_
 _atom_site_type_symbol
 _atom_site_label
 _atom_site_symmetry_multiplicity
 _atom_site_fract_x
 _atom_site_fract_y
 _atom_site_fract_z
 _atom_site_occupancy
  S  S0  1  0.87469445  0.11735987  0.75046165  1
  S  S1  1  0.62423280  0.38264013  0.24953835  1
  S  S2  1  0.12530555  0.36689822  0.24953835  1
  S  S3  1  0.37576720  0.13310178  0.75046165  1
  S  S4  1  0.12530555  0.88264013  0.24953835  1
  S  S5  1  0.37576720  0.61735987  0.75046165  1
  S  S6  1  0.87469445  0.63310178  0.75046165  1
  S  S7  1  0.62423280  0.86689822  0.24953835  1
  I  I8  1  0.74251232  -0.00066534  -0.00133068  1
  I  I9  1  0.24384300  0.50066534  1.00133068  1
  I  I10  1  0.25748768  1.00066534  1.00133068  1
  I  I11  1  0.75615700  0.49933466  -0.00133068  1
  I  I12  1  0.47871498  0.75000000  0.50000000  1
  I  I13  1  0.52128502  0.25000000  0.50000000  1
  I  I14  1  0.00610490  0.75000000  0.50000000  1
  I  I15  1  0.99389510  0.25000000  0.50000000  1
  Hg  Hg16  1  0.64901086  0.14901086  0.79802172  1
  Hg  Hg17  1  0.35098914  0.35098914  0.20197828  1
  Hg  Hg18  1  0.35098914  0.85098914  0.20197828  1
  Hg  Hg19  1  0.64901086  0.64901086  0.79802172  1
  Hg  Hg20  1  0.74800082  0.02088126  0.50000000  1
  Hg  Hg21  1  0.74800082  0.47911874  0.50000000  1
  Hg  Hg22  1  0.25199918  0.52088126  0.50000000  1
  Hg  Hg23  1  0.25199918  0.97911874  0.50000000  1
  Hg  Hg24  1  0.07270275  0.11606250  0.23212499  1
  Hg  Hg25  1  0.34057775  0.38393750  0.76787501  1
  Hg  Hg26  1  0.92729725  0.88393750  0.76787501  1
  Hg  Hg27  1  0.65942225  0.61606250  0.23212499  1
