# generated using pymatgen
data_Na2Al2Sb3
_symmetry_space_group_name_H-M   'P 1'
_cell_length_a   7.30201852
_cell_length_b   14.22666874
_cell_length_c   15.55216016
_cell_angle_alpha   90.26407960
_cell_angle_beta   90.00000000
_cell_angle_gamma   90.00000000
_symmetry_Int_Tables_number   1
_chemical_formula_structural   Na2Al2Sb3
_chemical_formula_sum   'Na16 Al16 Sb24'
_cell_volume   1615.59409229
_cell_formula_units_Z   8
loop_
 _symmetry_equiv_pos_site_id
 _symmetry_equiv_pos_as_xyz
  1  'x, y, z'
loop_
 _atom_site_type_symbol
 _atom_site_label
 _atom_site_symmetry_multiplicity
 _atom_site_fract_x
 _atom_site_fract_y
 _atom_site_fract_z
 _atom_site_occupancy
  Na  Na0  1  0.93217089  0.43925455  0.90257920  1
  Na  Na1  1  0.56782911  0.43925455  0.40257920  1
  Na  Na2  1  0.06782911  0.56074545  0.09742080  1
  Na  Na3  1  0.43217089  0.56074545  0.59742080  1
  Na  Na4  1  0.95795369  0.92087088  0.61267925  1
  Na  Na5  1  0.45795369  0.07912912  0.88732075  1
  Na  Na6  1  0.04204631  0.07912912  0.38732075  1
  Na  Na7  1  0.54204631  0.92087088  0.11267925  1
  Na  Na8  1  0.93305275  0.64871992  0.52122192  1
  Na  Na9  1  0.43305275  0.35128008  0.97877808  1
  Na  Na10  1  0.06694725  0.35128008  0.47877808  1
  Na  Na11  1  0.56694725  0.64871992  0.02122192  1
  Na  Na12  1  0.54489413  0.13505189  0.48807516  1
  Na  Na13  1  0.04489413  0.86494811  0.01192484  1
  Na  Na14  1  0.45510587  0.86494811  0.51192484  1
  Na  Na15  1  0.95510587  0.13505189  0.98807516  1
  Al  Al16  1  0.28963864  0.68718519  0.83848784  1
  Al  Al17  1  0.22966662  0.40801309  0.23842698  1
  Al  Al18  1  0.27033338  0.40801309  0.73842698  1
  Al  Al19  1  0.77033338  0.59198691  0.76157302  1
  Al  Al20  1  0.73531793  0.81180144  0.33125656  1
  Al  Al21  1  0.23531793  0.18819856  0.16874344  1
  Al  Al22  1  0.26468207  0.18819856  0.66874344  1
  Al  Al23  1  0.76468207  0.81180144  0.83125656  1
  Al  Al24  1  0.70778131  0.09487771  0.22868772  1
  Al  Al25  1  0.20778131  0.90512229  0.27131228  1
  Al  Al26  1  0.29221869  0.90512229  0.77131228  1
  Al  Al27  1  0.79221869  0.09487771  0.72868772  1
  Al  Al28  1  0.78963864  0.31281481  0.66151216  1
  Al  Al29  1  0.21036136  0.68718519  0.33848784  1
  Al  Al30  1  0.71036136  0.31281481  0.16151216  1
  Al  Al31  1  0.72966662  0.59198691  0.26157302  1
  Sb  Sb32  1  0.45296269  0.84216331  0.91865494  1
  Sb  Sb33  1  0.46925118  0.02864571  0.66831750  1
  Sb  Sb34  1  0.03074882  0.02864571  0.16831750  1
  Sb  Sb35  1  0.53074882  0.97135429  0.33168250  1
  Sb  Sb36  1  0.96925118  0.97135429  0.83168250  1
  Sb  Sb37  1  0.95296269  0.15783669  0.58134506  1
  Sb  Sb38  1  0.54703731  0.15783669  0.08134506  1
  Sb  Sb39  1  0.04703731  0.84216331  0.41865494  1
  Sb  Sb40  1  0.95166239  0.66234838  0.90350950  1
  Sb  Sb41  1  0.45166239  0.33765162  0.59649050  1
  Sb  Sb42  1  0.04833761  0.33765162  0.09649050  1
  Sb  Sb43  1  0.54833761  0.66234838  0.40350950  1
  Sb  Sb44  1  0.82609222  0.75007724  0.16938069  1
  Sb  Sb45  1  0.32609222  0.24992276  0.33061931  1
  Sb  Sb46  1  0.17390778  0.24992276  0.83061931  1
  Sb  Sb47  1  0.67390778  0.75007724  0.66938069  1
  Sb  Sb48  1  0.47415453  0.52100673  0.84343189  1
  Sb  Sb49  1  0.97415453  0.47899327  0.65656811  1
  Sb  Sb50  1  0.52584547  0.47899327  0.15656811  1
  Sb  Sb51  1  0.02584547  0.52100673  0.34343189  1
  Sb  Sb52  1  0.22733368  0.74652104  0.17334777  1
  Sb  Sb53  1  0.72733368  0.25347896  0.32665223  1
  Sb  Sb54  1  0.77266632  0.25347896  0.82665223  1
  Sb  Sb55  1  0.27266632  0.74652104  0.67334777  1
