# generated using pymatgen
data_Eu(AlCl4)2
_symmetry_space_group_name_H-M   'P 1'
_cell_length_a   7.05935898
_cell_length_b   7.59557985
_cell_length_c   12.82768376
_cell_angle_alpha   94.50840079
_cell_angle_beta   90.00000000
_cell_angle_gamma   90.00000000
_symmetry_Int_Tables_number   1
_chemical_formula_structural   Eu(AlCl4)2
_chemical_formula_sum   'Eu2 Al4 Cl16'
_cell_volume   685.69120141
_cell_formula_units_Z   2
loop_
 _symmetry_equiv_pos_site_id
 _symmetry_equiv_pos_as_xyz
  1  'x, y, z'
loop_
 _atom_site_type_symbol
 _atom_site_label
 _atom_site_symmetry_multiplicity
 _atom_site_fract_x
 _atom_site_fract_y
 _atom_site_fract_z
 _atom_site_occupancy
  Al  Al0  1  0.26046065  0.32244852  0.58028354  1
  Al  Al1  1  0.73953935  0.32244852  0.08028354  1
  Al  Al2  1  0.73953935  0.67755148  0.41971646  1
  Al  Al3  1  0.26046065  0.67755148  0.91971646  1
  Cl  Cl4  1  0.82080720  0.59494951  0.11562085  1
  Cl  Cl5  1  0.82080720  0.40505049  0.38437915  1
  Cl  Cl6  1  0.30278039  0.26353454  0.41408889  1
  Cl  Cl7  1  0.30278039  0.73646546  0.08591111  1
  Cl  Cl8  1  0.69721961  0.73646546  0.58591111  1
  Cl  Cl9  1  0.69721961  0.26353454  0.91408889  1
  Cl  Cl10  1  0.02613566  0.17408221  0.63795024  1
  Cl  Cl11  1  0.02613566  0.82591779  0.86204976  1
  Cl  Cl12  1  0.97386434  0.82591779  0.36204976  1
  Cl  Cl13  1  0.97386434  0.17408221  0.13795024  1
  Cl  Cl14  1  0.52357265  0.26077167  0.65555402  1
  Cl  Cl15  1  0.52357265  0.73922833  0.84444598  1
  Cl  Cl16  1  0.47642735  0.73922833  0.34444598  1
  Cl  Cl17  1  0.47642735  0.26077167  0.15555402  1
  Cl  Cl18  1  0.17919280  0.59494951  0.61562085  1
  Cl  Cl19  1  0.17919280  0.40505049  0.88437915  1
  Eu  Eu20  1  0.84152683  0.50000000  0.75000000  1
  Eu  Eu21  1  0.15847317  0.50000000  0.25000000  1
