# generated using pymatgen
data_Er7(NiTe)2
_symmetry_space_group_name_H-M   'P 1'
_cell_length_a   3.82903377
_cell_length_b   9.28476187
_cell_length_c   9.28476212
_cell_angle_alpha   61.65037372
_cell_angle_beta   78.10026003
_cell_angle_gamma   78.10025707
_symmetry_Int_Tables_number   1
_chemical_formula_structural   Er7(NiTe)2
_chemical_formula_sum   'Er7 Ni2 Te2'
_cell_volume   282.00090292
_cell_formula_units_Z   1
loop_
 _symmetry_equiv_pos_site_id
 _symmetry_equiv_pos_as_xyz
  1  'x, y, z'
loop_
 _atom_site_type_symbol
 _atom_site_label
 _atom_site_symmetry_multiplicity
 _atom_site_fract_x
 _atom_site_fract_y
 _atom_site_fract_z
 _atom_site_occupancy
  Er  Er0  1  0.50000000  0.18209690  0.81790310  1
  Er  Er1  1  0.81488944  0.24546871  0.12475241  1
  Er  Er2  1  0.18511056  0.87524759  0.75453129  1
  Er  Er3  1  0.85352398  0.55718195  0.73577009  1
  Er  Er4  1  0.14647602  0.26422991  0.44281805  1
  Er  Er5  1  0.63349948  0.63032715  0.10267390  1
  Er  Er6  1  0.36650052  0.89732610  0.36967285  1
  Te  Te7  1  1.00000000  0.91675520  0.08324480  1
  Te  Te8  1  0.50000000  0.51907889  0.48092111  1
  Ni  Ni9  1  0.26294556  0.49051824  0.98359064  1
  Ni  Ni10  1  0.73705444  0.01640936  0.50948176  1
