# generated using pymatgen
data_Sb2MoSe
_symmetry_space_group_name_H-M   'P 1'
_cell_length_a   6.57705115
_cell_length_b   6.66960553
_cell_length_c   18.75257994
_cell_angle_alpha   94.29270150
_cell_angle_beta   90.00000000
_cell_angle_gamma   90.00000000
_symmetry_Int_Tables_number   1
_chemical_formula_structural   Sb2MoSe
_chemical_formula_sum   'Sb16 Mo8 Se8'
_cell_volume   820.29930722
_cell_formula_units_Z   8
loop_
 _symmetry_equiv_pos_site_id
 _symmetry_equiv_pos_as_xyz
  1  'x, y, z'
loop_
 _atom_site_type_symbol
 _atom_site_label
 _atom_site_symmetry_multiplicity
 _atom_site_fract_x
 _atom_site_fract_y
 _atom_site_fract_z
 _atom_site_occupancy
  Se  Se0  1  0.87477936  0.58753093  0.59949649  1
  Se  Se1  1  0.37477936  0.41246907  0.90050351  1
  Se  Se2  1  0.12522064  0.41246907  0.40050351  1
  Se  Se3  1  0.62522064  0.58753093  0.09949649  1
  Se  Se4  1  0.62554889  0.41212588  0.40067346  1
  Se  Se5  1  0.12554889  0.58787412  0.09932654  1
  Se  Se6  1  0.37445111  0.58787412  0.59932654  1
  Se  Se7  1  0.87445111  0.41212588  0.90067346  1
  Mo  Mo8  1  0.87563172  0.32579417  0.49484220  1
  Mo  Mo9  1  0.37563172  0.67420583  0.00515780  1
  Mo  Mo10  1  0.12436828  0.67420583  0.50515780  1
  Mo  Mo11  1  0.62436828  0.32579417  0.99484220  1
  Mo  Mo12  1  0.62511188  0.67436276  0.50531962  1
  Mo  Mo13  1  0.12511188  0.32563724  0.99468038  1
  Mo  Mo14  1  0.37488812  0.32563724  0.49468038  1
  Mo  Mo15  1  0.87488812  0.67436276  0.00531962  1
  Sb  Sb16  1  0.40191363  0.80053086  0.27407412  1
  Sb  Sb17  1  0.90191363  0.19946914  0.22592588  1
  Sb  Sb18  1  0.59808637  0.19946914  0.72592588  1
  Sb  Sb19  1  0.09808637  0.80053086  0.77407412  1
  Sb  Sb20  1  0.84890471  0.79962738  0.27367469  1
  Sb  Sb21  1  0.34890471  0.20037262  0.22632531  1
  Sb  Sb22  1  0.15109529  0.20037262  0.72632531  1
  Sb  Sb23  1  0.65109529  0.79962738  0.77367469  1
  Sb  Sb24  1  0.37542173  0.92572698  0.42618773  1
  Sb  Sb25  1  0.87542173  0.07427302  0.07381227  1
  Sb  Sb26  1  0.62457827  0.07427302  0.57381227  1
  Sb  Sb27  1  0.12457827  0.92572698  0.92618773  1
  Sb  Sb28  1  0.87456041  0.92562393  0.42589318  1
  Sb  Sb29  1  0.37456041  0.07437607  0.07410682  1
  Sb  Sb30  1  0.12543959  0.07437607  0.57410682  1
  Sb  Sb31  1  0.62543959  0.92562393  0.92589318  1
