# generated using pymatgen
data_Rb2TbF6
_symmetry_space_group_name_H-M   'P 1'
_cell_length_a   7.23856431
_cell_length_b   7.01175697
_cell_length_c   7.50972717
_cell_angle_alpha   89.36686579
_cell_angle_beta   88.77333914
_cell_angle_gamma   58.92408363
_symmetry_Int_Tables_number   1
_chemical_formula_structural   Rb2TbF6
_chemical_formula_sum   'Rb4 Tb2 F12'
_cell_volume   326.37976987
_cell_formula_units_Z   2
loop_
 _symmetry_equiv_pos_site_id
 _symmetry_equiv_pos_as_xyz
  1  'x, y, z'
loop_
 _atom_site_type_symbol
 _atom_site_label
 _atom_site_symmetry_multiplicity
 _atom_site_fract_x
 _atom_site_fract_y
 _atom_site_fract_z
 _atom_site_occupancy
  F  F0  1  0.92633111  0.20317728  0.04528510  1
  F  F1  1  0.87049161  0.20317728  0.45471490  1
  F  F2  1  0.07366889  0.79682272  0.95471490  1
  F  F3  1  0.12950839  0.79682272  0.54528510  1
  F  F4  1  0.61862294  0.38590390  0.76767793  1
  F  F5  1  0.99547316  0.38590390  0.73232207  1
  F  F6  1  0.69211989  0.01036041  0.23558330  1
  F  F7  1  0.29751970  0.01036041  0.26441670  1
  F  F8  1  0.30788011  0.98963959  0.76441670  1
  F  F9  1  0.70248030  0.98963959  0.73558330  1
  F  F10  1  0.00452684  0.61409610  0.26767793  1
  F  F11  1  0.38137706  0.61409610  0.23232207  1
  Rb  Rb12  1  0.32536882  0.31795602  0.99877886  1
  Rb  Rb13  1  0.35667516  0.31795602  0.50122114  1
  Rb  Rb14  1  0.64332484  0.68204398  0.49877886  1
  Rb  Rb15  1  0.67463118  0.68204398  0.00122114  1
  Tb  Tb16  1  0.03907549  0.92184901  0.25000000  1
  Tb  Tb17  1  0.96092451  0.07815099  0.75000000  1
