# generated using pymatgen
data_Li2Co4O7F
_symmetry_space_group_name_H-M   'P 1'
_cell_length_a   5.70236500
_cell_length_b   5.78460927
_cell_length_c   5.78480518
_cell_angle_alpha   119.89406392
_cell_angle_beta   89.09472057
_cell_angle_gamma   60.48225644
_symmetry_Int_Tables_number   1
_chemical_formula_structural   Li2Co4O7F
_chemical_formula_sum   'Li2 Co4 O7 F1'
_cell_volume   135.04206027
_cell_formula_units_Z   1
loop_
 _symmetry_equiv_pos_site_id
 _symmetry_equiv_pos_as_xyz
  1  'x, y, z'
loop_
 _atom_site_type_symbol
 _atom_site_label
 _atom_site_symmetry_multiplicity
 _atom_site_fract_x
 _atom_site_fract_y
 _atom_site_fract_z
 _atom_site_occupancy
  Li  Li0  1  0.00005232  0.49955374  0.50048411  1
  Li  Li1  1  0.63838817  0.24666823  0.11498655  1
  Co  Co2  1  0.36253380  0.75294811  0.88439677  1
  Co  Co3  1  0.98909058  0.50357057  0.99775297  1
  Co  Co4  1  0.98878262  0.01351591  0.50741867  1
  Co  Co5  1  0.50960280  0.99287858  0.49748767  1
  O  O6  1  0.76864361  0.97247010  0.25896332  1
  O  O7  1  0.75554493  0.99955224  0.70633231  1
  O  O8  1  0.75515595  0.53840225  0.24513593  1
  O  O9  1  0.24746741  0.46129073  0.75214137  1
  O  O10  1  0.78330264  0.46700035  0.74935027  1
  O  O11  1  0.24713464  0.00071606  0.29133890  1
  O  O12  1  0.22875781  0.02866148  0.74264640  1
  F  F13  1  0.22554372  0.52277264  0.25156575  1
