# generated using pymatgen
data_Rb2Cd3Te4
_symmetry_space_group_name_H-M   'P 1'
_cell_length_a   10.79493022
_cell_length_b   10.79493022
_cell_length_c   13.22769829
_cell_angle_alpha   107.52581833
_cell_angle_beta   107.52581832
_cell_angle_gamma   93.16696521
_symmetry_Int_Tables_number   1
_chemical_formula_structural   Rb2Cd3Te4
_chemical_formula_sum   'Rb8 Cd12 Te16'
_cell_volume   1383.48265301
_cell_formula_units_Z   4
loop_
 _symmetry_equiv_pos_site_id
 _symmetry_equiv_pos_as_xyz
  1  'x, y, z'
loop_
 _atom_site_type_symbol
 _atom_site_label
 _atom_site_symmetry_multiplicity
 _atom_site_fract_x
 _atom_site_fract_y
 _atom_site_fract_z
 _atom_site_occupancy
  Rb  Rb0  1  0.00000000  0.00000000  0.50000000  1
  Rb  Rb1  1  0.24465479  0.24830512  0.86294782  1
  Rb  Rb2  1  0.24830512  0.24465479  0.36294782  1
  Rb  Rb3  1  0.75534521  0.75169488  0.13705218  1
  Rb  Rb4  1  0.49783720  0.50216280  0.75000000  1
  Rb  Rb5  1  0.50216280  0.49783720  0.25000000  1
  Rb  Rb6  1  0.00000000  0.00000000  0.00000000  1
  Rb  Rb7  1  0.75169488  0.75534521  0.63705218  1
  Cd  Cd8  1  0.11161445  0.59210107  0.30126321  1
  Cd  Cd9  1  0.35140767  0.87537171  0.91044646  1
  Cd  Cd10  1  0.64859233  0.12462829  0.08955354  1
  Cd  Cd11  1  0.87537171  0.35140767  0.41044646  1
  Cd  Cd12  1  0.40789893  0.88838555  0.19873679  1
  Cd  Cd13  1  0.88838555  0.40789893  0.69873679  1
  Cd  Cd14  1  0.59210107  0.11161445  0.80126321  1
  Cd  Cd15  1  0.14104654  0.62141473  0.04350799  1
  Cd  Cd16  1  0.37858527  0.85895346  0.45649201  1
  Cd  Cd17  1  0.85895346  0.37858527  0.95649201  1
  Cd  Cd18  1  0.62141473  0.14104654  0.54350799  1
  Cd  Cd19  1  0.12462829  0.64859233  0.58955354  1
  Te  Te20  1  0.38006606  0.65788862  1.00214637  1
  Te  Te21  1  0.34211138  0.61993394  0.49785363  1
  Te  Te22  1  0.61993394  0.34211138  -0.00214637  1
  Te  Te23  1  0.65788862  0.38006606  0.50214637  1
  Te  Te24  1  0.84283803  0.15716197  0.75000000  1
  Te  Te25  1  0.15716197  0.84283803  0.25000000  1
  Te  Te26  1  0.11704602  0.88295398  0.75000000  1
  Te  Te27  1  0.88295398  0.11704602  0.25000000  1
  Te  Te28  1  0.89412766  0.60652103  0.37927669  1
  Te  Te29  1  0.10587234  0.39347897  0.62072331  1
  Te  Te30  1  0.60652103  0.89412766  0.87927669  1
  Te  Te31  1  0.11521353  0.38530065  0.10750014  1
  Te  Te32  1  0.61469935  0.88478647  0.39249986  1
  Te  Te33  1  0.88478647  0.61469935  0.89249986  1
  Te  Te34  1  0.38530065  0.11521353  0.60750014  1
  Te  Te35  1  0.39347897  0.10587234  0.12072331  1
