# generated using pymatgen
data_Ag3SnP7
_symmetry_space_group_name_H-M   'P 1'
_cell_length_a   6.44169270
_cell_length_b   6.60259704
_cell_length_c   11.20545302
_cell_angle_alpha   90.00000000
_cell_angle_beta   90.00000000
_cell_angle_gamma   108.30718411
_symmetry_Int_Tables_number   1
_chemical_formula_structural   Ag3SnP7
_chemical_formula_sum   'Ag6 Sn2 P14'
_cell_volume   452.46718119
_cell_formula_units_Z   2
loop_
 _symmetry_equiv_pos_site_id
 _symmetry_equiv_pos_as_xyz
  1  'x, y, z'
loop_
 _atom_site_type_symbol
 _atom_site_label
 _atom_site_symmetry_multiplicity
 _atom_site_fract_x
 _atom_site_fract_y
 _atom_site_fract_z
 _atom_site_occupancy
  Sn  Sn0  1  0.69226263  0.95835554  0.75000000  1
  Sn  Sn1  1  0.30773737  0.04164446  0.25000000  1
  Ag  Ag2  1  0.07726085  0.32727161  0.75000000  1
  Ag  Ag3  1  0.92273915  0.67272839  0.25000000  1
  Ag  Ag4  1  0.69027514  0.31727144  0.89734013  1
  Ag  Ag5  1  0.30972486  0.68272856  0.39734013  1
  Ag  Ag6  1  0.30972486  0.68272856  0.10265987  1
  Ag  Ag7  1  0.69027514  0.31727144  0.60265987  1
  P  P8  1  0.16660317  0.84205757  0.91937726  1
  P  P9  1  0.83339683  0.15794243  0.41937726  1
  P  P10  1  0.83339683  0.15794243  0.08062274  1
  P  P11  1  0.16660317  0.84205757  0.58062274  1
  P  P12  1  0.27775829  0.19469408  0.91120704  1
  P  P13  1  0.72224171  0.80530592  0.41120704  1
  P  P14  1  0.72224171  0.80530592  0.08879296  1
  P  P15  1  0.27775829  0.19469408  0.58879296  1
  P  P16  1  0.80537638  0.71772567  0.90975850  1
  P  P17  1  0.19462362  0.28227433  0.40975850  1
  P  P18  1  0.19462362  0.28227433  0.09024150  1
  P  P19  1  0.80537638  0.71772567  0.59024150  1
  P  P20  1  0.26856855  0.72708659  0.75000000  1
  P  P21  1  0.73143145  0.27291341  0.25000000  1
