# generated using pymatgen
data_LiMn3(BO3)3
_symmetry_space_group_name_H-M   'P 1'
_cell_length_a   11.80758933
_cell_length_b   5.23071429
_cell_length_c   6.19389479
_cell_angle_alpha   88.02248576
_cell_angle_beta   98.16220190
_cell_angle_gamma   102.37546586
_symmetry_Int_Tables_number   1
_chemical_formula_structural   LiMn3(BO3)3
_chemical_formula_sum   'Li2 Mn6 B6 O18'
_cell_volume   369.87085690
_cell_formula_units_Z   2
loop_
 _symmetry_equiv_pos_site_id
 _symmetry_equiv_pos_as_xyz
  1  'x, y, z'
loop_
 _atom_site_type_symbol
 _atom_site_label
 _atom_site_symmetry_multiplicity
 _atom_site_fract_x
 _atom_site_fract_y
 _atom_site_fract_z
 _atom_site_occupancy
  Li  Li0  1  0.46139218  0.14289577  0.86906986  1
  Li  Li1  1  0.79495883  0.80940377  0.53675522  1
  Mn  Mn2  1  0.78929760  0.99669958  0.96810120  1
  Mn  Mn3  1  0.88202279  0.35330558  0.38643533  1
  Mn  Mn4  1  0.54628627  0.68017873  0.70966987  1
  Mn  Mn5  1  0.45085168  0.31609566  0.29196060  1
  Mn  Mn6  1  0.12830451  0.66811238  0.62241258  1
  Mn  Mn7  1  0.20206372  0.99978223  0.04678837  1
  B  B8  1  0.66344592  0.25110538  0.58801184  1
  B  B9  1  0.99920502  0.92936441  0.27334819  1
  B  B10  1  0.33105016  0.58180143  0.90700503  1
  B  B11  1  0.67157297  0.41804679  0.07550310  1
  B  B12  1  0.00100053  0.08121641  0.73978974  1
  B  B13  1  0.33424691  0.74311785  0.41144463  1
  O  O14  1  0.99523791  0.32594784  0.64682030  1
  O  O15  1  0.90701150  0.90939923  0.79046032  1
  O  O16  1  0.67754930  0.99976210  0.64091765  1
  O  O17  1  0.75227388  0.43866289  0.52268726  1
  O  O18  1  0.55665042  0.31721230  0.61524240  1
  O  O19  1  0.89007222  0.98904954  0.29152898  1
  O  O20  1  0.34098356  0.33180600  0.97250327  1
  O  O21  1  0.78578224  0.36702091  0.10548932  1
  O  O22  1  0.42365677  0.77042844  0.85585099  1
  O  O23  1  0.57845466  0.23982210  0.12522534  1
  O  O24  1  0.22397448  0.66184888  0.90951964  1
  O  O25  1  0.65958426  0.65474841  0.97106812  1
  O  O26  1  0.11066854  0.00788561  0.75791843  1
  O  O27  1  0.44641143  0.68747389  0.42742009  1
  O  O28  1  0.24832155  0.56697473  0.49106663  1
  O  O29  1  0.31682294  0.97366417  0.30495653  1
  O  O30  1  0.08164627  0.10010522  0.18124466  1
  O  O31  1  0.01601301  0.68825777  0.35994151  1
