# generated using pymatgen
data_Li2Cr4O13
_symmetry_space_group_name_H-M   'P 1'
_cell_length_a   8.24202243
_cell_length_b   12.24301432
_cell_length_c   7.76145538
_cell_angle_alpha   107.73046675
_cell_angle_beta   94.00735666
_cell_angle_gamma   95.19895393
_symmetry_Int_Tables_number   1
_chemical_formula_structural   Li2Cr4O13
_chemical_formula_sum   'Li6 Cr12 O39'
_cell_volume   738.98296499
_cell_formula_units_Z   3
loop_
 _symmetry_equiv_pos_site_id
 _symmetry_equiv_pos_as_xyz
  1  'x, y, z'
loop_
 _atom_site_type_symbol
 _atom_site_label
 _atom_site_symmetry_multiplicity
 _atom_site_fract_x
 _atom_site_fract_y
 _atom_site_fract_z
 _atom_site_occupancy
  Li  Li0  1  0.11482208  0.62363066  0.77216978  1
  Li  Li1  1  0.08712718  0.63250468  0.19013250  1
  Li  Li2  1  0.51211624  0.00670414  0.29577611  1
  Li  Li3  1  0.48788376  0.99329586  0.70422389  1
  Li  Li4  1  0.91287282  0.36749532  0.80986750  1
  Li  Li5  1  0.88517792  0.37636934  0.22783022  1
  Cr  Cr6  1  0.16303910  0.95528242  0.95745006  1
  Cr  Cr7  1  0.15567880  0.95859031  0.35291059  1
  Cr  Cr8  1  0.21721763  0.35338054  0.52491895  1
  Cr  Cr9  1  0.23518031  0.36029842  0.13482030  1
  Cr  Cr10  1  0.42918571  0.65200148  0.51254767  1
  Cr  Cr11  1  0.44045268  0.64375802  0.11564768  1
  Cr  Cr12  1  0.55954732  0.35624198  0.88435232  1
  Cr  Cr13  1  0.57081429  0.34799852  0.48745233  1
  Cr  Cr14  1  0.76481969  0.63970158  0.86517970  1
  Cr  Cr15  1  0.78278237  0.64661946  0.47508105  1
  Cr  Cr16  1  0.84432120  0.04140969  0.64708941  1
  Cr  Cr17  1  0.83696090  0.04471758  0.04254994  1
  O  O18  1  0.00621753  0.99424058  0.14845946  1
  O  O19  1  0.13823567  0.81615329  0.88223121  1
  O  O20  1  0.00000000  0.00000000  0.50000000  1
  O  O21  1  0.09002165  0.40810535  0.67178334  1
  O  O22  1  0.12328938  0.81968827  0.28425132  1
  O  O23  1  0.11500112  0.38929490  0.33400739  1
  O  O24  1  0.08486204  0.39841242  0.02409569  1
  O  O25  1  0.27637269  0.61704617  0.97267244  1
  O  O26  1  0.18165783  0.21574774  0.46304685  1
  O  O27  1  0.28509378  0.59813405  0.60571075  1
  O  O28  1  0.31018478  0.61141905  0.28603284  1
  O  O29  1  0.22628929  0.22376200  0.05968416  1
  O  O30  1  0.31441808  0.00115146  0.86570917  1
  O  O31  1  0.44020527  0.79044702  0.58483618  1
  O  O32  1  0.28310631  0.98913347  0.18149649  1
  O  O33  1  0.31803054  0.99613938  0.49974635  1
  O  O34  1  0.41112344  0.38666447  0.67112673  1
  O  O35  1  0.39235164  0.38509947  0.37189821  1
  O  O36  1  0.40813435  0.41133343  0.03491764  1
  O  O37  1  0.48644438  0.78059857  0.18432702  1
  O  O38  1  0.51355562  0.21940143  0.81567298  1
  O  O39  1  0.59186565  0.58866657  0.96508236  1
  O  O40  1  0.60764836  0.61490053  0.62810179  1
  O  O41  1  0.58887656  0.61333553  0.32887327  1
  O  O42  1  0.68196946  0.00386062  0.50025365  1
  O  O43  1  0.71689369  0.01086653  0.81850351  1
  O  O44  1  0.55979473  0.20955298  0.41516382  1
  O  O45  1  0.68558192  0.99884854  0.13429083  1
  O  O46  1  0.77371071  0.77623800  0.94031584  1
  O  O47  1  0.68981522  0.38858095  0.71396716  1
  O  O48  1  0.71490622  0.40186595  0.39428925  1
  O  O49  1  0.81834217  0.78425226  0.53695315  1
  O  O50  1  0.72362731  0.38295383  0.02732756  1
  O  O51  1  0.91513796  0.60158758  0.97590431  1
  O  O52  1  0.88499888  0.61070510  0.66599261  1
  O  O53  1  0.87671062  0.18031173  0.71574868  1
  O  O54  1  0.90997835  0.59189465  0.32821666  1
  O  O55  1  0.86176433  0.18384671  0.11776879  1
  O  O56  1  0.99378247  0.00575942  0.85153954  1
