# generated using pymatgen
data_Na3HoCl6
_symmetry_space_group_name_H-M   'P 1'
_cell_length_a   6.91755485
_cell_length_b   7.31403272
_cell_length_c   10.27043815
_cell_angle_alpha   90.00000000
_cell_angle_beta   90.76145743
_cell_angle_gamma   90.00000000
_symmetry_Int_Tables_number   1
_chemical_formula_structural   Na3HoCl6
_chemical_formula_sum   'Na6 Ho2 Cl12'
_cell_volume   519.58921423
_cell_formula_units_Z   2
loop_
 _symmetry_equiv_pos_site_id
 _symmetry_equiv_pos_as_xyz
  1  'x, y, z'
loop_
 _atom_site_type_symbol
 _atom_site_label
 _atom_site_symmetry_multiplicity
 _atom_site_fract_x
 _atom_site_fract_y
 _atom_site_fract_z
 _atom_site_occupancy
  Na  Na0  1  0.47559587  0.57634483  0.76000387  1
  Na  Na1  1  0.02440413  0.07634483  0.73999613  1
  Na  Na2  1  0.50000000  0.00000000  0.00000000  1
  Na  Na3  1  0.00000000  0.50000000  0.50000000  1
  Na  Na4  1  0.52440413  0.42365517  0.23999613  1
  Na  Na5  1  0.97559587  0.92365517  0.26000387  1
  Cl  Cl6  1  0.63805158  0.93516974  0.73774896  1
  Cl  Cl7  1  0.33190320  0.30403840  0.57858148  1
  Cl  Cl8  1  0.16809680  0.80403840  0.92141852  1
  Cl  Cl9  1  0.66809680  0.69596160  0.42141852  1
  Cl  Cl10  1  0.31330310  0.32167603  0.93584964  1
  Cl  Cl11  1  0.18669690  0.82167603  0.56415036  1
  Cl  Cl12  1  0.68669690  0.67832397  0.06415036  1
  Cl  Cl13  1  0.81330310  0.17832397  0.43584964  1
  Cl  Cl14  1  0.36194842  0.06483026  0.26225104  1
  Cl  Cl15  1  0.13805158  0.56483026  0.23774896  1
  Cl  Cl16  1  0.83190320  0.19596160  0.07858148  1
  Cl  Cl17  1  0.86194842  0.43516974  0.76225104  1
  Ho  Ho18  1  0.50000000  0.00000000  0.50000000  1
  Ho  Ho19  1  0.00000000  0.50000000  0.00000000  1
