# generated using pymatgen
data_Ba2B4Se13
_symmetry_space_group_name_H-M   'P 1'
_cell_length_a   11.97112978
_cell_length_b   12.96925404
_cell_length_c   13.19450844
_cell_angle_alpha   103.77084311
_cell_angle_beta   90.00000000
_cell_angle_gamma   90.00000000
_symmetry_Int_Tables_number   1
_chemical_formula_structural   Ba2B4Se13
_chemical_formula_sum   'Ba8 B16 Se52'
_cell_volume   1989.65079956
_cell_formula_units_Z   4
loop_
 _symmetry_equiv_pos_site_id
 _symmetry_equiv_pos_as_xyz
  1  'x, y, z'
loop_
 _atom_site_type_symbol
 _atom_site_label
 _atom_site_symmetry_multiplicity
 _atom_site_fract_x
 _atom_site_fract_y
 _atom_site_fract_z
 _atom_site_occupancy
  B  B0  1  0.22381410  0.02910903  0.59184623  1
  B  B1  1  0.72381410  0.97089097  0.90815377  1
  B  B2  1  0.77618590  0.97089097  0.40815377  1
  B  B3  1  0.27618590  0.02910903  0.09184623  1
  B  B4  1  0.22785068  0.23641623  0.79721334  1
  B  B5  1  0.72785068  0.76358377  0.70278666  1
  B  B6  1  0.77214932  0.76358377  0.20278666  1
  B  B7  1  0.27214932  0.23641623  0.29721334  1
  B  B8  1  0.22536006  0.48385465  0.90199866  1
  B  B9  1  0.72536006  0.51614535  0.59800134  1
  B  B10  1  0.77463994  0.51614535  0.09800134  1
  B  B11  1  0.27463994  0.48385465  0.40199866  1
  B  B12  1  0.27936723  0.78251303  0.98369812  1
  B  B13  1  0.77936723  0.21748697  0.51630188  1
  B  B14  1  0.72063277  0.21748697  0.01630188  1
  B  B15  1  0.22063277  0.78251303  0.48369812  1
  Se  Se16  1  0.34665539  0.96199829  0.66746195  1
  Se  Se17  1  0.84665539  0.03800171  0.83253805  1
  Se  Se18  1  0.65334461  0.03800171  0.33253805  1
  Se  Se19  1  0.15334461  0.96199829  0.16746195  1
  Se  Se20  1  0.31683008  0.10138674  0.49641527  1
  Se  Se21  1  0.81683008  0.89861326  0.00358473  1
  Se  Se22  1  0.68316992  0.89861326  0.50358473  1
  Se  Se23  1  0.18316992  0.10138674  0.99641527  1
  Se  Se24  1  0.12268363  0.13166433  0.69768558  1
  Se  Se25  1  0.62268363  0.86833567  0.80231442  1
  Se  Se26  1  0.87731637  0.86833567  0.30231442  1
  Se  Se27  1  0.37731637  0.13166433  0.19768558  1
  Se  Se28  1  0.32306350  0.16564426  0.89309252  1
  Se  Se29  1  0.82306350  0.83435574  0.60690748  1
  Se  Se30  1  0.67693650  0.83435574  0.10690748  1
  Se  Se31  1  0.17693650  0.16564426  0.39309252  1
  Se  Se32  1  0.35334589  0.29499021  0.71596097  1
  Se  Se33  1  0.85334589  0.70500979  0.78403903  1
  Se  Se34  1  0.64665411  0.70500979  0.28403903  1
  Se  Se35  1  0.14665411  0.29499021  0.21596097  1
  Se  Se36  1  0.11905205  0.35490568  0.87211309  1
  Se  Se37  1  0.61905205  0.64509432  0.62788691  1
  Se  Se38  1  0.88094795  0.64509432  0.12788691  1
  Se  Se39  1  0.38094795  0.35490568  0.37211309  1
  Se  Se40  1  0.38776122  0.44090775  0.86587630  1
  Se  Se41  1  0.88776122  0.55909225  0.63412370  1
  Se  Se42  1  0.61223878  0.55909225  0.13412370  1
  Se  Se43  1  0.11223878  0.44090775  0.36587630  1
  Se  Se44  1  0.22668474  0.54326518  0.06049555  1
  Se  Se45  1  0.72668474  0.45673482  0.43950445  1
  Se  Se46  1  0.77331526  0.45673482  0.93950445  1
  Se  Se47  1  0.27331526  0.54326518  0.56049555  1
  Se  Se48  1  0.15207214  0.58078635  0.81863991  1
  Se  Se49  1  0.65207214  0.41921365  0.68136009  1
  Se  Se50  1  0.84792786  0.41921365  0.18136009  1
  Se  Se51  1  0.34792786  0.58078635  0.31863991  1
  Se  Se52  1  0.29126973  0.71836142  0.82579235  1
  Se  Se53  1  0.79126973  0.28163858  0.67420765  1
  Se  Se54  1  0.70873027  0.28163858  0.17420765  1
  Se  Se55  1  0.20873027  0.71836142  0.32579235  1
  Se  Se56  1  0.35738897  0.68896497  0.06928866  1
  Se  Se57  1  0.85738897  0.31103503  0.43071134  1
  Se  Se58  1  0.64261103  0.31103503  0.93071134  1
  Se  Se59  1  0.14261103  0.68896497  0.56928866  1
  Se  Se60  1  0.38527219  0.91178126  0.01669859  1
  Se  Se61  1  0.88527219  0.08821874  0.48330141  1
  Se  Se62  1  0.61472781  0.08821874  0.98330141  1
  Se  Se63  1  0.11472781  0.91178126  0.51669859  1
  Se  Se64  1  0.11509859  0.81471291  0.02047254  1
  Se  Se65  1  0.61509859  0.18528709  0.47952746  1
  Se  Se66  1  0.88490141  0.18528709  0.97952746  1
  Se  Se67  1  0.38490141  0.81471291  0.52047254  1
  Ba  Ba68  1  0.08802674  0.36341302  0.60941559  1
  Ba  Ba69  1  0.58802674  0.63658698  0.89058441  1
  Ba  Ba70  1  0.91197326  0.63658698  0.39058441  1
  Ba  Ba71  1  0.41197326  0.36341302  0.10941559  1
  Ba  Ba72  1  0.09854571  0.89652162  0.78497247  1
  Ba  Ba73  1  0.59854571  0.10347838  0.71502753  1
  Ba  Ba74  1  0.90145429  0.10347838  0.21502753  1
  Ba  Ba75  1  0.40145429  0.89652162  0.28497247  1
