# generated using pymatgen
data_Cs6Cl4O
_symmetry_space_group_name_H-M   'P 1'
_cell_length_a   9.66044483
_cell_length_b   9.66044483
_cell_length_c   9.66044483
_cell_angle_alpha   89.25403241
_cell_angle_beta   89.25403243
_cell_angle_gamma   89.25403244
_symmetry_Int_Tables_number   1
_chemical_formula_structural   Cs6Cl4O
_chemical_formula_sum   'Cs12 Cl8 O2'
_cell_volume   901.32597156
_cell_formula_units_Z   2
loop_
 _symmetry_equiv_pos_site_id
 _symmetry_equiv_pos_as_xyz
  1  'x, y, z'
loop_
 _atom_site_type_symbol
 _atom_site_label
 _atom_site_symmetry_multiplicity
 _atom_site_fract_x
 _atom_site_fract_y
 _atom_site_fract_z
 _atom_site_occupancy
  O  O0  1  0.50000000  0.50000000  0.50000000  1
  O  O1  1  0.00000000  0.00000000  0.00000000  1
  Cl  Cl2  1  0.75000000  0.75000000  0.75000000  1
  Cl  Cl3  1  0.25000000  0.25000000  0.25000000  1
  Cl  Cl4  1  0.36782694  0.75000000  0.13217306  1
  Cl  Cl5  1  0.75000000  0.13217306  0.36782694  1
  Cl  Cl6  1  0.13217306  0.36782694  0.75000000  1
  Cl  Cl7  1  0.63217306  0.25000000  0.86782694  1
  Cl  Cl8  1  0.25000000  0.86782694  0.63217306  1
  Cl  Cl9  1  0.86782694  0.63217306  0.25000000  1
  Cs  Cs10  1  0.93371581  0.05526736  0.71399347  1
  Cs  Cs11  1  0.71399347  0.93371581  0.05526736  1
  Cs  Cs12  1  0.05526736  0.71399347  0.93371581  1
  Cs  Cs13  1  0.44473264  0.56628419  0.78600653  1
  Cs  Cs14  1  0.56628419  0.78600653  0.44473264  1
  Cs  Cs15  1  0.78600653  0.44473264  0.56628419  1
  Cs  Cs16  1  0.28600653  0.06628419  0.94473264  1
  Cs  Cs17  1  0.06628419  0.94473264  0.28600653  1
  Cs  Cs18  1  0.94473264  0.28600653  0.06628419  1
  Cs  Cs19  1  0.55526736  0.43371581  0.21399347  1
  Cs  Cs20  1  0.43371581  0.21399347  0.55526736  1
  Cs  Cs21  1  0.21399347  0.55526736  0.43371581  1
