# generated using pymatgen
data_Cs3AsO4
_symmetry_space_group_name_H-M   'P 1'
_cell_length_a   6.74091126
_cell_length_b   9.19864401
_cell_length_c   12.73989479
_cell_angle_alpha   90.00000000
_cell_angle_beta   90.00000000
_cell_angle_gamma   90.00000000
_symmetry_Int_Tables_number   1
_chemical_formula_structural   Cs3AsO4
_chemical_formula_sum   'Cs12 As4 O16'
_cell_volume   789.96575183
_cell_formula_units_Z   4
loop_
 _symmetry_equiv_pos_site_id
 _symmetry_equiv_pos_as_xyz
  1  'x, y, z'
loop_
 _atom_site_type_symbol
 _atom_site_label
 _atom_site_symmetry_multiplicity
 _atom_site_fract_x
 _atom_site_fract_y
 _atom_site_fract_z
 _atom_site_occupancy
  O  O0  1  0.62834972  0.40522708  0.60812159  1
  O  O1  1  0.12834972  0.59477292  0.89187841  1
  O  O2  1  0.37165028  0.90522708  0.39187841  1
  O  O3  1  0.87165028  0.09477292  0.10812159  1
  O  O4  1  0.37165028  0.59477292  0.39187841  1
  O  O5  1  0.87165028  0.40522708  0.10812159  1
  O  O6  1  0.62834972  0.09477292  0.60812159  1
  O  O7  1  0.12834972  0.90522708  0.89187841  1
  O  O8  1  0.05960991  0.75000000  0.49101164  1
  O  O9  1  0.41094061  0.75000000  0.77045088  1
  O  O10  1  0.94039009  0.25000000  0.50898836  1
  O  O11  1  0.44039009  0.75000000  0.99101164  1
  O  O12  1  0.08905939  0.75000000  0.27045088  1
  O  O13  1  0.58905939  0.25000000  0.22954912  1
  O  O14  1  0.91094061  0.25000000  0.72954912  1
  O  O15  1  0.55960991  0.25000000  0.00898836  1
  As  As16  1  0.27397298  0.75000000  0.88633143  1
  As  As17  1  0.72602702  0.25000000  0.11366857  1
  As  As18  1  0.77397298  0.25000000  0.61366857  1
  As  As19  1  0.22602702  0.75000000  0.38633143  1
  Cs  Cs20  1  0.18981017  0.99258963  0.64487985  1
  Cs  Cs21  1  0.85625656  0.75000000  0.07576761  1
  Cs  Cs22  1  0.64374344  0.75000000  0.57576761  1
  Cs  Cs23  1  0.14374344  0.25000000  0.92423239  1
  Cs  Cs24  1  0.35625656  0.25000000  0.42423239  1
  Cs  Cs25  1  0.68981017  0.00741037  0.85512015  1
  Cs  Cs26  1  0.81018983  0.49258963  0.35512015  1
  Cs  Cs27  1  0.31018983  0.50741037  0.14487985  1
  Cs  Cs28  1  0.81018983  0.00741037  0.35512015  1
  Cs  Cs29  1  0.31018983  0.99258963  0.14487985  1
  Cs  Cs30  1  0.18981017  0.50741037  0.64487985  1
  Cs  Cs31  1  0.68981017  0.49258963  0.85512015  1
