# generated using pymatgen
data_Ba(GeRu)2
_symmetry_space_group_name_H-M   'P 1'
_cell_length_a   6.23273283
_cell_length_b   6.23273283
_cell_length_c   7.18730709
_cell_angle_alpha   103.51452480
_cell_angle_beta   103.51452479
_cell_angle_gamma   117.45385796
_symmetry_Int_Tables_number   1
_chemical_formula_structural   Ba(GeRu)2
_chemical_formula_sum   'Ba2 Ge4 Ru4'
_cell_volume   221.23679405
_cell_formula_units_Z   2
loop_
 _symmetry_equiv_pos_site_id
 _symmetry_equiv_pos_as_xyz
  1  'x, y, z'
loop_
 _atom_site_type_symbol
 _atom_site_label
 _atom_site_symmetry_multiplicity
 _atom_site_fract_x
 _atom_site_fract_y
 _atom_site_fract_z
 _atom_site_occupancy
  Ge  Ge0  1  0.19815820  0.80184180  0.25000000  1
  Ge  Ge1  1  0.55184180  0.44815820  0.25000000  1
  Ge  Ge2  1  0.80184180  0.19815820  0.75000000  1
  Ge  Ge3  1  0.44815820  0.55184180  0.75000000  1
  Ru  Ru4  1  0.25204730  0.50204730  0.00409461  1
  Ru  Ru5  1  0.49795270  0.74795270  0.49590539  1
  Ru  Ru6  1  0.50204730  0.25204730  0.50409461  1
  Ru  Ru7  1  0.74795270  0.49795270  0.99590539  1
  Ba  Ba8  1  0.87500000  0.12500000  0.25000000  1
  Ba  Ba9  1  0.12500000  0.87500000  0.75000000  1
