# generated using pymatgen
data_Hg3(SeI)2
_symmetry_space_group_name_H-M   'P 1'
_cell_length_a   9.96748669
_cell_length_b   10.07881447
_cell_length_c   12.27374907
_cell_angle_alpha   114.24153752
_cell_angle_beta   113.95687867
_cell_angle_gamma   89.99999997
_symmetry_Int_Tables_number   1
_chemical_formula_structural   Hg3(SeI)2
_chemical_formula_sum   'Hg12 Se8 I8'
_cell_volume   1006.66981045
_cell_formula_units_Z   4
loop_
 _symmetry_equiv_pos_site_id
 _symmetry_equiv_pos_as_xyz
  1  'x, y, z'
loop_
 _atom_site_type_symbol
 _atom_site_label
 _atom_site_symmetry_multiplicity
 _atom_site_fract_x
 _atom_site_fract_y
 _atom_site_fract_z
 _atom_site_occupancy
  Se  Se0  1  0.88371152  0.13017216  0.75516743  1
  Se  Se1  1  0.62854409  0.36982784  0.24483257  1
  Se  Se2  1  0.11628848  0.37500473  0.24483257  1
  Se  Se3  1  0.37145591  0.12499527  0.75516743  1
  Se  Se4  1  0.11628848  0.86982784  0.24483257  1
  Se  Se5  1  0.37145591  0.63017216  0.75516743  1
  Se  Se6  1  0.88371152  0.62499527  0.75516743  1
  Se  Se7  1  0.62854409  0.87500473  0.24483257  1
  I  I8  1  0.74474191  -0.00077015  -0.00154030  1
  I  I9  1  0.24628221  0.50077015  1.00154030  1
  I  I10  1  0.25525809  1.00077015  1.00154030  1
  I  I11  1  0.75371779  0.49922985  -0.00154030  1
  I  I12  1  0.48416226  0.75000000  0.50000000  1
  I  I13  1  0.51583774  0.25000000  0.50000000  1
  I  I14  1  0.00293302  0.75000000  0.50000000  1
  I  I15  1  0.99706698  0.25000000  0.50000000  1
  Hg  Hg16  1  0.65124816  0.15124816  0.80249633  1
  Hg  Hg17  1  0.34875184  0.34875184  0.19750367  1
  Hg  Hg18  1  0.34875184  0.84875184  0.19750367  1
  Hg  Hg19  1  0.65124816  0.65124816  0.80249633  1
  Hg  Hg20  1  0.74511822  0.02949485  0.50000000  1
  Hg  Hg21  1  0.74511822  0.47050515  0.50000000  1
  Hg  Hg22  1  0.25488178  0.52949485  0.50000000  1
  Hg  Hg23  1  0.25488178  0.97050515  0.50000000  1
  Hg  Hg24  1  0.06687054  0.11673321  0.23346643  1
  Hg  Hg25  1  0.33340411  0.38326679  0.76653357  1
  Hg  Hg26  1  0.93312946  0.88326679  0.76653357  1
  Hg  Hg27  1  0.66659589  0.61673321  0.23346643  1
