# generated using pymatgen
data_TlSbO3
_symmetry_space_group_name_H-M   'P 1'
_cell_length_a   8.34891684
_cell_length_b   8.34891684
_cell_length_c   8.34891684
_cell_angle_alpha   37.80925706
_cell_angle_beta   37.80925706
_cell_angle_gamma   37.80925706
_symmetry_Int_Tables_number   1
_chemical_formula_structural   TlSbO3
_chemical_formula_sum   'Tl2 Sb2 O6'
_cell_volume   196.25159547
_cell_formula_units_Z   2
loop_
 _symmetry_equiv_pos_site_id
 _symmetry_equiv_pos_as_xyz
  1  'x, y, z'
loop_
 _atom_site_type_symbol
 _atom_site_label
 _atom_site_symmetry_multiplicity
 _atom_site_fract_x
 _atom_site_fract_y
 _atom_site_fract_z
 _atom_site_occupancy
  O  O0  1  0.83492115  0.45137613  0.06774887  1
  O  O1  1  0.45137613  0.06774887  0.83492115  1
  O  O2  1  0.06774887  0.83492115  0.45137613  1
  O  O3  1  0.16507885  0.54862387  0.93225113  1
  O  O4  1  0.93225113  0.16507885  0.54862387  1
  O  O5  1  0.54862387  0.93225113  0.16507885  1
  Sb  Sb6  1  0.83336165  0.83336165  0.83336165  1
  Sb  Sb7  1  0.16663835  0.16663835  0.16663835  1
  Tl  Tl8  1  0.61395715  0.61395715  0.61395715  1
  Tl  Tl9  1  0.38604285  0.38604285  0.38604285  1
