# generated using pymatgen
data_Rb6Br4O
_symmetry_space_group_name_H-M   'P 1'
_cell_length_a   9.52394285
_cell_length_b   9.52394285
_cell_length_c   9.52394285
_cell_angle_alpha   89.08636788
_cell_angle_beta   89.08636788
_cell_angle_gamma   89.08636785
_symmetry_Int_Tables_number   1
_chemical_formula_structural   Rb6Br4O
_chemical_formula_sum   'Rb12 Br8 O2'
_cell_volume   863.54785886
_cell_formula_units_Z   2
loop_
 _symmetry_equiv_pos_site_id
 _symmetry_equiv_pos_as_xyz
  1  'x, y, z'
loop_
 _atom_site_type_symbol
 _atom_site_label
 _atom_site_symmetry_multiplicity
 _atom_site_fract_x
 _atom_site_fract_y
 _atom_site_fract_z
 _atom_site_occupancy
  O  O0  1  0.50000000  0.50000000  0.50000000  1
  O  O1  1  0.00000000  0.00000000  0.00000000  1
  Br  Br2  1  0.75000000  0.75000000  0.75000000  1
  Br  Br3  1  0.25000000  0.25000000  0.25000000  1
  Br  Br4  1  0.37902074  0.75000000  0.12097926  1
  Br  Br5  1  0.75000000  0.12097926  0.37902074  1
  Br  Br6  1  0.12097926  0.37902074  0.75000000  1
  Br  Br7  1  0.62097926  0.25000000  0.87902074  1
  Br  Br8  1  0.25000000  0.87902074  0.62097926  1
  Br  Br9  1  0.87902074  0.62097926  0.25000000  1
  Rb  Rb10  1  0.92989596  0.05767285  0.72506218  1
  Rb  Rb11  1  0.72506218  0.92989596  0.05767285  1
  Rb  Rb12  1  0.05767285  0.72506218  0.92989596  1
  Rb  Rb13  1  0.44232715  0.57010404  0.77493782  1
  Rb  Rb14  1  0.57010404  0.77493782  0.44232715  1
  Rb  Rb15  1  0.77493782  0.44232715  0.57010404  1
  Rb  Rb16  1  0.27493782  0.07010404  0.94232715  1
  Rb  Rb17  1  0.07010404  0.94232715  0.27493782  1
  Rb  Rb18  1  0.94232715  0.27493782  0.07010404  1
  Rb  Rb19  1  0.55767285  0.42989596  0.22506218  1
  Rb  Rb20  1  0.42989596  0.22506218  0.55767285  1
  Rb  Rb21  1  0.22506218  0.55767285  0.42989596  1
