# generated using pymatgen
data_GeCl4
_symmetry_space_group_name_H-M   'P 1'
_cell_length_a   7.02817805
_cell_length_b   10.58364980
_cell_length_c   10.67445925
_cell_angle_alpha   102.83251179
_cell_angle_beta   90.00000000
_cell_angle_gamma   90.00000000
_symmetry_Int_Tables_number   1
_chemical_formula_structural   GeCl4
_chemical_formula_sum   'Ge4 Cl16'
_cell_volume   774.17505812
_cell_formula_units_Z   4
loop_
 _symmetry_equiv_pos_site_id
 _symmetry_equiv_pos_as_xyz
  1  'x, y, z'
loop_
 _atom_site_type_symbol
 _atom_site_label
 _atom_site_symmetry_multiplicity
 _atom_site_fract_x
 _atom_site_fract_y
 _atom_site_fract_z
 _atom_site_occupancy
  Cl  Cl0  1  0.36001380  0.80268998  0.91019834  1
  Cl  Cl1  1  0.86001380  0.19731002  0.58980166  1
  Cl  Cl2  1  0.63998620  0.19731002  0.08980166  1
  Cl  Cl3  1  0.13998620  0.80268998  0.41019834  1
  Cl  Cl4  1  0.56844047  0.70106911  0.51989781  1
  Cl  Cl5  1  0.06844047  0.29893089  0.98010219  1
  Cl  Cl6  1  0.43155953  0.29893089  0.48010219  1
  Cl  Cl7  1  0.93155953  0.70106911  0.01989781  1
  Cl  Cl8  1  0.42912118  0.58314747  0.20200845  1
  Cl  Cl9  1  0.92912118  0.41685253  0.29799155  1
  Cl  Cl10  1  0.57087882  0.41685253  0.79799155  1
  Cl  Cl11  1  0.07087882  0.58314747  0.70200845  1
  Cl  Cl12  1  0.57131758  0.90499227  0.30447818  1
  Cl  Cl13  1  0.07131758  0.09500773  0.19552182  1
  Cl  Cl14  1  0.42868242  0.09500773  0.69552182  1
  Cl  Cl15  1  0.92868242  0.90499227  0.80447818  1
  Ge  Ge16  1  0.07303849  0.74800819  0.85925449  1
  Ge  Ge17  1  0.57303849  0.25199181  0.64074551  1
  Ge  Ge18  1  0.92696151  0.25199181  0.14074551  1
  Ge  Ge19  1  0.42696151  0.74800819  0.35925449  1
