# generated using pymatgen
data_BaLaI4
_symmetry_space_group_name_H-M   'P 1'
_cell_length_a   7.56438584
_cell_length_b   9.02714709
_cell_length_c   9.28414788
_cell_angle_alpha   113.71736650
_cell_angle_beta   107.89160885
_cell_angle_gamma   101.88994325
_symmetry_Int_Tables_number   1
_chemical_formula_structural   BaLaI4
_chemical_formula_sum   'Ba2 La2 I8'
_cell_volume   511.30242120
_cell_formula_units_Z   2
loop_
 _symmetry_equiv_pos_site_id
 _symmetry_equiv_pos_as_xyz
  1  'x, y, z'
loop_
 _atom_site_type_symbol
 _atom_site_label
 _atom_site_symmetry_multiplicity
 _atom_site_fract_x
 _atom_site_fract_y
 _atom_site_fract_z
 _atom_site_occupancy
  I  I0  1  0.01212512  0.23230552  0.87403957  1
  I  I1  1  0.36191444  0.64173405  0.87403957  1
  I  I2  1  0.98787488  0.76769448  0.12596043  1
  I  I3  1  0.63808556  0.35826595  0.12596043  1
  I  I4  1  0.35764987  0.94256537  0.65348235  1
  I  I5  1  0.79583248  0.71091698  0.65348235  1
  I  I6  1  0.64235013  0.05743463  0.34651765  1
  I  I7  1  0.20416752  0.28908302  0.34651765  1
  Ba  Ba8  1  0.38430706  0.63430706  0.26861412  1
  Ba  Ba9  1  0.61569294  0.36569294  0.73138588  1
  La  La10  1  0.25070434  0.00070434  0.00140868  1
  La  La11  1  0.74929566  0.99929566  0.99859132  1
