# generated using pymatgen
data_Al7(TlS4)3
_symmetry_space_group_name_H-M   'P 1'
_cell_length_a   9.20508530
_cell_length_b   9.73425115
_cell_length_c   12.62745950
_cell_angle_alpha   90.00000000
_cell_angle_beta   90.00000000
_cell_angle_gamma   96.10381213
_symmetry_Int_Tables_number   1
_chemical_formula_structural   Al7(TlS4)3
_chemical_formula_sum   'Al14 Tl6 S24'
_cell_volume   1125.06411372
_cell_formula_units_Z   2
loop_
 _symmetry_equiv_pos_site_id
 _symmetry_equiv_pos_as_xyz
  1  'x, y, z'
loop_
 _atom_site_type_symbol
 _atom_site_label
 _atom_site_symmetry_multiplicity
 _atom_site_fract_x
 _atom_site_fract_y
 _atom_site_fract_z
 _atom_site_occupancy
  Al  Al0  1  0.96939397  0.02944959  0.28391443  1
  Al  Al1  1  0.03060603  0.97055041  0.78391443  1
  Al  Al2  1  0.71046755  0.19151610  0.76430624  1
  Al  Al3  1  0.28953245  0.80848390  0.26430624  1
  Al  Al4  1  0.30314674  0.17910949  0.37324656  1
  Al  Al5  1  0.69685326  0.82089051  0.87324656  1
  Al  Al6  1  0.52201230  0.47789632  0.76715911  1
  Al  Al7  1  0.47798770  0.52210368  0.26715911  1
  Al  Al8  1  0.33093447  0.17498417  0.67179727  1
  Al  Al9  1  0.66906553  0.82501583  0.17179727  1
  Al  Al10  1  0.97866366  0.19848310  0.53782647  1
  Al  Al11  1  0.02133634  0.80151690  0.03782647  1
  Al  Al12  1  0.62844500  0.35901909  0.51546505  1
  Al  Al13  1  0.37155500  0.64098091  0.01546505  1
  S  S14  1  0.07395154  0.00643018  0.95875336  1
  S  S15  1  0.75413176  0.04552986  0.20426350  1
  S  S16  1  0.67202338  0.67736738  0.30804980  1
  S  S17  1  0.32797662  0.32263262  0.80804980  1
  S  S18  1  0.24586824  0.95447014  0.70426350  1
  S  S19  1  0.56953997  0.15691333  0.61320350  1
  S  S20  1  0.47585870  0.68583617  0.84772990  1
  S  S21  1  0.52414130  0.31416383  0.34772990  1
  S  S22  1  0.27109093  0.59506208  0.33134803  1
  S  S23  1  0.72890907  0.40493792  0.83134803  1
  S  S24  1  0.52945035  0.53124903  0.59393740  1
  S  S25  1  0.47054965  0.46875097  0.09393740  1
  S  S26  1  0.35543943  0.95869016  0.39483812  1
  S  S27  1  0.64456057  0.04130984  0.89483812  1
  S  S28  1  0.86147814  0.79244839  0.74609014  1
  S  S29  1  0.13852186  0.20755161  0.24609014  1
  S  S30  1  0.22385880  0.27181511  0.52818789  1
  S  S31  1  0.77614120  0.72818489  0.02818789  1
  S  S32  1  0.94944454  0.17233788  0.71895855  1
  S  S33  1  0.05055546  0.82766212  0.21895855  1
  S  S34  1  0.87341389  0.38870817  0.49449635  1
  S  S35  1  0.12658611  0.61129183  0.99449635  1
  S  S36  1  0.43046003  0.84308667  0.11320350  1
  S  S37  1  0.92604846  0.99356982  0.45875336  1
  Tl  Tl38  1  0.96161161  0.47820184  0.25465592  1
  Tl  Tl39  1  0.03838839  0.52179816  0.75465592  1
  Tl  Tl40  1  0.87833658  0.22533701  0.02599021  1
  Tl  Tl41  1  0.12166342  0.77466299  0.52599021  1
  Tl  Tl42  1  0.38073035  0.16684132  0.02274220  1
  Tl  Tl43  1  0.61926965  0.83315868  0.52274220  1
