# generated using pymatgen
data_Na3BS3
_symmetry_space_group_name_H-M   'P 1'
_cell_length_a   6.69642195
_cell_length_b   6.83143932
_cell_length_c   8.41342836
_cell_angle_alpha   66.38266339
_cell_angle_beta   66.54926753
_cell_angle_gamma   60.65166624
_symmetry_Int_Tables_number   1
_chemical_formula_structural   Na3BS3
_chemical_formula_sum   'Na6 B2 S6'
_cell_volume   297.43038192
_cell_formula_units_Z   2
loop_
 _symmetry_equiv_pos_site_id
 _symmetry_equiv_pos_as_xyz
  1  'x, y, z'
loop_
 _atom_site_type_symbol
 _atom_site_label
 _atom_site_symmetry_multiplicity
 _atom_site_fract_x
 _atom_site_fract_y
 _atom_site_fract_z
 _atom_site_occupancy
  B  B0  1  0.92193057  0.25000000  0.75000000  1
  B  B1  1  0.07806943  0.75000000  0.25000000  1
  Na  Na2  1  0.18798343  0.18924463  0.00437106  1
  Na  Na3  1  0.61840088  0.68924463  0.50437106  1
  Na  Na4  1  0.50000000  0.50000000  0.00000000  1
  Na  Na5  1  0.00000000  0.00000000  0.50000000  1
  Na  Na6  1  0.81201657  0.81075537  0.99562894  1
  Na  Na7  1  0.38159912  0.31075537  0.49562894  1
  S  S8  1  0.80719709  0.01698864  0.25318062  1
  S  S9  1  0.07736635  0.48301136  0.24681938  1
  S  S10  1  0.19280291  0.98301136  0.74681938  1
  S  S11  1  0.92263365  0.51698864  0.75318062  1
  S  S12  1  0.35607848  0.75000000  0.25000000  1
  S  S13  1  0.64392152  0.25000000  0.75000000  1
