# generated using pymatgen
data_Re2PCl13
_symmetry_space_group_name_H-M   'P 1'
_cell_length_a   9.18539341
_cell_length_b   9.73153249
_cell_length_c   11.17189989
_cell_angle_alpha   90.00000000
_cell_angle_beta   90.00000000
_cell_angle_gamma   98.32702163
_symmetry_Int_Tables_number   1
_chemical_formula_structural   Re2PCl13
_chemical_formula_sum   'Re4 P2 Cl26'
_cell_volume   988.10528422
_cell_formula_units_Z   2
loop_
 _symmetry_equiv_pos_site_id
 _symmetry_equiv_pos_as_xyz
  1  'x, y, z'
loop_
 _atom_site_type_symbol
 _atom_site_label
 _atom_site_symmetry_multiplicity
 _atom_site_fract_x
 _atom_site_fract_y
 _atom_site_fract_z
 _atom_site_occupancy
  P  P0  1  0.73811431  0.50897960  0.25000000  1
  P  P1  1  0.26188569  0.49102040  0.75000000  1
  Cl  Cl2  1  0.19168071  0.57851838  0.60710232  1
  Cl  Cl3  1  0.80831929  0.42148162  0.10710232  1
  Cl  Cl4  1  0.56218217  0.89433327  0.75000000  1
  Cl  Cl5  1  0.43781783  0.10566673  0.25000000  1
  Cl  Cl6  1  0.84916675  0.08271581  0.90643958  1
  Cl  Cl7  1  0.15083325  0.91728419  0.40643958  1
  Cl  Cl8  1  0.15083325  0.91728419  0.09356042  1
  Cl  Cl9  1  0.84916675  0.08271581  0.59356042  1
  Cl  Cl10  1  0.79731653  0.36353073  0.75000000  1
  Cl  Cl11  1  0.20268347  0.63646927  0.25000000  1
  Cl  Cl12  1  0.52060368  0.18218475  0.89883426  1
  Cl  Cl13  1  0.47939632  0.81781525  0.39883426  1
  Cl  Cl14  1  0.47939632  0.81781525  0.10116574  1
  Cl  Cl15  1  0.52060368  0.18218475  0.60116574  1
  Cl  Cl16  1  0.08441448  0.92793194  0.75000000  1
  Cl  Cl17  1  0.91558552  0.07206806  0.25000000  1
  Cl  Cl18  1  0.80943338  0.73837987  0.89760503  1
  Cl  Cl19  1  0.19056662  0.26162013  0.39760503  1
  Cl  Cl20  1  0.19056662  0.26162013  0.10239497  1
  Cl  Cl21  1  0.80943338  0.73837987  0.60239497  1
  Cl  Cl22  1  0.18830160  0.29259406  0.75000000  1
  Cl  Cl23  1  0.81169840  0.70740594  0.25000000  1
  Cl  Cl24  1  0.47710319  0.51956377  0.75000000  1
  Cl  Cl25  1  0.52289681  0.48043623  0.25000000  1
  Cl  Cl26  1  0.19168071  0.57851838  0.89289768  1
  Cl  Cl27  1  0.80831929  0.42148162  0.39289768  1
  Re  Re28  1  0.17053363  0.09218971  0.25000000  1
  Re  Re29  1  0.82946637  0.90781029  0.75000000  1
  Re  Re30  1  0.31976713  0.86615407  0.25000000  1
  Re  Re31  1  0.68023287  0.13384593  0.75000000  1
