# generated using pymatgen
data_Fe5O7F3
_symmetry_space_group_name_H-M   'P 1'
_cell_length_a   4.65662775
_cell_length_b   4.65677704
_cell_length_c   15.22140819
_cell_angle_alpha   90.00000000
_cell_angle_beta   90.04562176
_cell_angle_gamma   90.00000000
_symmetry_Int_Tables_number   1
_chemical_formula_structural   Fe5O7F3
_chemical_formula_sum   'Fe10 O14 F6'
_cell_volume   330.07426299
_cell_formula_units_Z   2
loop_
 _symmetry_equiv_pos_site_id
 _symmetry_equiv_pos_as_xyz
  1  'x, y, z'
loop_
 _atom_site_type_symbol
 _atom_site_label
 _atom_site_symmetry_multiplicity
 _atom_site_fract_x
 _atom_site_fract_y
 _atom_site_fract_z
 _atom_site_occupancy
  Fe  Fe0  1  0.00439110  0.00087122  0.00065696  1
  Fe  Fe1  1  0.97263399  0.98589735  0.20568795  1
  Fe  Fe2  1  0.98029908  0.98040582  0.39964495  1
  Fe  Fe3  1  0.03475559  0.01957932  0.59366455  1
  Fe  Fe4  1  0.01228907  0.98236611  0.79923361  1
  Fe  Fe5  1  0.53475559  0.48042068  0.09366455  1
  Fe  Fe6  1  0.50439110  0.49912878  0.50065696  1
  Fe  Fe7  1  0.51228907  0.51763389  0.29923361  1
  Fe  Fe8  1  0.47263399  0.51410265  0.70568795  1
  Fe  Fe9  1  0.48029908  0.51959418  0.89964495  1
  O  O10  1  0.18779262  0.79853660  0.30216551  1
  O  O11  1  0.19980818  0.80152996  0.49696401  1
  O  O12  1  0.19142251  0.82357740  0.69666991  1
  O  O13  1  0.18393030  0.81552952  0.90379121  1
  O  O14  1  0.30800527  0.30248603  0.99877206  1
  O  O15  1  0.32086546  0.32386945  0.59910921  1
  O  O16  1  0.29547816  0.30981126  0.80377325  1
  O  O17  1  0.69980818  0.69847004  0.99696401  1
  O  O18  1  0.69142251  0.67642260  0.19666991  1
  O  O19  1  0.68393030  0.68447048  0.40379121  1
  O  O20  1  0.68779262  0.70146340  0.80216551  1
  O  O21  1  0.82086546  0.17613055  0.09910921  1
  O  O22  1  0.80800527  0.19751397  0.49877206  1
  O  O23  1  0.79547816  0.19018874  0.30377325  1
  F  F24  1  0.20522363  0.79039152  0.10252741  1
  F  F25  1  0.30378873  0.29097619  0.19822572  1
  F  F26  1  0.29931730  0.29715359  0.39911369  1
  F  F27  1  0.70522363  0.70960848  0.60252741  1
  F  F28  1  0.79931730  0.20284641  0.89911369  1
  F  F29  1  0.80378873  0.20902381  0.69822572  1
