# generated using pymatgen
data_Na4SnS4
_symmetry_space_group_name_H-M   'P 1'
_cell_length_a   7.00601648
_cell_length_b   7.92937091
_cell_length_c   7.92937091
_cell_angle_alpha   90.00000000
_cell_angle_beta   90.00000000
_cell_angle_gamma   90.00000000
_symmetry_Int_Tables_number   1
_chemical_formula_structural   Na4SnS4
_chemical_formula_sum   'Na8 Sn2 S8'
_cell_volume   440.50274692
_cell_formula_units_Z   2
loop_
 _symmetry_equiv_pos_site_id
 _symmetry_equiv_pos_as_xyz
  1  'x, y, z'
loop_
 _atom_site_type_symbol
 _atom_site_label
 _atom_site_symmetry_multiplicity
 _atom_site_fract_x
 _atom_site_fract_y
 _atom_site_fract_z
 _atom_site_occupancy
  Na  Na0  1  0.03088271  0.19820099  0.59361133  1
  Na  Na1  1  0.96911729  0.59361133  0.80179901  1
  Na  Na2  1  0.96911729  0.40638867  0.19820099  1
  Na  Na3  1  0.03088271  0.80179901  0.40638867  1
  Na  Na4  1  0.46911729  0.69820099  0.90638867  1
  Na  Na5  1  0.46911729  0.30179901  0.09361133  1
  Na  Na6  1  0.53088271  0.90638867  0.30179901  1
  Na  Na7  1  0.53088271  0.09361133  0.69820099  1
  S  S8  1  0.68945929  0.26077626  0.40751897  1
  S  S9  1  0.68945929  0.73922374  0.59248103  1
  S  S10  1  0.18945929  0.09248103  0.23922374  1
  S  S11  1  0.81054071  0.23922374  0.90751897  1
  S  S12  1  0.81054071  0.76077626  0.09248103  1
  S  S13  1  0.18945929  0.90751897  0.76077626  1
  S  S14  1  0.31054071  0.59248103  0.26077626  1
  S  S15  1  0.31054071  0.40751897  0.73922374  1
  Sn  Sn16  1  0.00000000  0.00000000  0.00000000  1
  Sn  Sn17  1  0.50000000  0.50000000  0.50000000  1
