# generated using pymatgen
data_CsReF8
_symmetry_space_group_name_H-M   'P 1'
_cell_length_a   5.31948728
_cell_length_b   8.01049093
_cell_length_c   8.01049093
_cell_angle_alpha   90.00000000
_cell_angle_beta   90.00000000
_cell_angle_gamma   90.00000000
_symmetry_Int_Tables_number   1
_chemical_formula_structural   CsReF8
_chemical_formula_sum   'Cs2 Re2 F16'
_cell_volume   341.34067328
_cell_formula_units_Z   2
loop_
 _symmetry_equiv_pos_site_id
 _symmetry_equiv_pos_as_xyz
  1  'x, y, z'
loop_
 _atom_site_type_symbol
 _atom_site_label
 _atom_site_symmetry_multiplicity
 _atom_site_fract_x
 _atom_site_fract_y
 _atom_site_fract_z
 _atom_site_occupancy
  F  F0  1  0.08578854  0.75000000  0.95299883  1
  F  F1  1  0.08578854  0.75000000  0.54700117  1
  F  F2  1  0.08578854  0.95299883  0.75000000  1
  F  F3  1  0.08578854  0.54700117  0.75000000  1
  F  F4  1  0.30729294  0.10691142  0.10691142  1
  F  F5  1  0.30729294  0.39308858  0.10691142  1
  F  F6  1  0.30729294  0.10691142  0.39308858  1
  F  F7  1  0.30729294  0.39308858  0.39308858  1
  F  F8  1  0.69270706  0.60691142  0.89308858  1
  F  F9  1  0.69270706  0.89308858  0.60691142  1
  F  F10  1  0.69270706  0.60691142  0.60691142  1
  F  F11  1  0.69270706  0.89308858  0.89308858  1
  F  F12  1  0.91421146  0.04700117  0.25000000  1
  F  F13  1  0.91421146  0.25000000  0.04700117  1
  F  F14  1  0.91421146  0.25000000  0.45299883  1
  F  F15  1  0.91421146  0.45299883  0.25000000  1
  Cs  Cs16  1  0.50000000  0.75000000  0.25000000  1
  Cs  Cs17  1  0.50000000  0.25000000  0.75000000  1
  Re  Re18  1  0.10750804  0.25000000  0.25000000  1
  Re  Re19  1  0.89249196  0.75000000  0.75000000  1
