# generated using pymatgen
data_LiNb6Cl19
_symmetry_space_group_name_H-M   'P 1'
_cell_length_a   6.95400697
_cell_length_b   6.88172478
_cell_length_c   28.63649573
_cell_angle_alpha   90.00000000
_cell_angle_beta   90.00000000
_cell_angle_gamma   90.00000000
_symmetry_Int_Tables_number   1
_chemical_formula_structural   LiNb6Cl19
_chemical_formula_sum   'Li2 Nb12 Cl38'
_cell_volume   1370.41559933
_cell_formula_units_Z   2
loop_
 _symmetry_equiv_pos_site_id
 _symmetry_equiv_pos_as_xyz
  1  'x, y, z'
loop_
 _atom_site_type_symbol
 _atom_site_label
 _atom_site_symmetry_multiplicity
 _atom_site_fract_x
 _atom_site_fract_y
 _atom_site_fract_z
 _atom_site_occupancy
  Li  Li0  1  0.50000000  0.00000000  0.00000000  1
  Li  Li1  1  0.50000000  0.00000000  0.50000000  1
  Cl  Cl2  1  0.38217161  0.74614555  0.94275188  1
  Cl  Cl3  1  0.38217161  0.25385445  0.55724812  1
  Cl  Cl4  1  0.61782839  0.74614555  0.05724812  1
  Cl  Cl5  1  0.61782839  0.25385445  0.44275188  1
  Cl  Cl6  1  0.61782839  0.25385445  0.05724812  1
  Cl  Cl7  1  0.61782839  0.74614555  0.44275188  1
  Cl  Cl8  1  0.38217161  0.25385445  0.94275188  1
  Cl  Cl9  1  0.38217161  0.74614555  0.55724812  1
  Cl  Cl10  1  0.20152439  0.00000000  0.05768221  1
  Cl  Cl11  1  0.20152439  0.00000000  0.44231779  1
  Cl  Cl12  1  0.45440912  0.50000000  0.65531888  1
  Cl  Cl13  1  0.45440912  0.50000000  0.84468112  1
  Cl  Cl14  1  0.54559088  0.50000000  0.34468112  1
  Cl  Cl15  1  0.54559088  0.50000000  0.15531888  1
  Cl  Cl16  1  0.96195780  0.75030697  0.65108186  1
  Cl  Cl17  1  0.96195780  0.24969303  0.84891814  1
  Cl  Cl18  1  0.03804220  0.75030697  0.34891814  1
  Cl  Cl19  1  0.03804220  0.24969303  0.15108186  1
  Cl  Cl20  1  0.03804220  0.24969303  0.34891814  1
  Cl  Cl21  1  0.03804220  0.75030697  0.15108186  1
  Cl  Cl22  1  0.96195780  0.24969303  0.65108186  1
  Cl  Cl23  1  0.96195780  0.75030697  0.84891814  1
  Cl  Cl24  1  0.82692751  0.50000000  0.55265480  1
  Cl  Cl25  1  0.82692751  0.50000000  0.94734520  1
  Cl  Cl26  1  0.17307249  0.50000000  0.44734520  1
  Cl  Cl27  1  0.17307249  0.50000000  0.05265480  1
  Cl  Cl28  1  0.05383985  0.50000000  0.75000000  1
  Cl  Cl29  1  0.94616015  0.50000000  0.25000000  1
  Cl  Cl30  1  0.64237238  0.73495973  0.75000000  1
  Cl  Cl31  1  0.64237238  0.26504027  0.75000000  1
  Cl  Cl32  1  0.35762762  0.73495973  0.25000000  1
  Cl  Cl33  1  0.35762762  0.26504027  0.25000000  1
  Cl  Cl34  1  0.52909404  0.00000000  0.65385225  1
  Cl  Cl35  1  0.52909404  0.00000000  0.84614775  1
  Cl  Cl36  1  0.47090596  0.00000000  0.34614775  1
  Cl  Cl37  1  0.47090596  0.00000000  0.15385225  1
  Cl  Cl38  1  0.79847561  0.00000000  0.55768221  1
  Cl  Cl39  1  0.79847561  0.00000000  0.94231779  1
  Nb  Nb40  1  0.65922192  0.71244244  0.89295918  1
  Nb  Nb41  1  0.65922192  0.28755756  0.60704082  1
  Nb  Nb42  1  0.34077808  0.71244244  0.10704082  1
  Nb  Nb43  1  0.34077808  0.28755756  0.39295918  1
  Nb  Nb44  1  0.34077808  0.28755756  0.10704082  1
  Nb  Nb45  1  0.34077808  0.71244244  0.39295918  1
  Nb  Nb46  1  0.65922192  0.28755756  0.89295918  1
  Nb  Nb47  1  0.65922192  0.71244244  0.60704082  1
  Nb  Nb48  1  0.22118622  0.50000000  0.18992529  1
  Nb  Nb49  1  0.22118622  0.50000000  0.31007471  1
  Nb  Nb50  1  0.77881378  0.50000000  0.81007471  1
  Nb  Nb51  1  0.77881378  0.50000000  0.68992529  1
