# generated using pymatgen
data_Ho5(ReO6)2
_symmetry_space_group_name_H-M   'P 1'
_cell_length_a   5.66000615
_cell_length_b   6.82240502
_cell_length_c   7.52513114
_cell_angle_alpha   106.24624577
_cell_angle_beta   90.00000000
_cell_angle_gamma   114.50736334
_symmetry_Int_Tables_number   1
_chemical_formula_structural   Ho5(ReO6)2
_chemical_formula_sum   'Ho5 Re2 O12'
_cell_volume   251.59478714
_cell_formula_units_Z   1
loop_
 _symmetry_equiv_pos_site_id
 _symmetry_equiv_pos_as_xyz
  1  'x, y, z'
loop_
 _atom_site_type_symbol
 _atom_site_label
 _atom_site_symmetry_multiplicity
 _atom_site_fract_x
 _atom_site_fract_y
 _atom_site_fract_z
 _atom_site_occupancy
  O  O0  1  0.49916497  0.99832994  0.82165632  1
  O  O1  1  0.50083503  0.00167006  0.17834368  1
  O  O2  1  0.00123870  0.00247741  0.79303897  1
  O  O3  1  0.99876130  0.99752259  0.20696103  1
  O  O4  1  0.91240560  0.33147755  0.08530314  1
  O  O5  1  0.58092805  0.66852245  0.91469686  1
  O  O6  1  0.08759440  0.66852245  0.91469686  1
  O  O7  1  0.59384242  0.69184345  0.42624508  1
  O  O8  1  0.90199897  0.30815655  0.57375492  1
  O  O9  1  0.40615758  0.30815655  0.57375492  1
  O  O10  1  0.09800103  0.69184345  0.42624508  1
  O  O11  1  0.41907195  0.33147755  0.08530314  1
  Ho  Ho12  1  0.31411409  0.62822817  0.17589656  1
  Ho  Ho13  1  0.68588591  0.37177183  0.82410344  1
  Ho  Ho14  1  0.00000000  0.00000000  0.50000000  1
  Ho  Ho15  1  0.69691184  0.39382367  0.35908868  1
  Ho  Ho16  1  0.30308816  0.60617633  0.64091132  1
  Re  Re17  1  0.21438595  0.00000000  0.00000000  1
  Re  Re18  1  0.78561405  0.00000000  0.00000000  1
