# generated using pymatgen
data_Zr(Se2Cl3)2
_symmetry_space_group_name_H-M   'P 1'
_cell_length_a   11.19374841
_cell_length_b   11.09774086
_cell_length_c   11.19150087
_cell_angle_alpha   90.00000000
_cell_angle_beta   90.00000000
_cell_angle_gamma   90.00000000
_symmetry_Int_Tables_number   1
_chemical_formula_structural   Zr(Se2Cl3)2
_chemical_formula_sum   'Zr4 Se16 Cl24'
_cell_volume   1390.26776685
_cell_formula_units_Z   4
loop_
 _symmetry_equiv_pos_site_id
 _symmetry_equiv_pos_as_xyz
  1  'x, y, z'
loop_
 _atom_site_type_symbol
 _atom_site_label
 _atom_site_symmetry_multiplicity
 _atom_site_fract_x
 _atom_site_fract_y
 _atom_site_fract_z
 _atom_site_occupancy
  Cl  Cl0  1  0.35716641  0.67116626  0.03924289  1
  Cl  Cl1  1  0.35716641  0.82883374  0.46075711  1
  Cl  Cl2  1  0.14283359  0.17116626  0.96075711  1
  Cl  Cl3  1  0.14283359  0.32883374  0.53924289  1
  Cl  Cl4  1  0.64283359  0.32883374  0.96075711  1
  Cl  Cl5  1  0.64283359  0.17116626  0.53924289  1
  Cl  Cl6  1  0.85716641  0.82883374  0.03924289  1
  Cl  Cl7  1  0.85716641  0.67116626  0.46075711  1
  Cl  Cl8  1  0.37108856  0.43156027  0.82800769  1
  Cl  Cl9  1  0.37108856  0.06843973  0.67199231  1
  Cl  Cl10  1  0.12891144  0.93156027  0.17199231  1
  Cl  Cl11  1  0.12891144  0.56843973  0.32800769  1
  Cl  Cl12  1  0.62891144  0.56843973  0.17199231  1
  Cl  Cl13  1  0.62891144  0.93156027  0.32800769  1
  Cl  Cl14  1  0.87108856  0.06843973  0.82800769  1
  Cl  Cl15  1  0.87108856  0.43156027  0.67199231  1
  Cl  Cl16  1  0.61606954  0.62824582  0.86510437  1
  Cl  Cl17  1  0.61606954  0.87175418  0.63489563  1
  Cl  Cl18  1  0.88393046  0.12824582  0.13489563  1
  Cl  Cl19  1  0.88393046  0.37175418  0.36510437  1
  Cl  Cl20  1  0.11606954  0.62824582  0.63489563  1
  Cl  Cl21  1  0.11606954  0.87175418  0.86510437  1
  Cl  Cl22  1  0.38393046  0.12824582  0.36510437  1
  Cl  Cl23  1  0.38393046  0.37175418  0.13489563  1
  Se  Se24  1  0.50463850  0.10833321  0.89952953  1
  Se  Se25  1  0.50463850  0.39166679  0.60047047  1
  Se  Se26  1  0.99536150  0.60833321  0.10047047  1
  Se  Se27  1  0.99536150  0.89166679  0.39952953  1
  Se  Se28  1  0.49536150  0.89166679  0.10047047  1
  Se  Se29  1  0.49536150  0.60833321  0.39952953  1
  Se  Se30  1  0.00463850  0.39166679  0.89952953  1
  Se  Se31  1  0.00463850  0.10833321  0.60047047  1
  Se  Se32  1  0.42100542  0.91530535  0.90674477  1
  Se  Se33  1  0.42100542  0.58469465  0.59325523  1
  Se  Se34  1  0.07899458  0.41530535  0.09325523  1
  Se  Se35  1  0.07899458  0.08469465  0.40674477  1
  Se  Se36  1  0.57899458  0.08469465  0.09325523  1
  Se  Se37  1  0.57899458  0.41530535  0.40674477  1
  Se  Se38  1  0.92100542  0.58469465  0.90674477  1
  Se  Se39  1  0.92100542  0.91530535  0.59325523  1
  Zr  Zr40  1  0.50000000  0.50000000  0.00000000  1
  Zr  Zr41  1  0.50000000  0.00000000  0.50000000  1
  Zr  Zr42  1  0.00000000  0.00000000  0.00000000  1
  Zr  Zr43  1  0.00000000  0.50000000  0.50000000  1
