# generated using pymatgen
data_RbBiS2
_symmetry_space_group_name_H-M   'P 1'
_cell_length_a   8.10969277
_cell_length_b   8.10969277
_cell_length_c   8.10969277
_cell_angle_alpha   29.94563083
_cell_angle_beta   29.94563084
_cell_angle_gamma   29.94563086
_symmetry_Int_Tables_number   1
_chemical_formula_structural   RbBiS2
_chemical_formula_sum   'Rb1 Bi1 S2'
_cell_volume   117.71069198
_cell_formula_units_Z   1
loop_
 _symmetry_equiv_pos_site_id
 _symmetry_equiv_pos_as_xyz
  1  'x, y, z'
loop_
 _atom_site_type_symbol
 _atom_site_label
 _atom_site_symmetry_multiplicity
 _atom_site_fract_x
 _atom_site_fract_y
 _atom_site_fract_z
 _atom_site_occupancy
  S  S0  1  0.73372599  0.73372599  0.73372599  1
  S  S1  1  0.26627401  0.26627401  0.26627401  1
  Rb  Rb2  1  0.50000000  0.50000000  0.50000000  1
  Bi  Bi3  1  0.00000000  0.00000000  0.00000000  1
