# generated using pymatgen
data_Nb7(BC)4
_symmetry_space_group_name_H-M   'P 1'
_cell_length_a   3.15661582
_cell_length_b   3.23856564
_cell_length_c   16.45494345
_cell_angle_alpha   95.64635661
_cell_angle_beta   95.50103536
_cell_angle_gamma   90.00328731
_symmetry_Int_Tables_number   1
_chemical_formula_structural   Nb7(BC)4
_chemical_formula_sum   'Nb7 B4 C4'
_cell_volume   166.62257730
_cell_formula_units_Z   1
loop_
 _symmetry_equiv_pos_site_id
 _symmetry_equiv_pos_as_xyz
  1  'x, y, z'
loop_
 _atom_site_type_symbol
 _atom_site_label
 _atom_site_symmetry_multiplicity
 _atom_site_fract_x
 _atom_site_fract_y
 _atom_site_fract_z
 _atom_site_occupancy
  B  B0  1  0.97157870  0.47160796  0.94316589  1
  B  B1  1  0.44318015  0.44316512  0.88629280  1
  B  B2  1  0.55681985  0.55683488  0.11370720  1
  B  B3  1  0.02842130  0.52839204  0.05683411  1
  C  C4  1  0.71550773  0.71531776  0.43056615  1
  C  C5  1  0.85281925  0.85261198  0.70554835  1
  C  C6  1  0.28449227  0.28468224  0.56943385  1
  C  C7  1  0.14718075  0.14738802  0.29445165  1
  Nb  Nb8  1  0.50000000  0.00000000  0.00000000  1
  Nb  Nb9  1  0.08160847  0.08166023  0.16332934  1
  Nb  Nb10  1  0.91839153  0.91833977  0.83667066  1
  Nb  Nb11  1  0.21444177  0.21436457  0.42864291  1
  Nb  Nb12  1  0.78555823  0.78563543  0.57135709  1
  Nb  Nb13  1  0.64785260  0.64792878  0.29568924  1
  Nb  Nb14  1  0.35214740  0.35207122  0.70431076  1
