# generated using pymatgen
data_Sm2SCl4
_symmetry_space_group_name_H-M   'P 1'
_cell_length_a   6.48386546
_cell_length_b   7.05648711
_cell_length_c   8.33265918
_cell_angle_alpha   97.41185585
_cell_angle_beta   112.89623403
_cell_angle_gamma   90.00000003
_symmetry_Int_Tables_number   1
_chemical_formula_structural   Sm2SCl4
_chemical_formula_sum   'Sm4 S2 Cl8'
_cell_volume   347.74814203
_cell_formula_units_Z   2
loop_
 _symmetry_equiv_pos_site_id
 _symmetry_equiv_pos_as_xyz
  1  'x, y, z'
loop_
 _atom_site_type_symbol
 _atom_site_label
 _atom_site_symmetry_multiplicity
 _atom_site_fract_x
 _atom_site_fract_y
 _atom_site_fract_z
 _atom_site_occupancy
  S  S0  1  0.93694950  0.75000000  0.00000000  1
  S  S1  1  0.06305050  0.25000000  0.00000000  1
  Cl  Cl2  1  0.30825691  0.57607452  0.82396166  1
  Cl  Cl3  1  0.48429525  0.92392548  0.17603834  1
  Cl  Cl4  1  0.69174309  0.42392548  0.17603834  1
  Cl  Cl5  1  0.51570475  0.07607452  0.82396166  1
  Cl  Cl6  1  0.70031400  0.67894708  0.56110083  1
  Cl  Cl7  1  0.13921318  0.82105292  0.43889917  1
  Cl  Cl8  1  0.29968600  0.32105292  0.43889917  1
  Cl  Cl9  1  0.86078682  0.17894708  0.56110083  1
  Sm  Sm10  1  0.68544881  0.42271905  0.78624937  1
  Sm  Sm11  1  0.89919944  0.07728095  0.21375063  1
  Sm  Sm12  1  0.31455119  0.57728095  0.21375063  1
  Sm  Sm13  1  0.10080056  0.92271905  0.78624937  1
