# generated using pymatgen
data_Ba(AlCl4)2
_symmetry_space_group_name_H-M   'P 1'
_cell_length_a   7.23680862
_cell_length_b   8.15318716
_cell_length_c   12.80235953
_cell_angle_alpha   100.90126597
_cell_angle_beta   90.00000000
_cell_angle_gamma   90.00000000
_symmetry_Int_Tables_number   1
_chemical_formula_structural   Ba(AlCl4)2
_chemical_formula_sum   'Ba2 Al4 Cl16'
_cell_volume   741.74717121
_cell_formula_units_Z   2
loop_
 _symmetry_equiv_pos_site_id
 _symmetry_equiv_pos_as_xyz
  1  'x, y, z'
loop_
 _atom_site_type_symbol
 _atom_site_label
 _atom_site_symmetry_multiplicity
 _atom_site_fract_x
 _atom_site_fract_y
 _atom_site_fract_z
 _atom_site_occupancy
  Al  Al0  1  0.27404534  0.29971333  0.55893849  1
  Al  Al1  1  0.72595466  0.29971333  0.05893849  1
  Al  Al2  1  0.72595466  0.70028667  0.44106151  1
  Al  Al3  1  0.27404534  0.70028667  0.94106151  1
  Cl  Cl4  1  0.79712047  0.56198312  0.10344778  1
  Cl  Cl5  1  0.79712047  0.43801688  0.39655222  1
  Cl  Cl6  1  0.27761185  0.22694162  0.38769821  1
  Cl  Cl7  1  0.27761185  0.77305838  0.11230179  1
  Cl  Cl8  1  0.72238815  0.77305838  0.61230179  1
  Cl  Cl9  1  0.72238815  0.22694162  0.88769821  1
  Cl  Cl10  1  0.06351421  0.16731278  0.62905946  1
  Cl  Cl11  1  0.06351421  0.83268722  0.87094054  1
  Cl  Cl12  1  0.93648579  0.83268722  0.37094054  1
  Cl  Cl13  1  0.93648579  0.16731278  0.12905946  1
  Cl  Cl14  1  0.54401561  0.25281651  0.61885944  1
  Cl  Cl15  1  0.54401561  0.74718349  0.88114056  1
  Cl  Cl16  1  0.45598439  0.74718349  0.38114056  1
  Cl  Cl17  1  0.45598439  0.25281651  0.11885944  1
  Cl  Cl18  1  0.20287953  0.56198312  0.60344778  1
  Cl  Cl19  1  0.20287953  0.43801688  0.89655222  1
  Ba  Ba20  1  0.85231514  0.50000000  0.75000000  1
  Ba  Ba21  1  0.14768486  0.50000000  0.25000000  1
