# generated using pymatgen
data_K3BS3
_symmetry_space_group_name_H-M   'P 1'
_cell_length_a   6.27674013
_cell_length_b   10.32282886
_cell_length_c   12.75391400
_cell_angle_alpha   112.11822252
_cell_angle_beta   90.00000000
_cell_angle_gamma   90.00000000
_symmetry_Int_Tables_number   1
_chemical_formula_structural   K3BS3
_chemical_formula_sum   'K12 B4 S12'
_cell_volume   765.55975013
_cell_formula_units_Z   4
loop_
 _symmetry_equiv_pos_site_id
 _symmetry_equiv_pos_as_xyz
  1  'x, y, z'
loop_
 _atom_site_type_symbol
 _atom_site_label
 _atom_site_symmetry_multiplicity
 _atom_site_fract_x
 _atom_site_fract_y
 _atom_site_fract_z
 _atom_site_occupancy
  B  B0  1  0.87111813  0.73164144  0.24054969  1
  B  B1  1  0.37111813  0.26835856  0.25945031  1
  B  B2  1  0.12888187  0.26835856  0.75945031  1
  B  B3  1  0.62888187  0.73164144  0.74054969  1
  S  S4  1  0.70362435  0.57824377  0.16858345  1
  S  S5  1  0.20362435  0.42175623  0.33141655  1
  S  S6  1  0.29637565  0.42175623  0.83141655  1
  S  S7  1  0.79637565  0.57824377  0.66858345  1
  S  S8  1  0.82798519  0.83771269  0.39105744  1
  S  S9  1  0.32798519  0.16228731  0.10894256  1
  S  S10  1  0.17201481  0.16228731  0.60894256  1
  S  S11  1  0.67201481  0.83771269  0.89105744  1
  S  S12  1  0.42523885  0.78681323  0.66153872  1
  S  S13  1  0.92523885  0.21318677  0.83846128  1
  S  S14  1  0.57476115  0.21318677  0.33846128  1
  S  S15  1  0.07476115  0.78681323  0.16153872  1
  K  K16  1  0.72695067  0.53136923  0.40790580  1
  K  K17  1  0.22695067  0.46863077  0.09209420  1
  K  K18  1  0.27304933  0.46863077  0.59209420  1
  K  K19  1  0.77304933  0.53136923  0.90790580  1
  K  K20  1  0.83197326  0.23465352  0.11047903  1
  K  K21  1  0.33197326  0.76534648  0.38952097  1
  K  K22  1  0.16802674  0.76534648  0.88952097  1
  K  K23  1  0.66802674  0.23465352  0.61047903  1
  K  K24  1  0.55571622  0.90065825  0.14977998  1
  K  K25  1  0.05571622  0.09934175  0.35022002  1
  K  K26  1  0.44428378  0.09934175  0.85022002  1
  K  K27  1  0.94428378  0.90065825  0.64977998  1
