# generated using pymatgen
data_KPd2F5
_symmetry_space_group_name_H-M   'P 1'
_cell_length_a   6.32204843
_cell_length_b   7.58459679
_cell_length_c   10.87041291
_cell_angle_alpha   90.00000000
_cell_angle_beta   90.00000000
_cell_angle_gamma   90.00000000
_symmetry_Int_Tables_number   1
_chemical_formula_structural   KPd2F5
_chemical_formula_sum   'K4 Pd8 F20'
_cell_volume   521.23834515
_cell_formula_units_Z   4
loop_
 _symmetry_equiv_pos_site_id
 _symmetry_equiv_pos_as_xyz
  1  'x, y, z'
loop_
 _atom_site_type_symbol
 _atom_site_label
 _atom_site_symmetry_multiplicity
 _atom_site_fract_x
 _atom_site_fract_y
 _atom_site_fract_z
 _atom_site_occupancy
  F  F0  1  0.69947835  0.05559050  0.66068573  1
  F  F1  1  0.19947835  0.44440950  0.83931427  1
  F  F2  1  0.30052165  0.55559050  0.33931427  1
  F  F3  1  0.80052165  0.94440950  0.16068573  1
  F  F4  1  0.30052165  0.94440950  0.33931427  1
  F  F5  1  0.80052165  0.55559050  0.16068573  1
  F  F6  1  0.69947835  0.44440950  0.66068573  1
  F  F7  1  0.19947835  0.05559050  0.83931427  1
  F  F8  1  0.81160485  0.93270008  0.41899949  1
  F  F9  1  0.31160485  0.56729992  0.08100051  1
  F  F10  1  0.18839515  0.43270008  0.58100051  1
  F  F11  1  0.68839515  0.06729992  0.91899949  1
  F  F12  1  0.04673396  0.25000000  0.09640062  1
  F  F13  1  0.54673396  0.25000000  0.40359938  1
  F  F14  1  0.95326604  0.75000000  0.90359938  1
  F  F15  1  0.45326604  0.75000000  0.59640062  1
  F  F16  1  0.31160485  0.93270008  0.08100051  1
  F  F17  1  0.81160485  0.56729992  0.41899949  1
  F  F18  1  0.68839515  0.43270008  0.91899949  1
  F  F19  1  0.18839515  0.06729992  0.58100051  1
  K  K20  1  0.01492265  0.25000000  0.36808153  1
  K  K21  1  0.51492265  0.25000000  0.13191847  1
  K  K22  1  0.98507735  0.75000000  0.63191847  1
  K  K23  1  0.48507735  0.75000000  0.86808153  1
  Pd  Pd24  1  0.50000000  0.00000000  0.50000000  1
  Pd  Pd25  1  0.00000000  0.50000000  0.00000000  1
  Pd  Pd26  1  0.50000000  0.50000000  0.50000000  1
  Pd  Pd27  1  0.00000000  0.00000000  0.00000000  1
  Pd  Pd28  1  0.19041365  0.25000000  0.71438367  1
  Pd  Pd29  1  0.69041365  0.25000000  0.78561633  1
  Pd  Pd30  1  0.80958635  0.75000000  0.28561633  1
  Pd  Pd31  1  0.30958635  0.75000000  0.21438367  1
