# generated using pymatgen
data_Sr3Te4O11
_symmetry_space_group_name_H-M   'P 1'
_cell_length_a   7.69802305
_cell_length_b   9.45635113
_cell_length_c   9.74094348
_cell_angle_alpha   98.43048748
_cell_angle_beta   110.03180286
_cell_angle_gamma   100.96704641
_symmetry_Int_Tables_number   1
_chemical_formula_structural   Sr3Te4O11
_chemical_formula_sum   'Sr6 Te8 O22'
_cell_volume   636.55550765
_cell_formula_units_Z   2
loop_
 _symmetry_equiv_pos_site_id
 _symmetry_equiv_pos_as_xyz
  1  'x, y, z'
loop_
 _atom_site_type_symbol
 _atom_site_label
 _atom_site_symmetry_multiplicity
 _atom_site_fract_x
 _atom_site_fract_y
 _atom_site_fract_z
 _atom_site_occupancy
  Sr  Sr0  1  0.29326123  0.03952858  0.11737714  1
  Sr  Sr1  1  0.70673877  0.96047142  0.88262286  1
  Sr  Sr2  1  0.86133626  0.07853618  0.32260598  1
  Sr  Sr3  1  0.13866374  0.92146382  0.67739402  1
  Sr  Sr4  1  0.30994047  0.53333826  0.61981869  1
  Sr  Sr5  1  0.69005953  0.46666174  0.38018131  1
  Te  Te6  1  0.07233711  0.35644811  0.20227387  1
  Te  Te7  1  0.92766289  0.64355189  0.79772613  1
  Te  Te8  1  0.01483383  0.25084282  0.77333727  1
  Te  Te9  1  0.98516617  0.74915718  0.22666273  1
  Te  Te10  1  0.46549384  0.69921698  0.04461284  1
  Te  Te11  1  0.53450616  0.30078302  0.95538716  1
  Te  Te12  1  0.49844770  0.80760257  0.46024990  1
  Te  Te13  1  0.50155230  0.19239743  0.53975010  1
  O  O14  1  0.99022678  0.55722267  0.63956402  1
  O  O15  1  0.00977322  0.44277733  0.36043598  1
  O  O16  1  0.43190808  0.60010548  0.39470042  1
  O  O17  1  0.56809192  0.39989452  0.60529958  1
  O  O18  1  0.82840410  0.21593925  0.09708285  1
  O  O19  1  0.17159590  0.78406075  0.90291715  1
  O  O20  1  0.70528753  0.14304339  0.69234485  1
  O  O21  1  0.29471247  0.85695661  0.30765515  1
  O  O22  1  0.39469118  0.81596749  0.61002329  1
  O  O23  1  0.60530882  0.18403251  0.38997671  1
  O  O24  1  0.02714570  0.14589459  0.59944977  1
  O  O25  1  0.97285430  0.85410541  0.40055023  1
  O  O26  1  0.47535006  0.30497651  0.12636460  1
  O  O27  1  0.52464994  0.69502349  0.87363540  1
  O  O28  1  0.56136892  0.90509095  0.12757401  1
  O  O29  1  0.43863108  0.09490905  0.87242599  1
  O  O30  1  0.95192130  0.89463272  0.11341729  1
  O  O31  1  0.04807870  0.10536728  0.88658271  1
  O  O32  1  0.19017612  0.22098289  0.29978774  1
  O  O33  1  0.80982388  0.77901711  0.70021226  1
  O  O34  1  0.69506865  0.63828084  0.16437050  1
  O  O35  1  0.30493135  0.36171916  0.83562950  1
