# generated using pymatgen
data_Zr6Ag7F31
_symmetry_space_group_name_H-M   'P 1'
_cell_length_a   8.85317508
_cell_length_b   8.85317508
_cell_length_c   8.85317508
_cell_angle_alpha   106.74587679
_cell_angle_beta   106.74587685
_cell_angle_gamma   106.74587679
_symmetry_Int_Tables_number   1
_chemical_formula_structural   Zr6Ag7F31
_chemical_formula_sum   'Zr6 Ag7 F31'
_cell_volume   581.84646798
_cell_formula_units_Z   1
loop_
 _symmetry_equiv_pos_site_id
 _symmetry_equiv_pos_as_xyz
  1  'x, y, z'
loop_
 _atom_site_type_symbol
 _atom_site_label
 _atom_site_symmetry_multiplicity
 _atom_site_fract_x
 _atom_site_fract_y
 _atom_site_fract_z
 _atom_site_occupancy
  F  F0  1  0.00000000  0.00000000  0.00000000  1
  F  F1  1  0.25135022  0.09053412  0.30378073  1
  F  F2  1  0.09053412  0.30378073  0.25135022  1
  F  F3  1  0.30378073  0.25135022  0.09053412  1
  F  F4  1  0.74864978  0.90946588  0.69621927  1
  F  F5  1  0.90946588  0.69621927  0.74864978  1
  F  F6  1  0.69621927  0.74864978  0.90946588  1
  F  F7  1  0.78833815  0.04506250  0.15955165  1
  F  F8  1  0.04506250  0.15955165  0.78833815  1
  F  F9  1  0.15955165  0.78833815  0.04506250  1
  F  F10  1  0.21166185  0.95493750  0.84044835  1
  F  F11  1  0.95493750  0.84044835  0.21166185  1
  F  F12  1  0.84044835  0.21166185  0.95493750  1
  F  F13  1  0.45036119  0.85257002  0.97970476  1
  F  F14  1  0.97970476  0.45036119  0.85257002  1
  F  F15  1  0.85257002  0.97970476  0.45036119  1
  F  F16  1  0.54963881  0.14742998  0.02029524  1
  F  F17  1  0.02029524  0.54963881  0.14742998  1
  F  F18  1  0.14742998  0.02029524  0.54963881  1
  F  F19  1  0.44174063  0.74417364  0.67574808  1
  F  F20  1  0.67574808  0.44174063  0.74417364  1
  F  F21  1  0.74417364  0.67574808  0.44174063  1
  F  F22  1  0.55825937  0.25582636  0.32425192  1
  F  F23  1  0.32425192  0.55825937  0.25582636  1
  F  F24  1  0.25582636  0.32425192  0.55825937  1
  F  F25  1  0.52926602  0.05568014  0.71054018  1
  F  F26  1  0.71054018  0.52926602  0.05568014  1
  F  F27  1  0.05568014  0.71054018  0.52926602  1
  F  F28  1  0.47073398  0.94431986  0.28945982  1
  F  F29  1  0.28945982  0.47073398  0.94431986  1
  F  F30  1  0.94431986  0.28945982  0.47073398  1
  Zr  Zr31  1  0.03602886  0.11474623  0.35660259  1
  Zr  Zr32  1  0.11474623  0.35660259  0.03602886  1
  Zr  Zr33  1  0.35660259  0.03602886  0.11474623  1
  Zr  Zr34  1  0.96397114  0.88525377  0.64339741  1
  Zr  Zr35  1  0.88525377  0.64339741  0.96397114  1
  Zr  Zr36  1  0.64339741  0.96397114  0.88525377  1
  Ag  Ag37  1  0.50000000  0.50000000  0.50000000  1
  Ag  Ag38  1  0.28958390  0.81234742  0.42940730  1
  Ag  Ag39  1  0.81234742  0.42940730  0.28958390  1
  Ag  Ag40  1  0.42940730  0.28958390  0.81234742  1
  Ag  Ag41  1  0.71041610  0.18765258  0.57059270  1
  Ag  Ag42  1  0.18765258  0.57059270  0.71041610  1
  Ag  Ag43  1  0.57059270  0.71041610  0.18765258  1
