# generated using pymatgen
data_SnBr2
_symmetry_space_group_name_H-M   'P 1'
_cell_length_a   4.31220559
_cell_length_b   9.23329379
_cell_length_c   10.82036566
_cell_angle_alpha   90.00000000
_cell_angle_beta   90.00000000
_cell_angle_gamma   90.00000000
_symmetry_Int_Tables_number   1
_chemical_formula_structural   SnBr2
_chemical_formula_sum   'Sn4 Br8'
_cell_volume   430.82217612
_cell_formula_units_Z   4
loop_
 _symmetry_equiv_pos_site_id
 _symmetry_equiv_pos_as_xyz
  1  'x, y, z'
loop_
 _atom_site_type_symbol
 _atom_site_label
 _atom_site_symmetry_multiplicity
 _atom_site_fract_x
 _atom_site_fract_y
 _atom_site_fract_z
 _atom_site_occupancy
  Br  Br0  1  0.25000000  0.16272770  0.04875487  1
  Br  Br1  1  0.75000000  0.83727230  0.95124513  1
  Br  Br2  1  0.25000000  0.66272770  0.45124513  1
  Br  Br3  1  0.75000000  0.33727230  0.54875487  1
  Br  Br4  1  0.25000000  0.49255156  0.81184603  1
  Br  Br5  1  0.75000000  0.50744844  0.18815397  1
  Br  Br6  1  0.25000000  0.99255156  0.68815397  1
  Br  Br7  1  0.75000000  0.00744844  0.31184603  1
  Sn  Sn8  1  0.25000000  0.89339298  0.16323290  1
  Sn  Sn9  1  0.75000000  0.10660702  0.83676710  1
  Sn  Sn10  1  0.25000000  0.39339298  0.33676710  1
  Sn  Sn11  1  0.75000000  0.60660702  0.66323290  1
