# generated using pymatgen
data_Li5V2Ni3O10
_symmetry_space_group_name_H-M   'P 1'
_cell_length_a   5.10362721
_cell_length_b   5.13280390
_cell_length_c   7.74862111
_cell_angle_alpha   109.60641290
_cell_angle_beta   101.23728743
_cell_angle_gamma   100.67801957
_symmetry_Int_Tables_number   1
_chemical_formula_structural   Li5V2Ni3O10
_chemical_formula_sum   'Li5 V2 Ni3 O10'
_cell_volume   180.51289046
_cell_formula_units_Z   1
loop_
 _symmetry_equiv_pos_site_id
 _symmetry_equiv_pos_as_xyz
  1  'x, y, z'
loop_
 _atom_site_type_symbol
 _atom_site_label
 _atom_site_symmetry_multiplicity
 _atom_site_fract_x
 _atom_site_fract_y
 _atom_site_fract_z
 _atom_site_occupancy
  Li  Li0  1  0.21284445  0.90167611  0.39624990  1
  Li  Li1  1  0.40468998  0.30479922  0.79926099  1
  Li  Li2  1  0.50000000  0.50000000  0.50000000  1
  Li  Li3  1  0.59531002  0.69520078  0.20073901  1
  Li  Li4  1  0.78715555  0.09832389  0.60375010  1
  V  V5  1  0.09712702  0.70356462  0.68719727  1
  V  V6  1  0.90287298  0.29643538  0.31280273  1
  Ni  Ni7  1  0.00000000  0.50000000  0.00000000  1
  Ni  Ni8  1  0.69656990  0.89415830  0.89975924  1
  Ni  Ni9  1  0.30343010  0.10584170  0.10024076  1
  O  O10  1  0.04950054  0.07497079  0.84148849  1
  O  O11  1  0.32991831  0.70210978  0.93451477  1
  O  O12  1  0.13723585  0.31618401  0.54388396  1
  O  O13  1  0.21865334  0.48538820  0.24946694  1
  O  O14  1  0.42067127  0.88122263  0.65452791  1
  O  O15  1  0.57932873  0.11877737  0.34547209  1
  O  O16  1  0.78134666  0.51461180  0.75053306  1
  O  O17  1  0.86276415  0.68381599  0.45611604  1
  O  O18  1  0.67008269  0.29789022  0.06548523  1
  O  O19  1  0.95049946  0.92502921  0.15851151  1
