# generated using pymatgen
data_Nb3Cl5O2
_symmetry_space_group_name_H-M   'P 1'
_cell_length_a   6.78745943
_cell_length_b   8.19295221
_cell_length_c   14.85800636
_cell_angle_alpha   90.00000000
_cell_angle_beta   90.00000000
_cell_angle_gamma   90.00000000
_symmetry_Int_Tables_number   1
_chemical_formula_structural   Nb3Cl5O2
_chemical_formula_sum   'Nb12 Cl20 O8'
_cell_volume   826.24378977
_cell_formula_units_Z   4
loop_
 _symmetry_equiv_pos_site_id
 _symmetry_equiv_pos_as_xyz
  1  'x, y, z'
loop_
 _atom_site_type_symbol
 _atom_site_label
 _atom_site_symmetry_multiplicity
 _atom_site_fract_x
 _atom_site_fract_y
 _atom_site_fract_z
 _atom_site_occupancy
  O  O0  1  0.72113110  0.49078629  0.27402456  1
  O  O1  1  0.72113110  0.50921371  0.72597544  1
  O  O2  1  0.77886890  0.99078629  0.22597544  1
  O  O3  1  0.77886890  0.00921371  0.77402456  1
  O  O4  1  0.27886890  0.50921371  0.72597544  1
  O  O5  1  0.27886890  0.49078629  0.27402456  1
  O  O6  1  0.22113110  0.00921371  0.77402456  1
  O  O7  1  0.22113110  0.99078629  0.22597544  1
  Cl  Cl8  1  0.50000000  0.17394829  0.61314106  1
  Cl  Cl9  1  0.50000000  0.82605171  0.38685894  1
  Cl  Cl10  1  0.00000000  0.67394829  0.88685894  1
  Cl  Cl11  1  0.00000000  0.32605171  0.11314106  1
  Cl  Cl12  1  0.23697731  0.00000000  0.00000000  1
  Cl  Cl13  1  0.26302269  0.50000000  0.50000000  1
  Cl  Cl14  1  0.76302269  0.00000000  0.00000000  1
  Cl  Cl15  1  0.73697731  0.50000000  0.50000000  1
  Cl  Cl16  1  0.00000000  0.20966622  0.37114414  1
  Cl  Cl17  1  0.00000000  0.79033378  0.62885586  1
  Cl  Cl18  1  0.50000000  0.70966622  0.12885586  1
  Cl  Cl19  1  0.50000000  0.29033378  0.87114414  1
  Cl  Cl20  1  0.50000000  0.20668840  0.35697746  1
  Cl  Cl21  1  0.50000000  0.79331160  0.64302254  1
  Cl  Cl22  1  0.00000000  0.70668840  0.14302254  1
  Cl  Cl23  1  0.00000000  0.29331160  0.85697746  1
  Cl  Cl24  1  0.50000000  0.27417180  0.13113087  1
  Cl  Cl25  1  0.50000000  0.72582820  0.86886913  1
  Cl  Cl26  1  0.00000000  0.77417180  0.36886913  1
  Cl  Cl27  1  0.00000000  0.22582820  0.63113087  1
  Nb  Nb28  1  0.71104526  0.73969980  0.26026982  1
  Nb  Nb29  1  0.71104526  0.26030020  0.73973018  1
  Nb  Nb30  1  0.78895474  0.23969980  0.23973018  1
  Nb  Nb31  1  0.78895474  0.76030020  0.76026982  1
  Nb  Nb32  1  0.28895474  0.26030020  0.73973018  1
  Nb  Nb33  1  0.28895474  0.73969980  0.26026982  1
  Nb  Nb34  1  0.21104526  0.76030020  0.76026982  1
  Nb  Nb35  1  0.21104526  0.23969980  0.23973018  1
  Nb  Nb36  1  0.50000000  0.47305534  0.63562221  1
  Nb  Nb37  1  0.50000000  0.52694466  0.36437779  1
  Nb  Nb38  1  0.00000000  0.97305534  0.86437779  1
  Nb  Nb39  1  0.00000000  0.02694466  0.13562221  1
