# generated using pymatgen
data_Ca9La5Br33
_symmetry_space_group_name_H-M   'P 1'
_cell_length_a   11.92626410
_cell_length_b   11.81154681
_cell_length_c   22.24184876
_cell_angle_alpha   100.95114592
_cell_angle_beta   81.53868613
_cell_angle_gamma   69.96113155
_symmetry_Int_Tables_number   1
_chemical_formula_structural   Ca9La5Br33
_chemical_formula_sum   'Ca18 La10 Br66'
_cell_volume   2812.32753931
_cell_formula_units_Z   2
loop_
 _symmetry_equiv_pos_site_id
 _symmetry_equiv_pos_as_xyz
  1  'x, y, z'
loop_
 _atom_site_type_symbol
 _atom_site_label
 _atom_site_symmetry_multiplicity
 _atom_site_fract_x
 _atom_site_fract_y
 _atom_site_fract_z
 _atom_site_occupancy
  Ca  Ca0  1  0.76413278  0.91067020  0.92742521  1
  Ca  Ca1  1  0.91880997  0.31763049  0.97110561  1
  Ca  Ca2  1  0.98183330  0.47936795  0.19399770  1
  Ca  Ca3  1  0.73784277  0.86733012  0.33434735  1
  Ca  Ca4  1  0.85449267  0.23653541  0.38222070  1
  Ca  Ca5  1  0.59788041  0.68763845  0.54284391  1
  Ca  Ca6  1  0.74224805  0.06873165  0.56053966  1
  Ca  Ca7  1  0.65180004  0.76370071  0.11965868  1
  Ca  Ca8  1  0.79745732  0.13250194  0.15289716  1
  Ca  Ca9  1  0.20254268  0.86749806  0.84710284  1
  Ca  Ca10  1  0.34819996  0.23629929  0.88034132  1
  Ca  Ca11  1  0.25775195  0.93126835  0.43946034  1
  Ca  Ca12  1  0.40211959  0.31236155  0.45715609  1
  Ca  Ca13  1  0.14550733  0.76346459  0.61777930  1
  Ca  Ca14  1  0.26215723  0.13266988  0.66565265  1
  Ca  Ca15  1  0.01816670  0.52063205  0.80600230  1
  Ca  Ca16  1  0.08119003  0.68236951  0.02889439  1
  Ca  Ca17  1  0.23586722  0.08932980  0.07257479  1
  La  La18  1  0.95261709  0.37852935  0.58436313  1
  La  La19  1  0.86350991  0.17398549  0.76278467  1
  La  La20  1  0.64367321  0.86260946  0.73535987  1
  La  La21  1  0.54447199  0.63225757  0.93006904  1
  La  La22  1  0.45591338  0.46635415  0.68395715  1
  La  La23  1  0.54408662  0.53364585  0.31604285  1
  La  La24  1  0.45552801  0.36774243  0.06993096  1
  La  La25  1  0.35632679  0.13739054  0.26464013  1
  La  La26  1  0.13649009  0.82601451  0.23721533  1
  La  La27  1  0.04738291  0.62147065  0.41563687  1
  Br  Br28  1  0.86205000  0.76734789  0.79088305  1
  Br  Br29  1  0.86198435  0.93343003  0.66976849  1
  Br  Br30  1  0.80097585  0.62945726  0.91629846  1
  Br  Br31  1  0.95088990  0.73460151  0.19343118  1
  Br  Br32  1  0.00774079  0.14908759  0.63459398  1
  Br  Br33  1  0.93597863  0.04809407  0.87524667  1
  Br  Br34  1  0.80340038  0.65745108  0.62123525  1
  Br  Br35  1  0.81200443  0.44639871  0.73750524  1
  Br  Br36  1  0.77534487  0.81538476  0.48267765  1
  Br  Br37  1  0.87781130  0.59927529  0.33111775  1
  Br  Br38  1  0.88276101  0.46955909  0.46453400  1
  Br  Br39  1  0.94826583  0.14927785  0.48619566  1
  Br  Br40  1  0.72338939  0.35651346  0.88927905  1
  Br  Br41  1  0.82310912  0.88390475  0.05794203  1
  Br  Br42  1  0.54275285  0.82911540  0.85978958  1
  Br  Br43  1  0.89263365  0.55828894  0.07014027  1
  Br  Br44  1  0.55739984  0.95966711  0.62607955  1
  Br  Br45  1  0.95304198  0.25324695  0.09383405  1
  Br  Br46  1  0.69196142  0.39549640  0.58514548  1
  Br  Br47  1  0.63378219  0.97243015  0.22019548  1
  Br  Br48  1  0.80674797  0.34138716  0.26517978  1
  Br  Br49  1  0.67877539  0.66073291  0.23357368  1
  Br  Br50  1  0.86698375  0.04034565  0.27587524  1
  Br  Br51  1  0.64981444  0.23310602  0.69784291  1
  Br  Br52  1  0.49520101  0.71081634  0.68500410  1
  Br  Br53  1  0.63964909  0.09145691  0.82633781  1
  Br  Br54  1  0.53957561  0.75540654  0.41524702  1
  Br  Br55  1  0.42755389  0.58956349  0.82095882  1
  Br  Br56  1  0.61350836  0.44185790  0.43020297  1
  Br  Br57  1  0.27617024  0.81368465  0.97489980  1
  Br  Br58  1  0.39269013  0.45880203  0.95390888  1
  Br  Br59  1  0.67783503  0.11702099  0.43570445  1
  Br  Br60  1  0.46278628  0.13898876  0.97702264  1
  Br  Br61  1  0.53721372  0.86101124  0.02297736  1
  Br  Br62  1  0.32216497  0.88297901  0.56429555  1
  Br  Br63  1  0.60730987  0.54119797  0.04609112  1
  Br  Br64  1  0.72382976  0.18631535  0.02510020  1
  Br  Br65  1  0.38649164  0.55814210  0.56979703  1
  Br  Br66  1  0.57244611  0.41043651  0.17904118  1
  Br  Br67  1  0.46042439  0.24459346  0.58475298  1
  Br  Br68  1  0.36035091  0.90854309  0.17366219  1
  Br  Br69  1  0.50479899  0.28918366  0.31499590  1
  Br  Br70  1  0.35018556  0.76689398  0.30215709  1
  Br  Br71  1  0.13301625  0.95965435  0.72412376  1
  Br  Br72  1  0.32122461  0.33926709  0.76642632  1
  Br  Br73  1  0.19325203  0.65861284  0.73482022  1
  Br  Br74  1  0.36621781  0.02756985  0.77980452  1
  Br  Br75  1  0.30803858  0.60450360  0.41485352  1
  Br  Br76  1  0.04695802  0.74675305  0.90616595  1
  Br  Br77  1  0.44260016  0.04033289  0.37392045  1
  Br  Br78  1  0.10736635  0.44171106  0.92985973  1
  Br  Br79  1  0.45724715  0.17088460  0.14021042  1
  Br  Br80  1  0.17689088  0.11609525  0.94205797  1
  Br  Br81  1  0.27661061  0.64348654  0.11072095  1
  Br  Br82  1  0.05173417  0.85072215  0.51380434  1
  Br  Br83  1  0.11723899  0.53044091  0.53546600  1
  Br  Br84  1  0.12218870  0.40072471  0.66888225  1
  Br  Br85  1  0.22465513  0.18461524  0.51732235  1
  Br  Br86  1  0.18799557  0.55360129  0.26249476  1
  Br  Br87  1  0.19659962  0.34254892  0.37876475  1
  Br  Br88  1  0.06402137  0.95190593  0.12475333  1
  Br  Br89  1  0.99225921  0.85091241  0.36540602  1
  Br  Br90  1  0.04911010  0.26539849  0.80656782  1
  Br  Br91  1  0.19902415  0.37054274  0.08370154  1
  Br  Br92  1  0.13801565  0.06656997  0.33023151  1
  Br  Br93  1  0.13795000  0.23265211  0.20911695  1
