# generated using pymatgen
data_KBiO2
_symmetry_space_group_name_H-M   'P 1'
_cell_length_a   5.70647536
_cell_length_b   5.70647536
_cell_length_c   6.67623132
_cell_angle_alpha   117.53926829
_cell_angle_beta   117.53926830
_cell_angle_gamma   91.98222340
_symmetry_Int_Tables_number   1
_chemical_formula_structural   KBiO2
_chemical_formula_sum   'K2 Bi2 O4'
_cell_volume   162.17629754
_cell_formula_units_Z   2
loop_
 _symmetry_equiv_pos_site_id
 _symmetry_equiv_pos_as_xyz
  1  'x, y, z'
loop_
 _atom_site_type_symbol
 _atom_site_label
 _atom_site_symmetry_multiplicity
 _atom_site_fract_x
 _atom_site_fract_y
 _atom_site_fract_z
 _atom_site_occupancy
  O  O0  1  0.09702406  0.46198675  0.22187465  1
  O  O1  1  0.53801325  0.90297594  0.27812535  1
  O  O2  1  0.46198675  0.09702406  0.72187465  1
  O  O3  1  0.90297594  0.53801325  0.77812535  1
  K  K4  1  0.38133911  0.61866089  0.75000000  1
  K  K5  1  0.61866089  0.38133911  0.25000000  1
  Bi  Bi6  1  0.15083394  0.84916606  0.25000000  1
  Bi  Bi7  1  0.84916606  0.15083394  0.75000000  1
