# generated using pymatgen
data_AsI5F6
_symmetry_space_group_name_H-M   'P 1'
_cell_length_a   8.93280229
_cell_length_b   8.90488879
_cell_length_c   10.75618557
_cell_angle_alpha   107.61391056
_cell_angle_beta   107.71285425
_cell_angle_gamma   105.55345389
_symmetry_Int_Tables_number   1
_chemical_formula_structural   AsI5F6
_chemical_formula_sum   'As2 I10 F12'
_cell_volume   713.08412153
_cell_formula_units_Z   2
loop_
 _symmetry_equiv_pos_site_id
 _symmetry_equiv_pos_as_xyz
  1  'x, y, z'
loop_
 _atom_site_type_symbol
 _atom_site_label
 _atom_site_symmetry_multiplicity
 _atom_site_fract_x
 _atom_site_fract_y
 _atom_site_fract_z
 _atom_site_occupancy
  F  F0  1  0.22512667  0.14695302  0.17560613  1
  F  F1  1  0.45047946  0.02865311  0.17560613  1
  F  F2  1  0.77487333  0.85304698  0.82439387  1
  F  F3  1  0.54952054  0.97134689  0.82439387  1
  F  F4  1  0.35686274  0.27812177  0.44764567  1
  F  F5  1  0.59078293  0.16952390  0.44764567  1
  F  F6  1  0.72087424  0.03507029  0.68915695  1
  F  F7  1  0.40921707  0.83047610  0.55235433  1
  F  F8  1  0.53171729  0.34591335  0.31084305  1
  F  F9  1  0.27912576  0.96492971  0.31084305  1
  F  F10  1  0.46828271  0.65408665  0.68915695  1
  F  F11  1  0.64313726  0.72187823  0.55235433  1
  As  As12  1  0.59355353  0.84355353  0.68710706  1
  As  As13  1  0.40644647  0.15644647  0.31289294  1
  I  I14  1  0.32971841  0.26942726  0.71718665  1
  I  I15  1  0.00000000  0.50000000  0.50000000  1
  I  I16  1  0.67028159  0.73057274  0.28281335  1
  I  I17  1  0.11253176  0.55224062  0.28281335  1
  I  I18  1  0.00000000  0.00000000  0.50000000  1
  I  I19  1  0.88746824  0.44775938  0.71718665  1
  I  I20  1  0.69739745  0.76547639  0.04926839  1
  I  I21  1  0.85187094  0.28379199  0.04926839  1
  I  I22  1  0.30260255  0.23452361  0.95073161  1
  I  I23  1  0.14812906  0.71620801  0.95073161  1
