# generated using pymatgen
data_CeSiRh2
_symmetry_space_group_name_H-M   'P 1'
_cell_length_a   3.99073123
_cell_length_b   4.03719985
_cell_length_c   9.36881109
_cell_angle_alpha   90.00000000
_cell_angle_beta   102.29702169
_cell_angle_gamma   90.00000000
_symmetry_Int_Tables_number   1
_chemical_formula_structural   CeSiRh2
_chemical_formula_sum   'Ce2 Si2 Rh4'
_cell_volume   147.48129875
_cell_formula_units_Z   2
loop_
 _symmetry_equiv_pos_site_id
 _symmetry_equiv_pos_as_xyz
  1  'x, y, z'
loop_
 _atom_site_type_symbol
 _atom_site_label
 _atom_site_symmetry_multiplicity
 _atom_site_fract_x
 _atom_site_fract_y
 _atom_site_fract_z
 _atom_site_occupancy
  Si  Si0  1  0.32080733  0.75000000  0.64161466  1
  Si  Si1  1  0.67919267  0.25000000  0.35838534  1
  Rh  Rh2  1  0.54983765  0.25000000  0.09967530  1
  Rh  Rh3  1  0.45016235  0.75000000  0.90032470  1
  Rh  Rh4  1  0.25013023  0.25000000  0.50026046  1
  Rh  Rh5  1  0.74986977  0.75000000  0.49973954  1
  Ce  Ce6  1  0.09926811  0.75000000  0.19853622  1
  Ce  Ce7  1  0.90073189  0.25000000  0.80146378  1
