# generated using pymatgen
data_Bi4I2O5
_symmetry_space_group_name_H-M   'P 1'
_cell_length_a   5.81232523
_cell_length_b   11.49694642
_cell_length_c   15.19819189
_cell_angle_alpha   100.24451448
_cell_angle_beta   90.00000000
_cell_angle_gamma   90.00000000
_symmetry_Int_Tables_number   1
_chemical_formula_structural   Bi4I2O5
_chemical_formula_sum   'Bi16 I8 O20'
_cell_volume   999.41281842
_cell_formula_units_Z   4
loop_
 _symmetry_equiv_pos_site_id
 _symmetry_equiv_pos_as_xyz
  1  'x, y, z'
loop_
 _atom_site_type_symbol
 _atom_site_label
 _atom_site_symmetry_multiplicity
 _atom_site_fract_x
 _atom_site_fract_y
 _atom_site_fract_z
 _atom_site_occupancy
  O  O0  1  0.28892648  0.31073508  0.03345963  1
  O  O1  1  0.78892648  0.68926492  0.96654037  1
  O  O2  1  0.00668179  0.36140591  0.19339796  1
  O  O3  1  0.50668179  0.63859409  0.80660204  1
  O  O4  1  0.50575259  0.36140380  0.19105548  1
  O  O5  1  0.00575259  0.63859620  0.80894452  1
  O  O6  1  0.80385826  0.55370129  0.28461529  1
  O  O7  1  0.30385826  0.44629871  0.71538471  1
  O  O8  1  0.95412776  0.57873257  0.09321766  1
  O  O9  1  0.45412776  0.42126743  0.90678234  1
  O  O10  1  0.45108886  0.57933228  0.08722487  1
  O  O11  1  0.95108886  0.42066772  0.91277513  1
  O  O12  1  0.98657407  0.07641593  0.58026689  1
  O  O13  1  0.48657407  0.92358407  0.41973311  1
  O  O14  1  0.50472058  0.07859119  0.58084204  1
  O  O15  1  0.00472058  0.92140881  0.41915796  1
  O  O16  1  0.47926646  0.75187766  0.25966505  1
  O  O17  1  0.49229718  0.24363224  0.74460488  1
  O  O18  1  0.99229718  0.75636776  0.25539512  1
  O  O19  1  0.97926646  0.24812234  0.74033495  1
  I  I20  1  0.25354905  0.22328882  0.38398867  1
  I  I21  1  0.75354905  0.77671118  0.61601133  1
  I  I22  1  0.77785257  0.39148626  0.55808221  1
  I  I23  1  0.27785257  0.60851374  0.44191779  1
  I  I24  1  0.75166750  0.05625030  0.22353229  1
  I  I25  1  0.77078522  0.12011028  0.95192176  1
  I  I26  1  0.27078522  0.87988972  0.04807824  1
  I  I27  1  0.25166750  0.94374970  0.77646771  1
  Bi  Bi28  1  0.25132170  0.22711045  0.14748724  1
  Bi  Bi29  1  0.75132170  0.77288955  0.85251276  1
  Bi  Bi30  1  0.75207976  0.37316632  0.29680937  1
  Bi  Bi31  1  0.25207976  0.62683368  0.70319063  1
  Bi  Bi32  1  0.19280934  0.27053204  0.88464850  1
  Bi  Bi33  1  0.69280934  0.72946796  0.11535150  1
  Bi  Bi34  1  0.63406876  0.40966221  0.04128527  1
  Bi  Bi35  1  0.13406876  0.59033779  0.95871473  1
  Bi  Bi36  1  0.16136654  0.57216990  0.21394993  1
  Bi  Bi37  1  0.66136654  0.42783010  0.78605007  1
  Bi  Bi38  1  0.73324279  0.73411507  0.36406912  1
  Bi  Bi39  1  0.23324279  0.26588493  0.63593088  1
  Bi  Bi40  1  0.24506043  0.92624441  0.53982205  1
  Bi  Bi41  1  0.74506043  0.07375559  0.46017795  1
  Bi  Bi42  1  0.74170231  0.09335573  0.70467485  1
  Bi  Bi43  1  0.24170231  0.90664427  0.29532515  1
