# generated using pymatgen
data_Nd(ClO4)3
_symmetry_space_group_name_H-M   'P 1'
_cell_length_a   9.52112681
_cell_length_b   9.52112682
_cell_length_c   5.86479413
_cell_angle_alpha   90.00000000
_cell_angle_beta   90.00000000
_cell_angle_gamma   120.00000000
_symmetry_Int_Tables_number   1
_chemical_formula_structural   Nd(ClO4)3
_chemical_formula_sum   'Nd2 Cl6 O24'
_cell_volume   460.42627852
_cell_formula_units_Z   2
loop_
 _symmetry_equiv_pos_site_id
 _symmetry_equiv_pos_as_xyz
  1  'x, y, z'
loop_
 _atom_site_type_symbol
 _atom_site_label
 _atom_site_symmetry_multiplicity
 _atom_site_fract_x
 _atom_site_fract_y
 _atom_site_fract_z
 _atom_site_occupancy
  O  O0  1  0.78482558  0.80626517  0.75000000  1
  O  O1  1  0.97856041  0.78482558  0.25000000  1
  O  O2  1  0.80626517  0.02143959  0.25000000  1
  O  O3  1  0.19373483  0.97856041  0.75000000  1
  O  O4  1  0.02143959  0.21517442  0.75000000  1
  O  O5  1  0.21517442  0.19373483  0.25000000  1
  O  O6  1  0.45639651  0.25917303  0.04830202  1
  O  O7  1  0.19722348  0.45639651  0.54830202  1
  O  O8  1  0.43926433  0.46714056  0.25000000  1
  O  O9  1  0.97212377  0.43926433  0.75000000  1
  O  O10  1  0.46714056  0.02787623  0.75000000  1
  O  O11  1  0.53285944  0.97212377  0.25000000  1
  O  O12  1  0.02787623  0.56073567  0.25000000  1
  O  O13  1  0.56073567  0.53285944  0.75000000  1
  O  O14  1  0.45639651  0.25917303  0.45169798  1
  O  O15  1  0.19722348  0.45639651  0.95169798  1
  O  O16  1  0.25917303  0.80277652  0.95169798  1
  O  O17  1  0.74082697  0.19722348  0.45169798  1
  O  O18  1  0.80277652  0.54360349  0.45169798  1
  O  O19  1  0.54360349  0.74082697  0.95169798  1
  O  O20  1  0.54360349  0.74082697  0.54830202  1
  O  O21  1  0.80277652  0.54360349  0.04830202  1
  O  O22  1  0.74082697  0.19722348  0.04830202  1
  O  O23  1  0.25917303  0.80277652  0.54830202  1
  Cl  Cl24  1  0.61360305  0.70661930  0.75000000  1
  Cl  Cl25  1  0.90698375  0.61360305  0.25000000  1
  Cl  Cl26  1  0.70661930  0.09301625  0.25000000  1
  Cl  Cl27  1  0.29338070  0.90698375  0.75000000  1
  Cl  Cl28  1  0.09301625  0.38639695  0.75000000  1
  Cl  Cl29  1  0.38639695  0.29338070  0.25000000  1
  Nd  Nd30  1  0.66666667  0.33333333  0.75000000  1
  Nd  Nd31  1  0.33333333  0.66666667  0.25000000  1
