# generated using pymatgen
data_Sc2(SeO3)3
_symmetry_space_group_name_H-M   'P 1'
_cell_length_a   8.34956968
_cell_length_b   8.34956968
_cell_length_c   7.80065256
_cell_angle_alpha   90.00000000
_cell_angle_beta   90.00000000
_cell_angle_gamma   120.00000002
_symmetry_Int_Tables_number   1
_chemical_formula_structural   Sc2(SeO3)3
_chemical_formula_sum   'Sc4 Se6 O18'
_cell_volume   470.96621422
_cell_formula_units_Z   2
loop_
 _symmetry_equiv_pos_site_id
 _symmetry_equiv_pos_as_xyz
  1  'x, y, z'
loop_
 _atom_site_type_symbol
 _atom_site_label
 _atom_site_symmetry_multiplicity
 _atom_site_fract_x
 _atom_site_fract_y
 _atom_site_fract_z
 _atom_site_occupancy
  O  O0  1  0.42309033  0.16749240  0.42238283  1
  O  O1  1  0.25559793  0.42309033  0.92238283  1
  O  O2  1  0.16749240  0.74440207  0.92238283  1
  O  O3  1  0.83250760  0.25559793  0.42238283  1
  O  O4  1  0.74440207  0.57690967  0.42238283  1
  O  O5  1  0.57690967  0.83250760  0.92238283  1
  O  O6  1  0.57690967  0.83250760  0.57761717  1
  O  O7  1  0.74440207  0.57690967  0.07761717  1
  O  O8  1  0.83250760  0.25559793  0.07761717  1
  O  O9  1  0.16749240  0.74440207  0.57761717  1
  O  O10  1  0.13025556  0.51008136  0.25000000  1
  O  O11  1  0.62017419  0.13025556  0.75000000  1
  O  O12  1  0.51008136  0.37982581  0.75000000  1
  O  O13  1  0.48991864  0.62017419  0.25000000  1
  O  O14  1  0.37982581  0.86974444  0.25000000  1
  O  O15  1  0.86974444  0.48991864  0.75000000  1
  O  O16  1  0.42309033  0.16749240  0.07761717  1
  O  O17  1  0.25559793  0.42309033  0.57761717  1
  Sc  Sc18  1  0.33333333  0.66666667  0.04558167  1
  Sc  Sc19  1  0.66666667  0.33333333  0.54558167  1
  Sc  Sc20  1  0.66666667  0.33333333  0.95441833  1
  Sc  Sc21  1  0.33333333  0.66666667  0.45441833  1
  Se  Se22  1  0.27299035  0.30663237  0.75000000  1
  Se  Se23  1  0.30663237  0.03364202  0.25000000  1
  Se  Se24  1  0.03364202  0.72700965  0.75000000  1
  Se  Se25  1  0.96635798  0.27299035  0.25000000  1
  Se  Se26  1  0.72700965  0.69336763  0.25000000  1
  Se  Se27  1  0.69336763  0.96635798  0.75000000  1
