# generated using pymatgen
data_ThF4
_symmetry_space_group_name_H-M   'P 1'
_cell_length_a   8.61051639
_cell_length_b   8.61226402
_cell_length_c   8.61226402
_cell_angle_alpha   80.21578447
_cell_angle_beta   63.23068467
_cell_angle_gamma   63.23068468
_symmetry_Int_Tables_number   1
_chemical_formula_structural   ThF4
_chemical_formula_sum   'Th6 F24'
_cell_volume   508.66043151
_cell_formula_units_Z   6
loop_
 _symmetry_equiv_pos_site_id
 _symmetry_equiv_pos_as_xyz
  1  'x, y, z'
loop_
 _atom_site_type_symbol
 _atom_site_label
 _atom_site_symmetry_multiplicity
 _atom_site_fract_x
 _atom_site_fract_y
 _atom_site_fract_z
 _atom_site_occupancy
  F  F0  1  0.39743700  0.68149118  0.73942056  1
  F  F1  1  0.10256300  0.26057944  0.31850882  1
  F  F2  1  0.60256300  0.31850882  0.26057944  1
  F  F3  1  0.89743700  0.73942056  0.68149118  1
  F  F4  1  0.56832937  0.18722313  0.59786554  1
  F  F5  1  0.93167063  0.40213446  0.81277687  1
  F  F6  1  0.75000000  0.39667700  0.60332300  1
  F  F7  1  0.25000000  0.60332300  0.39667700  1
  F  F8  1  0.71960750  0.73738313  0.49695987  1
  F  F9  1  0.78039250  0.50304013  0.26261687  1
  F  F10  1  0.28039250  0.26261687  0.50304013  1
  F  F11  1  0.21960750  0.49695987  0.73738313  1
  F  F12  1  0.84457852  0.97349447  0.27783630  1
  F  F13  1  0.65542148  0.72216370  0.02650553  1
  F  F14  1  0.15542148  0.02650553  0.72216370  1
  F  F15  1  0.34457852  0.27783630  0.97349447  1
  F  F16  1  0.00000000  0.00000000  0.50000000  1
  F  F17  1  0.50000000  0.50000000  0.00000000  1
  F  F18  1  0.95742029  0.82474904  0.93293855  1
  F  F19  1  0.54257971  0.06706145  0.17525096  1
  F  F20  1  0.04257971  0.17525096  0.06706145  1
  F  F21  1  0.45742029  0.93293855  0.82474904  1
  F  F22  1  0.06832937  0.59786554  0.18722313  1
  F  F23  1  0.43167063  0.81277687  0.40213446  1
  Th  Th24  1  0.25000000  0.21267903  0.78732097  1
  Th  Th25  1  0.75000000  0.78732097  0.21267903  1
  Th  Th26  1  0.16979499  0.77566349  0.63211910  1
  Th  Th27  1  0.33020501  0.36788090  0.22433651  1
  Th  Th28  1  0.83020501  0.22433651  0.36788090  1
  Th  Th29  1  0.66979499  0.63211910  0.77566349  1
