# generated using pymatgen
data_DyAl4Ni
_symmetry_space_group_name_H-M   'P 1'
_cell_length_a   4.05864456
_cell_length_b   6.61447843
_cell_length_c   7.97072421
_cell_angle_alpha   90.00000000
_cell_angle_beta   104.74970539
_cell_angle_gamma   90.00000000
_symmetry_Int_Tables_number   1
_chemical_formula_structural   DyAl4Ni
_chemical_formula_sum   'Dy2 Al8 Ni2'
_cell_volume   206.92935306
_cell_formula_units_Z   2
loop_
 _symmetry_equiv_pos_site_id
 _symmetry_equiv_pos_as_xyz
  1  'x, y, z'
loop_
 _atom_site_type_symbol
 _atom_site_label
 _atom_site_symmetry_multiplicity
 _atom_site_fract_x
 _atom_site_fract_y
 _atom_site_fract_z
 _atom_site_occupancy
  Al  Al0  1  0.50000000  0.00000000  0.00000000  1
  Al  Al1  1  0.50000000  0.50000000  0.00000000  1
  Al  Al2  1  0.07625142  0.25000000  0.15250283  1
  Al  Al3  1  0.92374858  0.75000000  0.84749717  1
  Al  Al4  1  0.68852393  0.05273512  0.37704786  1
  Al  Al5  1  0.31147607  0.94726488  0.62295214  1
  Al  Al6  1  0.31147607  0.55273512  0.62295214  1
  Al  Al7  1  0.68852393  0.44726488  0.37704786  1
  Ni  Ni8  1  0.22643186  0.25000000  0.45286372  1
  Ni  Ni9  1  0.77356814  0.75000000  0.54713628  1
  Dy  Dy10  1  0.88259061  0.25000000  0.76518123  1
  Dy  Dy11  1  0.11740939  0.75000000  0.23481877  1
