# generated using pymatgen
data_Sn(NO3)4
_symmetry_space_group_name_H-M   'P 1'
_cell_length_a   8.07013965
_cell_length_b   9.08098588
_cell_length_c   14.30038515
_cell_angle_alpha   90.00000000
_cell_angle_beta   90.00000000
_cell_angle_gamma   103.07853537
_symmetry_Int_Tables_number   1
_chemical_formula_structural   Sn(NO3)4
_chemical_formula_sum   'Sn4 N16 O48'
_cell_volume   1020.81690867
_cell_formula_units_Z   4
loop_
 _symmetry_equiv_pos_site_id
 _symmetry_equiv_pos_as_xyz
  1  'x, y, z'
loop_
 _atom_site_type_symbol
 _atom_site_label
 _atom_site_symmetry_multiplicity
 _atom_site_fract_x
 _atom_site_fract_y
 _atom_site_fract_z
 _atom_site_occupancy
  N  N0  1  0.66757980  0.15896560  0.06563146  1
  N  N1  1  0.08267535  0.94772477  0.24213874  1
  N  N2  1  0.41732465  0.55227523  0.74213874  1
  N  N3  1  0.91732465  0.05227523  0.75786126  1
  N  N4  1  0.58267535  0.44772477  0.25786126  1
  N  N5  1  0.83242020  0.34103440  0.56563146  1
  N  N6  1  0.33242020  0.84103440  0.93436854  1
  N  N7  1  0.16757980  0.65896560  0.43436854  1
  N  N8  1  0.63319148  0.03121333  0.32466141  1
  N  N9  1  0.86680852  0.46878667  0.82466141  1
  N  N10  1  0.36680852  0.96878667  0.67533859  1
  N  N11  1  0.13319148  0.53121333  0.17533859  1
  N  N12  1  0.74160229  0.73519835  0.05311466  1
  N  N13  1  0.75839771  0.76480165  0.55311466  1
  N  N14  1  0.25839771  0.26480165  0.94688534  1
  N  N15  1  0.24160229  0.23519835  0.44688534  1
  O  O16  1  0.34559840  0.26997898  0.86962480  1
  O  O17  1  0.21524291  0.93723786  0.27748365  1
  O  O18  1  0.28475709  0.56276214  0.77748365  1
  O  O19  1  0.78475709  0.06276214  0.72251635  1
  O  O20  1  0.82852455  0.17508709  0.08329479  1
  O  O21  1  0.67147545  0.32491291  0.58329479  1
  O  O22  1  0.17147545  0.82491291  0.91670521  1
  O  O23  1  0.32852455  0.67508709  0.41670521  1
  O  O24  1  0.57159824  0.03508120  0.10350043  1
  O  O25  1  0.92840176  0.46491880  0.60350043  1
  O  O26  1  0.42840176  0.96491880  0.89649957  1
  O  O27  1  0.07159824  0.53508120  0.39649957  1
  O  O28  1  0.60854296  0.24618850  0.01980667  1
  O  O29  1  0.89145704  0.25381150  0.51980667  1
  O  O30  1  0.39145704  0.75381150  0.98019333  1
  O  O31  1  0.10854296  0.74618850  0.48019333  1
  O  O32  1  0.76495681  0.12292223  0.28379853  1
  O  O33  1  0.73504319  0.37707777  0.78379853  1
  O  O34  1  0.23504319  0.87707777  0.71620147  1
  O  O35  1  0.26495681  0.62292223  0.21620147  1
  O  O36  1  0.59109081  0.89934471  0.28469117  1
  O  O37  1  0.90890919  0.60065529  0.78469117  1
  O  O38  1  0.40890919  0.10065529  0.71530883  1
  O  O39  1  0.09109081  0.39934471  0.21530883  1
  O  O40  1  0.56138712  0.06927544  0.39124583  1
  O  O41  1  0.93861288  0.43072456  0.89124583  1
  O  O42  1  0.43861288  0.93072456  0.60875417  1
  O  O43  1  0.06138712  0.56927544  0.10875417  1
  O  O44  1  0.65440160  0.73002102  0.13037520  1
  O  O45  1  0.84559840  0.76997898  0.63037520  1
  O  O46  1  0.71524291  0.43723786  0.22251635  1
  O  O47  1  0.15440160  0.23002102  0.36962480  1
  O  O48  1  0.85220177  0.86619251  0.04168761  1
  O  O49  1  0.64779823  0.63380749  0.54168761  1
  O  O50  1  0.14779823  0.13380749  0.95831239  1
  O  O51  1  0.56619412  0.55488581  0.31510572  1
  O  O52  1  0.72465700  0.63321076  0.99769248  1
  O  O53  1  0.77534300  0.86678924  0.49769248  1
  O  O54  1  0.27534300  0.36678924  0.00230752  1
  O  O55  1  0.22465700  0.13321076  0.50230752  1
  O  O56  1  0.93742941  0.84908113  0.25856895  1
  O  O57  1  0.56257059  0.65091887  0.75856895  1
  O  O58  1  0.06257059  0.15091887  0.74143105  1
  O  O59  1  0.43742941  0.34908113  0.24143105  1
  O  O60  1  0.06619412  0.05488581  0.18489428  1
  O  O61  1  0.43380588  0.44511419  0.68489428  1
  O  O62  1  0.93380588  0.94511419  0.81510572  1
  O  O63  1  0.35220177  0.36619251  0.45831239  1
  Sn  Sn64  1  0.28467187  0.46571885  0.32876339  1
  Sn  Sn65  1  0.21532813  0.03428115  0.82876339  1
  Sn  Sn66  1  0.71532813  0.53428115  0.67123661  1
  Sn  Sn67  1  0.78467187  0.96571885  0.17123661  1
