# generated using pymatgen
data_LiFe3O3F4
_symmetry_space_group_name_H-M   'P 1'
_cell_length_a   5.37551352
_cell_length_b   5.37551352
_cell_length_c   5.37551367
_cell_angle_alpha   102.87628432
_cell_angle_beta   102.87628432
_cell_angle_gamma   102.87628143
_symmetry_Int_Tables_number   1
_chemical_formula_structural   LiFe3O3F4
_chemical_formula_sum   'Li1 Fe3 O3 F4'
_cell_volume   141.41874087
_cell_formula_units_Z   1
loop_
 _symmetry_equiv_pos_site_id
 _symmetry_equiv_pos_as_xyz
  1  'x, y, z'
loop_
 _atom_site_type_symbol
 _atom_site_label
 _atom_site_symmetry_multiplicity
 _atom_site_fract_x
 _atom_site_fract_y
 _atom_site_fract_z
 _atom_site_occupancy
  Li  Li0  1  0.98410732  0.98410732  0.98410732  1
  Fe  Fe1  1  0.15443546  0.53435300  0.53435300  1
  Fe  Fe2  1  0.53435300  0.53435300  0.15443546  1
  Fe  Fe3  1  0.53435300  0.15443546  0.53435300  1
  O  O4  1  0.38348615  0.76644059  0.38348615  1
  O  O5  1  0.38348615  0.38348615  0.76644059  1
  O  O6  1  0.76644059  0.38348615  0.38348615  1
  F  F7  1  0.18311404  0.81884045  0.81884045  1
  F  F8  1  0.25147938  0.25147938  0.25147938  1
  F  F9  1  0.81884045  0.81884045  0.18311404  1
  F  F10  1  0.81884045  0.18311404  0.81884045  1
