# generated using pymatgen
data_Er2FeSi2
_symmetry_space_group_name_H-M   'P 1'
_cell_length_a   4.11681721
_cell_length_b   5.58527210
_cell_length_c   8.87710148
_cell_angle_alpha   82.77005021
_cell_angle_beta   76.59231037
_cell_angle_gamma   68.37425948
_symmetry_Int_Tables_number   1
_chemical_formula_structural   Er2FeSi2
_chemical_formula_sum   'Er4 Fe2 Si4'
_cell_volume   184.39261208
_cell_formula_units_Z   2
loop_
 _symmetry_equiv_pos_site_id
 _symmetry_equiv_pos_as_xyz
  1  'x, y, z'
loop_
 _atom_site_type_symbol
 _atom_site_label
 _atom_site_symmetry_multiplicity
 _atom_site_fract_x
 _atom_site_fract_y
 _atom_site_fract_z
 _atom_site_occupancy
  Si  Si0  1  0.49884437  0.12877641  0.87353485  1
  Si  Si1  1  0.50115563  0.87122359  0.12646515  1
  Si  Si2  1  0.34698185  0.74252982  0.56350647  1
  Si  Si3  1  0.65301815  0.25747018  0.43649353  1
  Fe  Fe4  1  0.72871363  0.91791335  0.62465938  1
  Fe  Fe5  1  0.27128637  0.08208665  0.37534062  1
  Er  Er6  1  0.18844499  0.73219514  0.89091488  1
  Er  Er7  1  0.81155501  0.26780486  0.10908512  1
  Er  Er8  1  0.99928339  0.32924366  0.67218956  1
  Er  Er9  1  0.00071661  0.67075634  0.32781044  1
