# generated using pymatgen
data_Sr2Bi3
_symmetry_space_group_name_H-M   'P 1'
_cell_length_a   6.69885431
_cell_length_b   6.89578030
_cell_length_c   15.72475752
_cell_angle_alpha   90.00000000
_cell_angle_beta   90.00000000
_cell_angle_gamma   90.00000000
_symmetry_Int_Tables_number   1
_chemical_formula_structural   Sr2Bi3
_chemical_formula_sum   'Sr8 Bi12'
_cell_volume   726.38673767
_cell_formula_units_Z   4
loop_
 _symmetry_equiv_pos_site_id
 _symmetry_equiv_pos_as_xyz
  1  'x, y, z'
loop_
 _atom_site_type_symbol
 _atom_site_label
 _atom_site_symmetry_multiplicity
 _atom_site_fract_x
 _atom_site_fract_y
 _atom_site_fract_z
 _atom_site_occupancy
  Bi  Bi0  1  0.75000000  0.75000000  0.57031087  1
  Bi  Bi1  1  0.75000000  0.25000000  0.92968913  1
  Bi  Bi2  1  0.25000000  0.25000000  0.42968913  1
  Bi  Bi3  1  0.25000000  0.75000000  0.07031087  1
  Bi  Bi4  1  0.42165451  0.93728105  0.84598915  1
  Bi  Bi5  1  0.42165451  0.06271895  0.65401085  1
  Bi  Bi6  1  0.07834549  0.43728105  0.65401085  1
  Bi  Bi7  1  0.07834549  0.56271895  0.84598915  1
  Bi  Bi8  1  0.57834549  0.06271895  0.15401085  1
  Bi  Bi9  1  0.57834549  0.93728105  0.34598915  1
  Bi  Bi10  1  0.92165451  0.56271895  0.34598915  1
  Bi  Bi11  1  0.92165451  0.43728105  0.15401085  1
  Sr  Sr12  1  0.94120108  0.00000000  0.75000000  1
  Sr  Sr13  1  0.55879892  0.50000000  0.75000000  1
  Sr  Sr14  1  0.05879892  0.00000000  0.25000000  1
  Sr  Sr15  1  0.44120108  0.50000000  0.25000000  1
  Sr  Sr16  1  0.75000000  0.75000000  0.99980504  1
  Sr  Sr17  1  0.75000000  0.25000000  0.50019496  1
  Sr  Sr18  1  0.25000000  0.25000000  0.00019496  1
  Sr  Sr19  1  0.25000000  0.75000000  0.49980504  1
