# generated using pymatgen
data_Hf2Si4Ru3
_symmetry_space_group_name_H-M   'P 1'
_cell_length_a   5.35490869
_cell_length_b   9.86859127
_cell_length_c   10.96874514
_cell_angle_alpha   79.19727327
_cell_angle_beta   75.87143528
_cell_angle_gamma   74.25772437
_symmetry_Int_Tables_number   1
_chemical_formula_structural   Hf2Si4Ru3
_chemical_formula_sum   'Hf8 Si16 Ru12'
_cell_volume   536.44909029
_cell_formula_units_Z   4
loop_
 _symmetry_equiv_pos_site_id
 _symmetry_equiv_pos_as_xyz
  1  'x, y, z'
loop_
 _atom_site_type_symbol
 _atom_site_label
 _atom_site_symmetry_multiplicity
 _atom_site_fract_x
 _atom_site_fract_y
 _atom_site_fract_z
 _atom_site_occupancy
  Si  Si0  1  0.87268386  0.25000000  0.75000000  1
  Si  Si1  1  0.12731614  0.75000000  0.25000000  1
  Si  Si2  1  0.38142954  0.25000000  0.75000000  1
  Si  Si3  1  0.61857046  0.75000000  0.25000000  1
  Si  Si4  1  0.74459544  0.12066075  0.10573441  1
  Si  Si5  1  0.97099060  0.37933925  0.39426559  1
  Si  Si6  1  0.25540456  0.87933925  0.89426559  1
  Si  Si7  1  0.02900940  0.62066075  0.60573441  1
  Si  Si8  1  0.91397885  0.72276147  0.93560017  1
  Si  Si9  1  0.57234049  0.77723853  0.56439983  1
  Si  Si10  1  0.08602115  0.27723853  0.06439983  1
  Si  Si11  1  0.42765951  0.22276147  0.43560017  1
  Si  Si12  1  0.85736828  0.92644708  0.60449966  1
  Si  Si13  1  0.38831503  0.57355292  0.89550034  1
  Si  Si14  1  0.14263172  0.07355292  0.39550034  1
  Si  Si15  1  0.61168497  0.42644708  0.10449966  1
  Ru  Ru16  1  0.17431370  0.75635226  0.71967306  1
  Ru  Ru17  1  0.65033902  0.74364774  0.78032694  1
  Ru  Ru18  1  0.52133581  0.31269949  0.93259685  1
  Ru  Ru19  1  0.34966098  0.25635226  0.21967306  1
  Ru  Ru20  1  0.86578496  0.62666275  0.41572816  1
  Ru  Ru21  1  0.90817586  0.87333725  0.08427184  1
  Ru  Ru22  1  0.13421504  0.37333725  0.58427184  1
  Ru  Ru23  1  0.09182414  0.12666275  0.91572816  1
  Ru  Ru24  1  0.47866419  0.68730051  0.06740315  1
  Ru  Ru25  1  0.23336786  0.81269949  0.43259685  1
  Ru  Ru26  1  0.76663214  0.18730051  0.56740315  1
  Ru  Ru27  1  0.82568630  0.24364774  0.28032694  1
  Hf  Hf28  1  0.44492100  0.50125229  0.35175478  1
  Hf  Hf29  1  0.29792806  0.99874771  0.14824522  1
  Hf  Hf30  1  0.55507900  0.49874771  0.64824522  1
  Hf  Hf31  1  0.70207194  0.00125229  0.85175478  1
  Hf  Hf32  1  0.70587843  0.96961018  0.36217445  1
  Hf  Hf33  1  0.03766305  0.53038982  0.13782555  1
  Hf  Hf34  1  0.29412157  0.03038982  0.63782555  1
  Hf  Hf35  1  0.96233695  0.46961018  0.86217445  1
