# generated using pymatgen
data_Hg2SeO5
_symmetry_space_group_name_H-M   'P 1'
_cell_length_a   7.31752693
_cell_length_b   9.79135439
_cell_length_c   15.53719837
_cell_angle_alpha   108.60928118
_cell_angle_beta   90.00000000
_cell_angle_gamma   90.00000000
_symmetry_Int_Tables_number   1
_chemical_formula_structural   Hg2SeO5
_chemical_formula_sum   'Hg16 Se8 O40'
_cell_volume   1055.01432659
_cell_formula_units_Z   8
loop_
 _symmetry_equiv_pos_site_id
 _symmetry_equiv_pos_as_xyz
  1  'x, y, z'
loop_
 _atom_site_type_symbol
 _atom_site_label
 _atom_site_symmetry_multiplicity
 _atom_site_fract_x
 _atom_site_fract_y
 _atom_site_fract_z
 _atom_site_occupancy
  O  O0  1  0.18422364  0.97186068  0.69907190  1
  O  O1  1  0.68422364  0.52813932  0.80092810  1
  O  O2  1  0.81577636  0.02813932  0.30092810  1
  O  O3  1  0.31577636  0.47186068  0.19907190  1
  O  O4  1  0.36776933  0.28838603  0.84950691  1
  O  O5  1  0.86776933  0.21161397  0.65049309  1
  O  O6  1  0.63223067  0.71161397  0.15049309  1
  O  O7  1  0.13223067  0.78838603  0.34950691  1
  O  O8  1  0.27203235  0.04643416  0.54920368  1
  O  O9  1  0.77203235  0.45356584  0.95079632  1
  O  O10  1  0.72796765  0.95356584  0.45079632  1
  O  O11  1  0.22796765  0.54643416  0.04920368  1
  O  O12  1  0.03932858  0.45393894  0.82767544  1
  O  O13  1  0.53932858  0.04606106  0.67232456  1
  O  O14  1  0.96067142  0.54606106  0.17232456  1
  O  O15  1  0.40212777  0.74494072  0.95544393  1
  O  O16  1  0.46067142  0.95393894  0.32767544  1
  O  O17  1  0.86938309  0.07839679  0.83711573  1
  O  O18  1  0.63061691  0.57839679  0.33711573  1
  O  O19  1  0.13061691  0.92160321  0.16288427  1
  O  O20  1  0.89443790  0.71104899  0.93828323  1
  O  O21  1  0.39443790  0.78895101  0.56171677  1
  O  O22  1  0.10556210  0.28895101  0.06171677  1
  O  O23  1  0.60556210  0.21104899  0.43828323  1
  O  O24  1  0.81618950  0.03377697  0.06204739  1
  O  O25  1  0.31618950  0.46622303  0.43795261  1
  O  O26  1  0.18381050  0.96622303  0.93795261  1
  O  O27  1  0.68381050  0.53377697  0.56204739  1
  O  O28  1  0.23038276  0.23084103  0.29034914  1
  O  O29  1  0.73038276  0.26915897  0.20965086  1
  O  O30  1  0.76961724  0.76915897  0.70965086  1
  O  O31  1  0.26961724  0.73084103  0.79034914  1
  O  O32  1  0.46706146  0.06019673  0.12307605  1
  O  O33  1  0.96706146  0.43980327  0.37692395  1
  O  O34  1  0.53293854  0.93980327  0.87692395  1
  O  O35  1  0.03293854  0.56019673  0.62307605  1
  O  O36  1  0.09787223  0.24494072  0.45544393  1
  O  O37  1  0.59787223  0.25505928  0.04455607  1
  O  O38  1  0.90212777  0.75505928  0.54455607  1
  O  O39  1  0.36938309  0.42160321  0.66288427  1
  Se  Se40  1  0.34660536  0.96517245  0.62230314  1
  Se  Se41  1  0.84660536  0.53482755  0.87769686  1
  Se  Se42  1  0.65339464  0.03482755  0.37769686  1
  Se  Se43  1  0.15339464  0.46517245  0.12230314  1
  Se  Se44  1  0.34710591  0.84703257  0.88624864  1
  Se  Se45  1  0.84710591  0.65296743  0.61375136  1
  Se  Se46  1  0.65289409  0.15296743  0.11375136  1
  Se  Se47  1  0.15289409  0.34703257  0.38624864  1
  Hg  Hg48  1  0.11721640  0.18938868  0.85792818  1
  Hg  Hg49  1  0.61721640  0.31061132  0.64207182  1
  Hg  Hg50  1  0.88278360  0.81061132  0.14207182  1
  Hg  Hg51  1  0.38278360  0.68938868  0.35792818  1
  Hg  Hg52  1  0.36461518  0.51732967  0.88771603  1
  Hg  Hg53  1  0.86461518  0.98267033  0.61228397  1
  Hg  Hg54  1  0.63538482  0.48267033  0.11228397  1
  Hg  Hg55  1  0.13538482  0.01732967  0.38771603  1
  Hg  Hg56  1  0.11772837  0.31369832  0.64412434  1
  Hg  Hg57  1  0.61772837  0.18630168  0.85587566  1
  Hg  Hg58  1  0.88227163  0.68630168  0.35587566  1
  Hg  Hg59  1  0.38227163  0.81369832  0.14412434  1
  Hg  Hg60  1  0.36464319  0.61735115  0.62331919  1
  Hg  Hg61  1  0.86464319  0.88264885  0.87668081  1
  Hg  Hg62  1  0.63535681  0.38264885  0.37668081  1
  Hg  Hg63  1  0.13535681  0.11735115  0.12331919  1
