# generated using pymatgen
data_KBi
_symmetry_space_group_name_H-M   'P 1'
_cell_length_a   7.41583062
_cell_length_b   13.72149972
_cell_length_c   14.56611602
_cell_angle_alpha   113.37553115
_cell_angle_beta   90.00000000
_cell_angle_gamma   90.00000000
_symmetry_Int_Tables_number   1
_chemical_formula_structural   KBi
_chemical_formula_sum   'K16 Bi16'
_cell_volume   1360.54196932
_cell_formula_units_Z   16
loop_
 _symmetry_equiv_pos_site_id
 _symmetry_equiv_pos_as_xyz
  1  'x, y, z'
loop_
 _atom_site_type_symbol
 _atom_site_label
 _atom_site_symmetry_multiplicity
 _atom_site_fract_x
 _atom_site_fract_y
 _atom_site_fract_z
 _atom_site_occupancy
  K  K0  1  0.13947472  0.55400148  0.84875519  1
  K  K1  1  0.63947472  0.94599852  0.15124481  1
  K  K2  1  0.86052528  0.44599852  0.15124481  1
  K  K3  1  0.36052528  0.05400148  0.84875519  1
  K  K4  1  0.42781942  0.69176801  0.65384536  1
  K  K5  1  0.92781942  0.80823199  0.34615464  1
  K  K6  1  0.57218058  0.30823199  0.34615464  1
  K  K7  1  0.07218058  0.19176801  0.65384536  1
  K  K8  1  0.19868788  0.53907808  0.39528847  1
  K  K9  1  0.69868788  0.96092192  0.60471153  1
  K  K10  1  0.80131212  0.46092192  0.60471153  1
  K  K11  1  0.30131212  0.03907808  0.39528847  1
  K  K12  1  0.38224966  0.64728986  0.12013264  1
  K  K13  1  0.88224966  0.85271014  0.87986736  1
  K  K14  1  0.61775034  0.35271014  0.87986736  1
  K  K15  1  0.11775034  0.14728986  0.12013264  1
  Bi  Bi16  1  0.20269858  0.88697950  0.57848807  1
  Bi  Bi17  1  0.70269858  0.61302050  0.42151193  1
  Bi  Bi18  1  0.79730142  0.11302050  0.42151193  1
  Bi  Bi19  1  0.29730142  0.38697950  0.57848807  1
  Bi  Bi20  1  0.43570132  0.77330279  0.39295873  1
  Bi  Bi21  1  0.93570132  0.72669721  0.60704127  1
  Bi  Bi22  1  0.56429868  0.22669721  0.60704127  1
  Bi  Bi23  1  0.06429868  0.27330279  0.39295873  1
  Bi  Bi24  1  0.12809045  0.87085362  0.11045827  1
  Bi  Bi25  1  0.62809045  0.62914638  0.88954173  1
  Bi  Bi26  1  0.87190955  0.12914638  0.88954173  1
  Bi  Bi27  1  0.37190955  0.37085362  0.11045827  1
  Bi  Bi28  1  0.87110181  0.68321760  0.07376149  1
  Bi  Bi29  1  0.37110181  0.81678240  0.92623851  1
  Bi  Bi30  1  0.12889819  0.31678240  0.92623851  1
  Bi  Bi31  1  0.62889819  0.18321760  0.07376149  1
