# generated using pymatgen
data_Li3Co2OF5
_symmetry_space_group_name_H-M   'P 1'
_cell_length_a   5.16527141
_cell_length_b   5.17267994
_cell_length_c   9.35991210
_cell_angle_alpha   100.79182942
_cell_angle_beta   79.61938424
_cell_angle_gamma   70.85453034
_symmetry_Int_Tables_number   1
_chemical_formula_structural   Li3Co2OF5
_chemical_formula_sum   'Li6 Co4 O2 F10'
_cell_volume   224.06754903
_cell_formula_units_Z   2
loop_
 _symmetry_equiv_pos_site_id
 _symmetry_equiv_pos_as_xyz
  1  'x, y, z'
loop_
 _atom_site_type_symbol
 _atom_site_label
 _atom_site_symmetry_multiplicity
 _atom_site_fract_x
 _atom_site_fract_y
 _atom_site_fract_z
 _atom_site_occupancy
  Li  Li0  1  0.45685708  0.29485501  0.08413947  1
  Li  Li1  1  0.88300078  0.37306439  0.24806356  1
  Li  Li2  1  0.21204635  0.04257804  0.58411247  1
  Li  Li3  1  0.78537650  0.96812766  0.43769556  1
  Li  Li4  1  0.13457789  0.61304527  0.73049784  1
  Li  Li5  1  0.54053650  0.70605984  0.92019428  1
  Co  Co6  1  0.95560284  0.79434807  0.08363300  1
  Co  Co7  1  0.70779834  0.54080796  0.58408944  1
  Co  Co8  1  0.38467657  0.86630281  0.23619894  1
  Co  Co9  1  0.03564179  0.21400842  0.93155917  1
  O  O10  1  0.19868126  0.03247348  0.08435870  1
  O  O11  1  0.71866854  0.55118291  0.08356294  1
  F  F12  1  0.62749429  0.12975489  0.24970765  1
  F  F13  1  0.94615158  0.77549764  0.58361295  1
  F  F14  1  0.55344485  0.73611684  0.42091147  1
  F  F15  1  0.12488444  0.62311617  0.24918797  1
  F  F16  1  0.03238761  0.18305505  0.42061176  1
  F  F17  1  0.47270048  0.30292989  0.58435375  1
  F  F18  1  0.90276104  0.38218897  0.74714059  1
  F  F19  1  0.29069082  0.46284961  0.91840016  1
  F  F20  1  0.34786882  0.86157789  0.74801131  1
  F  F21  1  0.78424461  0.95914617  0.91858701  1
