# generated using pymatgen
data_B10H13I
_symmetry_space_group_name_H-M   'P 1'
_cell_length_a   12.56058828
_cell_length_b   14.73102926
_cell_length_c   14.64210205
_cell_angle_alpha   119.12885844
_cell_angle_beta   90.00000000
_cell_angle_gamma   90.00000000
_symmetry_Int_Tables_number   1
_chemical_formula_structural   B10H13I
_chemical_formula_sum   'B80 H104 I8'
_cell_volume   2366.58939073
_cell_formula_units_Z   8
loop_
 _symmetry_equiv_pos_site_id
 _symmetry_equiv_pos_as_xyz
  1  'x, y, z'
loop_
 _atom_site_type_symbol
 _atom_site_label
 _atom_site_symmetry_multiplicity
 _atom_site_fract_x
 _atom_site_fract_y
 _atom_site_fract_z
 _atom_site_occupancy
  B  B0  1  0.22968421  0.17063529  0.66532961  1
  B  B1  1  0.72968421  0.32936471  0.83467039  1
  B  B2  1  0.77031579  0.82936471  0.33467039  1
  B  B3  1  0.27031579  0.67063529  0.16532961  1
  B  B4  1  0.20119568  0.25336387  0.61115970  1
  B  B5  1  0.70119568  0.24663613  0.88884030  1
  B  B6  1  0.79880432  0.74663613  0.38884030  1
  B  B7  1  0.29880432  0.75336387  0.11115970  1
  B  B8  1  0.30255013  0.35059751  0.66108627  1
  B  B9  1  0.80255013  0.14940249  0.83891373  1
  B  B10  1  0.69744987  0.64940249  0.33891373  1
  B  B11  1  0.19744987  0.85059751  0.16108627  1
  B  B12  1  0.32804031  0.41890262  0.81444019  1
  B  B13  1  0.82804031  0.08109738  0.68555981  1
  B  B14  1  0.67195969  0.58109738  0.18555981  1
  B  B15  1  0.17195969  0.91890262  0.31444019  1
  B  B16  1  0.24845156  0.37611555  0.88737065  1
  B  B17  1  0.74845156  0.12388445  0.61262935  1
  B  B18  1  0.75154844  0.62388445  0.11262935  1
  B  B19  1  0.25154844  0.87611555  0.38737065  1
  B  B20  1  0.25671075  0.23797653  0.81741979  1
  B  B21  1  0.75671075  0.26202347  0.68258021  1
  B  B22  1  0.74328925  0.76202347  0.18258021  1
  B  B23  1  0.24328925  0.73797653  0.31741979  1
  B  B24  1  0.33173576  0.21572118  0.61104360  1
  B  B25  1  0.83173576  0.28427882  0.88895640  1
  B  B26  1  0.66826424  0.78427882  0.38895640  1
  B  B27  1  0.16826424  0.71572118  0.11104360  1
  B  B28  1  0.40224267  0.31419224  0.72055848  1
  B  B29  1  0.90224267  0.18580776  0.77944152  1
  B  B30  1  0.59775733  0.68580776  0.27944152  1
  B  B31  1  0.09775733  0.81419224  0.22055848  1
  B  B32  1  0.37159454  0.31915159  0.84194993  1
  B  B33  1  0.87159454  0.18084841  0.65805007  1
  B  B34  1  0.62840546  0.68084841  0.15805007  1
  B  B35  1  0.12840546  0.81915159  0.34194993  1
  B  B36  1  0.35709981  0.20097745  0.72246213  1
  B  B37  1  0.85709981  0.29902255  0.77753787  1
  B  B38  1  0.64290019  0.79902255  0.27753787  1
  B  B39  1  0.14290019  0.70097745  0.22246213  1
  B  B40  1  0.14486213  0.83250835  0.82997357  1
  B  B41  1  0.64486213  0.66749165  0.67002643  1
  B  B42  1  0.85513787  0.16749165  0.17002643  1
  B  B43  1  0.35513787  0.33250835  0.32997357  1
  B  B44  1  0.16840898  0.89327669  0.75212400  1
  B  B45  1  0.66840898  0.60672331  0.74787600  1
  B  B46  1  0.83159102  0.10672331  0.24787600  1
  B  B47  1  0.33159102  0.39327669  0.25212400  1
  B  B48  1  0.06875174  0.84209907  0.65273216  1
  B  B49  1  0.56875174  0.65790093  0.84726784  1
  B  B50  1  0.93124826  0.15790093  0.34726784  1
  B  B51  1  0.43124826  0.34209907  0.15273216  1
  B  B52  1  0.05246395  0.68835202  0.57750146  1
  B  B53  1  0.55246395  0.81164798  0.92249854  1
  B  B54  1  0.94753605  0.31164798  0.42249854  1
  B  B55  1  0.44753605  0.18835202  0.07750146  1
  B  B56  1  0.13690049  0.61605446  0.61690349  1
  B  B57  1  0.63690049  0.88394554  0.88309651  1
  B  B58  1  0.86309951  0.38394554  0.38309651  1
  B  B59  1  0.36309951  0.11605446  0.11690349  1
  B  B60  1  0.12623809  0.67934189  0.75579454  1
  B  B61  1  0.62623809  0.82065811  0.74420546  1
  B  B62  1  0.87376191  0.32065811  0.24420546  1
  B  B63  1  0.37376191  0.17934189  0.25579454  1
  B  B64  1  0.03867816  0.88428755  0.78682979  1
  B  B65  1  0.53867816  0.61571245  0.71317021  1
  B  B66  1  0.96132184  0.11571245  0.21317021  1
  B  B67  1  0.46132184  0.38428755  0.28682979  1
  B  B68  1  0.97389390  0.77414496  0.68354096  1
  B  B69  1  0.47389390  0.72585504  0.81645904  1
  B  B70  1  0.02610610  0.22585504  0.31645904  1
  B  B71  1  0.52610610  0.27414496  0.18354096  1
  B  B72  1  0.01196486  0.65264624  0.67290516  1
  B  B73  1  0.51196486  0.84735376  0.82709484  1
  B  B74  1  0.98803514  0.34735376  0.32709484  1
  B  B75  1  0.48803514  0.15264624  0.17290516  1
  B  B76  1  0.02091802  0.76890832  0.79515464  1
  B  B77  1  0.52091802  0.73109168  0.70484536  1
  B  B78  1  0.97908198  0.23109168  0.20484536  1
  B  B79  1  0.47908198  0.26890832  0.29515464  1
  H  H80  1  0.14756296  0.23263859  0.67807012  1
  H  H81  1  0.64756296  0.26736141  0.82192988  1
  H  H82  1  0.85243704  0.76736141  0.32192988  1
  H  H83  1  0.35243704  0.73263859  0.17807012  1
  H  H84  1  0.19770231  0.35635808  0.67471499  1
  H  H85  1  0.69770231  0.14364192  0.82528501  1
  H  H86  1  0.80229769  0.64364192  0.32528501  1
  H  H87  1  0.30229769  0.85635808  0.17471499  1
  H  H88  1  0.22422783  0.42652936  0.83465907  1
  H  H89  1  0.72422783  0.07347064  0.66534093  1
  H  H90  1  0.77577217  0.57347064  0.16534093  1
  H  H91  1  0.27577217  0.92652936  0.33465907  1
  H  H92  1  0.17503120  0.30194517  0.83711321  1
  H  H93  1  0.67503120  0.19805483  0.66288679  1
  H  H94  1  0.82496880  0.69805483  0.16288679  1
  H  H95  1  0.32496880  0.80194517  0.33711321  1
  H  H96  1  0.19158964  0.08607513  0.62711919  1
  H  H97  1  0.69158964  0.41392487  0.87288081  1
  H  H98  1  0.80841036  0.91392487  0.37288081  1
  H  H99  1  0.30841036  0.58607513  0.12711919  1
  H  H100  1  0.14244394  0.23491377  0.54069942  1
  H  H101  1  0.64244394  0.26508623  0.95930058  1
  H  H102  1  0.85755606  0.76508623  0.45930058  1
  H  H103  1  0.35755606  0.73491377  0.04069942  1
  H  H104  1  0.32015743  0.40064401  0.61903768  1
  H  H105  1  0.82015743  0.09935599  0.88096232  1
  H  H106  1  0.67984257  0.59935599  0.38096232  1
  H  H107  1  0.17984257  0.90064401  0.11903768  1
  H  H108  1  0.35836537  0.50643286  0.85549552  1
  H  H109  1  0.85836537  0.99356714  0.64450448  1
  H  H110  1  0.64163463  0.49356714  0.14450448  1
  H  H111  1  0.14163463  0.00643286  0.35549552  1
  H  H112  1  0.21596795  0.42789778  0.97376502  1
  H  H113  1  0.71596795  0.07210222  0.52623498  1
  H  H114  1  0.78403205  0.57210222  0.02623498  1
  H  H115  1  0.28403205  0.92789778  0.47376502  1
  H  H116  1  0.23432824  0.18875492  0.85942839  1
  H  H117  1  0.73432824  0.31124508  0.64057161  1
  H  H118  1  0.76567176  0.81124508  0.14057161  1
  H  H119  1  0.26567176  0.68875492  0.35942839  1
  H  H120  1  0.37663631  0.16261269  0.53106936  1
  H  H121  1  0.87663631  0.33738731  0.96893064  1
  H  H122  1  0.62336369  0.83738731  0.46893064  1
  H  H123  1  0.12336369  0.66261269  0.03106936  1
  H  H124  1  0.49085662  0.33457341  0.70717763  1
  H  H125  1  0.99085662  0.16542659  0.79282237  1
  H  H126  1  0.50914338  0.66542659  0.29282237  1
  H  H127  1  0.15160608  0.63550318  0.80251932  1
  H  H128  1  0.00914338  0.83457341  0.20717763  1
  H  H129  1  0.94041030  0.17088961  0.59822362  1
  H  H130  1  0.55958970  0.67088961  0.09822362  1
  H  H131  1  0.05958970  0.82911039  0.40177638  1
  H  H132  1  0.22644967  0.82667606  0.76941854  1
  H  H133  1  0.72644967  0.67332394  0.73058146  1
  H  H134  1  0.77355033  0.17332394  0.23058146  1
  H  H135  1  0.27355033  0.32667606  0.26941854  1
  H  H136  1  0.17411751  0.83437785  0.64785536  1
  H  H137  1  0.67411751  0.66562215  0.85214464  1
  H  H138  1  0.82588249  0.16562215  0.35214464  1
  H  H139  1  0.32588249  0.33437785  0.14785536  1
  H  H140  1  0.15740266  0.67438447  0.57168498  1
  H  H141  1  0.65740266  0.82561553  0.92831502  1
  H  H142  1  0.84259734  0.32561553  0.42831502  1
  H  H143  1  0.34259734  0.17438447  0.07168498  1
  H  H144  1  0.20828923  0.66654049  0.69351404  1
  H  H145  1  0.70828923  0.83345951  0.80648596  1
  H  H146  1  0.79171077  0.33345951  0.30648596  1
  H  H147  1  0.29171077  0.16654049  0.19351404  1
  H  H148  1  0.18173769  0.86932009  0.91548001  1
  H  H149  1  0.68173769  0.63067991  0.58451999  1
  H  H150  1  0.81826231  0.13067991  0.08451999  1
  H  H151  1  0.31826231  0.36932009  0.41548001  1
  H  H152  1  0.22307478  0.96697840  0.77455274  1
  H  H153  1  0.72307478  0.53302160  0.72544726  1
  H  H154  1  0.77692522  0.03302160  0.22544726  1
  H  H155  1  0.27692522  0.46697840  0.27455274  1
  H  H156  1  0.04740594  0.88651333  0.60567526  1
  H  H157  1  0.54740594  0.61348667  0.89432474  1
  H  H158  1  0.95259406  0.11348667  0.39432474  1
  H  H159  1  0.45259406  0.38651333  0.10567526  1
  H  H160  1  0.02439029  0.64951191  0.48878760  1
  H  H161  1  0.52439029  0.85048809  0.01121240  1
  H  H162  1  0.97560971  0.35048809  0.51121240  1
  H  H163  1  0.47560971  0.14951191  0.98878760  1
  H  H164  1  0.17330617  0.53247645  0.56138619  1
  H  H165  1  0.67330617  0.96752355  0.93861381  1
  H  H166  1  0.82669383  0.46752355  0.43861381  1
  H  H167  1  0.32669383  0.03247645  0.06138619  1
  H  H168  1  0.55324077  0.08868996  0.15880081  1
  H  H169  1  0.05324077  0.41131004  0.34119919  1
  H  H170  1  0.44675923  0.91131004  0.84119919  1
  H  H171  1  0.94675923  0.58868996  0.65880081  1
  H  H172  1  0.61586248  0.28375023  0.16272457  1
  H  H173  1  0.11586248  0.21624977  0.33727543  1
  H  H174  1  0.38413752  0.71624977  0.83727543  1
  H  H175  1  0.88413752  0.78375023  0.66272457  1
  H  H176  1  0.51015779  0.46040629  0.34242850  1
  H  H177  1  0.01015779  0.03959371  0.15757150  1
  H  H178  1  0.48984221  0.53959371  0.65757150  1
  H  H179  1  0.98984221  0.96040629  0.84242850  1
  H  H180  1  0.34839392  0.13550318  0.30251932  1
  H  H181  1  0.84839392  0.36449682  0.19748068  1
  H  H182  1  0.65160608  0.86449682  0.69748068  1
  H  H183  1  0.44041030  0.32911039  0.90177638  1
  I  I184  1  0.45531575  0.06810284  0.69898234  1
  I  I185  1  0.95531575  0.43189716  0.80101766  1
  I  I186  1  0.54468425  0.93189716  0.30101766  1
  I  I187  1  0.04468425  0.56810284  0.19898234  1
  I  I188  1  0.92294893  0.78118567  0.92489927  1
  I  I189  1  0.42294893  0.71881433  0.57510073  1
  I  I190  1  0.07705107  0.21881433  0.07510073  1
  I  I191  1  0.57705107  0.28118567  0.42489927  1
