# generated using pymatgen
data_Al45Cr7
_symmetry_space_group_name_H-M   'P 1'
_cell_length_a   7.56075473
_cell_length_b   10.92766192
_cell_length_c   10.97133640
_cell_angle_alpha   106.26489128
_cell_angle_beta   110.15546010
_cell_angle_gamma   90.00000000
_symmetry_Int_Tables_number   1
_chemical_formula_structural   Al45Cr7
_chemical_formula_sum   'Al45 Cr7'
_cell_volume   812.20065239
_cell_formula_units_Z   1
loop_
 _symmetry_equiv_pos_site_id
 _symmetry_equiv_pos_as_xyz
  1  'x, y, z'
loop_
 _atom_site_type_symbol
 _atom_site_label
 _atom_site_symmetry_multiplicity
 _atom_site_fract_x
 _atom_site_fract_y
 _atom_site_fract_z
 _atom_site_occupancy
  Al  Al0  1  0.50000000  0.50000000  0.00000000  1
  Al  Al1  1  0.61507919  0.22918130  0.23015839  1
  Al  Al2  1  0.38492081  0.77081870  0.76984161  1
  Al  Al3  1  0.29242155  0.51397855  0.58484311  1
  Al  Al4  1  0.70757845  0.48602145  0.41515689  1
  Al  Al5  1  0.37405575  0.36591511  0.74811149  1
  Al  Al6  1  0.62594425  0.63408489  0.25188851  1
  Al  Al7  1  0.52205303  0.75634890  0.04410607  1
  Al  Al8  1  0.47794697  0.24365110  0.95589393  1
  Al  Al9  1  0.08056773  0.43961968  0.16113546  1
  Al  Al10  1  0.91943227  0.56038032  0.83886454  1
  Al  Al11  1  0.12848480  0.11213265  0.25696960  1
  Al  Al12  1  0.87151520  0.88786735  0.74303040  1
  Al  Al13  1  0.09038725  0.84257501  0.18077450  1
  Al  Al14  1  0.90961275  0.15742499  0.81922550  1
  Al  Al15  1  0.22398012  0.99061356  0.44796025  1
  Al  Al16  1  0.77601988  0.00938644  0.55203975  1
  Al  Al17  1  0.99483126  0.35492218  0.36339682  1
  Al  Al18  1  0.63143444  0.64507782  0.63660318  1
  Al  Al19  1  0.00516874  0.64507782  0.63660318  1
  Al  Al20  1  0.36856556  0.35492218  0.36339682  1
  Al  Al21  1  0.75162184  0.99022413  0.13856257  1
  Al  Al22  1  0.61305927  0.00977587  0.86143743  1
  Al  Al23  1  0.24837816  0.00977587  0.86143743  1
  Al  Al24  1  0.38694073  0.99022413  0.13856257  1
  Al  Al25  1  0.77564879  0.79485413  0.92821145  1
  Al  Al26  1  0.84743734  0.20514587  0.07178855  1
  Al  Al27  1  0.22435121  0.20514587  0.07178855  1
  Al  Al28  1  0.15256266  0.79485413  0.92821145  1
  Al  Al29  1  0.99549574  0.38090513  0.62044535  1
  Al  Al30  1  0.37505039  0.61909487  0.37955465  1
  Al  Al31  1  0.00450426  0.61909487  0.37955465  1
  Al  Al32  1  0.62494961  0.38090513  0.62044535  1
  Al  Al33  1  0.84895147  0.62175722  0.09117423  1
  Al  Al34  1  0.75777724  0.37824278  0.90882577  1
  Al  Al35  1  0.15104853  0.37824278  0.90882577  1
  Al  Al36  1  0.24222276  0.62175722  0.09117423  1
  Al  Al37  1  0.85847739  0.85476933  0.33084560  1
  Al  Al38  1  0.52763179  0.14523067  0.66915440  1
  Al  Al39  1  0.14152261  0.14523067  0.66915440  1
  Al  Al40  1  0.47236821  0.85476933  0.33084560  1
  Al  Al41  1  0.89386359  0.13430177  0.41296976  1
  Al  Al42  1  0.48089384  0.86569823  0.58703024  1
  Al  Al43  1  0.10613641  0.86569823  0.58703024  1
  Al  Al44  1  0.51910616  0.13430177  0.41296976  1
  Cr  Cr45  1  0.00000000  0.00000000  0.00000000  1
  Cr  Cr46  1  0.25020590  0.23827260  0.50041181  1
  Cr  Cr47  1  0.74979410  0.76172740  0.49958819  1
  Cr  Cr48  1  0.75990685  0.41788743  0.17040277  1
  Cr  Cr49  1  0.58950407  0.58211257  0.82959723  1
  Cr  Cr50  1  0.24009315  0.58211257  0.82959723  1
  Cr  Cr51  1  0.41049593  0.41788743  0.17040277  1
