# generated using pymatgen
data_Pr12InPt7
_symmetry_space_group_name_H-M   'P 1'
_cell_length_a   11.35040189
_cell_length_b   11.35040189
_cell_length_c   11.35040189
_cell_angle_alpha   99.19316086
_cell_angle_beta   114.84205783
_cell_angle_gamma   114.84205790
_symmetry_Int_Tables_number   1
_chemical_formula_structural   Pr12InPt7
_chemical_formula_sum   'Pr24 In2 Pt14'
_cell_volume   1099.23085692
_cell_formula_units_Z   2
loop_
 _symmetry_equiv_pos_site_id
 _symmetry_equiv_pos_as_xyz
  1  'x, y, z'
loop_
 _atom_site_type_symbol
 _atom_site_label
 _atom_site_symmetry_multiplicity
 _atom_site_fract_x
 _atom_site_fract_y
 _atom_site_fract_z
 _atom_site_occupancy
  In  In0  1  0.00000000  0.50000000  0.50000000  1
  In  In1  1  0.00000000  0.00000000  0.00000000  1
  Pr  Pr2  1  0.13405204  0.85018834  0.56925837  1
  Pr  Pr3  1  0.13405204  0.56479367  0.28386370  1
  Pr  Pr4  1  0.86594796  0.14981166  0.43074163  1
  Pr  Pr5  1  0.71907003  0.93520633  0.06925837  1
  Pr  Pr6  1  0.71907003  0.28386370  0.14981166  1
  Pr  Pr7  1  0.28092997  0.43074163  0.56479367  1
  Pr  Pr8  1  0.71907003  0.64981166  0.78386370  1
  Pr  Pr9  1  0.13405204  0.78386370  0.06479367  1
  Pr  Pr10  1  0.86594796  0.93074163  0.64981166  1
  Pr  Pr11  1  0.86594796  0.43520633  0.71613630  1
  Pr  Pr12  1  0.84995431  0.67497716  0.17497716  1
  Pr  Pr13  1  0.28092997  0.06479367  0.93074163  1
  Pr  Pr14  1  0.28092997  0.71613630  0.85018834  1
  Pr  Pr15  1  0.71907003  0.56925837  0.43520633  1
  Pr  Pr16  1  0.50000000  0.63592943  0.13592943  1
  Pr  Pr17  1  0.50000000  0.13592943  0.63592943  1
  Pr  Pr18  1  0.50000000  0.86407057  0.36407057  1
  Pr  Pr19  1  0.50000000  0.36407057  0.86407057  1
  Pr  Pr20  1  0.50000000  0.17497716  0.32502284  1
  Pr  Pr21  1  0.86594796  0.21613630  0.93520633  1
  Pr  Pr22  1  0.50000000  0.82502284  0.67497716  1
  Pr  Pr23  1  0.15004569  0.32502284  0.82502284  1
  Pr  Pr24  1  0.28092997  0.35018834  0.21613630  1
  Pr  Pr25  1  0.13405204  0.06925837  0.35018834  1
  Pt  Pt26  1  0.50000000  0.02069970  0.87003687  1
  Pt  Pt27  1  0.50000000  0.97930030  0.12996313  1
  Pt  Pt28  1  0.50000000  0.62996313  0.47930030  1
  Pt  Pt29  1  0.15066283  0.52069970  0.02069970  1
  Pt  Pt30  1  0.15066283  0.12996313  0.62996313  1
  Pt  Pt31  1  0.84933717  0.47930030  0.97930030  1
  Pt  Pt32  1  0.75120071  0.12560036  0.62560036  1
  Pt  Pt33  1  0.50000000  0.62560036  0.87439964  1
  Pt  Pt34  1  0.50000000  0.37439964  0.12560036  1
  Pt  Pt35  1  0.24879929  0.87439964  0.37439964  1
  Pt  Pt36  1  0.00000000  0.25000000  0.25000000  1
  Pt  Pt37  1  0.00000000  0.75000000  0.75000000  1
  Pt  Pt38  1  0.50000000  0.37003687  0.52069970  1
  Pt  Pt39  1  0.84933717  0.87003687  0.37003687  1
