# generated using pymatgen
data_KAuI3
_symmetry_space_group_name_H-M   'P 1'
_cell_length_a   7.46362485
_cell_length_b   9.72657937
_cell_length_c   11.63049130
_cell_angle_alpha   90.00000000
_cell_angle_beta   92.61883032
_cell_angle_gamma   90.00000000
_symmetry_Int_Tables_number   1
_chemical_formula_structural   KAuI3
_chemical_formula_sum   'K4 Au4 I12'
_cell_volume   843.43998728
_cell_formula_units_Z   4
loop_
 _symmetry_equiv_pos_site_id
 _symmetry_equiv_pos_as_xyz
  1  'x, y, z'
loop_
 _atom_site_type_symbol
 _atom_site_label
 _atom_site_symmetry_multiplicity
 _atom_site_fract_x
 _atom_site_fract_y
 _atom_site_fract_z
 _atom_site_occupancy
  K  K0  1  0.56171758  0.11625935  0.74883281  1
  K  K1  1  0.93828242  0.61625935  0.75116719  1
  K  K2  1  0.43828242  0.88374065  0.25116719  1
  K  K3  1  0.06171758  0.38374065  0.24883281  1
  I  I4  1  0.28865170  0.15085782  0.03522148  1
  I  I5  1  0.21134830  0.65085782  0.46477852  1
  I  I6  1  0.71134830  0.84914218  0.96477852  1
  I  I7  1  0.78865170  0.34914218  0.53522148  1
  I  I8  1  0.92656528  0.99294745  0.26804836  1
  I  I9  1  0.57343472  0.49294745  0.23195164  1
  I  I10  1  0.07343472  0.00705255  0.73195164  1
  I  I11  1  0.42656528  0.50705255  0.76804836  1
  I  I12  1  0.28919897  0.15811722  0.46823879  1
  I  I13  1  0.21080103  0.65811722  0.03176121  1
  I  I14  1  0.71080103  0.84188278  0.53176121  1
  I  I15  1  0.78919897  0.34188278  0.96823879  1
  Au  Au16  1  0.50000000  0.50000000  0.00000000  1
  Au  Au17  1  0.00000000  0.00000000  0.50000000  1
  Au  Au18  1  0.50000000  0.50000000  0.50000000  1
  Au  Au19  1  0.00000000  0.00000000  0.00000000  1
