# generated using pymatgen
data_Na3B7O12
_symmetry_space_group_name_H-M   'P 1'
_cell_length_a   6.71859726
_cell_length_b   8.37397011
_cell_length_c   8.94151541
_cell_angle_alpha   95.04132447
_cell_angle_beta   100.75462992
_cell_angle_gamma   99.42710788
_symmetry_Int_Tables_number   1
_chemical_formula_structural   Na3B7O12
_chemical_formula_sum   'Na6 B14 O24'
_cell_volume   483.89649486
_cell_formula_units_Z   2
loop_
 _symmetry_equiv_pos_site_id
 _symmetry_equiv_pos_as_xyz
  1  'x, y, z'
loop_
 _atom_site_type_symbol
 _atom_site_label
 _atom_site_symmetry_multiplicity
 _atom_site_fract_x
 _atom_site_fract_y
 _atom_site_fract_z
 _atom_site_occupancy
  B  B0  1  0.77463788  0.87109235  0.04972124  1
  B  B1  1  0.22536212  0.12890765  0.95027876  1
  B  B2  1  0.78672572  0.84444151  0.52657016  1
  B  B3  1  0.21327428  0.15555849  0.47342984  1
  B  B4  1  0.40079448  0.27168413  0.75410454  1
  B  B5  1  0.59920552  0.72831587  0.24589546  1
  B  B6  1  0.33959140  0.55016193  0.70816528  1
  B  B7  1  0.66040860  0.44983807  0.29183472  1
  B  B8  1  0.90139526  0.95128639  0.80738976  1
  B  B9  1  0.09860474  0.04871361  0.19261024  1
  B  B10  1  0.68616788  0.49699753  0.72731301  1
  B  B11  1  0.31383212  0.50300247  0.27268699  1
  B  B12  1  0.00975370  0.69486693  0.69496500  1
  B  B13  1  0.99024630  0.30513307  0.30503500  1
  O  O14  1  0.27901384  0.40233577  0.75547615  1
  O  O15  1  0.74051128  0.92067054  0.90533165  1
  O  O16  1  0.08680356  0.26878649  0.45645230  1
  O  O17  1  0.91319644  0.73121351  0.54354770  1
  O  O18  1  0.25948872  0.07932946  0.09466835  1
  O  O19  1  0.78111987  0.95755645  0.64863916  1
  O  O20  1  0.77722894  0.33175783  0.31346730  1
  O  O21  1  0.22277106  0.66824217  0.68653270  1
  O  O22  1  0.97191065  0.88147384  0.13769377  1
  O  O23  1  0.02808935  0.11852616  0.86230623  1
  O  O24  1  0.96519534  0.16727765  0.18827386  1
  O  O25  1  0.03480466  0.83272235  0.81172614  1
  O  O26  1  0.10845327  0.45708164  0.26664891  1
  O  O27  1  0.89154673  0.54291836  0.73335109  1
  O  O28  1  0.66909225  0.85249871  0.38421487  1
  O  O29  1  0.33090775  0.14750129  0.61578513  1
  O  O30  1  0.39830947  0.18733766  0.89372876  1
  O  O31  1  0.60169053  0.81266234  0.10627124  1
  O  O32  1  0.62364176  0.34113242  0.76256499  1
  O  O33  1  0.37635824  0.65886758  0.23743501  1
  O  O34  1  0.54251324  0.59560974  0.68658331  1
  O  O35  1  0.45748676  0.40439026  0.31341669  1
  O  O36  1  0.21888013  0.04244355  0.35136084  1
  O  O37  1  0.72098616  0.59766423  0.24452385  1
  Na  Na38  1  0.76535682  0.22846687  0.97843905  1
  Na  Na39  1  0.23464318  0.77153313  0.02156095  1
  Na  Na40  1  0.44613921  0.91864421  0.71021559  1
  Na  Na41  1  0.55386079  0.08135579  0.28978441  1
  Na  Na42  1  0.93124968  0.27112689  0.66381985  1
  Na  Na43  1  0.06875032  0.72887311  0.33618015  1
