# generated using pymatgen
data_K3BiO4
_symmetry_space_group_name_H-M   'P 1'
_cell_length_a   6.55661335
_cell_length_b   6.72305567
_cell_length_c   7.83290669
_cell_angle_alpha   101.40821641
_cell_angle_beta   97.13223393
_cell_angle_gamma   105.83945408
_symmetry_Int_Tables_number   1
_chemical_formula_structural   K3BiO4
_chemical_formula_sum   'K6 Bi2 O8'
_cell_volume   319.74266582
_cell_formula_units_Z   2
loop_
 _symmetry_equiv_pos_site_id
 _symmetry_equiv_pos_as_xyz
  1  'x, y, z'
loop_
 _atom_site_type_symbol
 _atom_site_label
 _atom_site_symmetry_multiplicity
 _atom_site_fract_x
 _atom_site_fract_y
 _atom_site_fract_z
 _atom_site_occupancy
  O  O0  1  0.98079347  0.90011349  0.76996612  1
  O  O1  1  0.01920653  0.09988651  0.23003388  1
  O  O2  1  0.23606039  0.52572712  0.85794843  1
  O  O3  1  0.76393961  0.47427288  0.14205157  1
  O  O4  1  0.44592186  0.93920117  0.72695090  1
  O  O5  1  0.55407814  0.06079883  0.27304910  1
  O  O6  1  0.18284133  0.55265518  0.42537872  1
  O  O7  1  0.81715867  0.44734482  0.57462128  1
  K  K8  1  0.66855912  0.77790374  0.97752430  1
  K  K9  1  0.83726043  0.23404743  0.83098331  1
  K  K10  1  0.64824436  0.77426217  0.46587583  1
  K  K11  1  0.35175564  0.22573783  0.53412417  1
  K  K12  1  0.33144088  0.22209626  0.02247570  1
  K  K13  1  0.16273957  0.76595257  0.16901669  1
  Bi  Bi14  1  0.84657364  0.30144299  0.31438060  1
  Bi  Bi15  1  0.15342636  0.69855701  0.68561940  1
