# generated using pymatgen
data_Li3AlH6
_symmetry_space_group_name_H-M   'P 1'
_cell_length_a   5.60073979
_cell_length_b   5.60073978
_cell_length_c   5.60073978
_cell_angle_alpha   91.39251599
_cell_angle_beta   91.39251596
_cell_angle_gamma   91.39251593
_symmetry_Int_Tables_number   1
_chemical_formula_structural   Li3AlH6
_chemical_formula_sum   'Li6 Al2 H12'
_cell_volume   175.52738403
_cell_formula_units_Z   2
loop_
 _symmetry_equiv_pos_site_id
 _symmetry_equiv_pos_as_xyz
  1  'x, y, z'
loop_
 _atom_site_type_symbol
 _atom_site_label
 _atom_site_symmetry_multiplicity
 _atom_site_fract_x
 _atom_site_fract_y
 _atom_site_fract_z
 _atom_site_occupancy
  H  H0  1  0.08905987  0.95173364  0.29534475  1
  H  H1  1  0.91094013  0.04826636  0.70465525  1
  H  H2  1  0.20503746  0.42646887  0.56952262  1
  H  H3  1  0.56952262  0.20503746  0.42646887  1
  H  H4  1  0.42646887  0.56952262  0.20503746  1
  H  H5  1  0.79496254  0.57353113  0.43047738  1
  H  H6  1  0.43047738  0.79496254  0.57353113  1
  H  H7  1  0.57353113  0.43047738  0.79496254  1
  H  H8  1  0.70465525  0.91094013  0.04826636  1
  H  H9  1  0.95173364  0.29534475  0.08905987  1
  H  H10  1  0.29534475  0.08905987  0.95173364  1
  H  H11  1  0.04826636  0.70465525  0.91094013  1
  Li  Li12  1  0.74877423  0.56696833  0.06100688  1
  Li  Li13  1  0.06100688  0.74877423  0.56696833  1
  Li  Li14  1  0.25122577  0.43303167  0.93899312  1
  Li  Li15  1  0.93899312  0.25122577  0.43303167  1
  Li  Li16  1  0.56696833  0.06100688  0.74877423  1
  Li  Li17  1  0.43303167  0.93899312  0.25122577  1
  Al  Al18  1  0.50000000  0.50000000  0.50000000  1
  Al  Al19  1  0.00000000  0.00000000  0.00000000  1
