# generated using pymatgen
data_Li2Fe(CuO3)2
_symmetry_space_group_name_H-M   'P 1'
_cell_length_a   2.96541435
_cell_length_b   6.61266220
_cell_length_c   5.96854585
_cell_angle_alpha   104.37444457
_cell_angle_beta   89.80526372
_cell_angle_gamma   103.02709438
_symmetry_Int_Tables_number   1
_chemical_formula_structural   Li2Fe(CuO3)2
_chemical_formula_sum   'Li2 Fe1 Cu2 O6'
_cell_volume   110.28558278
_cell_formula_units_Z   1
loop_
 _symmetry_equiv_pos_site_id
 _symmetry_equiv_pos_as_xyz
  1  'x, y, z'
loop_
 _atom_site_type_symbol
 _atom_site_label
 _atom_site_symmetry_multiplicity
 _atom_site_fract_x
 _atom_site_fract_y
 _atom_site_fract_z
 _atom_site_occupancy
  Li  Li0  1  0.66881701  0.33815915  0.84731421  1
  Li  Li1  1  0.99794423  0.99531400  0.48614264  1
  Fe  Fe2  1  0.33333816  0.66668758  0.66667972  1
  Cu  Cu3  1  0.66979143  0.33866352  0.32918958  1
  Cu  Cu4  1  0.99691771  0.99469712  0.00416633  1
  O  O5  1  0.49713236  0.99478703  0.76646222  1
  O  O6  1  0.82832890  0.65664790  0.44527461  1
  O  O7  1  0.15549424  0.31000083  0.09404286  1
  O  O8  1  0.83817721  0.67637620  0.88788218  1
  O  O9  1  0.16943763  0.33849321  0.56678514  1
  O  O10  1  0.51129011  0.02350646  0.23939351  1
