# generated using pymatgen
data_HfF4
_symmetry_space_group_name_H-M   'P 1'
_cell_length_a   7.72134714
_cell_length_b   7.72809427
_cell_length_c   7.72809427
_cell_angle_alpha   80.16253944
_cell_angle_beta   63.34202652
_cell_angle_gamma   63.34202655
_symmetry_Int_Tables_number   1
_chemical_formula_structural   HfF4
_chemical_formula_sum   'Hf6 F24'
_cell_volume   368.04961786
_cell_formula_units_Z   6
loop_
 _symmetry_equiv_pos_site_id
 _symmetry_equiv_pos_as_xyz
  1  'x, y, z'
loop_
 _atom_site_type_symbol
 _atom_site_label
 _atom_site_symmetry_multiplicity
 _atom_site_fract_x
 _atom_site_fract_y
 _atom_site_fract_z
 _atom_site_occupancy
  F  F0  1  0.39340436  0.68294321  0.74155180  1
  F  F1  1  0.10659564  0.25844820  0.31705679  1
  F  F2  1  0.60659564  0.31705679  0.25844820  1
  F  F3  1  0.89340436  0.74155180  0.68294321  1
  F  F4  1  0.57580980  0.18438269  0.59787341  1
  F  F5  1  0.92419020  0.40212659  0.81561731  1
  F  F6  1  0.75000000  0.39360059  0.60639941  1
  F  F7  1  0.25000000  0.60639941  0.39360059  1
  F  F8  1  0.71733233  0.73881589  0.49753525  1
  F  F9  1  0.78266767  0.50246475  0.26118411  1
  F  F10  1  0.28266767  0.26118411  0.50246475  1
  F  F11  1  0.21733233  0.49753525  0.73881589  1
  F  F12  1  0.85002689  0.97001414  0.27633277  1
  F  F13  1  0.64997311  0.72366723  0.02998586  1
  F  F14  1  0.14997311  0.02998586  0.72366723  1
  F  F15  1  0.35002689  0.27633277  0.97001414  1
  F  F16  1  0.00000000  0.00000000  0.50000000  1
  F  F17  1  0.50000000  0.50000000  0.00000000  1
  F  F18  1  0.95581570  0.82746932  0.93738661  1
  F  F19  1  0.54418430  0.06261339  0.17253068  1
  F  F20  1  0.04418430  0.17253068  0.06261339  1
  F  F21  1  0.45581570  0.93738661  0.82746932  1
  F  F22  1  0.07580980  0.59787341  0.18438269  1
  F  F23  1  0.42419020  0.81561731  0.40212659  1
  Hf  Hf24  1  0.25000000  0.21412711  0.78587289  1
  Hf  Hf25  1  0.75000000  0.78587289  0.21412711  1
  Hf  Hf26  1  0.16682969  0.77648069  0.63404529  1
  Hf  Hf27  1  0.33317031  0.36595471  0.22351931  1
  Hf  Hf28  1  0.83317031  0.22351931  0.36595471  1
  Hf  Hf29  1  0.66682969  0.63404529  0.77648069  1
