# generated using pymatgen
data_Tl2TeBr6
_symmetry_space_group_name_H-M   'P 1'
_cell_length_a   7.62599315
_cell_length_b   7.62599315
_cell_length_c   11.19473400
_cell_angle_alpha   90.00000000
_cell_angle_beta   90.00000000
_cell_angle_gamma   90.00000000
_symmetry_Int_Tables_number   1
_chemical_formula_structural   Tl2TeBr6
_chemical_formula_sum   'Tl4 Te2 Br12'
_cell_volume   651.03839277
_cell_formula_units_Z   2
loop_
 _symmetry_equiv_pos_site_id
 _symmetry_equiv_pos_as_xyz
  1  'x, y, z'
loop_
 _atom_site_type_symbol
 _atom_site_label
 _atom_site_symmetry_multiplicity
 _atom_site_fract_x
 _atom_site_fract_y
 _atom_site_fract_z
 _atom_site_occupancy
  Br  Br0  1  0.19900580  0.30462968  0.50000000  1
  Br  Br1  1  0.80099420  0.69537032  0.50000000  1
  Br  Br2  1  0.80462968  0.69900580  0.00000000  1
  Br  Br3  1  0.30462968  0.80099420  0.50000000  1
  Br  Br4  1  0.69537032  0.19900580  0.50000000  1
  Br  Br5  1  0.30099420  0.80462968  0.00000000  1
  Br  Br6  1  0.00000000  0.00000000  0.24478068  1
  Br  Br7  1  0.50000000  0.50000000  0.25521932  1
  Br  Br8  1  0.00000000  0.00000000  0.75521932  1
  Br  Br9  1  0.50000000  0.50000000  0.74478068  1
  Br  Br10  1  0.19537032  0.30099420  0.00000000  1
  Br  Br11  1  0.69900580  0.19537032  0.00000000  1
  Te  Te12  1  0.50000000  0.50000000  0.50000000  1
  Te  Te13  1  0.00000000  0.00000000  0.00000000  1
  Tl  Tl14  1  0.50000000  0.00000000  0.75000000  1
  Tl  Tl15  1  0.00000000  0.50000000  0.75000000  1
  Tl  Tl16  1  0.50000000  0.00000000  0.25000000  1
  Tl  Tl17  1  0.00000000  0.50000000  0.25000000  1
