# generated using pymatgen
data_LiV2(OF)3
_symmetry_space_group_name_H-M   'P 1'
_cell_length_a   5.09093535
_cell_length_b   5.12561388
_cell_length_c   13.52798682
_cell_angle_alpha   92.03106637
_cell_angle_beta   92.69895043
_cell_angle_gamma   62.01497716
_symmetry_Int_Tables_number   1
_chemical_formula_structural   LiV2(OF)3
_chemical_formula_sum   'Li3 V6 O9 F9'
_cell_volume   311.34377369
_cell_formula_units_Z   3
loop_
 _symmetry_equiv_pos_site_id
 _symmetry_equiv_pos_as_xyz
  1  'x, y, z'
loop_
 _atom_site_type_symbol
 _atom_site_label
 _atom_site_symmetry_multiplicity
 _atom_site_fract_x
 _atom_site_fract_y
 _atom_site_fract_z
 _atom_site_occupancy
  Li  Li0  1  0.35615059  0.32010030  0.88240146  1
  Li  Li1  1  0.03300973  0.97086872  0.21426748  1
  Li  Li2  1  0.68742553  0.64036667  0.55184925  1
  V  V3  1  0.33373088  0.32225635  0.66706996  1
  V  V4  1  0.35943074  0.31824052  0.16092590  1
  V  V5  1  0.96037587  0.03154068  0.00206491  1
  V  V6  1  0.63109764  0.70542612  0.82425813  1
  V  V7  1  0.67888923  0.64177425  0.33456328  1
  V  V8  1  0.97514341  0.02615294  0.49195017  1
  O  O9  1  0.06911743  0.27125875  0.58436481  1
  O  O10  1  0.25793265  0.09272070  0.08851804  1
  O  O11  1  0.39160340  -0.00095354  0.75278862  1
  O  O12  1  0.40460091  0.59950141  0.25013624  1
  O  O13  1  0.56250897  0.41057764  0.75106845  1
  O  O14  1  0.68722254  0.26079695  0.08386477  1
  O  O15  1  0.73502573  0.32143280  0.42201962  1
  O  O16  1  0.73765914  0.93502242  0.91395848  1
  O  O17  1  0.90288722  0.73517027  0.41755205  1
  F  F18  1  0.99153473  0.60611595  0.75043628  1
  F  F19  1  0.05926231  0.68104021  0.08827939  1
  F  F20  1  0.29501728  0.66394988  0.57602291  1
  F  F21  1  0.65043426  0.98561610  0.24693888  1
  F  F22  1  0.34624316  0.70566905  0.92218246  1
  F  F23  1  0.68095118  0.02348563  0.58594185  1
  F  F24  1  0.33129625  0.93086622  0.41737263  1
  F  F25  1  0.96405292  0.32613848  0.91103648  1
  F  F26  1  0.01611529  0.35541452  0.25400648  1
