# generated using pymatgen
data_Er5Si3
_symmetry_space_group_name_H-M   'P 1'
_cell_length_a   8.35733301
_cell_length_b   8.35733302
_cell_length_c   6.28230782
_cell_angle_alpha   90.00000000
_cell_angle_beta   90.00000000
_cell_angle_gamma   120.00000001
_symmetry_Int_Tables_number   1
_chemical_formula_structural   Er5Si3
_chemical_formula_sum   'Er10 Si6'
_cell_volume   380.00145485
_cell_formula_units_Z   2
loop_
 _symmetry_equiv_pos_site_id
 _symmetry_equiv_pos_as_xyz
  1  'x, y, z'
loop_
 _atom_site_type_symbol
 _atom_site_label
 _atom_site_symmetry_multiplicity
 _atom_site_fract_x
 _atom_site_fract_y
 _atom_site_fract_z
 _atom_site_occupancy
  Si  Si0  1  0.39460341  0.00000000  0.75000000  1
  Si  Si1  1  0.39460341  0.39460341  0.25000000  1
  Si  Si2  1  0.00000000  0.60539659  0.25000000  1
  Si  Si3  1  0.00000000  0.39460341  0.75000000  1
  Si  Si4  1  0.60539659  0.60539659  0.75000000  1
  Si  Si5  1  0.60539659  0.00000000  0.25000000  1
  Er  Er6  1  0.00000000  0.75747483  0.75000000  1
  Er  Er7  1  0.00000000  0.24252517  0.25000000  1
  Er  Er8  1  0.75747483  0.75747483  0.25000000  1
  Er  Er9  1  0.75747483  0.00000000  0.75000000  1
  Er  Er10  1  0.24252517  0.24252517  0.75000000  1
  Er  Er11  1  0.24252517  0.00000000  0.25000000  1
  Er  Er12  1  0.33333333  0.66666667  0.50000000  1
  Er  Er13  1  0.66666667  0.33333333  0.00000000  1
  Er  Er14  1  0.66666667  0.33333333  0.50000000  1
  Er  Er15  1  0.33333333  0.66666667  0.00000000  1
