# generated using pymatgen
data_Ti(NO3)4
_symmetry_space_group_name_H-M   'P 1'
_cell_length_a   8.01882961
_cell_length_b   8.97172087
_cell_length_c   14.04337656
_cell_angle_alpha   90.00000000
_cell_angle_beta   90.00000000
_cell_angle_gamma   101.90048080
_symmetry_Int_Tables_number   1
_chemical_formula_structural   Ti(NO3)4
_chemical_formula_sum   'Ti4 N16 O48'
_cell_volume   988.60392434
_cell_formula_units_Z   4
loop_
 _symmetry_equiv_pos_site_id
 _symmetry_equiv_pos_as_xyz
  1  'x, y, z'
loop_
 _atom_site_type_symbol
 _atom_site_label
 _atom_site_symmetry_multiplicity
 _atom_site_fract_x
 _atom_site_fract_y
 _atom_site_fract_z
 _atom_site_occupancy
  N  N0  1  0.67009755  0.15278341  0.06766571  1
  N  N1  1  0.56710069  0.44051683  0.25933326  1
  N  N2  1  0.93289931  0.05948317  0.75933326  1
  N  N3  1  0.43289931  0.55948317  0.74066674  1
  N  N4  1  0.06710069  0.94051683  0.24066674  1
  N  N5  1  0.82990245  0.34721659  0.56766571  1
  N  N6  1  0.32990245  0.84721659  0.93233429  1
  N  N7  1  0.17009755  0.65278341  0.43233429  1
  N  N8  1  0.63490540  0.02831753  0.32064042  1
  N  N9  1  0.86509460  0.47168247  0.82064042  1
  N  N10  1  0.36509460  0.97168247  0.67935958  1
  N  N11  1  0.13490540  0.52831753  0.17935958  1
  N  N12  1  0.73885437  0.73873022  0.05523606  1
  N  N13  1  0.76114563  0.76126978  0.55523606  1
  N  N14  1  0.26114563  0.26126978  0.94476394  1
  N  N15  1  0.23885437  0.23873022  0.44476394  1
  O  O16  1  0.34679164  0.26080578  0.86597950  1
  O  O17  1  0.20130867  0.93056641  0.27594121  1
  O  O18  1  0.29869133  0.56943359  0.77594121  1
  O  O19  1  0.79869133  0.06943359  0.72405879  1
  O  O20  1  0.82967135  0.16196522  0.08739767  1
  O  O21  1  0.67032865  0.33803478  0.58739767  1
  O  O22  1  0.17032865  0.83803478  0.91260233  1
  O  O23  1  0.32967135  0.66196522  0.41260233  1
  O  O24  1  0.57443669  0.03049277  0.10610971  1
  O  O25  1  0.92556331  0.46950723  0.60610971  1
  O  O26  1  0.42556331  0.96950723  0.89389029  1
  O  O27  1  0.07443669  0.53049277  0.39389029  1
  O  O28  1  0.61468899  0.24374046  0.02059555  1
  O  O29  1  0.88531101  0.25625954  0.52059555  1
  O  O30  1  0.38531101  0.75625954  0.97940445  1
  O  O31  1  0.11468899  0.74374046  0.47940445  1
  O  O32  1  0.76639140  0.11692817  0.27939436  1
  O  O33  1  0.73360860  0.38307183  0.77939436  1
  O  O34  1  0.23360860  0.88307183  0.72060564  1
  O  O35  1  0.26639140  0.61692817  0.22060564  1
  O  O36  1  0.59557308  0.89717604  0.27831897  1
  O  O37  1  0.90442692  0.60282396  0.77831897  1
  O  O38  1  0.40442692  0.10282396  0.72168103  1
  O  O39  1  0.09557308  0.39717604  0.22168103  1
  O  O40  1  0.56059103  0.06619471  0.38801476  1
  O  O41  1  0.93940897  0.43380529  0.88801476  1
  O  O42  1  0.43940897  0.93380529  0.61198524  1
  O  O43  1  0.06059103  0.56619471  0.11198524  1
  O  O44  1  0.65320836  0.73919422  0.13402050  1
  O  O45  1  0.84679164  0.76080578  0.63402050  1
  O  O46  1  0.70130867  0.43056641  0.22405879  1
  O  O47  1  0.15320836  0.23919422  0.36597950  1
  O  O48  1  0.84836071  0.86828937  0.04391053  1
  O  O49  1  0.65163929  0.63171063  0.54391053  1
  O  O50  1  0.15163929  0.13171063  0.95608947  1
  O  O51  1  0.54564600  0.54662157  0.31801815  1
  O  O52  1  0.72037170  0.63404142  1.00021576  1
  O  O53  1  0.77962830  0.86595858  0.50021576  1
  O  O54  1  0.27962830  0.36595858  -0.00021576  1
  O  O55  1  0.22037170  0.13404142  0.49978424  1
  O  O56  1  0.92271421  0.84399420  0.25733158  1
  O  O57  1  0.57728579  0.65600580  0.75733158  1
  O  O58  1  0.07728579  0.15600580  0.74266842  1
  O  O59  1  0.42271421  0.34399420  0.24266842  1
  O  O60  1  0.04564600  0.04662157  0.18198185  1
  O  O61  1  0.45435400  0.45337843  0.68198185  1
  O  O62  1  0.95435400  0.95337843  0.81801815  1
  O  O63  1  0.34836071  0.36828937  0.45608947  1
  Ti  Ti64  1  0.28053669  0.46143446  0.32914152  1
  Ti  Ti65  1  0.21946331  0.03856554  0.82914152  1
  Ti  Ti66  1  0.71946331  0.53856554  0.67085848  1
  Ti  Ti67  1  0.78053669  0.96143446  0.17085848  1
