# generated using pymatgen
data_KAlH4
_symmetry_space_group_name_H-M   'P 1'
_cell_length_a   5.82804431
_cell_length_b   7.37018492
_cell_length_c   8.85171560
_cell_angle_alpha   90.00000000
_cell_angle_beta   90.00000000
_cell_angle_gamma   90.00000000
_symmetry_Int_Tables_number   1
_chemical_formula_structural   KAlH4
_chemical_formula_sum   'K4 Al4 H16'
_cell_volume   380.21450541
_cell_formula_units_Z   4
loop_
 _symmetry_equiv_pos_site_id
 _symmetry_equiv_pos_as_xyz
  1  'x, y, z'
loop_
 _atom_site_type_symbol
 _atom_site_label
 _atom_site_symmetry_multiplicity
 _atom_site_fract_x
 _atom_site_fract_y
 _atom_site_fract_z
 _atom_site_occupancy
  H  H0  1  0.97667782  0.19107597  0.92458677  1
  H  H1  1  0.47667782  0.80892403  0.07541323  1
  H  H2  1  0.02332218  0.69107597  0.57541323  1
  H  H3  1  0.52332218  0.30892403  0.42458677  1
  H  H4  1  0.02332218  0.80892403  0.07541323  1
  H  H5  1  0.52332218  0.19107597  0.92458677  1
  H  H6  1  0.97667782  0.30892403  0.42458677  1
  H  H7  1  0.47667782  0.69107597  0.57541323  1
  H  H8  1  0.25000000  0.95549153  0.71444924  1
  H  H9  1  0.75000000  0.04450847  0.28555076  1
  H  H10  1  0.75000000  0.45549153  0.78555076  1
  H  H11  1  0.25000000  0.54450847  0.21444924  1
  H  H12  1  0.75000000  0.43633825  0.09019261  1
  H  H13  1  0.25000000  0.56366175  0.90980739  1
  H  H14  1  0.25000000  0.93633825  0.40980739  1
  H  H15  1  0.75000000  0.06366175  0.59019261  1
  Al  Al16  1  0.25000000  0.82205645  0.56715425  1
  Al  Al17  1  0.75000000  0.17794355  0.43284575  1
  Al  Al18  1  0.75000000  0.32205645  0.93284575  1
  Al  Al19  1  0.25000000  0.67794355  0.06715425  1
  K  K20  1  0.75000000  0.83307251  0.82115579  1
  K  K21  1  0.25000000  0.16692749  0.17884421  1
  K  K22  1  0.25000000  0.33307251  0.67884421  1
  K  K23  1  0.75000000  0.66692749  0.32115579  1
