# generated using pymatgen
data_K2(NbBr3)3
_symmetry_space_group_name_H-M   'P 1'
_cell_length_a   10.31827320
_cell_length_b   10.42017305
_cell_length_c   10.42017306
_cell_angle_alpha   117.60342837
_cell_angle_beta   102.46465738
_cell_angle_gamma   102.46465737
_symmetry_Int_Tables_number   1
_chemical_formula_structural   K2(NbBr3)3
_chemical_formula_sum   'K4 Nb6 Br18'
_cell_volume   902.54234360
_cell_formula_units_Z   2
loop_
 _symmetry_equiv_pos_site_id
 _symmetry_equiv_pos_as_xyz
  1  'x, y, z'
loop_
 _atom_site_type_symbol
 _atom_site_label
 _atom_site_symmetry_multiplicity
 _atom_site_fract_x
 _atom_site_fract_y
 _atom_site_fract_z
 _atom_site_occupancy
  K  K0  1  0.16776131  0.05063076  0.72910539  1
  K  K1  1  0.83223869  0.27089461  0.94936924  1
  K  K2  1  0.83223869  0.94936924  0.27089461  1
  K  K3  1  0.16776131  0.72910539  0.05063076  1
  Br  Br4  1  0.81991905  0.60633397  0.00083736  1
  Br  Br5  1  0.18008095  0.99916264  0.39366603  1
  Br  Br6  1  0.82554870  0.81579190  0.81579190  1
  Br  Br7  1  0.17445130  0.18420810  0.18420810  1
  Br  Br8  1  0.81296771  0.41505678  0.61877379  1
  Br  Br9  1  0.18703229  0.38122621  0.58494322  1
  Br  Br10  1  0.18703229  0.58494322  0.38122621  1
  Br  Br11  1  0.81296771  0.61877379  0.41505678  1
  Br  Br12  1  0.48726083  0.09955243  0.30619460  1
  Br  Br13  1  0.51273917  0.69380540  0.90044757  1
  Br  Br14  1  0.51273917  0.90044757  0.69380540  1
  Br  Br15  1  0.48726083  0.30619460  0.09955243  1
  Br  Br16  1  0.50000000  0.70515082  0.29484918  1
  Br  Br17  1  0.50000000  0.29484918  0.70515082  1
  Br  Br18  1  0.21257272  0.77064465  0.77064465  1
  Br  Br19  1  0.78742728  0.22935535  0.22935535  1
  Br  Br20  1  0.81991905  0.00083736  0.60633397  1
  Br  Br21  1  0.18008095  0.39366603  0.99916264  1
  Nb  Nb22  1  0.36662548  0.28851503  0.45554847  1
  Nb  Nb23  1  0.63337452  0.54445153  0.71148497  1
  Nb  Nb24  1  0.63337452  0.71148497  0.54445153  1
  Nb  Nb25  1  0.36662548  0.45554847  0.28851503  1
  Nb  Nb26  1  0.37700445  0.61545074  0.61545074  1
  Nb  Nb27  1  0.62299555  0.38454926  0.38454926  1
