# generated using pymatgen
data_DyTlS2
_symmetry_space_group_name_H-M   'P 1'
_cell_length_a   7.88372494
_cell_length_b   7.88372494
_cell_length_c   7.88372494
_cell_angle_alpha   29.64629426
_cell_angle_beta   29.64629428
_cell_angle_gamma   29.64629426
_symmetry_Int_Tables_number   1
_chemical_formula_structural   DyTlS2
_chemical_formula_sum   'Dy1 Tl1 S2'
_cell_volume   106.14039200
_cell_formula_units_Z   1
loop_
 _symmetry_equiv_pos_site_id
 _symmetry_equiv_pos_as_xyz
  1  'x, y, z'
loop_
 _atom_site_type_symbol
 _atom_site_label
 _atom_site_symmetry_multiplicity
 _atom_site_fract_x
 _atom_site_fract_y
 _atom_site_fract_z
 _atom_site_occupancy
  S  S0  1  0.73254914  0.73254914  0.73254914  1
  S  S1  1  0.26745086  0.26745086  0.26745086  1
  Dy  Dy2  1  0.00000000  0.00000000  0.00000000  1
  Tl  Tl3  1  0.50000000  0.50000000  0.50000000  1
