# generated using pymatgen
data_NaTl3(SO3)2
_symmetry_space_group_name_H-M   'P 1'
_cell_length_a   5.99686662
_cell_length_b   5.99686661
_cell_length_c   7.22867546
_cell_angle_alpha   90.00000000
_cell_angle_beta   90.00000000
_cell_angle_gamma   120.00000003
_symmetry_Int_Tables_number   1
_chemical_formula_structural   NaTl3(SO3)2
_chemical_formula_sum   'Na1 Tl3 S2 O6'
_cell_volume   225.13247058
_cell_formula_units_Z   1
loop_
 _symmetry_equiv_pos_site_id
 _symmetry_equiv_pos_as_xyz
  1  'x, y, z'
loop_
 _atom_site_type_symbol
 _atom_site_label
 _atom_site_symmetry_multiplicity
 _atom_site_fract_x
 _atom_site_fract_y
 _atom_site_fract_z
 _atom_site_occupancy
  O  O0  1  0.39309026  0.19654513  0.70189729  1
  O  O1  1  0.80345487  0.19654513  0.70189729  1
  O  O2  1  0.80345487  0.60690974  0.70189729  1
  O  O3  1  0.19654513  0.80345487  0.29810271  1
  O  O4  1  0.60690974  0.80345487  0.29810271  1
  O  O5  1  0.19654513  0.39309026  0.29810271  1
  Na  Na6  1  0.00000000  0.00000000  0.50000000  1
  S  S7  1  0.33333333  0.66666667  0.21270335  1
  S  S8  1  0.66666667  0.33333333  0.78729665  1
  Tl  Tl9  1  0.66666667  0.33333333  0.31978484  1
  Tl  Tl10  1  0.33333333  0.66666667  0.68021516  1
  Tl  Tl11  1  0.00000000  0.00000000  0.00000000  1
