# generated using pymatgen
data_Hg3(SeBr)2
_symmetry_space_group_name_H-M   'P 1'
_cell_length_a   9.67094657
_cell_length_b   10.07436103
_cell_length_c   10.37238826
_cell_angle_alpha   90.53353735
_cell_angle_beta   117.78707427
_cell_angle_gamma   89.99999999
_symmetry_Int_Tables_number   1
_chemical_formula_structural   Hg3(SeBr)2
_chemical_formula_sum   'Hg12 Se8 Br8'
_cell_volume   893.98542384
_cell_formula_units_Z   4
loop_
 _symmetry_equiv_pos_site_id
 _symmetry_equiv_pos_as_xyz
  1  'x, y, z'
loop_
 _atom_site_type_symbol
 _atom_site_label
 _atom_site_symmetry_multiplicity
 _atom_site_fract_x
 _atom_site_fract_y
 _atom_site_fract_z
 _atom_site_occupancy
  Se  Se0  1  0.22172110  0.24686826  0.96941976  1
  Se  Se1  1  0.74769867  0.24686826  0.96941976  1
  Se  Se2  1  0.77827890  0.75313174  0.03058024  1
  Se  Se3  1  0.49957665  0.75310934  0.47578699  1
  Se  Se4  1  0.02378966  0.24689066  0.52421301  1
  Se  Se5  1  0.50042335  0.24689066  0.52421301  1
  Se  Se6  1  0.97621034  0.75310934  0.47578699  1
  Se  Se7  1  0.25230133  0.75313174  0.03058024  1
  Br  Br8  1  0.62409662  0.48956330  0.24819323  1
  Br  Br9  1  0.12553001  0.47603485  0.25106001  1
  Br  Br10  1  0.87446999  0.52396515  0.74893999  1
  Br  Br11  1  0.12224406  0.00873333  0.24448813  1
  Br  Br12  1  0.87775594  0.99126667  0.75551187  1
  Br  Br13  1  0.37831938  0.97311031  0.75663876  1
  Br  Br14  1  0.62168062  0.02688969  0.24336124  1
  Br  Br15  1  0.37590338  0.51043670  0.75180677  1
  Hg  Hg16  1  0.10328641  0.79796226  0.75371228  1
  Hg  Hg17  1  0.34957413  0.20203774  0.24628772  1
  Hg  Hg18  1  0.89671359  0.20203774  0.24628772  1
  Hg  Hg19  1  0.65042587  0.79796226  0.75371228  1
  Hg  Hg20  1  0.00000000  0.50000000  0.50000000  1
  Hg  Hg21  1  0.50000000  0.50000000  0.50000000  1
  Hg  Hg22  1  0.23590928  0.50000000  0.00000000  1
  Hg  Hg23  1  0.76409072  0.50000000  0.00000000  1
  Hg  Hg24  1  0.47561558  0.22913648  0.95123115  1
  Hg  Hg25  1  0.52438442  0.77086352  0.04876885  1
  Hg  Hg26  1  0.76930786  0.21270731  0.53861572  1
  Hg  Hg27  1  0.23069214  0.78729269  0.46138428  1
