# generated using pymatgen
data_Ca2As3
_symmetry_space_group_name_H-M   'P 1'
_cell_length_a   5.85844833
_cell_length_b   12.03680703
_cell_length_c   13.79933109
_cell_angle_alpha   90.80943022
_cell_angle_beta   90.00000000
_cell_angle_gamma   90.00000000
_symmetry_Int_Tables_number   1
_chemical_formula_structural   Ca2As3
_chemical_formula_sum   'Ca16 As24'
_cell_volume   972.99049502
_cell_formula_units_Z   8
loop_
 _symmetry_equiv_pos_site_id
 _symmetry_equiv_pos_as_xyz
  1  'x, y, z'
loop_
 _atom_site_type_symbol
 _atom_site_label
 _atom_site_symmetry_multiplicity
 _atom_site_fract_x
 _atom_site_fract_y
 _atom_site_fract_z
 _atom_site_occupancy
  Ca  Ca0  1  0.75442019  0.62535579  0.00079564  1
  Ca  Ca1  1  0.75442019  0.87464421  0.49920436  1
  Ca  Ca2  1  0.24557981  0.37464421  0.99920436  1
  Ca  Ca3  1  0.24557981  0.12535579  0.50079564  1
  Ca  Ca4  1  0.74005487  0.37563482  0.50911971  1
  Ca  Ca5  1  0.74005487  0.12436518  0.99088029  1
  Ca  Ca6  1  0.25994513  0.62436518  0.49088029  1
  Ca  Ca7  1  0.25994513  0.87563482  0.00911971  1
  Ca  Ca8  1  0.45199157  0.99196048  0.75105177  1
  Ca  Ca9  1  0.45199157  0.50803952  0.74894823  1
  Ca  Ca10  1  0.54800843  0.00803952  0.24894823  1
  Ca  Ca11  1  0.54800843  0.49196048  0.25105177  1
  Ca  Ca12  1  0.03988382  0.75000000  0.75000000  1
  Ca  Ca13  1  0.96011618  0.25000000  0.25000000  1
  Ca  Ca14  1  0.09146855  0.25000000  0.75000000  1
  Ca  Ca15  1  0.90853145  0.75000000  0.25000000  1
  As  As16  1  0.45325120  0.23305090  0.15812996  1
  As  As17  1  0.45325120  0.26694910  0.34187004  1
  As  As18  1  0.54674880  0.76694910  0.84187004  1
  As  As19  1  0.54674880  0.73305090  0.65812996  1
  As  As20  1  0.26833552  0.86377006  0.57749902  1
  As  As21  1  0.26833552  0.63622994  0.92250098  1
  As  As22  1  0.73166448  0.13622994  0.42250098  1
  As  As23  1  0.73166448  0.36377006  0.07749902  1
  As  As24  1  0.60304953  0.28733221  0.83548842  1
  As  As25  1  0.60304953  0.21266779  0.66451158  1
  As  As26  1  0.39695047  0.71266779  0.16451158  1
  As  As27  1  0.39695047  0.78733221  0.33548842  1
  As  As28  1  0.95017028  0.51384264  0.67097103  1
  As  As29  1  0.95017028  0.98615736  0.82902897  1
  As  As30  1  0.04982972  0.48615736  0.32902897  1
  As  As31  1  0.04982972  0.01384264  0.17097103  1
  As  As32  1  0.77418501  0.88941822  0.07769792  1
  As  As33  1  0.77418501  0.61058178  0.42230208  1
  As  As34  1  0.22581499  0.11058178  0.92230208  1
  As  As35  1  0.22581499  0.38941822  0.57769792  1
  As  As36  1  0.90323882  0.45093252  0.84503879  1
  As  As37  1  0.90323882  0.04906748  0.65496121  1
  As  As38  1  0.09676118  0.54906748  0.15496121  1
  As  As39  1  0.09676118  0.95093252  0.34503879  1
