# generated using pymatgen
data_Na14Al4O13
_symmetry_space_group_name_H-M   'P 1'
_cell_length_a   6.01747108
_cell_length_b   6.01054802
_cell_length_c   27.36852831
_cell_angle_alpha   90.00000000
_cell_angle_beta   90.00000000
_cell_angle_gamma   119.61040737
_symmetry_Int_Tables_number   1
_chemical_formula_structural   Na14Al4O13
_chemical_formula_sum   'Na28 Al8 O26'
_cell_volume   860.60082619
_cell_formula_units_Z   2
loop_
 _symmetry_equiv_pos_site_id
 _symmetry_equiv_pos_as_xyz
  1  'x, y, z'
loop_
 _atom_site_type_symbol
 _atom_site_label
 _atom_site_symmetry_multiplicity
 _atom_site_fract_x
 _atom_site_fract_y
 _atom_site_fract_z
 _atom_site_occupancy
  O  O0  1  0.50000000  0.00000000  0.50000000  1
  O  O1  1  0.00000000  0.00000000  0.00000000  1
  O  O2  1  0.49195239  0.93566306  0.70999082  1
  O  O3  1  0.00804761  0.06433694  0.20999082  1
  O  O4  1  0.50804761  0.06433694  0.29000918  1
  O  O5  1  0.99195239  0.93566306  0.79000918  1
  O  O6  1  0.21600017  0.53685056  0.55713686  1
  O  O7  1  0.28399983  0.46314944  0.05713686  1
  O  O8  1  0.78399983  0.46314944  0.44286314  1
  O  O9  1  0.71600017  0.53685056  0.94286314  1
  O  O10  1  0.78632735  0.45338217  0.67082937  1
  O  O11  1  0.71367265  0.54661783  0.17082937  1
  O  O12  1  0.21367265  0.54661783  0.32917063  1
  O  O13  1  0.28632735  0.45338217  0.82917063  1
  O  O14  1  0.21851547  0.17958258  0.67025771  1
  O  O15  1  0.28148453  0.82041742  0.17025771  1
  O  O16  1  0.78148453  0.82041742  0.32974229  1
  O  O17  1  0.71851547  0.17958258  0.82974229  1
  O  O18  1  0.78308480  0.81726240  0.55692467  1
  O  O19  1  0.71691520  0.18273760  0.05692467  1
  O  O20  1  0.21691520  0.18273760  0.44307533  1
  O  O21  1  0.28308480  0.81726240  0.94307533  1
  O  O22  1  0.49966680  0.02946995  0.60473148  1
  O  O23  1  0.00033320  0.97053005  0.10473148  1
  O  O24  1  0.50033320  0.97053005  0.39526852  1
  O  O25  1  0.99966680  0.02946995  0.89526852  1
  Na  Na26  1  0.49782165  0.35004188  0.55389374  1
  Na  Na27  1  0.03326888  0.74939873  0.61115891  1
  Na  Na28  1  0.53304951  0.76581326  0.00027989  1
  Na  Na29  1  0.96695049  0.23418674  0.50027989  1
  Na  Na30  1  0.46695049  0.23418674  0.99972011  1
  Na  Na31  1  0.03304951  0.76581326  0.49972011  1
  Na  Na32  1  0.46502912  0.21971465  0.88754392  1
  Na  Na33  1  0.03497088  0.78028535  0.38754392  1
  Na  Na34  1  0.53497088  0.78028535  0.11245608  1
  Na  Na35  1  0.96502912  0.21971465  0.61245608  1
  Na  Na36  1  0.96673112  0.25060127  0.38884109  1
  Na  Na37  1  0.53326888  0.74939873  0.88884109  1
  Na  Na38  1  0.93929823  0.21185448  0.72441872  1
  Na  Na39  1  0.56070177  0.78814552  0.22441872  1
  Na  Na40  1  0.06070177  0.78814552  0.27558128  1
  Na  Na41  1  0.43929823  0.21185448  0.77558128  1
  Na  Na42  1  0.49278748  0.63064491  0.66015366  1
  Na  Na43  1  0.00721252  0.36935509  0.16015366  1
  Na  Na44  1  0.54883836  0.78714818  0.78152241  1
  Na  Na45  1  0.99278748  0.63064491  0.83984634  1
  Na  Na46  1  0.50721252  0.36935509  0.33984634  1
  Na  Na47  1  0.00217835  0.64995812  0.05389374  1
  Na  Na48  1  0.50217835  0.64995812  0.44610626  1
  Na  Na49  1  0.99782165  0.35004188  0.94610626  1
  Na  Na50  1  0.04883836  0.78714818  0.71847759  1
  Na  Na51  1  0.45116164  0.21285182  0.21847759  1
  Na  Na52  1  0.95116164  0.21285182  0.28152241  1
  Na  Na53  1  0.46673112  0.25060127  0.11115891  1
  Al  Al54  1  0.49995538  0.15482422  0.66517187  1
  Al  Al55  1  1.00004462  0.84517578  0.16517187  1
  Al  Al56  1  0.50004462  0.84517578  0.33482813  1
  Al  Al57  1  -0.00004462  0.15482422  0.83482813  1
  Al  Al58  1  0.49993148  0.83585646  0.55498243  1
  Al  Al59  1  1.00006852  0.16414354  0.05498243  1
  Al  Al60  1  0.50006852  0.16414354  0.44501757  1
  Al  Al61  1  -0.00006852  0.83585646  0.94501757  1
