# generated using pymatgen
data_Rb6Te2O9
_symmetry_space_group_name_H-M   'P 1'
_cell_length_a   8.91209123
_cell_length_b   8.91209122
_cell_length_c   11.22966096
_cell_angle_alpha   112.06831836
_cell_angle_beta   112.06831838
_cell_angle_gamma   92.94646643
_symmetry_Int_Tables_number   1
_chemical_formula_structural   Rb6Te2O9
_chemical_formula_sum   'Rb12 Te4 O18'
_cell_volume   746.51459199
_cell_formula_units_Z   2
loop_
 _symmetry_equiv_pos_site_id
 _symmetry_equiv_pos_as_xyz
  1  'x, y, z'
loop_
 _atom_site_type_symbol
 _atom_site_label
 _atom_site_symmetry_multiplicity
 _atom_site_fract_x
 _atom_site_fract_y
 _atom_site_fract_z
 _atom_site_occupancy
  O  O0  1  0.36645538  0.90691864  0.28481123  1
  O  O1  1  0.09308136  0.63354462  0.21518877  1
  O  O2  1  0.63354462  0.09308136  0.71518877  1
  O  O3  1  0.90691864  0.36645538  0.78481123  1
  O  O4  1  0.98659156  0.11454293  0.90703361  1
  O  O5  1  0.88545707  0.01340844  0.59296639  1
  O  O6  1  0.01340844  0.88545707  0.09296639  1
  O  O7  1  0.11454293  0.98659156  0.40703361  1
  O  O8  1  0.41707378  0.33120417  0.25579921  1
  O  O9  1  0.66879583  0.58292622  0.24420079  1
  O  O10  1  0.58292622  0.66879583  0.74420079  1
  O  O11  1  0.33120417  0.41707378  0.75579921  1
  O  O12  1  0.73649078  0.47958918  0.45773539  1
  O  O13  1  0.52041082  0.26350922  0.04226461  1
  O  O14  1  0.26350922  0.52041082  0.54226461  1
  O  O15  1  0.47958918  0.73649078  0.95773539  1
  O  O16  1  0.22572039  0.77427961  0.75000000  1
  O  O17  1  0.77427961  0.22572039  0.25000000  1
  Rb  Rb18  1  0.30322863  0.50089235  0.02297537  1
  Rb  Rb19  1  0.49910765  0.69677137  0.47702463  1
  Rb  Rb20  1  0.69677137  0.49910765  0.97702463  1
  Rb  Rb21  1  0.50089235  0.30322863  0.52297537  1
  Rb  Rb22  1  0.29426838  0.00041990  0.02772596  1
  Rb  Rb23  1  0.99958010  0.70573162  0.47227404  1
  Rb  Rb24  1  0.70573162  0.99958010  0.97227404  1
  Rb  Rb25  1  0.00041990  0.29426838  0.52772596  1
  Rb  Rb26  1  0.67580542  0.90082357  0.26109529  1
  Rb  Rb27  1  0.09917643  0.32419458  0.23890471  1
  Rb  Rb28  1  0.32419458  0.09917643  0.73890471  1
  Rb  Rb29  1  0.90082357  0.67580542  0.76109529  1
  Te  Te30  1  0.37420855  0.62579145  0.75000000  1
  Te  Te31  1  0.62579145  0.37420855  0.25000000  1
  Te  Te32  1  0.14591513  0.85408487  0.25000000  1
  Te  Te33  1  0.85408487  0.14591513  0.75000000  1
