# generated using pymatgen
data_Rb4(BS)9
_symmetry_space_group_name_H-M   'P 1'
_cell_length_a   10.18160252
_cell_length_b   10.34109792
_cell_length_c   10.80749358
_cell_angle_alpha   92.16177149
_cell_angle_beta   104.39460557
_cell_angle_gamma   109.63677983
_symmetry_Int_Tables_number   1
_chemical_formula_structural   Rb4(BS)9
_chemical_formula_sum   'Rb8 B18 S18'
_cell_volume   1028.87379375
_cell_formula_units_Z   2
loop_
 _symmetry_equiv_pos_site_id
 _symmetry_equiv_pos_as_xyz
  1  'x, y, z'
loop_
 _atom_site_type_symbol
 _atom_site_label
 _atom_site_symmetry_multiplicity
 _atom_site_fract_x
 _atom_site_fract_y
 _atom_site_fract_z
 _atom_site_occupancy
  B  B0  1  0.92617734  0.25863227  0.25396673  1
  B  B1  1  0.07382266  0.74136773  0.74603327  1
  B  B2  1  0.32990480  0.23594740  0.85606480  1
  B  B3  1  0.67009520  0.76405260  0.14393520  1
  B  B4  1  0.36323435  0.18038586  0.31199252  1
  B  B5  1  0.63676565  0.81961414  0.68800748  1
  B  B6  1  0.99085021  0.04107605  0.14851827  1
  B  B7  1  0.00914979  0.95892395  0.85148173  1
  B  B8  1  0.06199463  0.13515577  0.91773601  1
  B  B9  1  0.93800537  0.86484423  0.08226399  1
  B  B10  1  0.16747228  0.03358122  0.98126670  1
  B  B11  1  0.83252772  0.96641878  0.01873330  1
  B  B12  1  0.12641805  0.97621959  0.12589816  1
  B  B13  1  0.87358195  0.02378041  0.87410184  1
  B  B14  1  0.13232413  0.14334347  0.08805025  1
  B  B15  1  0.86767587  0.85665653  0.91194975  1
  B  B16  1  0.95146837  0.14026760  0.02296980  1
  B  B17  1  0.04853163  0.85973240  0.97703020  1
  S  S18  1  0.02536743  0.89226109  0.69578013  1
  S  S19  1  0.97463257  0.10773891  0.30421987  1
  S  S20  1  0.48583317  0.74226815  0.55115348  1
  S  S21  1  0.51416683  0.25773185  0.44884652  1
  S  S22  1  0.52687305  0.66010125  0.20273345  1
  S  S23  1  0.47312695  0.33989875  0.79726655  1
  S  S24  1  0.09672148  0.62839404  0.63361290  1
  S  S25  1  0.90327852  0.37160596  0.36638710  1
  S  S26  1  0.15941864  0.27278416  0.83181650  1
  S  S27  1  0.84058136  0.72721584  0.16818350  1
  S  S28  1  0.34607723  0.09030612  0.94460412  1
  S  S29  1  0.65392277  0.90969388  0.05539588  1
  S  S30  1  0.27708662  0.98838148  0.27159594  1
  S  S31  1  0.72291338  0.01161852  0.72840406  1
  S  S32  1  0.28531866  0.28538761  0.20237120  1
  S  S33  1  0.71468134  0.71461239  0.79762880  1
  S  S34  1  0.90790532  0.28873510  0.08231319  1
  S  S35  1  0.09209468  0.71126490  0.91768681  1
  Rb  Rb36  1  0.81839356  0.38044330  0.75213157  1
  Rb  Rb37  1  0.18160644  0.61955670  0.24786843  1
  Rb  Rb38  1  0.75168962  0.62264828  0.47083062  1
  Rb  Rb39  1  0.24831038  0.37735172  0.52916938  1
  Rb  Rb40  1  0.61418424  0.37372816  0.12904078  1
  Rb  Rb41  1  0.38581576  0.62627184  0.87095922  1
  Rb  Rb42  1  0.64696004  0.00726523  0.37483819  1
  Rb  Rb43  1  0.35303996  0.99273477  0.62516181  1
