# generated using pymatgen
data_PtCl3
_symmetry_space_group_name_H-M   'P 1'
_cell_length_a   13.09195419
_cell_length_b   13.09195420
_cell_length_c   13.09195420
_cell_angle_alpha   115.13172581
_cell_angle_beta   115.13172582
_cell_angle_gamma   115.13172584
_symmetry_Int_Tables_number   1
_chemical_formula_structural   PtCl3
_chemical_formula_sum   'Pt12 Cl36'
_cell_volume   1240.64436142
_cell_formula_units_Z   12
loop_
 _symmetry_equiv_pos_site_id
 _symmetry_equiv_pos_as_xyz
  1  'x, y, z'
loop_
 _atom_site_type_symbol
 _atom_site_label
 _atom_site_symmetry_multiplicity
 _atom_site_fract_x
 _atom_site_fract_y
 _atom_site_fract_z
 _atom_site_occupancy
  Cl  Cl0  1  0.46025688  0.85390530  0.62844148  1
  Cl  Cl1  1  0.85390530  0.62844148  0.46025688  1
  Cl  Cl2  1  0.62844148  0.46025688  0.85390530  1
  Cl  Cl3  1  0.53974312  0.14609470  0.37155852  1
  Cl  Cl4  1  0.14609470  0.37155852  0.53974312  1
  Cl  Cl5  1  0.37155852  0.53974312  0.14609470  1
  Cl  Cl6  1  0.16638725  0.65217194  0.24200100  1
  Cl  Cl7  1  0.65217194  0.24200100  0.16638725  1
  Cl  Cl8  1  0.24200100  0.16638725  0.65217194  1
  Cl  Cl9  1  0.83361275  0.34782806  0.75799900  1
  Cl  Cl10  1  0.34782806  0.75799900  0.83361275  1
  Cl  Cl11  1  0.75799900  0.83361275  0.34782806  1
  Cl  Cl12  1  0.09451204  0.07716067  0.82734855  1
  Cl  Cl13  1  0.82734855  0.09451204  0.07716067  1
  Cl  Cl14  1  0.07716067  0.82734855  0.09451204  1
  Cl  Cl15  1  0.90548796  0.92283933  0.17265145  1
  Cl  Cl16  1  0.17265145  0.90548796  0.92283933  1
  Cl  Cl17  1  0.92283933  0.17265145  0.90548796  1
  Cl  Cl18  1  0.39430882  0.29929814  0.22192898  1
  Cl  Cl19  1  0.22192898  0.39430882  0.29929814  1
  Cl  Cl20  1  0.29929814  0.22192898  0.39430882  1
  Cl  Cl21  1  0.60569118  0.70070186  0.77807102  1
  Cl  Cl22  1  0.77807102  0.60569118  0.70070186  1
  Cl  Cl23  1  0.70070186  0.77807102  0.60569118  1
  Cl  Cl24  1  0.44290011  0.60304678  0.95040485  1
  Cl  Cl25  1  0.95040485  0.44290011  0.60304678  1
  Cl  Cl26  1  0.60304678  0.95040485  0.44290011  1
  Cl  Cl27  1  0.55709989  0.39695322  0.04959515  1
  Cl  Cl28  1  0.04959515  0.55709989  0.39695322  1
  Cl  Cl29  1  0.39695322  0.04959515  0.55709989  1
  Cl  Cl30  1  0.69092347  0.02545179  0.27303917  1
  Cl  Cl31  1  0.27303917  0.69092347  0.02545179  1
  Cl  Cl32  1  0.02545179  0.27303917  0.69092347  1
  Cl  Cl33  1  0.30907653  0.97454821  0.72696083  1
  Cl  Cl34  1  0.72696083  0.30907653  0.97454821  1
  Cl  Cl35  1  0.97454821  0.72696083  0.30907653  1
  Pt  Pt36  1  0.22913305  0.80193351  0.47677007  1
  Pt  Pt37  1  0.80193351  0.47677007  0.22913305  1
  Pt  Pt38  1  0.47677007  0.22913305  0.80193351  1
  Pt  Pt39  1  0.77086695  0.19806649  0.52322993  1
  Pt  Pt40  1  0.19806649  0.52322993  0.77086695  1
  Pt  Pt41  1  0.52322993  0.77086695  0.19806649  1
  Pt  Pt42  1  0.75649470  0.93431313  0.83632600  1
  Pt  Pt43  1  0.93431313  0.83632600  0.75649470  1
  Pt  Pt44  1  0.83632600  0.75649470  0.93431313  1
  Pt  Pt45  1  0.24350530  0.06568687  0.16367400  1
  Pt  Pt46  1  0.06568687  0.16367400  0.24350530  1
  Pt  Pt47  1  0.16367400  0.24350530  0.06568687  1
