# generated using pymatgen
data_K6Si2O7
_symmetry_space_group_name_H-M   'P 1'
_cell_length_a   6.53329896
_cell_length_b   8.98621964
_cell_length_c   9.06405218
_cell_angle_alpha   90.00000000
_cell_angle_beta   91.49959512
_cell_angle_gamma   90.00000000
_symmetry_Int_Tables_number   1
_chemical_formula_structural   K6Si2O7
_chemical_formula_sum   'K12 Si4 O14'
_cell_volume   531.96516139
_cell_formula_units_Z   2
loop_
 _symmetry_equiv_pos_site_id
 _symmetry_equiv_pos_as_xyz
  1  'x, y, z'
loop_
 _atom_site_type_symbol
 _atom_site_label
 _atom_site_symmetry_multiplicity
 _atom_site_fract_x
 _atom_site_fract_y
 _atom_site_fract_z
 _atom_site_occupancy
  O  O0  1  0.50000000  0.00000000  0.00000000  1
  O  O1  1  0.95379983  0.58134135  0.21326536  1
  O  O2  1  0.54620017  0.08134135  0.28673464  1
  O  O3  1  0.04620017  0.41865865  0.78673464  1
  O  O4  1  0.00000000  0.50000000  0.50000000  1
  O  O5  1  0.79912969  0.84229096  0.87289531  1
  O  O6  1  0.70087031  0.34229096  0.62710469  1
  O  O7  1  0.20087031  0.15770904  0.12710469  1
  O  O8  1  0.29912969  0.65770904  0.37289531  1
  O  O9  1  0.43006923  0.71534907  0.93459873  1
  O  O10  1  0.06993077  0.21534907  0.56540127  1
  O  O11  1  0.56993077  0.28465093  0.06540127  1
  O  O12  1  0.93006923  0.78465093  0.43459873  1
  O  O13  1  0.45379983  0.91865865  0.71326536  1
  Si  Si14  1  0.45155364  0.13552436  0.12572208  1
  Si  Si15  1  0.95155364  0.36447564  0.62572208  1
  Si  Si16  1  0.54844636  0.86447564  0.87427792  1
  Si  Si17  1  0.04844636  0.63552436  0.37427792  1
  K  K18  1  0.75218503  0.02672963  0.54381521  1
  K  K19  1  0.25218503  0.47327037  0.04381521  1
  K  K20  1  0.24781497  0.97327037  0.45618479  1
  K  K21  1  0.11483936  0.85109100  0.08526796  1
  K  K22  1  0.38516064  0.35109100  0.41473204  1
  K  K23  1  0.88516064  0.14890900  0.91473204  1
  K  K24  1  0.61483936  0.64890900  0.58526796  1
  K  K25  1  0.61858821  0.78161991  0.22363593  1
  K  K26  1  0.88141179  0.28161991  0.27636407  1
  K  K27  1  0.38141179  0.21838009  0.77636407  1
  K  K28  1  0.11858821  0.71838009  0.72363593  1
  K  K29  1  0.74781497  0.52672963  0.95618479  1
