# generated using pymatgen
data_RbBi
_symmetry_space_group_name_H-M   'P 1'
_cell_length_a   7.65941571
_cell_length_b   14.22469957
_cell_length_c   15.14759978
_cell_angle_alpha   113.21788191
_cell_angle_beta   90.00000000
_cell_angle_gamma   90.00000000
_symmetry_Int_Tables_number   1
_chemical_formula_structural   RbBi
_chemical_formula_sum   'Rb16 Bi16'
_cell_volume   1516.71475432
_cell_formula_units_Z   16
loop_
 _symmetry_equiv_pos_site_id
 _symmetry_equiv_pos_as_xyz
  1  'x, y, z'
loop_
 _atom_site_type_symbol
 _atom_site_label
 _atom_site_symmetry_multiplicity
 _atom_site_fract_x
 _atom_site_fract_y
 _atom_site_fract_z
 _atom_site_occupancy
  Rb  Rb0  1  0.14225526  0.55042926  0.85184881  1
  Rb  Rb1  1  0.64225526  0.94957074  0.14815119  1
  Rb  Rb2  1  0.85774474  0.44957074  0.14815119  1
  Rb  Rb3  1  0.35774474  0.05042926  0.85184881  1
  Rb  Rb4  1  0.42277260  0.69035422  0.65656628  1
  Rb  Rb5  1  0.92277260  0.80964578  0.34343372  1
  Rb  Rb6  1  0.57722740  0.30964578  0.34343372  1
  Rb  Rb7  1  0.07722740  0.19035422  0.65656628  1
  Rb  Rb8  1  0.19518286  0.53507892  0.39576186  1
  Rb  Rb9  1  0.69518286  0.96492108  0.60423814  1
  Rb  Rb10  1  0.80481714  0.46492108  0.60423814  1
  Rb  Rb11  1  0.30481714  0.03507892  0.39576186  1
  Rb  Rb12  1  0.38291550  0.64537434  0.12482208  1
  Rb  Rb13  1  0.88291550  0.85462566  0.87517792  1
  Rb  Rb14  1  0.61708450  0.35462566  0.87517792  1
  Rb  Rb15  1  0.11708450  0.14537434  0.12482208  1
  Bi  Bi16  1  0.20092008  0.88020578  0.57313540  1
  Bi  Bi17  1  0.70092008  0.61979422  0.42686460  1
  Bi  Bi18  1  0.79907992  0.11979422  0.42686460  1
  Bi  Bi19  1  0.29907992  0.38020578  0.57313540  1
  Bi  Bi20  1  0.43416814  0.76969113  0.39828641  1
  Bi  Bi21  1  0.93416814  0.73030887  0.60171359  1
  Bi  Bi22  1  0.56583186  0.23030887  0.60171359  1
  Bi  Bi23  1  0.06583186  0.26969113  0.39828641  1
  Bi  Bi24  1  0.12587553  0.86256178  0.10331647  1
  Bi  Bi25  1  0.62587553  0.63743822  0.89668353  1
  Bi  Bi26  1  0.87412447  0.13743822  0.89668353  1
  Bi  Bi27  1  0.37412447  0.36256178  0.10331647  1
  Bi  Bi28  1  0.86678838  0.68643547  0.07064740  1
  Bi  Bi29  1  0.36678838  0.81356453  0.92935260  1
  Bi  Bi30  1  0.13321162  0.31356453  0.92935260  1
  Bi  Bi31  1  0.63321162  0.18643547  0.07064740  1
