# generated using pymatgen
data_Ca4Nb2O9
_symmetry_space_group_name_H-M   'P 1'
_cell_length_a   5.58739744
_cell_length_b   9.94388842
_cell_length_c   14.31452890
_cell_angle_alpha   91.13087723
_cell_angle_beta   90.00000000
_cell_angle_gamma   90.00000000
_symmetry_Int_Tables_number   1
_chemical_formula_structural   Ca4Nb2O9
_chemical_formula_sum   'Ca16 Nb8 O36'
_cell_volume   795.16685103
_cell_formula_units_Z   4
loop_
 _symmetry_equiv_pos_site_id
 _symmetry_equiv_pos_as_xyz
  1  'x, y, z'
loop_
 _atom_site_type_symbol
 _atom_site_label
 _atom_site_symmetry_multiplicity
 _atom_site_fract_x
 _atom_site_fract_y
 _atom_site_fract_z
 _atom_site_occupancy
  O  O0  1  0.38036484  0.66221420  0.60681043  1
  O  O1  1  0.61963516  0.33778580  0.39318957  1
  O  O2  1  0.11963516  0.16221420  0.10681043  1
  O  O3  1  0.88036484  0.83778580  0.89318957  1
  O  O4  1  0.11821582  0.80037504  0.42536662  1
  O  O5  1  0.61821582  0.69962496  0.07463338  1
  O  O6  1  0.88178418  0.19962496  0.57463338  1
  O  O7  1  0.38178418  0.30037504  0.92536662  1
  O  O8  1  0.90565335  0.51127749  0.23374517  1
  O  O9  1  0.40565335  0.98872251  0.26625483  1
  O  O10  1  0.09434665  0.48872251  0.76625483  1
  O  O11  1  0.59434665  0.01127749  0.73374517  1
  O  O12  1  0.79117795  0.13975540  0.90320549  1
  O  O13  1  0.29117795  0.36024460  0.59679451  1
  O  O14  1  0.20882205  0.86024460  0.09679451  1
  O  O15  1  0.32956542  0.12058186  0.44982828  1
  O  O16  1  0.28724785  0.76119082  0.78302298  1
  O  O17  1  0.78724785  0.73880918  0.71697702  1
  O  O18  1  0.71275215  0.23880918  0.21697702  1
  O  O19  1  0.21275215  0.26119082  0.28302298  1
  O  O20  1  0.19947248  0.20217130  0.75028384  1
  O  O21  1  0.69947248  0.29782870  0.74971616  1
  O  O22  1  0.80052752  0.79782870  0.24971616  1
  O  O23  1  0.30052752  0.70217130  0.25028384  1
  O  O24  1  0.70074467  0.56977754  0.87069202  1
  O  O25  1  0.20074467  0.93022246  0.62930798  1
  O  O26  1  0.29925533  0.43022246  0.12930798  1
  O  O27  1  0.79925533  0.06977754  0.37069202  1
  O  O28  1  0.32210607  0.01788283  0.89918782  1
  O  O29  1  0.82210607  0.48211717  0.60081218  1
  O  O30  1  0.67789393  0.98211717  0.10081218  1
  O  O31  1  0.17789393  0.51788283  0.39918782  1
  O  O32  1  0.17043458  0.62058186  0.94982828  1
  O  O33  1  0.67043458  0.87941814  0.55017172  1
  O  O34  1  0.82956542  0.37941814  0.05017172  1
  O  O35  1  0.70882205  0.63975540  0.40320549  1
  Ca  Ca36  1  0.00000000  0.00000000  0.00000000  1
  Ca  Ca37  1  0.52000210  0.84595568  0.39071010  1
  Ca  Ca38  1  0.02000210  0.65404432  0.10928990  1
  Ca  Ca39  1  0.47999790  0.15404432  0.60928990  1
  Ca  Ca40  1  0.97999790  0.34595568  0.89071010  1
  Ca  Ca41  1  0.99809866  0.01624887  0.22989195  1
  Ca  Ca42  1  0.49809866  0.48375113  0.27010805  1
  Ca  Ca43  1  0.00190134  0.98375113  0.77010805  1
  Ca  Ca44  1  0.00000000  0.00000000  0.50000000  1
  Ca  Ca45  1  0.50190134  0.51624887  0.72989195  1
  Ca  Ca46  1  0.50000000  0.50000000  0.00000000  1
  Ca  Ca47  1  0.50000000  0.50000000  0.50000000  1
  Ca  Ca48  1  0.48468567  0.80381196  0.92507194  1
  Ca  Ca49  1  0.98468567  0.69618804  0.57492806  1
  Ca  Ca50  1  0.51531433  0.19618804  0.07492806  1
  Ca  Ca51  1  0.01531433  0.30381196  0.42507194  1
  Nb  Nb52  1  0.50664953  0.16775247  0.33854647  1
  Nb  Nb53  1  0.98889659  0.33955256  0.66232853  1
  Nb  Nb54  1  0.48889659  0.16044744  0.83767147  1
  Nb  Nb55  1  0.01110341  0.66044744  0.33767147  1
  Nb  Nb56  1  0.51110341  0.83955256  0.16232853  1
  Nb  Nb57  1  0.99335047  0.66775247  0.83854647  1
  Nb  Nb58  1  0.49335047  0.83224753  0.66145353  1
  Nb  Nb59  1  0.00664953  0.33224753  0.16145353  1
