# generated using pymatgen
data_Sc5CCl8
_symmetry_space_group_name_H-M   'P 1'
_cell_length_a   3.54457443
_cell_length_b   9.27303102
_cell_length_c   9.63080451
_cell_angle_alpha   80.44372084
_cell_angle_beta   79.39583754
_cell_angle_gamma   78.98168597
_symmetry_Int_Tables_number   1
_chemical_formula_structural   Sc5CCl8
_chemical_formula_sum   'Sc5 C1 Cl8'
_cell_volume   302.59095664
_cell_formula_units_Z   1
loop_
 _symmetry_equiv_pos_site_id
 _symmetry_equiv_pos_as_xyz
  1  'x, y, z'
loop_
 _atom_site_type_symbol
 _atom_site_label
 _atom_site_symmetry_multiplicity
 _atom_site_fract_x
 _atom_site_fract_y
 _atom_site_fract_z
 _atom_site_occupancy
  C  C0  1  0.00000000  0.50000000  0.50000000  1
  Cl  Cl1  1  0.02826890  0.17930297  0.76415922  1
  Cl  Cl2  1  0.97173110  0.82069703  0.23584078  1
  Cl  Cl3  1  0.33018512  0.50847725  0.83115252  1
  Cl  Cl4  1  0.66981488  0.49152275  0.16884748  1
  Cl  Cl5  1  0.69756332  0.16963818  0.43523517  1
  Cl  Cl6  1  0.30243668  0.83036182  0.56476483  1
  Cl  Cl7  1  0.37092228  0.15680213  0.10135331  1
  Cl  Cl8  1  0.62907772  0.84319787  0.89864669  1
  Sc  Sc9  1  0.84189932  0.64596622  0.67023513  1
  Sc  Sc10  1  0.15810068  0.35403378  0.32976487  1
  Sc  Sc11  1  0.48839592  0.63619769  0.38701046  1
  Sc  Sc12  1  0.51160408  0.36380231  0.61298954  1
  Sc  Sc13  1  0.00000000  0.00000000  0.00000000  1
