# generated using pymatgen
data_ZrP2S7
_symmetry_space_group_name_H-M   'P 1'
_cell_length_a   8.85943772
_cell_length_b   8.85952177
_cell_length_c   15.80628446
_cell_angle_alpha   98.58086332
_cell_angle_beta   98.58063718
_cell_angle_gamma   117.87929616
_symmetry_Int_Tables_number   1
_chemical_formula_structural   ZrP2S7
_chemical_formula_sum   'Zr4 P8 S28'
_cell_volume   1049.78916769
_cell_formula_units_Z   4
loop_
 _symmetry_equiv_pos_site_id
 _symmetry_equiv_pos_as_xyz
  1  'x, y, z'
loop_
 _atom_site_type_symbol
 _atom_site_label
 _atom_site_symmetry_multiplicity
 _atom_site_fract_x
 _atom_site_fract_y
 _atom_site_fract_z
 _atom_site_occupancy
  P  P0  1  0.51003719  0.87957434  0.63451107  1
  P  P1  1  0.12447387  0.25493673  0.63451107  1
  P  P2  1  0.48996281  0.12042566  0.36548893  1
  P  P3  1  0.87552613  0.74506327  0.36548893  1
  P  P4  1  0.37957595  0.01004655  0.13450822  1
  P  P5  1  0.75493227  0.62446168  0.13450822  1
  P  P6  1  0.62042405  0.98995345  0.86549178  1
  P  P7  1  0.24506773  0.37553832  0.86549178  1
  S  S8  1  0.64533276  0.85467890  0.75000110  1
  S  S9  1  0.62055564  0.12385620  0.10427450  1
  S  S10  1  0.51628114  0.51958170  0.89572550  1
  S  S11  1  0.37944436  0.87614380  0.89572550  1
  S  S12  1  0.81273245  0.87635734  0.14325711  1
  S  S13  1  0.33052466  0.76689977  0.14325711  1
  S  S14  1  0.18726755  0.12364266  0.85674289  1
  S  S15  1  0.66947534  0.23310023  0.85674289  1
  S  S16  1  0.82199848  0.50614000  0.03938517  1
  S  S17  1  0.48371886  0.48041830  0.10427450  1
  S  S18  1  0.17800152  0.49386000  0.96061483  1
  S  S19  1  0.78261331  0.96675482  0.96061483  1
  S  S20  1  0.99387526  0.67799425  0.46061596  1
  S  S21  1  0.46674071  0.28262172  0.46061596  1
  S  S22  1  0.00612474  0.32200575  0.53938404  1
  S  S23  1  0.53325929  0.71737828  0.53938404  1
  S  S24  1  0.62367300  0.68726547  0.35674846  1
  S  S25  1  0.73307546  0.16948298  0.35674846  1
  S  S26  1  0.37632700  0.31273453  0.64325154  1
  S  S27  1  0.26692454  0.83051702  0.64325154  1
  S  S28  1  0.01958841  0.01629650  0.39572822  1
  S  S29  1  0.37613982  0.87943173  0.39572822  1
  S  S30  1  0.98041159  0.98370350  0.60427178  1
  S  S31  1  0.62386018  0.12056827  0.60427178  1
  S  S32  1  0.35466724  0.14532110  0.24999890  1
  S  S33  1  0.89533167  0.60467780  0.24999890  1
  S  S34  1  0.21738669  0.03324518  0.03938517  1
  S  S35  1  0.10466833  0.39532220  0.75000110  1
  Zr  Zr36  1  0.26318719  0.01318719  0.52637438  1
  Zr  Zr37  1  0.73681281  0.98681281  0.47362562  1
  Zr  Zr38  1  0.48681293  0.23681293  0.97362585  1
  Zr  Zr39  1  0.51318707  0.76318707  0.02637415  1
