# generated using pymatgen
data_LiMn3(BO3)3
_symmetry_space_group_name_H-M   'P 1'
_cell_length_a   12.84466950
_cell_length_b   5.34574800
_cell_length_c   6.11105977
_cell_angle_alpha   62.09558767
_cell_angle_beta   86.55182418
_cell_angle_gamma   90.11637625
_symmetry_Int_Tables_number   1
_chemical_formula_structural   LiMn3(BO3)3
_chemical_formula_sum   'Li2 Mn6 B6 O18'
_cell_volume   369.93556217
_cell_formula_units_Z   2
loop_
 _symmetry_equiv_pos_site_id
 _symmetry_equiv_pos_as_xyz
  1  'x, y, z'
loop_
 _atom_site_type_symbol
 _atom_site_label
 _atom_site_symmetry_multiplicity
 _atom_site_fract_x
 _atom_site_fract_y
 _atom_site_fract_z
 _atom_site_occupancy
  Li  Li0  1  0.26171928  0.12889797  0.06775625  1
  Li  Li1  1  0.73828072  0.87110203  0.93224375  1
  Mn  Mn2  1  0.12441104  0.61240868  0.14293599  1
  Mn  Mn3  1  0.19302060  0.01802032  0.56549339  1
  Mn  Mn4  1  0.52798112  0.68036768  0.21756182  1
  Mn  Mn5  1  0.47201888  0.31963232  0.78243818  1
  Mn  Mn6  1  0.80697940  0.98197968  0.43450661  1
  Mn  Mn7  1  0.87558896  0.38759132  0.85706401  1
  B  B8  1  0.02929246  0.07912545  0.20233153  1
  B  B9  1  0.30502499  0.60856269  0.43462505  1
  B  B10  1  0.64502026  0.28288166  0.08494004  1
  B  B11  1  0.35497974  0.71711834  0.91505996  1
  B  B12  1  0.69497501  0.39143731  0.56537495  1
  B  B13  1  0.97070754  0.92087455  0.79766847  1
  O  O14  1  0.02602544  0.80274502  0.25291254  1
  O  O15  1  0.12393294  0.21290695  0.19318538  1
  O  O16  1  0.06396562  0.77909699  0.81535591  1
  O  O17  1  0.21811006  0.45789604  0.42512954  1
  O  O18  1  0.30313135  0.87602519  0.39819878  1
  O  O19  1  0.40308021  0.46973465  0.46683619  1
  O  O20  1  0.55365849  0.14627986  0.07433839  1
  O  O21  1  0.26256023  0.85174761  0.91299556  1
  O  O22  1  0.64381121  0.54301967  0.08181717  1
  O  O23  1  0.35618879  0.45698033  0.91818283  1
  O  O24  1  0.73743977  0.14825239  0.08700444  1
  O  O25  1  0.44634151  0.85372014  0.92566161  1
  O  O26  1  0.59691979  0.53026535  0.53316381  1
  O  O27  1  0.69686865  0.12397481  0.60180122  1
  O  O28  1  0.78188994  0.54210396  0.57487046  1
  O  O29  1  0.93603438  0.22090301  0.18464409  1
  O  O30  1  0.87606706  0.78709305  0.80681462  1
  O  O31  1  0.97397456  0.19725498  0.74708746  1
