# generated using pymatgen
data_Ni3Te2
_symmetry_space_group_name_H-M   'P 1'
_cell_length_a   3.80376852
_cell_length_b   6.10262070
_cell_length_c   7.53718814
_cell_angle_alpha   91.59504071
_cell_angle_beta   90.00000000
_cell_angle_gamma   90.00000000
_symmetry_Int_Tables_number   1
_chemical_formula_structural   Ni3Te2
_chemical_formula_sum   'Ni6 Te4'
_cell_volume   174.89262826
_cell_formula_units_Z   2
loop_
 _symmetry_equiv_pos_site_id
 _symmetry_equiv_pos_as_xyz
  1  'x, y, z'
loop_
 _atom_site_type_symbol
 _atom_site_label
 _atom_site_symmetry_multiplicity
 _atom_site_fract_x
 _atom_site_fract_y
 _atom_site_fract_z
 _atom_site_occupancy
  Ni  Ni0  1  0.25000000  0.29030236  0.63520573  1
  Ni  Ni1  1  0.75000000  0.70969764  0.36479427  1
  Ni  Ni2  1  0.25000000  0.00772988  0.37111418  1
  Ni  Ni3  1  0.75000000  0.99227012  0.62888582  1
  Ni  Ni4  1  0.25000000  0.99382353  0.87688784  1
  Ni  Ni5  1  0.75000000  0.00617647  0.12311216  1
  Te  Te6  1  0.25000000  0.71940563  0.11905166  1
  Te  Te7  1  0.75000000  0.28059437  0.88094834  1
  Te  Te8  1  0.25000000  0.71263903  0.61765309  1
  Te  Te9  1  0.75000000  0.28736097  0.38234691  1
