# generated using pymatgen
data_P2Pb4O9
_symmetry_space_group_name_H-M   'P 1'
_cell_length_a   7.32000206
_cell_length_b   9.67316597
_cell_length_c   14.83321532
_cell_angle_alpha   104.15429770
_cell_angle_beta   90.00000000
_cell_angle_gamma   90.00000000
_symmetry_Int_Tables_number   1
_chemical_formula_structural   P2Pb4O9
_chemical_formula_sum   'P8 Pb16 O36'
_cell_volume   1018.41780988
_cell_formula_units_Z   4
loop_
 _symmetry_equiv_pos_site_id
 _symmetry_equiv_pos_as_xyz
  1  'x, y, z'
loop_
 _atom_site_type_symbol
 _atom_site_label
 _atom_site_symmetry_multiplicity
 _atom_site_fract_x
 _atom_site_fract_y
 _atom_site_fract_z
 _atom_site_occupancy
  O  O0  1  0.65096200  0.57266295  0.26786445  1
  O  O1  1  0.15096200  0.42733705  0.23213555  1
  O  O2  1  0.34903800  0.42733705  0.73213555  1
  O  O3  1  0.84903800  0.57266295  0.76786445  1
  O  O4  1  0.92097527  0.70509170  0.21563027  1
  O  O5  1  0.42097527  0.29490830  0.28436973  1
  O  O6  1  0.07902473  0.29490830  0.78436973  1
  O  O7  1  0.57902473  0.70509170  0.71563027  1
  O  O8  1  0.21656630  0.93712774  0.18767992  1
  O  O9  1  0.71656630  0.06287226  0.31232008  1
  O  O10  1  0.78343370  0.06287226  0.81232008  1
  O  O11  1  0.28343370  0.93712774  0.68767992  1
  O  O12  1  0.17544032  0.07901223  0.06290393  1
  O  O13  1  0.67544032  0.92098777  0.43709607  1
  O  O14  1  0.28920855  0.77406482  0.32441600  1
  O  O15  1  0.82455968  0.92098777  0.93709607  1
  O  O16  1  0.76053238  0.49626945  0.10163964  1
  O  O17  1  0.26053238  0.50373055  0.39836036  1
  O  O18  1  0.23946762  0.50373055  0.89836036  1
  O  O19  1  0.73946762  0.49626945  0.60163964  1
  O  O20  1  0.60239384  0.73761284  0.15906416  1
  O  O21  1  0.10239384  0.26238716  0.34093584  1
  O  O22  1  0.39760616  0.26238716  0.84093584  1
  O  O23  1  0.89760616  0.73761284  0.65906416  1
  O  O24  1  0.00805344  0.02629041  0.61123394  1
  O  O25  1  0.50805344  0.97370959  0.88876606  1
  O  O26  1  0.99194656  0.97370959  0.38876606  1
  O  O27  1  0.49194656  0.02629041  0.11123394  1
  O  O28  1  0.21247120  0.81934254  0.52397333  1
  O  O29  1  0.71247120  0.18065746  0.97602667  1
  O  O30  1  0.78752880  0.18065746  0.47602667  1
  O  O31  1  0.28752880  0.81934254  0.02397333  1
  O  O32  1  0.21079145  0.77406482  0.82441600  1
  O  O33  1  0.71079145  0.22593518  0.67558400  1
  O  O34  1  0.78920855  0.22593518  0.17558400  1
  O  O35  1  0.32455968  0.07901223  0.56290393  1
  P  P36  1  0.73561439  0.62719801  0.18573105  1
  P  P37  1  0.23561439  0.37280199  0.31426895  1
  P  P38  1  0.26438561  0.37280199  0.81426895  1
  P  P39  1  0.76438561  0.62719801  0.68573105  1
  P  P40  1  0.29228567  0.96781908  0.09460561  1
  P  P41  1  0.79228567  0.03218092  0.40539439  1
  P  P42  1  0.70771433  0.03218092  0.90539439  1
  P  P43  1  0.20771433  0.96781908  0.59460561  1
  Pb  Pb44  1  0.01633280  0.72082620  0.38524219  1
  Pb  Pb45  1  0.51633280  0.27917380  0.11475781  1
  Pb  Pb46  1  0.98366720  0.27917380  0.61475781  1
  Pb  Pb47  1  0.48366720  0.72082620  0.88524219  1
  Pb  Pb48  1  0.49602602  0.68912812  0.41095244  1
  Pb  Pb49  1  0.99602602  0.31087188  0.08904756  1
  Pb  Pb50  1  0.50397398  0.31087188  0.58904756  1
  Pb  Pb51  1  0.00397398  0.68912812  0.91095244  1
  Pb  Pb52  1  0.27143087  0.67906213  0.16698961  1
  Pb  Pb53  1  0.77143087  0.32093787  0.33301039  1
  Pb  Pb54  1  0.72856913  0.32093787  0.83301039  1
  Pb  Pb55  1  0.22856913  0.67906213  0.66698961  1
  Pb  Pb56  1  0.29237204  0.03995754  0.34895572  1
  Pb  Pb57  1  0.79237204  0.96004246  0.15104428  1
  Pb  Pb58  1  0.70762796  0.96004246  0.65104428  1
  Pb  Pb59  1  0.20762796  0.03995754  0.84895572  1
