# generated using pymatgen
data_Gd3ReO8
_symmetry_space_group_name_H-M   'P 1'
_cell_length_a   6.10584372
_cell_length_b   7.37097054
_cell_length_c   13.87212539
_cell_angle_alpha   98.35413560
_cell_angle_beta   90.00000000
_cell_angle_gamma   90.00000000
_symmetry_Int_Tables_number   1
_chemical_formula_structural   Gd3ReO8
_chemical_formula_sum   'Gd12 Re4 O32'
_cell_volume   617.70401250
_cell_formula_units_Z   4
loop_
 _symmetry_equiv_pos_site_id
 _symmetry_equiv_pos_as_xyz
  1  'x, y, z'
loop_
 _atom_site_type_symbol
 _atom_site_label
 _atom_site_symmetry_multiplicity
 _atom_site_fract_x
 _atom_site_fract_y
 _atom_site_fract_z
 _atom_site_occupancy
  O  O0  1  0.47157283  0.69381629  0.84120895  1
  O  O1  1  0.97157283  0.80618371  0.65879105  1
  O  O2  1  0.52842717  0.30618371  0.15879105  1
  O  O3  1  0.02842717  0.19381629  0.34120895  1
  O  O4  1  0.47184786  0.85879651  0.67302147  1
  O  O5  1  0.97184786  0.64120349  0.82697853  1
  O  O6  1  0.52815214  0.14120349  0.32697853  1
  O  O7  1  0.02815214  0.35879651  0.17302147  1
  O  O8  1  0.19648036  0.95463852  0.47952187  1
  O  O9  1  0.69648036  0.54536148  0.02047813  1
  O  O10  1  0.80351964  0.04536148  0.52047813  1
  O  O11  1  0.30351964  0.45463852  0.97952187  1
  O  O12  1  0.55234054  0.79020866  0.41163190  1
  O  O13  1  0.05234054  0.70979134  0.08836810  1
  O  O14  1  0.44765946  0.20979134  0.58836810  1
  O  O15  1  0.94765946  0.29020866  0.91163190  1
  O  O16  1  0.54335786  0.15231452  0.90363782  1
  O  O17  1  0.04335786  0.34768548  0.59636218  1
  O  O18  1  0.45664214  0.84768548  0.09636218  1
  O  O19  1  0.95664214  0.65231452  0.40363782  1
  O  O20  1  0.29464313  0.31850210  0.78768842  1
  O  O21  1  0.79464313  0.18149790  0.71231158  1
  O  O22  1  0.70535687  0.68149790  0.21231158  1
  O  O23  1  0.20535687  0.81850210  0.28768842  1
  O  O24  1  0.19633748  0.10676784  0.01891408  1
  O  O25  1  0.69633748  0.39323216  0.48108592  1
  O  O26  1  0.80366252  0.89323216  0.98108592  1
  O  O27  1  0.30366252  0.60676784  0.51891408  1
  O  O28  1  0.14808338  0.99891368  0.83045052  1
  O  O29  1  0.64808338  0.50108632  0.66954948  1
  O  O30  1  0.85191662  0.00108632  0.16954948  1
  O  O31  1  0.35191662  0.49891368  0.33045052  1
  Gd  Gd32  1  0.79911622  0.21494064  0.05466977  1
  Gd  Gd33  1  0.29911622  0.28505936  0.44533023  1
  Gd  Gd34  1  0.20088378  0.78505936  0.94533023  1
  Gd  Gd35  1  0.70088378  0.71494064  0.55466977  1
  Gd  Gd36  1  0.24144543  0.60603950  0.70145583  1
  Gd  Gd37  1  0.74144543  0.89396050  0.79854417  1
  Gd  Gd38  1  0.75855457  0.39396050  0.29854417  1
  Gd  Gd39  1  0.25855457  0.10603950  0.20145583  1
  Gd  Gd40  1  0.69074149  0.43976637  0.83258046  1
  Gd  Gd41  1  0.19074149  0.06023363  0.66741954  1
  Gd  Gd42  1  0.30925851  0.56023363  0.16741954  1
  Gd  Gd43  1  0.80925851  0.93976637  0.33258046  1
  Re  Re44  1  0.24613353  0.23096592  0.90970349  1
  Re  Re45  1  0.74613353  0.26903408  0.59029651  1
  Re  Re46  1  0.75386647  0.76903408  0.09029651  1
  Re  Re47  1  0.25386647  0.73096592  0.40970349  1
