# generated using pymatgen
data_Nd2Ni5B4
_symmetry_space_group_name_H-M   'P 1'
_cell_length_a   5.09494685
_cell_length_b   5.52416968
_cell_length_c   6.13345856
_cell_angle_alpha   70.88527781
_cell_angle_beta   65.45924200
_cell_angle_gamma   62.53863005
_symmetry_Int_Tables_number   1
_chemical_formula_structural   Nd2Ni5B4
_chemical_formula_sum   'Nd2 Ni5 B4'
_cell_volume   137.34991160
_cell_formula_units_Z   1
loop_
 _symmetry_equiv_pos_site_id
 _symmetry_equiv_pos_as_xyz
  1  'x, y, z'
loop_
 _atom_site_type_symbol
 _atom_site_label
 _atom_site_symmetry_multiplicity
 _atom_site_fract_x
 _atom_site_fract_y
 _atom_site_fract_z
 _atom_site_occupancy
  B  B0  1  0.59923395  0.94179091  0.85974120  1
  B  B1  1  0.40076605  0.05820909  0.14025880  1
  B  B2  1  0.22184158  0.39675620  0.15956064  1
  B  B3  1  0.77815842  0.60324380  0.84043936  1
  Ni  Ni4  1  0.32690701  0.72204299  0.12791541  1
  Ni  Ni5  1  0.67309299  0.27795701  0.87208459  1
  Ni  Ni6  1  0.00000000  0.50000000  0.50000000  1
  Ni  Ni7  1  0.82313459  0.72204299  0.12791541  1
  Ni  Ni8  1  0.17686541  0.27795701  0.87208459  1
  Nd  Nd9  1  0.72540506  0.19810640  0.35108347  1
  Nd  Nd10  1  0.27459494  0.80189360  0.64891653  1
