# generated using pymatgen
data_ZrTlF5
_symmetry_space_group_name_H-M   'P 1'
_cell_length_a   7.62900318
_cell_length_b   8.09064445
_cell_length_c   8.08783138
_cell_angle_alpha   90.00000000
_cell_angle_beta   116.67084276
_cell_angle_gamma   90.00000000
_symmetry_Int_Tables_number   1
_chemical_formula_structural   ZrTlF5
_chemical_formula_sum   'Zr4 Tl4 F20'
_cell_volume   446.09373577
_cell_formula_units_Z   4
loop_
 _symmetry_equiv_pos_site_id
 _symmetry_equiv_pos_as_xyz
  1  'x, y, z'
loop_
 _atom_site_type_symbol
 _atom_site_label
 _atom_site_symmetry_multiplicity
 _atom_site_fract_x
 _atom_site_fract_y
 _atom_site_fract_z
 _atom_site_occupancy
  F  F0  1  0.50456224  0.93593685  0.79103908  1
  F  F1  1  0.49543776  0.43593685  0.70896092  1
  F  F2  1  0.49543776  0.06406315  0.20896092  1
  F  F3  1  0.50456224  0.56406315  0.29103908  1
  F  F4  1  0.20318631  0.20582206  0.58975273  1
  F  F5  1  0.79681369  0.70582206  0.91024727  1
  F  F6  1  0.79681369  0.79417794  0.41024727  1
  F  F7  1  0.20318631  0.29417794  0.08975273  1
  F  F8  1  0.21922054  0.79055332  0.16214903  1
  F  F9  1  0.78077946  0.29055332  0.33785097  1
  F  F10  1  0.78077946  0.20944668  0.83785097  1
  F  F11  1  0.21922054  0.70944668  0.66214903  1
  F  F12  1  0.48718068  0.28958330  0.43376954  1
  F  F13  1  0.51281932  0.78958330  0.06623046  1
  F  F14  1  0.51281932  0.71041670  0.56623046  1
  F  F15  1  0.48718068  0.21041670  0.93376954  1
  F  F16  1  0.32445342  0.50529310  0.92814926  1
  F  F17  1  0.67554658  0.00529310  0.57185074  1
  F  F18  1  0.67554658  0.49470690  0.07185074  1
  F  F19  1  0.32445342  0.99470690  0.42814926  1
  Zr  Zr20  1  0.49203895  0.16198168  0.66044483  1
  Zr  Zr21  1  0.50796105  0.66198168  0.83955517  1
  Zr  Zr22  1  0.50796105  0.83801832  0.33955517  1
  Zr  Zr23  1  0.49203895  0.33801832  0.16044483  1
  Tl  Tl24  1  0.07034550  0.52998643  0.29489777  1
  Tl  Tl25  1  0.92965450  0.02998643  0.20510223  1
  Tl  Tl26  1  0.92965450  0.47001357  0.70510223  1
  Tl  Tl27  1  0.07034550  0.97001357  0.79489777  1
