# generated using pymatgen
data_As2Pb8O13
_symmetry_space_group_name_H-M   'P 1'
_cell_length_a   7.70319256
_cell_length_b   7.70319256
_cell_length_c   14.97911694
_cell_angle_alpha   84.36470795
_cell_angle_beta   84.36470795
_cell_angle_gamma   87.84882263
_symmetry_Int_Tables_number   1
_chemical_formula_structural   As2Pb8O13
_chemical_formula_sum   'As4 Pb16 O26'
_cell_volume   879.92855865
_cell_formula_units_Z   2
loop_
 _symmetry_equiv_pos_site_id
 _symmetry_equiv_pos_as_xyz
  1  'x, y, z'
loop_
 _atom_site_type_symbol
 _atom_site_label
 _atom_site_symmetry_multiplicity
 _atom_site_fract_x
 _atom_site_fract_y
 _atom_site_fract_z
 _atom_site_occupancy
  As  As0  1  0.84295505  0.84295505  0.09709202  1
  As  As1  1  0.74774361  0.25225639  0.50000000  1
  As  As2  1  0.25225639  0.74774361  0.50000000  1
  As  As3  1  0.15704495  0.15704495  0.90290798  1
  Pb  Pb4  1  0.73995608  0.73995608  0.51858537  1
  Pb  Pb5  1  0.43449177  0.43449177  0.71590192  1
  Pb  Pb6  1  0.16205784  0.66903210  0.90134449  1
  Pb  Pb7  1  0.33096790  0.83794216  0.09865551  1
  Pb  Pb8  1  0.26004392  0.26004392  0.48141463  1
  Pb  Pb9  1  0.92416906  0.92416906  0.70066844  1
  Pb  Pb10  1  0.92072381  0.45755890  0.70547207  1
  Pb  Pb11  1  0.83794216  0.33096790  0.09865551  1
  Pb  Pb12  1  0.56550823  0.56550823  0.28409808  1
  Pb  Pb13  1  0.54244110  0.07927619  0.29452793  1
  Pb  Pb14  1  0.67437804  0.67437804  0.88345921  1
  Pb  Pb15  1  0.32562196  0.32562196  0.11654079  1
  Pb  Pb16  1  0.45755890  0.92072381  0.70547207  1
  Pb  Pb17  1  0.07927619  0.54244110  0.29452793  1
  Pb  Pb18  1  0.07583094  0.07583094  0.29933156  1
  Pb  Pb19  1  0.66903210  0.16205784  0.90134449  1
  O  O20  1  0.22913990  0.96346193  0.85971167  1
  O  O21  1  0.05790924  0.73550802  0.56830747  1
  O  O22  1  0.14145906  0.14145906  0.01889229  1
  O  O23  1  0.66950775  0.95327136  0.80622142  1
  O  O24  1  0.68878487  0.68878487  0.13632279  1
  O  O25  1  0.26449198  0.94209076  0.43169253  1
  O  O26  1  0.03653807  0.77086010  0.14028833  1
  O  O27  1  0.26949624  0.57721795  0.43163608  1
  O  O28  1  0.27208123  0.27208123  0.33265661  1
  O  O29  1  0.39075585  0.67175966  0.79088035  1
  O  O30  1  0.60924415  0.32824034  0.20911965  1
  O  O31  1  0.32824034  0.60924415  0.20911965  1
  O  O32  1  0.04672864  0.33049225  0.19377858  1
  O  O33  1  0.33049225  0.04672864  0.19377858  1
  O  O34  1  0.57721795  0.26949624  0.43163608  1
  O  O35  1  0.31121513  0.31121513  0.86367721  1
  O  O36  1  0.85854094  0.85854094  0.98110771  1
  O  O37  1  0.95327136  0.66950775  0.80622142  1
  O  O38  1  0.72791877  0.72791877  0.66734339  1
  O  O39  1  0.96346193  0.22913990  0.85971167  1
  O  O40  1  0.77086010  0.03653807  0.14028833  1
  O  O41  1  0.67175966  0.39075585  0.79088035  1
  O  O42  1  0.73050376  0.42278205  0.56836392  1
  O  O43  1  0.94209076  0.26449198  0.43169253  1
  O  O44  1  0.42278205  0.73050376  0.56836392  1
  O  O45  1  0.73550802  0.05790924  0.56830747  1
