# generated using pymatgen
data_LiUN2
_symmetry_space_group_name_H-M   'P 1'
_cell_length_a   4.36837893
_cell_length_b   4.36837893
_cell_length_c   6.35412162
_cell_angle_alpha   110.10512721
_cell_angle_beta   110.10512727
_cell_angle_gamma   90.00000001
_symmetry_Int_Tables_number   1
_chemical_formula_structural   LiUN2
_chemical_formula_sum   'Li2 U2 N4'
_cell_volume   105.96244724
_cell_formula_units_Z   2
loop_
 _symmetry_equiv_pos_site_id
 _symmetry_equiv_pos_as_xyz
  1  'x, y, z'
loop_
 _atom_site_type_symbol
 _atom_site_label
 _atom_site_symmetry_multiplicity
 _atom_site_fract_x
 _atom_site_fract_y
 _atom_site_fract_z
 _atom_site_occupancy
  Li  Li0  1  0.12500000  0.37500000  0.75000000  1
  Li  Li1  1  0.87500000  0.62500000  0.25000000  1
  N  N2  1  0.41553164  0.66553164  0.33106328  1
  N  N3  1  0.16553164  0.91553164  0.83106328  1
  N  N4  1  0.83446836  0.08446836  0.16893672  1
  N  N5  1  0.58446836  0.33446836  0.66893672  1
  U  U6  1  0.62500000  0.87500000  0.75000000  1
  U  U7  1  0.37500000  0.12500000  0.25000000  1
