# generated using pymatgen
data_VS2N3Cl2
_symmetry_space_group_name_H-M   'P 1'
_cell_length_a   5.79645188
_cell_length_b   7.38449560
_cell_length_c   8.03199244
_cell_angle_alpha   95.06420008
_cell_angle_beta   98.93359009
_cell_angle_gamma   97.38317696
_symmetry_Int_Tables_number   1
_chemical_formula_structural   VS2N3Cl2
_chemical_formula_sum   'V2 S4 N6 Cl4'
_cell_volume   334.75228341
_cell_formula_units_Z   2
loop_
 _symmetry_equiv_pos_site_id
 _symmetry_equiv_pos_as_xyz
  1  'x, y, z'
loop_
 _atom_site_type_symbol
 _atom_site_label
 _atom_site_symmetry_multiplicity
 _atom_site_fract_x
 _atom_site_fract_y
 _atom_site_fract_z
 _atom_site_occupancy
  V  V0  1  0.75995317  0.85386352  0.02174534  1
  V  V1  1  0.24004683  0.14613648  0.97825466  1
  S  S2  1  0.74879322  0.63715662  0.33440541  1
  S  S3  1  0.82125787  0.12731747  0.68198714  1
  S  S4  1  0.25120678  0.36284338  0.66559459  1
  S  S5  1  0.17874213  0.87268253  0.31801286  1
  N  N6  1  0.98542447  0.26582545  0.59492843  1
  N  N7  1  0.05800941  0.92271291  0.13943141  1
  N  N8  1  0.01457553  0.73417455  0.40507157  1
  N  N9  1  0.65746099  0.70524687  0.15750809  1
  N  N10  1  0.34253901  0.29475313  0.84249191  1
  N  N11  1  0.94199059  0.07728709  0.86056859  1
  Cl  Cl12  1  0.37948074  0.88528725  0.83485626  1
  Cl  Cl13  1  0.19807320  0.35271685  0.19070177  1
  Cl  Cl14  1  0.62051926  0.11471275  0.16514374  1
  Cl  Cl15  1  0.80192680  0.64728315  0.80929823  1
