# generated using pymatgen
data_PrSi2Ru
_symmetry_space_group_name_H-M   'P 1'
_cell_length_a   4.09836018
_cell_length_b   4.52086361
_cell_length_c   8.34511755
_cell_angle_alpha   102.09593446
_cell_angle_beta   90.00000000
_cell_angle_gamma   90.00000000
_symmetry_Int_Tables_number   1
_chemical_formula_structural   PrSi2Ru
_chemical_formula_sum   'Pr2 Si4 Ru2'
_cell_volume   151.18655774
_cell_formula_units_Z   2
loop_
 _symmetry_equiv_pos_site_id
 _symmetry_equiv_pos_as_xyz
  1  'x, y, z'
loop_
 _atom_site_type_symbol
 _atom_site_label
 _atom_site_symmetry_multiplicity
 _atom_site_fract_x
 _atom_site_fract_y
 _atom_site_fract_z
 _atom_site_occupancy
  Si  Si0  1  0.25000000  0.66805116  0.49170858  1
  Si  Si1  1  0.75000000  0.33194884  0.50829142  1
  Si  Si2  1  0.75000000  0.96453877  0.90862866  1
  Si  Si3  1  0.25000000  0.03546123  0.09137134  1
  Ru  Ru4  1  0.75000000  0.87958353  0.61173712  1
  Ru  Ru5  1  0.25000000  0.12041647  0.38826288  1
  Pr  Pr6  1  0.25000000  0.41392699  0.79980952  1
  Pr  Pr7  1  0.75000000  0.58607301  0.20019048  1
