# generated using pymatgen
data_KHo2F7
_symmetry_space_group_name_H-M   'P 1'
_cell_length_a   8.05599942
_cell_length_b   8.26719053
_cell_length_c   10.61882522
_cell_angle_alpha   77.96673795
_cell_angle_beta   67.70803842
_cell_angle_gamma   60.84150528
_symmetry_Int_Tables_number   1
_chemical_formula_structural   KHo2F7
_chemical_formula_sum   'K4 Ho8 F28'
_cell_volume   571.19432147
_cell_formula_units_Z   4
loop_
 _symmetry_equiv_pos_site_id
 _symmetry_equiv_pos_as_xyz
  1  'x, y, z'
loop_
 _atom_site_type_symbol
 _atom_site_label
 _atom_site_symmetry_multiplicity
 _atom_site_fract_x
 _atom_site_fract_y
 _atom_site_fract_z
 _atom_site_occupancy
  K  K0  1  0.26986425  0.47867191  0.98159959  1
  K  K1  1  0.74588458  0.48825281  0.01997803  1
  K  K2  1  0.24312708  0.16595826  0.34778759  1
  K  K3  1  0.77541255  0.79403640  0.65513850  1
  Ho  Ho4  1  0.77006188  0.30389325  0.68120199  1
  Ho  Ho5  1  0.74862324  0.98353244  0.00085837  1
  Ho  Ho6  1  0.77216270  0.66059428  0.32014153  1
  Ho  Ho7  1  0.26698595  0.98353244  0.00085837  1
  Ho  Ho8  1  0.24484288  0.30389325  0.68120199  1
  Ho  Ho9  1  0.24965426  0.82116404  0.67952744  1
  Ho  Ho10  1  0.24710149  0.66059428  0.32014153  1
  Ho  Ho11  1  0.76720016  0.14320847  0.32239122  1
  F  F12  1  0.34368067  0.69738007  0.08558389  1
  F  F13  1  0.12638509  0.98160048  0.23738599  1
  F  F14  1  0.61192039  0.84862826  0.92753096  1
  F  F15  1  0.18742726  0.48226063  0.50092518  1
  F  F16  1  0.50455798  0.25940999  0.73147404  1
  F  F17  1  0.50660214  0.58874089  0.73934265  1
  F  F18  1  0.82938693  0.48226063  0.50092518  1
  F  F19  1  0.51042364  0.37728736  0.26317589  1
  F  F20  1  0.50426145  0.15675324  0.49953494  1
  F  F21  1  0.36284739  0.98412028  0.76414526  1
  F  F22  1  0.88888707  0.98412028  0.76414526  1
  F  F23  1  0.12229427  0.13588910  0.61952237  1
  F  F24  1  0.90234115  0.10705301  0.08826468  1
  F  F25  1  0.67153601  0.26921884  0.91573972  1
  F  F26  1  0.83945036  0.15675324  0.49953494  1
  F  F27  1  0.14350543  0.26921884  0.91573972  1
  F  F28  1  0.65462844  0.98160048  0.23738599  1
  F  F29  1  0.16531432  0.58874089  0.73934265  1
  F  F30  1  0.11099199  0.52582230  0.25219373  1
  F  F31  1  0.51173936  0.70843869  0.26808259  1
  F  F32  1  0.17890125  0.80653324  0.50190693  1
  F  F33  1  0.90626654  0.43756868  0.74989823  1
  F  F34  1  0.89492486  0.82793136  0.38221893  1
  F  F35  1  0.84911311  0.37728736  0.26317589  1
  F  F36  1  0.87335537  0.69738007  0.08558389  1
  F  F37  1  0.40343152  0.11866554  0.07447142  1
  F  F38  1  0.51265857  0.80653324  0.50190693  1
  F  F39  1  0.11294644  0.86127116  0.91283597  1
