# generated using pymatgen
data_Cl2O7
_symmetry_space_group_name_H-M   'P 1'
_cell_length_a   4.88140222
_cell_length_b   7.57342181
_cell_length_c   9.19218460
_cell_angle_alpha   110.58147300
_cell_angle_beta   90.00000000
_cell_angle_gamma   108.80037614
_symmetry_Int_Tables_number   1
_chemical_formula_structural   Cl2O7
_chemical_formula_sum   'Cl4 O14'
_cell_volume   298.69085049
_cell_formula_units_Z   2
loop_
 _symmetry_equiv_pos_site_id
 _symmetry_equiv_pos_as_xyz
  1  'x, y, z'
loop_
 _atom_site_type_symbol
 _atom_site_label
 _atom_site_symmetry_multiplicity
 _atom_site_fract_x
 _atom_site_fract_y
 _atom_site_fract_z
 _atom_site_occupancy
  O  O0  1  0.20193189  0.64922723  0.70538699  1
  O  O1  1  0.55270466  0.35077277  0.79461301  1
  O  O2  1  0.79806811  0.35077277  0.29461301  1
  O  O3  1  0.44729534  0.64922723  0.20538699  1
  O  O4  1  0.57953412  0.00000000  0.25000000  1
  O  O5  1  0.42046588  0.00000000  0.75000000  1
  O  O6  1  0.09445219  0.74388226  0.09519923  1
  O  O7  1  0.35056993  0.25611774  0.40480077  1
  O  O8  1  0.90554781  0.25611774  0.90480077  1
  O  O9  1  0.64943007  0.74388226  0.59519923  1
  O  O10  1  0.16353466  0.82478826  0.37303671  1
  O  O11  1  0.33874640  0.17521174  0.12696329  1
  O  O12  1  0.83646534  0.17521174  0.62696329  1
  O  O13  1  0.66125360  0.82478826  0.87303671  1
  Cl  Cl14  1  0.49656371  0.77957886  0.72857049  1
  Cl  Cl15  1  0.71698485  0.22042114  0.77142951  1
  Cl  Cl16  1  0.50343629  0.22042114  0.27142951  1
  Cl  Cl17  1  0.28301515  0.77957886  0.22857049  1
