# generated using pymatgen
data_Sc3(ReSi2)2
_symmetry_space_group_name_H-M   'P 1'
_cell_length_a   5.36574011
_cell_length_b   10.18690958
_cell_length_c   11.65996675
_cell_angle_alpha   77.65954473
_cell_angle_beta   76.69748654
_cell_angle_gamma   74.73020795
_symmetry_Int_Tables_number   1
_chemical_formula_structural   Sc3(ReSi2)2
_chemical_formula_sum   'Sc12 Si16 Re8'
_cell_volume   590.32802823
_cell_formula_units_Z   4
loop_
 _symmetry_equiv_pos_site_id
 _symmetry_equiv_pos_as_xyz
  1  'x, y, z'
loop_
 _atom_site_type_symbol
 _atom_site_label
 _atom_site_symmetry_multiplicity
 _atom_site_fract_x
 _atom_site_fract_y
 _atom_site_fract_z
 _atom_site_occupancy
  Si  Si0  1  0.88811457  0.25000000  0.75000000  1
  Si  Si1  1  0.11188543  0.75000000  0.25000000  1
  Si  Si2  1  0.36055556  0.25000000  0.75000000  1
  Si  Si3  1  0.63944444  0.75000000  0.25000000  1
  Si  Si4  1  0.77019530  0.10617566  0.12499820  1
  Si  Si5  1  1.00136917  0.39382434  0.37500180  1
  Si  Si6  1  0.22980470  0.89382434  0.87500180  1
  Si  Si7  1  -0.00136917  0.60617566  0.62499820  1
  Si  Si8  1  0.95125355  0.72290332  0.92799680  1
  Si  Si9  1  0.60215368  0.77709668  0.57200320  1
  Si  Si10  1  0.04874645  0.27709668  0.07200320  1
  Si  Si11  1  0.39784632  0.22290332  0.42799680  1
  Si  Si12  1  0.84786722  0.93496196  0.61025586  1
  Si  Si13  1  0.39308504  0.56503804  0.88974414  1
  Si  Si14  1  0.15213278  0.06503804  0.38974414  1
  Si  Si15  1  0.60691496  0.43496196  0.11025586  1
  Sc  Sc16  1  0.51911616  0.27974947  0.95358719  1
  Sc  Sc17  1  0.69764667  0.99416823  0.84216586  1
  Sc  Sc18  1  0.75245282  0.22025053  0.54641281  1
  Sc  Sc19  1  0.30235333  0.00583177  0.15783414  1
  Sc  Sc20  1  0.96406000  0.46748236  0.86101427  1
  Sc  Sc21  1  0.29255663  0.03251764  0.63898573  1
  Sc  Sc22  1  0.03594000  0.53251764  0.13898573  1
  Sc  Sc23  1  0.70744337  0.96748236  0.36101427  1
  Sc  Sc24  1  0.48088384  0.72025053  0.04641281  1
  Sc  Sc25  1  0.24754718  0.77974947  0.45358719  1
  Sc  Sc26  1  0.46601924  0.49416823  0.34216586  1
  Sc  Sc27  1  0.53398076  0.50583177  0.65783414  1
  Re  Re28  1  0.17317771  0.75467541  0.71721005  1
  Re  Re29  1  0.35493684  0.25467541  0.21721005  1
  Re  Re30  1  0.82682229  0.24532459  0.28278995  1
  Re  Re31  1  0.64506316  0.74532459  0.78278995  1
  Re  Re32  1  0.08760623  0.12767971  0.92316441  1
  Re  Re33  1  0.13845035  0.37232029  0.57683559  1
  Re  Re34  1  0.91239377  0.87232029  0.07683559  1
  Re  Re35  1  0.86154965  0.62767971  0.42316441  1
