# generated using pymatgen
data_KSb3O5
_symmetry_space_group_name_H-M   'P 1'
_cell_length_a   7.16264627
_cell_length_b   7.64022765
_cell_length_c   14.22058122
_cell_angle_alpha   90.00000000
_cell_angle_beta   90.00000000
_cell_angle_gamma   112.75128749
_symmetry_Int_Tables_number   1
_chemical_formula_structural   KSb3O5
_chemical_formula_sum   'K4 Sb12 O20'
_cell_volume   717.65982204
_cell_formula_units_Z   4
loop_
 _symmetry_equiv_pos_site_id
 _symmetry_equiv_pos_as_xyz
  1  'x, y, z'
loop_
 _atom_site_type_symbol
 _atom_site_label
 _atom_site_symmetry_multiplicity
 _atom_site_fract_x
 _atom_site_fract_y
 _atom_site_fract_z
 _atom_site_occupancy
  O  O0  1  0.71767115  0.89534514  0.86864024  1
  O  O1  1  0.78232885  0.60465486  0.36864024  1
  O  O2  1  0.28232885  0.10465486  0.13135976  1
  O  O3  1  0.21767115  0.39534514  0.63135976  1
  O  O4  1  0.95625438  0.28893115  0.84444604  1
  O  O5  1  0.54374562  0.21106885  0.34444604  1
  O  O6  1  0.04374562  0.71106885  0.15555396  1
  O  O7  1  0.45625438  0.78893115  0.65555396  1
  O  O8  1  0.81743241  0.56414863  0.90306555  1
  O  O9  1  0.68256759  0.93585137  0.40306555  1
  O  O10  1  0.18256759  0.43585137  0.09693445  1
  O  O11  1  0.31743241  0.06414863  0.59693445  1
  O  O12  1  0.60455992  0.40776146  0.54029096  1
  O  O13  1  0.89544008  0.09223854  0.04029096  1
  O  O14  1  0.39544008  0.59223854  0.45970904  1
  O  O15  1  0.10455992  0.90776146  0.95970904  1
  O  O16  1  0.03122844  0.64134664  0.72618161  1
  O  O17  1  0.46877156  0.85865336  0.22618161  1
  O  O18  1  0.96877156  0.35865336  0.27381839  1
  O  O19  1  0.53122844  0.14134664  0.77381839  1
  K  K20  1  0.10165188  0.05024542  0.75801867  1
  K  K21  1  0.39834812  0.44975458  0.25801867  1
  K  K22  1  0.89834812  0.94975458  0.24198133  1
  K  K23  1  0.60165188  0.55024542  0.74198133  1
  Sb  Sb24  1  0.82098925  0.36119031  0.39672668  1
  Sb  Sb25  1  0.67901075  0.13880969  0.89672668  1
  Sb  Sb26  1  0.17901075  0.63880969  0.60327332  1
  Sb  Sb27  1  0.32098925  0.86119031  0.10327332  1
  Sb  Sb28  1  0.80599487  0.79179721  0.98553900  1
  Sb  Sb29  1  0.69400513  0.70820279  0.48553900  1
  Sb  Sb30  1  0.19400513  0.20820279  0.01446100  1
  Sb  Sb31  1  0.30599487  0.29179721  0.51446100  1
  Sb  Sb32  1  0.41771644  0.92485924  0.35762034  1
  Sb  Sb33  1  0.08228356  0.57514076  0.85762034  1
  Sb  Sb34  1  0.58228356  0.07514076  0.64237966  1
  Sb  Sb35  1  0.91771644  0.42485924  0.14237966  1
