# generated using pymatgen
data_BeBr2
_symmetry_space_group_name_H-M   'P 1'
_cell_length_a   5.58694164
_cell_length_b   6.24985566
_cell_length_c   7.17775240
_cell_angle_alpha   115.80839441
_cell_angle_beta   112.90377337
_cell_angle_gamma   90.00000001
_symmetry_Int_Tables_number   1
_chemical_formula_structural   BeBr2
_chemical_formula_sum   'Be2 Br4'
_cell_volume   203.45738337
_cell_formula_units_Z   2
loop_
 _symmetry_equiv_pos_site_id
 _symmetry_equiv_pos_as_xyz
  1  'x, y, z'
loop_
 _atom_site_type_symbol
 _atom_site_label
 _atom_site_symmetry_multiplicity
 _atom_site_fract_x
 _atom_site_fract_y
 _atom_site_fract_z
 _atom_site_occupancy
  Be  Be0  1  0.25000000  0.00000000  0.00000000  1
  Be  Be1  1  0.75000000  0.00000000  0.00000000  1
  Br  Br2  1  0.10321264  0.29555451  0.20642527  1
  Br  Br3  1  0.89678736  0.70444549  0.79357473  1
  Br  Br4  1  0.39678736  0.08912923  0.79357473  1
  Br  Br5  1  0.60321264  0.91087077  0.20642527  1
