# generated using pymatgen
data_Mg3TeO6
_symmetry_space_group_name_H-M   'P 1'
_cell_length_a   6.11675025
_cell_length_b   6.11675025
_cell_length_c   6.11675026
_cell_angle_alpha   90.66936390
_cell_angle_beta   90.66936388
_cell_angle_gamma   90.66936395
_symmetry_Int_Tables_number   1
_chemical_formula_structural   Mg3TeO6
_chemical_formula_sum   'Mg6 Te2 O12'
_cell_volume   228.80874963
_cell_formula_units_Z   2
loop_
 _symmetry_equiv_pos_site_id
 _symmetry_equiv_pos_as_xyz
  1  'x, y, z'
loop_
 _atom_site_type_symbol
 _atom_site_label
 _atom_site_symmetry_multiplicity
 _atom_site_fract_x
 _atom_site_fract_y
 _atom_site_fract_z
 _atom_site_occupancy
  O  O0  1  0.40952031  0.54426365  0.19789585  1
  O  O1  1  0.54426365  0.19789585  0.40952031  1
  O  O2  1  0.19789585  0.40952031  0.54426365  1
  O  O3  1  0.59047969  0.45573635  0.80210415  1
  O  O4  1  0.45573635  0.80210415  0.59047969  1
  O  O5  1  0.80210415  0.59047969  0.45573635  1
  O  O6  1  0.93130729  0.07351056  0.69808497  1
  O  O7  1  0.07351056  0.69808497  0.93130729  1
  O  O8  1  0.30191503  0.06869271  0.92648944  1
  O  O9  1  0.92648944  0.30191503  0.06869271  1
  O  O10  1  0.06869271  0.92648944  0.30191503  1
  O  O11  1  0.69808497  0.93130729  0.07351056  1
  Mg  Mg12  1  0.44673113  0.75189663  0.93580829  1
  Mg  Mg13  1  0.93580829  0.44673113  0.75189663  1
  Mg  Mg14  1  0.24810337  0.06419171  0.55326887  1
  Mg  Mg15  1  0.06419171  0.55326887  0.24810337  1
  Mg  Mg16  1  0.55326887  0.24810337  0.06419171  1
  Mg  Mg17  1  0.75189663  0.93580829  0.44673113  1
  Te  Te18  1  0.00000000  0.00000000  0.00000000  1
  Te  Te19  1  0.50000000  0.50000000  0.50000000  1
