# generated using pymatgen
data_RbAuBr4
_symmetry_space_group_name_H-M   'P 1'
_cell_length_a   6.37477458
_cell_length_b   7.68337194
_cell_length_c   9.37470857
_cell_angle_alpha   100.96936232
_cell_angle_beta   90.00000000
_cell_angle_gamma   90.00000000
_symmetry_Int_Tables_number   1
_chemical_formula_structural   RbAuBr4
_chemical_formula_sum   'Rb2 Au2 Br8'
_cell_volume   450.78153476
_cell_formula_units_Z   2
loop_
 _symmetry_equiv_pos_site_id
 _symmetry_equiv_pos_as_xyz
  1  'x, y, z'
loop_
 _atom_site_type_symbol
 _atom_site_label
 _atom_site_symmetry_multiplicity
 _atom_site_fract_x
 _atom_site_fract_y
 _atom_site_fract_z
 _atom_site_occupancy
  Br  Br0  1  0.78140265  0.36852069  0.32988249  1
  Br  Br1  1  0.28140265  0.13147931  0.17011751  1
  Br  Br2  1  0.21859735  0.63147931  0.67011751  1
  Br  Br3  1  0.71859735  0.86852069  0.82988249  1
  Br  Br4  1  0.01504319  0.25878811  0.87852511  1
  Br  Br5  1  0.51504319  0.24121189  0.62147489  1
  Br  Br6  1  0.98495681  0.74121189  0.12147489  1
  Br  Br7  1  0.48495681  0.75878811  0.37852511  1
  Rb  Rb8  1  0.00000000  0.00000000  0.50000000  1
  Rb  Rb9  1  0.50000000  0.50000000  0.00000000  1
  Au  Au10  1  0.50000000  0.50000000  0.50000000  1
  Au  Au11  1  0.00000000  0.00000000  0.00000000  1
