# generated using pymatgen
data_Ba(IO3)2
_symmetry_space_group_name_H-M   'P 1'
_cell_length_a   7.58253620
_cell_length_b   7.58253620
_cell_length_c   7.96726767
_cell_angle_alpha   100.39142008
_cell_angle_beta   113.59950696
_cell_angle_gamma   112.94343111
_symmetry_Int_Tables_number   1
_chemical_formula_structural   Ba(IO3)2
_chemical_formula_sum   'Ba2 I4 O12'
_cell_volume   354.50930825
_cell_formula_units_Z   2
loop_
 _symmetry_equiv_pos_site_id
 _symmetry_equiv_pos_as_xyz
  1  'x, y, z'
loop_
 _atom_site_type_symbol
 _atom_site_label
 _atom_site_symmetry_multiplicity
 _atom_site_fract_x
 _atom_site_fract_y
 _atom_site_fract_z
 _atom_site_occupancy
  O  O0  1  0.64946786  0.24070250  0.57610620  1
  O  O1  1  0.16459630  0.07336166  0.92389380  1
  O  O2  1  0.35053214  0.75929750  0.42389380  1
  O  O3  1  0.83540370  0.92663834  0.07610620  1
  O  O4  1  0.54849553  0.40625896  0.85074672  1
  O  O5  1  0.05551224  0.69774882  0.64925328  1
  O  O6  1  0.90695856  0.28365474  -0.00829734  1
  O  O7  1  0.79195208  0.91525590  0.50829734  1
  O  O8  1  0.09304144  0.71634526  1.00829734  1
  O  O9  1  0.20804792  0.08474410  0.49170266  1
  O  O10  1  0.94448776  0.30225118  0.35074672  1
  O  O11  1  0.45150447  0.59374104  0.14925328  1
  I  I12  1  0.48512843  0.15599631  0.69317531  1
  I  I13  1  0.96282101  0.79195313  0.80682469  1
  I  I14  1  0.51487157  0.84400369  0.30682469  1
  I  I15  1  0.03717899  0.20804687  0.19317531  1
  Ba  Ba16  1  0.89481089  0.64481089  0.25000000  1
  Ba  Ba17  1  0.10518911  0.35518911  0.75000000  1
