# generated using pymatgen
data_Ho12InPt7
_symmetry_space_group_name_H-M   'P 1'
_cell_length_a   10.91414706
_cell_length_b   10.91414707
_cell_length_c   10.91414706
_cell_angle_alpha   97.02440078
_cell_angle_beta   116.03078366
_cell_angle_gamma   116.03078365
_symmetry_Int_Tables_number   1
_chemical_formula_structural   Ho12InPt7
_chemical_formula_sum   'Ho24 In2 Pt14'
_cell_volume   966.57443984
_cell_formula_units_Z   2
loop_
 _symmetry_equiv_pos_site_id
 _symmetry_equiv_pos_as_xyz
  1  'x, y, z'
loop_
 _atom_site_type_symbol
 _atom_site_label
 _atom_site_symmetry_multiplicity
 _atom_site_fract_x
 _atom_site_fract_y
 _atom_site_fract_z
 _atom_site_occupancy
  In  In0  1  0.00000000  0.50000000  0.50000000  1
  In  In1  1  0.00000000  0.00000000  0.00000000  1
  Ho  Ho2  1  0.13370070  0.85245121  0.57170973  1
  Ho  Ho3  1  0.13370070  0.56199097  0.28124950  1
  Ho  Ho4  1  0.86629930  0.14754879  0.42829027  1
  Ho  Ho5  1  0.71925853  0.93800903  0.07170973  1
  Ho  Ho6  1  0.71925853  0.28124950  0.14754879  1
  Ho  Ho7  1  0.28074147  0.42829027  0.56199097  1
  Ho  Ho8  1  0.71925853  0.64754879  0.78124950  1
  Ho  Ho9  1  0.13370070  0.78124950  0.06199097  1
  Ho  Ho10  1  0.86629930  0.92829027  0.64754879  1
  Ho  Ho11  1  0.86629930  0.43800903  0.71875050  1
  Ho  Ho12  1  0.85423475  0.67711737  0.17711737  1
  Ho  Ho13  1  0.28074147  0.06199097  0.92829027  1
  Ho  Ho14  1  0.28074147  0.71875050  0.85245121  1
  Ho  Ho15  1  0.71925853  0.57170973  0.43800903  1
  Ho  Ho16  1  0.50000000  0.63328094  0.13328094  1
  Ho  Ho17  1  0.50000000  0.13328094  0.63328094  1
  Ho  Ho18  1  0.50000000  0.86671906  0.36671906  1
  Ho  Ho19  1  0.50000000  0.36671906  0.86671906  1
  Ho  Ho20  1  0.50000000  0.17711737  0.32288263  1
  Ho  Ho21  1  0.86629930  0.21875050  0.93800903  1
  Ho  Ho22  1  0.50000000  0.82288263  0.67711737  1
  Ho  Ho23  1  0.14576525  0.32288263  0.82288263  1
  Ho  Ho24  1  0.28074147  0.35245121  0.21875050  1
  Ho  Ho25  1  0.13370070  0.07170973  0.35245121  1
  Pt  Pt26  1  0.50000000  0.02078543  0.86378540  1
  Pt  Pt27  1  0.50000000  0.97921457  0.13621460  1
  Pt  Pt28  1  0.50000000  0.63621460  0.47921457  1
  Pt  Pt29  1  0.15700003  0.52078543  0.02078543  1
  Pt  Pt30  1  0.15700003  0.13621460  0.63621460  1
  Pt  Pt31  1  0.84299997  0.47921457  0.97921457  1
  Pt  Pt32  1  0.75664617  0.12832309  0.62832309  1
  Pt  Pt33  1  0.50000000  0.62832309  0.87167691  1
  Pt  Pt34  1  0.50000000  0.37167691  0.12832309  1
  Pt  Pt35  1  0.24335383  0.87167691  0.37167691  1
  Pt  Pt36  1  0.00000000  0.25000000  0.25000000  1
  Pt  Pt37  1  0.00000000  0.75000000  0.75000000  1
  Pt  Pt38  1  0.50000000  0.36378540  0.52078543  1
  Pt  Pt39  1  0.84299997  0.86378540  0.36378540  1
