# generated using pymatgen
data_Ho3CrB7
_symmetry_space_group_name_H-M   'P 1'
_cell_length_a   3.42778029
_cell_length_b   8.06353828
_cell_length_c   9.32185694
_cell_angle_alpha   90.00000000
_cell_angle_beta   90.00000000
_cell_angle_gamma   102.27172226
_symmetry_Int_Tables_number   1
_chemical_formula_structural   Ho3CrB7
_chemical_formula_sum   'Ho6 Cr2 B14'
_cell_volume   251.76917874
_cell_formula_units_Z   2
loop_
 _symmetry_equiv_pos_site_id
 _symmetry_equiv_pos_as_xyz
  1  'x, y, z'
loop_
 _atom_site_type_symbol
 _atom_site_label
 _atom_site_symmetry_multiplicity
 _atom_site_fract_x
 _atom_site_fract_y
 _atom_site_fract_z
 _atom_site_occupancy
  B  B0  1  0.27285065  0.54570130  0.53222893  1
  B  B1  1  0.72714935  0.45429870  0.46777107  1
  B  B2  1  0.72714935  0.45429870  0.03222893  1
  B  B3  1  0.27285065  0.54570130  0.96777107  1
  B  B4  1  0.47882576  0.95765152  0.90368998  1
  B  B5  1  0.52117424  0.04234848  0.09631002  1
  B  B6  1  0.52117424  0.04234848  0.40368998  1
  B  B7  1  0.47882576  0.95765152  0.59631002  1
  B  B8  1  0.54096968  0.08193937  0.75000000  1
  B  B9  1  0.45903032  0.91806063  0.25000000  1
  B  B10  1  0.36886735  0.73773470  0.65131128  1
  B  B11  1  0.63113265  0.26226530  0.34868872  1
  B  B12  1  0.63113265  0.26226530  0.15131128  1
  B  B13  1  0.36886735  0.73773470  0.84868872  1
  Cr  Cr14  1  0.94672870  0.89345739  0.75000000  1
  Cr  Cr15  1  0.05327130  0.10654261  0.25000000  1
  Ho  Ho16  1  0.89507670  0.79015341  0.05971543  1
  Ho  Ho17  1  0.10492330  0.20984659  0.94028457  1
  Ho  Ho18  1  0.24148990  0.48297980  0.25000000  1
  Ho  Ho19  1  0.75851010  0.51702020  0.75000000  1
  Ho  Ho20  1  0.89507670  0.79015341  0.44028457  1
  Ho  Ho21  1  0.10492330  0.20984659  0.55971543  1
