# generated using pymatgen
data_Cr19O48
_symmetry_space_group_name_H-M   'P 1'
_cell_length_a   4.99918089
_cell_length_b   10.35602064
_cell_length_c   17.30467263
_cell_angle_alpha   90.23784213
_cell_angle_beta   90.44008395
_cell_angle_gamma   90.14223293
_symmetry_Int_Tables_number   1
_chemical_formula_structural   Cr19O48
_chemical_formula_sum   'Cr19 O48'
_cell_volume   895.85396542
_cell_formula_units_Z   1
loop_
 _symmetry_equiv_pos_site_id
 _symmetry_equiv_pos_as_xyz
  1  'x, y, z'
loop_
 _atom_site_type_symbol
 _atom_site_label
 _atom_site_symmetry_multiplicity
 _atom_site_fract_x
 _atom_site_fract_y
 _atom_site_fract_z
 _atom_site_occupancy
  Cr  Cr0  1  0.09935839  0.25321282  0.25320740  1
  Cr  Cr1  1  0.20571028  0.74913301  0.94545184  1
  Cr  Cr2  1  0.20848114  0.02097883  0.65822093  1
  Cr  Cr3  1  0.20666515  0.47384531  0.65147802  1
  Cr  Cr4  1  0.24612850  0.06819361  0.97300452  1
  Cr  Cr5  1  0.27790547  0.94045551  0.47552760  1
  Cr  Cr6  1  0.26957536  0.52740163  0.15441081  1
  Cr  Cr7  1  0.27912533  0.97185135  0.15582548  1
  Cr  Cr8  1  0.26391588  0.25429710  0.44549084  1
  Cr  Cr9  1  0.73460918  0.75348751  0.55351124  1
  Cr  Cr10  1  0.71836755  0.02621293  0.84446608  1
  Cr  Cr11  1  0.73874712  0.48085778  0.84387542  1
  Cr  Cr12  1  0.72006906  0.44021247  0.52187984  1
  Cr  Cr13  1  0.75054191  0.56402837  0.02609128  1
  Cr  Cr14  1  0.74438058  0.92630324  0.02816579  1
  Cr  Cr15  1  0.79192229  0.52424179  0.34235646  1
  Cr  Cr16  1  0.79182351  0.97534765  0.34750996  1
  Cr  Cr17  1  0.78879674  0.24399417  0.05612743  1
  Cr  Cr18  1  0.89421426  0.74817145  0.74117492  1
  O  O19  1  0.05215621  0.23178279  0.99755163  1
  O  O20  1  0.04707205  0.60677859  0.36982245  1
  O  O21  1  0.06304352  0.89494869  0.38565611  1
  O  O22  1  0.11491467  0.62492931  0.20867515  1
  O  O23  1  0.10855977  0.88067629  0.20912989  1
  O  O24  1  0.11537709  0.11456775  0.46751574  1
  O  O25  1  0.05044499  0.37006124  0.46799572  1
  O  O26  1  0.07762199  0.99995718  0.07181205  1
  O  O27  1  0.06859907  0.50146892  0.07616221  1
  O  O28  1  0.12942332  0.75161160  0.85367142  1
  O  O29  1  0.12406348  0.61328279  0.69742376  1
  O  O30  1  0.11913596  0.87816547  0.70695392  1
  O  O31  1  0.32747467  0.11396442  0.19910628  1
  O  O32  1  0.31576615  0.38300683  0.19852286  1
  O  O33  1  0.32245367  0.25527789  0.34984338  1
  O  O34  1  0.39114321  0.98280708  0.57578470  1
  O  O35  1  0.42908348  0.50464375  0.57764056  1
  O  O36  1  0.40106260  0.88640282  0.96794361  1
  O  O37  1  0.41695084  0.63554717  0.96839832  1
  O  O38  1  0.40457617  0.10645800  0.71210898  1
  O  O39  1  0.36195944  0.37986663  0.70779951  1
  O  O40  1  0.44257686  0.10395821  0.87720171  1
  O  O41  1  0.46231329  0.41269838  0.86687607  1
  O  O42  1  0.45750077  0.76956817  0.49924277  1
  O  O43  1  0.54258248  0.27060354  0.50040605  1
  O  O44  1  0.55734331  0.59710267  0.12182870  1
  O  O45  1  0.55603082  0.89321165  0.12465826  1
  O  O46  1  0.59520601  0.61329919  0.29124252  1
  O  O47  1  0.63609952  0.88156896  0.28972828  1
  O  O48  1  0.58252736  0.10873023  0.03492172  1
  O  O49  1  0.62405893  0.37677565  0.03435194  1
  O  O50  1  0.57332658  0.00538928  0.42189996  1
  O  O51  1  0.60448786  0.48169611  0.42518799  1
  O  O52  1  0.67323790  0.75579709  0.65069531  1
  O  O53  1  0.68778978  0.62701110  0.79179375  1
  O  O54  1  0.67324266  0.88388757  0.80028584  1
  O  O55  1  0.87935753  0.11056439  0.30128555  1
  O  O56  1  0.86867911  0.38458560  0.29427514  1
  O  O57  1  0.87769930  0.24229271  0.14761435  1
  O  O58  1  0.91020563  0.52618502  0.92674804  1
  O  O59  1  0.91494430  0.99001826  0.92913794  1
  O  O60  1  0.88630021  0.61502108  0.53264666  1
  O  O61  1  0.94711238  0.86957905  0.53259723  1
  O  O62  1  0.89974089  0.11904936  0.79528941  1
  O  O63  1  0.91817722  0.38287801  0.79510680  1
  O  O64  1  0.95464742  0.10405605  0.63243530  1
  O  O65  1  0.93336123  0.39535137  0.61417412  1
  O  O66  1  0.92505162  0.74929758  0.00761947  1
