# generated using pymatgen
data_Er(MnGe)6
_symmetry_space_group_name_H-M   'P 1'
_cell_length_a   5.17223671
_cell_length_b   5.17223670
_cell_length_c   8.13901224
_cell_angle_alpha   90.00000000
_cell_angle_beta   90.00000000
_cell_angle_gamma   119.99999998
_symmetry_Int_Tables_number   1
_chemical_formula_structural   Er(MnGe)6
_chemical_formula_sum   'Er1 Mn6 Ge6'
_cell_volume   188.56414556
_cell_formula_units_Z   1
loop_
 _symmetry_equiv_pos_site_id
 _symmetry_equiv_pos_as_xyz
  1  'x, y, z'
loop_
 _atom_site_type_symbol
 _atom_site_label
 _atom_site_symmetry_multiplicity
 _atom_site_fract_x
 _atom_site_fract_y
 _atom_site_fract_z
 _atom_site_occupancy
  Mn  Mn0  1  0.50000000  0.00000000  0.25052926  1
  Mn  Mn1  1  0.50000000  0.50000000  0.25052926  1
  Mn  Mn2  1  0.00000000  0.50000000  0.25052926  1
  Mn  Mn3  1  0.50000000  0.00000000  0.74947074  1
  Mn  Mn4  1  0.50000000  0.50000000  0.74947074  1
  Mn  Mn5  1  0.00000000  0.50000000  0.74947074  1
  Ge  Ge6  1  0.00000000  0.00000000  0.65633154  1
  Ge  Ge7  1  0.33333333  0.66666667  0.00000000  1
  Ge  Ge8  1  0.66666667  0.33333333  0.00000000  1
  Ge  Ge9  1  0.33333333  0.66666667  0.50000000  1
  Ge  Ge10  1  0.66666667  0.33333333  0.50000000  1
  Ge  Ge11  1  0.00000000  0.00000000  0.34366846  1
  Er  Er12  1  0.00000000  0.00000000  0.00000000  1
