# generated using pymatgen
data_TaSiAs
_symmetry_space_group_name_H-M   'P 1'
_cell_length_a   3.51477349
_cell_length_b   3.51477349
_cell_length_c   7.93310836
_cell_angle_alpha   90.00000000
_cell_angle_beta   90.00000000
_cell_angle_gamma   90.00000000
_symmetry_Int_Tables_number   1
_chemical_formula_structural   TaSiAs
_chemical_formula_sum   'Ta2 Si2 As2'
_cell_volume   98.00270674
_cell_formula_units_Z   2
loop_
 _symmetry_equiv_pos_site_id
 _symmetry_equiv_pos_as_xyz
  1  'x, y, z'
loop_
 _atom_site_type_symbol
 _atom_site_label
 _atom_site_symmetry_multiplicity
 _atom_site_fract_x
 _atom_site_fract_y
 _atom_site_fract_z
 _atom_site_occupancy
  Si  Si0  1  0.75000000  0.25000000  0.00000000  1
  Si  Si1  1  0.25000000  0.75000000  0.00000000  1
  As  As2  1  0.25000000  0.25000000  0.61232654  1
  As  As3  1  0.75000000  0.75000000  0.38767346  1
  Ta  Ta4  1  0.25000000  0.25000000  0.25341522  1
  Ta  Ta5  1  0.75000000  0.75000000  0.74658478  1
