# generated using pymatgen
data_SnGeS3
_symmetry_space_group_name_H-M   'P 1'
_cell_length_a   6.91930181
_cell_length_b   7.87961329
_cell_length_c   10.64013181
_cell_angle_alpha   90.00000000
_cell_angle_beta   90.00000000
_cell_angle_gamma   105.37338941
_symmetry_Int_Tables_number   1
_chemical_formula_structural   SnGeS3
_chemical_formula_sum   'Sn4 Ge4 S12'
_cell_volume   559.35781179
_cell_formula_units_Z   4
loop_
 _symmetry_equiv_pos_site_id
 _symmetry_equiv_pos_as_xyz
  1  'x, y, z'
loop_
 _atom_site_type_symbol
 _atom_site_label
 _atom_site_symmetry_multiplicity
 _atom_site_fract_x
 _atom_site_fract_y
 _atom_site_fract_z
 _atom_site_occupancy
  S  S0  1  0.09354352  0.94555605  0.83476877  1
  S  S1  1  0.79742399  0.48330377  0.23210069  1
  S  S2  1  0.70257601  0.51669623  0.73210069  1
  S  S3  1  0.20257601  0.51669623  0.76789931  1
  S  S4  1  0.92707627  0.20735624  0.47984699  1
  S  S5  1  0.57292373  0.79264376  0.97984699  1
  S  S6  1  0.07292373  0.79264376  0.52015301  1
  S  S7  1  0.42707627  0.20735624  0.02015301  1
  S  S8  1  0.90645648  0.05444395  0.16523123  1
  S  S9  1  0.59354352  0.94555605  0.66523123  1
  S  S10  1  0.40645648  0.05444395  0.33476877  1
  S  S11  1  0.29742399  0.48330377  0.26789931  1
  Ge  Ge12  1  0.98604217  0.29770525  0.28081054  1
  Ge  Ge13  1  0.48604217  0.29770525  0.21918946  1
  Ge  Ge14  1  0.01395783  0.70229475  0.71918946  1
  Ge  Ge15  1  0.51395783  0.70229475  0.78081054  1
  Sn  Sn16  1  0.27834862  0.11795060  0.56895749  1
  Sn  Sn17  1  0.22165138  0.88204940  0.06895749  1
  Sn  Sn18  1  0.72165138  0.88204940  0.43104251  1
  Sn  Sn19  1  0.77834862  0.11795060  0.93104251  1
