# generated using pymatgen
data_Sr4Ti3O10
_symmetry_space_group_name_H-M   'P 1'
_cell_length_a   3.94301143
_cell_length_b   3.94301144
_cell_length_c   14.46952951
_cell_angle_alpha   97.83103669
_cell_angle_beta   97.83103669
_cell_angle_gamma   89.99999997
_symmetry_Int_Tables_number   1
_chemical_formula_structural   Sr4Ti3O10
_chemical_formula_sum   'Sr4 Ti3 O10'
_cell_volume   220.74682163
_cell_formula_units_Z   1
loop_
 _symmetry_equiv_pos_site_id
 _symmetry_equiv_pos_as_xyz
  1  'x, y, z'
loop_
 _atom_site_type_symbol
 _atom_site_label
 _atom_site_symmetry_multiplicity
 _atom_site_fract_x
 _atom_site_fract_y
 _atom_site_fract_z
 _atom_site_occupancy
  O  O0  1  0.13888742  0.63888742  0.27777485  1
  O  O1  1  0.79066649  0.79066649  0.58133297  1
  O  O2  1  0.20933351  0.20933351  0.41866703  1
  O  O3  1  0.50000000  0.00000000  0.00000000  1
  O  O4  1  0.00000000  0.50000000  0.00000000  1
  O  O5  1  0.06940991  0.06940991  0.13881981  1
  O  O6  1  0.93059009  0.93059009  0.86118019  1
  O  O7  1  0.63888742  0.13888742  0.27777485  1
  O  O8  1  0.36111258  0.86111258  0.72222515  1
  O  O9  1  0.86111258  0.36111258  0.72222515  1
  Ti  Ti10  1  0.00000000  0.00000000  0.00000000  1
  Ti  Ti11  1  0.85984639  0.85984639  0.71969277  1
  Ti  Ti12  1  0.14015361  0.14015361  0.28030723  1
  Sr  Sr13  1  0.56833183  0.56833183  0.13666365  1
  Sr  Sr14  1  0.43166817  0.43166817  0.86333635  1
  Sr  Sr15  1  0.29773785  0.29773785  0.59547569  1
  Sr  Sr16  1  0.70226215  0.70226215  0.40452431  1
