# generated using pymatgen
data_TlAsS2
_symmetry_space_group_name_H-M   'P 1'
_cell_length_a   6.31962924
_cell_length_b   11.64452460
_cell_length_c   12.87164643
_cell_angle_alpha   90.00000000
_cell_angle_beta   102.67604688
_cell_angle_gamma   90.00000000
_symmetry_Int_Tables_number   1
_chemical_formula_structural   TlAsS2
_chemical_formula_sum   'Tl8 As8 S16'
_cell_volume   924.12558444
_cell_formula_units_Z   8
loop_
 _symmetry_equiv_pos_site_id
 _symmetry_equiv_pos_as_xyz
  1  'x, y, z'
loop_
 _atom_site_type_symbol
 _atom_site_label
 _atom_site_symmetry_multiplicity
 _atom_site_fract_x
 _atom_site_fract_y
 _atom_site_fract_z
 _atom_site_occupancy
  S  S0  1  0.40356208  0.78613893  0.82319390  1
  S  S1  1  0.58847677  0.46774155  0.31643836  1
  S  S2  1  0.91152323  0.96774155  0.18356164  1
  S  S3  1  0.41152323  0.53225845  0.68356164  1
  S  S4  1  0.08847677  0.03225845  0.81643836  1
  S  S5  1  0.90356208  0.71386107  0.32319390  1
  S  S6  1  0.59643792  0.21386107  0.17680610  1
  S  S7  1  0.09643792  0.28613893  0.67680610  1
  S  S8  1  0.58260749  0.31415003  0.87588871  1
  S  S9  1  0.91739251  0.81415003  0.62411129  1
  S  S10  1  0.41739251  0.68584997  0.12411129  1
  S  S11  1  0.54182859  0.93736338  0.34967928  1
  S  S12  1  0.04182859  0.56263662  0.84967928  1
  S  S13  1  0.45817141  0.06263662  0.65032072  1
  S  S14  1  0.95817141  0.43736338  0.15032072  1
  S  S15  1  0.08260749  0.18584997  0.37588871  1
  As  As16  1  0.46608813  0.33166796  0.70191295  1
  As  As17  1  0.89370305  0.91020668  0.35666526  1
  As  As18  1  0.60629695  0.41020668  0.14333474  1
  As  As19  1  0.10629695  0.08979332  0.64333474  1
  As  As20  1  0.39370305  0.58979332  0.85666526  1
  As  As21  1  0.53391187  0.66833204  0.29808705  1
  As  As22  1  0.96608813  0.16833204  0.20191295  1
  As  As23  1  0.03391187  0.83166796  0.79808705  1
  Tl  Tl24  1  0.09104816  0.32236073  0.94049468  1
  Tl  Tl25  1  0.40895184  0.82236073  0.55950532  1
  Tl  Tl26  1  0.90895184  0.67763927  0.05950532  1
  Tl  Tl27  1  0.59104816  0.17763927  0.44049468  1
  Tl  Tl28  1  0.62010531  0.05735609  0.88861764  1
  Tl  Tl29  1  0.87989469  0.55735609  0.61138236  1
  Tl  Tl30  1  0.37989469  0.94264391  0.11138236  1
  Tl  Tl31  1  0.12010531  0.44264391  0.38861764  1
