# generated using pymatgen
data_Pr2W2O9
_symmetry_space_group_name_H-M   'P 1'
_cell_length_a   7.81906916
_cell_length_b   9.40062480
_cell_length_c   10.06510575
_cell_angle_alpha   90.00000000
_cell_angle_beta   90.00000000
_cell_angle_gamma   107.61220652
_symmetry_Int_Tables_number   1
_chemical_formula_structural   Pr2W2O9
_chemical_formula_sum   'Pr8 W8 O36'
_cell_volume   705.14841896
_cell_formula_units_Z   4
loop_
 _symmetry_equiv_pos_site_id
 _symmetry_equiv_pos_as_xyz
  1  'x, y, z'
loop_
 _atom_site_type_symbol
 _atom_site_label
 _atom_site_symmetry_multiplicity
 _atom_site_fract_x
 _atom_site_fract_y
 _atom_site_fract_z
 _atom_site_occupancy
  O  O0  1  0.10028083  0.16243240  0.78170526  1
  O  O1  1  0.89971917  0.33756760  0.28170526  1
  O  O2  1  0.89971917  0.83756760  0.21829474  1
  O  O3  1  0.10028083  0.66243240  0.71829474  1
  O  O4  1  0.05473132  0.34553725  0.59257871  1
  O  O5  1  0.94526868  0.15446275  0.09257871  1
  O  O6  1  0.94526868  0.65446275  0.40742129  1
  O  O7  1  0.05473132  0.84553725  0.90742129  1
  O  O8  1  0.00598781  0.40242944  0.88041874  1
  O  O9  1  0.99401219  0.09757056  0.38041874  1
  O  O10  1  0.99401219  0.59757056  0.11958126  1
  O  O11  1  0.00598781  0.90242944  0.61958126  1
  O  O12  1  0.77459412  0.08224888  0.62321078  1
  O  O13  1  0.22540588  0.41775112  0.12321078  1
  O  O14  1  0.22540588  0.91775112  0.37678922  1
  O  O15  1  0.77459412  0.58224888  0.87678922  1
  O  O16  1  0.74400184  0.86035406  0.81385214  1
  O  O17  1  0.25599816  0.63964594  0.31385214  1
  O  O18  1  0.25599816  0.13964594  0.18614786  1
  O  O19  1  0.74400184  0.36035406  0.68614786  1
  O  O20  1  0.50148770  0.82570361  0.59920781  1
  O  O21  1  0.49851230  0.67429639  0.09920781  1
  O  O22  1  0.49851230  0.17429639  0.40079219  1
  O  O23  1  0.50148770  0.32570361  0.90079219  1
  O  O24  1  0.41145281  0.57019182  0.79095966  1
  O  O25  1  0.58854719  0.92980818  0.29095966  1
  O  O26  1  0.58854719  0.42980818  0.20904034  1
  O  O27  1  0.41145281  0.07019182  0.70904034  1
  O  O28  1  0.44670256  0.39121206  0.60440784  1
  O  O29  1  0.55329744  0.10878794  0.10440784  1
  O  O30  1  0.55329744  0.60878794  0.39559216  1
  O  O31  1  0.44670256  0.89121206  0.89559216  1
  O  O32  1  0.73545928  0.63760537  0.63476550  1
  O  O33  1  0.26454072  0.86239463  0.13476550  1
  O  O34  1  0.26454072  0.36239463  0.36523450  1
  O  O35  1  0.73545928  0.13760537  0.86523450  1
  Pr  Pr36  1  0.77307991  0.34872809  0.05392413  1
  Pr  Pr37  1  0.22692009  0.15127191  0.55392413  1
  Pr  Pr38  1  0.22692009  0.65127191  0.94607587  1
  Pr  Pr39  1  0.77307991  0.84872809  0.44607587  1
  Pr  Pr40  1  0.71405176  0.42443201  0.44903856  1
  Pr  Pr41  1  0.28594824  0.07556799  0.94903856  1
  Pr  Pr42  1  0.28594824  0.57556799  0.55096144  1
  Pr  Pr43  1  0.71405176  0.92443201  0.05096144  1
  W  W44  1  0.92765258  0.26101894  0.74853715  1
  W  W45  1  0.07234742  0.23898106  0.24853715  1
  W  W46  1  0.07234742  0.73898106  0.25146285  1
  W  W47  1  0.92765258  0.76101894  0.75146285  1
  W  W48  1  0.57943510  0.46672525  0.76846014  1
  W  W49  1  0.42056490  0.03327475  0.26846014  1
  W  W50  1  0.42056490  0.53327475  0.23153986  1
  W  W51  1  0.57943510  0.96672525  0.73153986  1
