# generated using pymatgen
data_CsGaS2
_symmetry_space_group_name_H-M   'P 1'
_cell_length_a   5.98443008
_cell_length_b   7.32003622
_cell_length_c   7.32003622
_cell_angle_alpha   116.58636205
_cell_angle_beta   101.58813436
_cell_angle_gamma   101.58813441
_symmetry_Int_Tables_number   1
_chemical_formula_structural   CsGaS2
_chemical_formula_sum   'Cs2 Ga2 S4'
_cell_volume   264.98570145
_cell_formula_units_Z   2
loop_
 _symmetry_equiv_pos_site_id
 _symmetry_equiv_pos_as_xyz
  1  'x, y, z'
loop_
 _atom_site_type_symbol
 _atom_site_label
 _atom_site_symmetry_multiplicity
 _atom_site_fract_x
 _atom_site_fract_y
 _atom_site_fract_z
 _atom_site_occupancy
  S  S0  1  0.40695962  0.92093841  0.72415136  1
  S  S1  1  0.09304038  0.27584864  0.07906159  1
  S  S2  1  0.90695962  0.72415136  0.92093841  1
  S  S3  1  0.59304038  0.07906159  0.27584864  1
  Ga  Ga4  1  0.75000000  0.00351327  0.99648673  1
  Ga  Ga5  1  0.25000000  0.99648673  0.00351327  1
  Cs  Cs6  1  0.25000000  0.35566555  0.64433445  1
  Cs  Cs7  1  0.75000000  0.64433445  0.35566555  1
