# generated using pymatgen
data_NaAsO2
_symmetry_space_group_name_H-M   'P 1'
_cell_length_a   5.17068523
_cell_length_b   6.79042426
_cell_length_c   15.90307643
_cell_angle_alpha   90.00000000
_cell_angle_beta   90.00000000
_cell_angle_gamma   90.00000000
_symmetry_Int_Tables_number   1
_chemical_formula_structural   NaAsO2
_chemical_formula_sum   'Na8 As8 O16'
_cell_volume   558.37524517
_cell_formula_units_Z   8
loop_
 _symmetry_equiv_pos_site_id
 _symmetry_equiv_pos_as_xyz
  1  'x, y, z'
loop_
 _atom_site_type_symbol
 _atom_site_label
 _atom_site_symmetry_multiplicity
 _atom_site_fract_x
 _atom_site_fract_y
 _atom_site_fract_z
 _atom_site_occupancy
  O  O0  1  0.08166303  0.31375204  0.88308272  1
  O  O1  1  0.58166303  0.68624796  0.61691728  1
  O  O2  1  0.41833697  0.81375204  0.11691728  1
  O  O3  1  0.91833697  0.18624796  0.38308272  1
  O  O4  1  0.91833697  0.68624796  0.11691728  1
  O  O5  1  0.41833697  0.31375204  0.38308272  1
  O  O6  1  0.58166303  0.18624796  0.88308272  1
  O  O7  1  0.08166303  0.81375204  0.61691728  1
  O  O8  1  0.21088114  0.92981873  0.91858113  1
  O  O9  1  0.71088114  0.07018127  0.58141887  1
  O  O10  1  0.28911886  0.42981873  0.08141887  1
  O  O11  1  0.21088114  0.42981873  0.58141887  1
  O  O12  1  0.78911886  0.07018127  0.08141887  1
  O  O13  1  0.28911886  0.92981873  0.41858113  1
  O  O14  1  0.71088114  0.57018127  0.91858113  1
  O  O15  1  0.78911886  0.57018127  0.41858113  1
  Na  Na16  1  0.24269015  0.09849528  0.05035958  1
  Na  Na17  1  0.74269015  0.40150472  0.05035958  1
  Na  Na18  1  0.25730985  0.09849528  0.55035958  1
  Na  Na19  1  0.75730985  0.90150472  0.94964042  1
  Na  Na20  1  0.75730985  0.40150472  0.55035958  1
  Na  Na21  1  0.25730985  0.59849528  0.94964042  1
  Na  Na22  1  0.74269015  0.90150472  0.44964042  1
  Na  Na23  1  0.24269015  0.59849528  0.44964042  1
  As  As24  1  0.26799674  0.59873112  0.66064923  1
  As  As25  1  0.76799674  0.40126888  0.83935077  1
  As  As26  1  0.23200326  0.09873112  0.33935077  1
  As  As27  1  0.73200326  0.90126888  0.16064923  1
  As  As28  1  0.73200326  0.40126888  0.33935077  1
  As  As29  1  0.23200326  0.59873112  0.16064923  1
  As  As30  1  0.76799674  0.90126888  0.66064923  1
  As  As31  1  0.26799674  0.09873112  0.83935077  1
