# generated using pymatgen
data_Nb6Si7Ni16
_symmetry_space_group_name_H-M   'P 1'
_cell_length_a   7.96203352
_cell_length_b   7.96203352
_cell_length_c   7.96203351
_cell_angle_alpha   59.99999998
_cell_angle_beta   59.99999999
_cell_angle_gamma   59.99999996
_symmetry_Int_Tables_number   1
_chemical_formula_structural   Nb6Si7Ni16
_chemical_formula_sum   'Nb6 Si7 Ni16'
_cell_volume   356.90859429
_cell_formula_units_Z   1
loop_
 _symmetry_equiv_pos_site_id
 _symmetry_equiv_pos_as_xyz
  1  'x, y, z'
loop_
 _atom_site_type_symbol
 _atom_site_label
 _atom_site_symmetry_multiplicity
 _atom_site_fract_x
 _atom_site_fract_y
 _atom_site_fract_z
 _atom_site_occupancy
  Si  Si0  1  0.50000000  0.50000000  0.50000000  1
  Si  Si1  1  0.50000000  0.00000000  0.50000000  1
  Si  Si2  1  0.00000000  0.50000000  0.00000000  1
  Si  Si3  1  0.00000000  0.50000000  0.50000000  1
  Si  Si4  1  0.50000000  0.50000000  0.00000000  1
  Si  Si5  1  0.00000000  0.00000000  0.50000000  1
  Si  Si6  1  0.50000000  0.00000000  0.00000000  1
  Ni  Ni7  1  0.83173650  0.83173650  0.50479049  1
  Ni  Ni8  1  0.50479049  0.83173650  0.83173650  1
  Ni  Ni9  1  0.83173650  0.50479049  0.83173650  1
  Ni  Ni10  1  0.49520951  0.16826350  0.16826350  1
  Ni  Ni11  1  0.16826350  0.49520951  0.16826350  1
  Ni  Ni12  1  0.16826350  0.16826350  0.49520951  1
  Ni  Ni13  1  0.83173650  0.83173650  0.83173650  1
  Ni  Ni14  1  0.38338903  0.38338903  0.38338903  1
  Ni  Ni15  1  0.61661097  0.61661097  0.15016708  1
  Ni  Ni16  1  0.15016708  0.61661097  0.61661097  1
  Ni  Ni17  1  0.61661097  0.15016708  0.61661097  1
  Ni  Ni18  1  0.84983292  0.38338903  0.38338903  1
  Ni  Ni19  1  0.38338903  0.84983292  0.38338903  1
  Ni  Ni20  1  0.38338903  0.38338903  0.84983292  1
  Ni  Ni21  1  0.61661097  0.61661097  0.61661097  1
  Ni  Ni22  1  0.16826350  0.16826350  0.16826350  1
  Nb  Nb23  1  0.20317563  0.79682437  0.79682437  1
  Nb  Nb24  1  0.20317563  0.79682437  0.20317563  1
  Nb  Nb25  1  0.79682437  0.20317563  0.79682437  1
  Nb  Nb26  1  0.20317563  0.20317563  0.79682437  1
  Nb  Nb27  1  0.79682437  0.79682437  0.20317563  1
  Nb  Nb28  1  0.79682437  0.20317563  0.20317563  1
