# generated using pymatgen
data_Li9Cr3P8O29
_symmetry_space_group_name_H-M   'P 1'
_cell_length_a   9.82530131
_cell_length_b   9.82533384
_cell_length_c   13.76217146
_cell_angle_alpha   90.00037774
_cell_angle_beta   90.00033162
_cell_angle_gamma   60.00025127
_symmetry_Int_Tables_number   1
_chemical_formula_structural   Li9Cr3P8O29
_chemical_formula_sum   'Li18 Cr6 P16 O58'
_cell_volume   1150.56693426
_cell_formula_units_Z   2
loop_
 _symmetry_equiv_pos_site_id
 _symmetry_equiv_pos_as_xyz
  1  'x, y, z'
loop_
 _atom_site_type_symbol
 _atom_site_label
 _atom_site_symmetry_multiplicity
 _atom_site_fract_x
 _atom_site_fract_y
 _atom_site_fract_z
 _atom_site_occupancy
  Li  Li0  1  0.10029057  0.23535098  0.56364790  1
  Li  Li1  1  0.89971312  0.76464180  0.43635168  1
  Li  Li2  1  0.76464704  0.89971054  0.93635351  1
  Li  Li3  1  0.89972011  0.33564152  0.93635149  1
  Li  Li4  1  0.66667563  0.66667656  0.12010396  1
  Li  Li5  1  0.66667719  0.66667705  0.62010058  1
  Li  Li6  1  0.76464378  0.33564328  0.43635619  1
  Li  Li7  1  0.23536214  0.10028916  0.06364988  1
  Li  Li8  1  0.10028917  0.66435597  0.06364587  1
  Li  Li9  1  0.33333387  0.33332632  0.37989996  1
  Li  Li10  1  0.00000128  0.99999652  0.50000166  1
  Li  Li11  1  0.00000131  0.00000145  0.99999979  1
  Li  Li12  1  0.33334656  0.33332460  0.87989861  1
  Li  Li13  1  0.23536349  0.66435091  0.56364596  1
  Li  Li14  1  0.66435143  0.10029280  0.56364636  1
  Li  Li15  1  0.33564477  0.76464656  0.93635485  1
  Li  Li16  1  0.66435912  0.23535358  0.06364818  1
  Li  Li17  1  0.33564411  0.89970926  0.43635517  1
  O  O18  1  0.78676330  0.99999987  0.25000083  1
  O  O19  1  0.89215659  0.62681598  0.66631715  1
  O  O20  1  0.74728980  0.92186687  0.65584102  1
  O  O21  1  0.77474780  0.99819375  0.43320946  1
  O  O22  1  0.92186210  0.74728848  0.15583913  1
  O  O23  1  0.99819781  0.77474171  0.93320835  1
  O  O24  1  0.99999998  0.21324009  0.25000108  1
  O  O25  1  0.00181141  0.22525385  0.06679215  1
  O  O26  1  0.07813766  0.25271597  0.84415135  1
  O  O27  1  0.22525622  0.00180648  0.56679052  1
  O  O28  1  0.25271158  0.07813628  0.34416319  1
  O  O29  1  0.10783754  0.37319373  0.33367666  1
  O  O30  1  0.18892683  0.32294598  0.66275327  1
  O  O31  1  0.10784693  0.51896875  0.83367556  1
  O  O32  1  0.00181699  0.77293548  0.56679042  1
  O  O33  1  0.00000496  0.78676144  0.75000012  1
  O  O34  1  0.07813529  0.66914535  0.34414874  1
  O  O35  1  0.32294234  0.18893027  0.16276985  1
  O  O36  1  0.37319483  0.10783699  0.83367780  1
  O  O37  1  0.18892346  0.48813327  0.16275314  1
  O  O38  1  0.33333188  0.33331166  0.01441433  1
  O  O39  1  0.33336176  0.33331766  0.51441418  1
  O  O40  1  0.32294775  0.48812986  0.66275612  1
  O  O41  1  0.51897046  0.10784926  0.33368501  1
  O  O42  1  0.48813719  0.18892677  0.66276544  1
  O  O43  1  0.25272033  0.66915176  0.84415338  1
  O  O44  1  0.21324761  0.78675384  0.24999998  1
  O  O45  1  0.22526754  0.77292812  0.06679242  1
  O  O46  1  0.22707120  0.77473579  0.43320835  1
  O  O47  1  0.37319639  0.51896389  0.33367685  1
  O  O48  1  0.48813184  0.32295070  0.16275423  1
  O  O49  1  0.33084962  0.74728507  0.65584294  1
  O  O50  1  0.51897144  0.37319205  0.83367976  1
  O  O51  1  0.66915446  0.07813330  0.84415333  1
  O  O52  1  0.21324183  0.99999831  0.74999994  1
  O  O53  1  0.22706180  0.99819652  0.93320779  1
  O  O54  1  0.77293722  0.00180913  0.06679218  1
  O  O55  1  0.92186930  0.33084738  0.65584241  1
  O  O56  1  0.33085119  0.92186820  0.15585044  1
  O  O57  1  0.48104577  0.62681542  0.16632033  1
  O  O58  1  0.66915874  0.25271694  0.34415345  1
  O  O59  1  0.51187400  0.67705585  0.83724910  1
  O  O60  1  0.62681846  0.48103922  0.66632049  1
  O  O61  1  0.77293011  0.22526058  0.56679184  1
  O  O62  1  0.77474855  0.22706324  0.93320921  1
  O  O63  1  0.78676177  0.21324489  0.75000168  1
  O  O64  1  0.74728776  0.33084491  0.15584406  1
  O  O65  1  0.51186584  0.81107320  0.33724646  1
  O  O66  1  0.48103527  0.89215002  0.66631719  1
  O  O67  1  0.89214636  0.48103348  0.16631474  1
  O  O68  1  0.66668878  0.66667577  0.98558935  1
  O  O69  1  0.66668502  0.66668000  0.48558775  1
  O  O70  1  0.81107572  0.51186679  0.83724435  1
  O  O71  1  0.62680884  0.89216069  0.16632601  1
  O  O72  1  0.67707036  0.81106713  0.83723658  1
  O  O73  1  0.81106836  0.67706775  0.33723163  1
  O  O74  1  0.99818917  0.22706558  0.43321032  1
  O  O75  1  0.67706327  0.51186972  0.33725055  1
  P  P76  1  0.68297606  0.22699404  0.84400776  1
  P  P77  1  0.77300532  0.31702821  0.65599297  1
  P  P78  1  0.66667528  0.66666712  0.87546607  1
  P  P79  1  0.66667083  0.66667142  0.37546878  1
  P  P80  1  0.90997412  0.31701807  0.15599046  1
  P  P81  1  0.77300424  0.90997183  0.15599345  1
  P  P82  1  0.09002949  0.22699698  0.34400982  1
  P  P83  1  0.22699510  0.09003218  0.84400712  1
  P  P84  1  0.09003626  0.68297257  0.84400556  1
  P  P85  1  0.33333350  0.33333089  0.12453677  1
  P  P86  1  0.33334197  0.33332936  0.62453447  1
  P  P87  1  0.22699748  0.68296487  0.34400492  1
  P  P88  1  0.31703146  0.77300604  0.15599342  1
  P  P89  1  0.68297791  0.09003593  0.34400805  1
  P  P90  1  0.31702628  0.90996657  0.65599234  1
  P  P91  1  0.90997324  0.77300684  0.65599183  1
  Cr  Cr92  1  0.43367885  -0.00000112  0.25001632  1
  Cr  Cr93  1  0.56632540  0.43369277  0.24999972  1
  Cr  Cr94  1  0.43368401  0.56631904  0.74998878  1
  Cr  Cr95  1  0.56632121  0.99998653  0.74999564  1
  Cr  Cr96  1  0.99997837  0.56631968  0.24999156  1
  Cr  Cr97  1  0.99999252  0.43369037  0.74999861  1
