# generated using pymatgen
data_AgPdF6
_symmetry_space_group_name_H-M   'P 1'
_cell_length_a   5.14239308
_cell_length_b   5.18804686
_cell_length_c   10.22831019
_cell_angle_alpha   76.61549783
_cell_angle_beta   77.07124136
_cell_angle_gamma   61.02806680
_symmetry_Int_Tables_number   1
_chemical_formula_structural   AgPdF6
_chemical_formula_sum   'Ag2 Pd2 F12'
_cell_volume   230.24171660
_cell_formula_units_Z   2
loop_
 _symmetry_equiv_pos_site_id
 _symmetry_equiv_pos_as_xyz
  1  'x, y, z'
loop_
 _atom_site_type_symbol
 _atom_site_label
 _atom_site_symmetry_multiplicity
 _atom_site_fract_x
 _atom_site_fract_y
 _atom_site_fract_z
 _atom_site_occupancy
  F  F0  1  0.96403132  0.47499559  0.36586495  1
  F  F1  1  0.03596868  0.52500441  0.63413505  1
  F  F2  1  0.63841711  0.94455935  0.13430917  1
  F  F3  1  0.36158289  0.05544065  0.86569083  1
  F  F4  1  0.66478201  0.44603784  0.86387150  1
  F  F5  1  0.33521799  0.55396216  0.13612850  1
  F  F6  1  0.97971989  0.73711386  0.86761769  1
  F  F7  1  0.02028011  0.26288614  0.13238231  1
  F  F8  1  0.43129180  0.81769377  0.63181487  1
  F  F9  1  0.56870820  0.18230623  0.36818513  1
  F  F10  1  0.75528758  0.12371559  0.63608753  1
  F  F11  1  0.24471242  0.87628441  0.36391247  1
  Pd  Pd12  1  0.29791399  0.21761460  0.25016317  1
  Pd  Pd13  1  0.70208601  0.78238540  0.74983683  1
  Ag  Ag14  1  0.50000000  0.50000000  0.50000000  1
  Ag  Ag15  1  0.00000000  0.00000000  0.00000000  1
