# generated using pymatgen
data_Cs2BeF4
_symmetry_space_group_name_H-M   'P 1'
_cell_length_a   6.25059587
_cell_length_b   8.28801443
_cell_length_c   10.93715526
_cell_angle_alpha   90.00000000
_cell_angle_beta   90.00000000
_cell_angle_gamma   90.00000000
_symmetry_Int_Tables_number   1
_chemical_formula_structural   Cs2BeF4
_chemical_formula_sum   'Cs8 Be4 F16'
_cell_volume   566.59964287
_cell_formula_units_Z   4
loop_
 _symmetry_equiv_pos_site_id
 _symmetry_equiv_pos_as_xyz
  1  'x, y, z'
loop_
 _atom_site_type_symbol
 _atom_site_label
 _atom_site_symmetry_multiplicity
 _atom_site_fract_x
 _atom_site_fract_y
 _atom_site_fract_z
 _atom_site_occupancy
  Be  Be0  1  0.75595405  0.75926564  0.58363526  1
  Be  Be1  1  0.25595405  0.74073436  0.08363526  1
  Be  Be2  1  0.75595405  0.25926564  0.91636474  1
  Be  Be3  1  0.25595405  0.24073436  0.41636474  1
  F  F4  1  0.25721675  0.55188088  0.08832890  1
  F  F5  1  0.75721675  0.44811912  0.91167110  1
  F  F6  1  0.75721675  0.94811912  0.58832890  1
  F  F7  1  0.25721675  0.05188088  0.41167110  1
  F  F8  1  0.75592837  0.19519109  0.05291847  1
  F  F9  1  0.75592837  0.69519109  0.44708153  1
  F  F10  1  0.25592837  0.80480891  0.94708153  1
  F  F11  1  0.25592837  0.30480891  0.55291847  1
  F  F12  1  0.46170655  0.30847533  0.35051387  1
  F  F13  1  0.96170655  0.69152467  0.64948613  1
  F  F14  1  0.96170655  0.19152467  0.85051387  1
  F  F15  1  0.46170655  0.80847533  0.14948613  1
  F  F16  1  0.04924391  0.30706043  0.35075804  1
  F  F17  1  0.54924391  0.69293957  0.64924196  1
  F  F18  1  0.54924391  0.19293957  0.85075804  1
  F  F19  1  0.04924391  0.80706043  0.14924196  1
  Cs  Cs20  1  0.75541609  0.51086815  0.18886179  1
  Cs  Cs21  1  0.25541609  0.48913185  0.81113821  1
  Cs  Cs22  1  0.25541609  0.98913185  0.68886179  1
  Cs  Cs23  1  0.75541609  0.01086815  0.31113821  1
  Cs  Cs24  1  0.25553427  0.66257856  0.40723713  1
  Cs  Cs25  1  0.75553427  0.33742144  0.59276287  1
  Cs  Cs26  1  0.75553427  0.83742144  0.90723713  1
  Cs  Cs27  1  0.25553427  0.16257856  0.09276287  1
