# generated using pymatgen
data_SrTm2O4
_symmetry_space_group_name_H-M   'P 1'
_cell_length_a   3.37303017
_cell_length_b   10.07191440
_cell_length_c   11.85069724
_cell_angle_alpha   90.00000000
_cell_angle_beta   90.00000000
_cell_angle_gamma   90.00000000
_symmetry_Int_Tables_number   1
_chemical_formula_structural   SrTm2O4
_chemical_formula_sum   'Sr4 Tm8 O16'
_cell_volume   402.60221026
_cell_formula_units_Z   4
loop_
 _symmetry_equiv_pos_site_id
 _symmetry_equiv_pos_as_xyz
  1  'x, y, z'
loop_
 _atom_site_type_symbol
 _atom_site_label
 _atom_site_symmetry_multiplicity
 _atom_site_fract_x
 _atom_site_fract_y
 _atom_site_fract_z
 _atom_site_occupancy
  O  O0  1  0.25000000  0.07505275  0.07616984  1
  O  O1  1  0.75000000  0.92494725  0.92383016  1
  O  O2  1  0.25000000  0.57505275  0.42383016  1
  O  O3  1  0.75000000  0.42494725  0.57616984  1
  O  O4  1  0.25000000  0.98240710  0.71640884  1
  O  O5  1  0.75000000  0.01759290  0.28359116  1
  O  O6  1  0.25000000  0.48240710  0.78359116  1
  O  O7  1  0.75000000  0.51759290  0.21640884  1
  O  O8  1  0.25000000  0.37785391  0.02052009  1
  O  O9  1  0.75000000  0.62214609  0.97947991  1
  O  O10  1  0.25000000  0.87785391  0.47947991  1
  O  O11  1  0.75000000  0.12214609  0.52052009  1
  O  O12  1  0.75000000  0.20983819  0.83010519  1
  O  O13  1  0.25000000  0.79016181  0.16989481  1
  O  O14  1  0.75000000  0.70983819  0.66989481  1
  O  O15  1  0.25000000  0.29016181  0.33010519  1
  Sr  Sr16  1  0.75000000  0.75381268  0.35031202  1
  Sr  Sr17  1  0.25000000  0.24618732  0.64968798  1
  Sr  Sr18  1  0.75000000  0.25381268  0.14968798  1
  Sr  Sr19  1  0.25000000  0.74618732  0.85031202  1
  Tm  Tm20  1  0.25000000  0.07821233  0.39061821  1
  Tm  Tm21  1  0.75000000  0.92178767  0.60938179  1
  Tm  Tm22  1  0.25000000  0.57821233  0.10938179  1
  Tm  Tm23  1  0.75000000  0.42178767  0.89061821  1
  Tm  Tm24  1  0.75000000  0.42602318  0.38777165  1
  Tm  Tm25  1  0.25000000  0.57397682  0.61222835  1
  Tm  Tm26  1  0.75000000  0.92602318  0.11222835  1
  Tm  Tm27  1  0.25000000  0.07397682  0.88777165  1
