# generated using pymatgen
data_Li2Ni2S3
_symmetry_space_group_name_H-M   'P 1'
_cell_length_a   8.83888490
_cell_length_b   8.83888490
_cell_length_c   6.40988470
_cell_angle_alpha   69.72774710
_cell_angle_beta   69.72774710
_cell_angle_gamma   84.68451771
_symmetry_Int_Tables_number   1
_chemical_formula_structural   Li2Ni2S3
_chemical_formula_sum   'Li8 Ni8 S12'
_cell_volume   440.44601813
_cell_formula_units_Z   4
loop_
 _symmetry_equiv_pos_site_id
 _symmetry_equiv_pos_as_xyz
  1  'x, y, z'
loop_
 _atom_site_type_symbol
 _atom_site_label
 _atom_site_symmetry_multiplicity
 _atom_site_fract_x
 _atom_site_fract_y
 _atom_site_fract_z
 _atom_site_occupancy
  Li  Li0  1  0.95940654  0.79673520  0.07780559  1
  Li  Li1  1  0.79673520  0.95940654  0.57780559  1
  Li  Li2  1  0.72019972  0.27980028  0.25000000  1
  Li  Li3  1  0.43700262  0.56299738  0.25000000  1
  Li  Li4  1  0.56299738  0.43700262  0.75000000  1
  Li  Li5  1  0.27980028  0.72019972  0.75000000  1
  Li  Li6  1  0.20326480  0.04059346  0.42219441  1
  Li  Li7  1  0.04059346  0.20326480  0.92219441  1
  Ni  Ni8  1  0.61515200  0.78286551  0.39194574  1
  Ni  Ni9  1  0.92289495  0.43870103  0.39692636  1
  Ni  Ni10  1  0.78286551  0.61515200  0.89194574  1
  Ni  Ni11  1  0.43870103  0.92289495  0.89692636  1
  Ni  Ni12  1  0.56129897  0.07710505  0.10307364  1
  Ni  Ni13  1  0.21713449  0.38484800  0.10805426  1
  Ni  Ni14  1  0.07710505  0.56129897  0.60307364  1
  Ni  Ni15  1  0.38484800  0.21713449  0.60805426  1
  S  S16  1  0.72797909  0.57834474  0.27033550  1
  S  S17  1  0.40816436  0.85305640  0.27443030  1
  S  S18  1  0.57834474  0.72797909  0.77033550  1
  S  S19  1  0.85305640  0.40816436  0.77443030  1
  S  S20  1  0.78057598  0.00313740  0.18760847  1
  S  S21  1  0.21942402  0.99686260  0.81239153  1
  S  S22  1  0.14694360  0.59183564  0.22556970  1
  S  S23  1  0.42165526  0.27202091  0.22966450  1
  S  S24  1  0.00313740  0.78057598  0.68760847  1
  S  S25  1  0.59183564  0.14694360  0.72556970  1
  S  S26  1  0.27202091  0.42165526  0.72966450  1
  S  S27  1  0.99686260  0.21942402  0.31239153  1
