# generated using pymatgen
data_Bi3Ru3O11
_symmetry_space_group_name_H-M   'P 1'
_cell_length_a   9.40169410
_cell_length_b   9.40169410
_cell_length_c   9.40169410
_cell_angle_alpha   90.00000000
_cell_angle_beta   90.00000000
_cell_angle_gamma   90.00000000
_symmetry_Int_Tables_number   1
_chemical_formula_structural   Bi3Ru3O11
_chemical_formula_sum   'Bi12 Ru12 O44'
_cell_volume   831.03315297
_cell_formula_units_Z   4
loop_
 _symmetry_equiv_pos_site_id
 _symmetry_equiv_pos_as_xyz
  1  'x, y, z'
loop_
 _atom_site_type_symbol
 _atom_site_label
 _atom_site_symmetry_multiplicity
 _atom_site_fract_x
 _atom_site_fract_y
 _atom_site_fract_z
 _atom_site_occupancy
  Bi  Bi0  1  0.00000000  0.00000000  0.00000000  1
  Bi  Bi1  1  0.50000000  0.50000000  0.00000000  1
  Bi  Bi2  1  0.00000000  0.50000000  0.50000000  1
  Bi  Bi3  1  0.50000000  0.00000000  0.50000000  1
  Bi  Bi4  1  0.38378458  0.38378458  0.38378458  1
  Bi  Bi5  1  0.11621542  0.11621542  0.38378458  1
  Bi  Bi6  1  0.38378458  0.11621542  0.11621542  1
  Bi  Bi7  1  0.11621542  0.38378458  0.11621542  1
  Bi  Bi8  1  0.61621542  0.61621542  0.61621542  1
  Bi  Bi9  1  0.88378458  0.88378458  0.61621542  1
  Bi  Bi10  1  0.61621542  0.88378458  0.88378458  1
  Bi  Bi11  1  0.88378458  0.61621542  0.88378458  1
  Ru  Ru12  1  0.38633492  0.75000000  0.25000000  1
  Ru  Ru13  1  0.25000000  0.38633492  0.75000000  1
  Ru  Ru14  1  0.75000000  0.25000000  0.38633492  1
  Ru  Ru15  1  0.25000000  0.11366508  0.75000000  1
  Ru  Ru16  1  0.75000000  0.25000000  0.11366508  1
  Ru  Ru17  1  0.11366508  0.75000000  0.25000000  1
  Ru  Ru18  1  0.61366508  0.25000000  0.75000000  1
  Ru  Ru19  1  0.75000000  0.61366508  0.25000000  1
  Ru  Ru20  1  0.25000000  0.75000000  0.61366508  1
  Ru  Ru21  1  0.75000000  0.88633492  0.25000000  1
  Ru  Ru22  1  0.25000000  0.75000000  0.88633492  1
  Ru  Ru23  1  0.88633492  0.25000000  0.75000000  1
  O  O24  1  0.58898207  0.25000000  0.25000000  1
  O  O25  1  0.25000000  0.58898207  0.25000000  1
  O  O26  1  0.25000000  0.25000000  0.58898207  1
  O  O27  1  0.25000000  0.91101793  0.25000000  1
  O  O28  1  0.25000000  0.25000000  0.91101793  1
  O  O29  1  0.91101793  0.25000000  0.25000000  1
  O  O30  1  0.41101793  0.75000000  0.75000000  1
  O  O31  1  0.75000000  0.41101793  0.75000000  1
  O  O32  1  0.75000000  0.75000000  0.41101793  1
  O  O33  1  0.75000000  0.08898207  0.75000000  1
  O  O34  1  0.75000000  0.75000000  0.08898207  1
  O  O35  1  0.08898207  0.75000000  0.75000000  1
  O  O36  1  0.14680731  0.14680731  0.14680731  1
  O  O37  1  0.35319269  0.35319269  0.14680731  1
  O  O38  1  0.14680731  0.35319269  0.35319269  1
  O  O39  1  0.35319269  0.14680731  0.35319269  1
  O  O40  1  0.85319269  0.85319269  0.85319269  1
  O  O41  1  0.64680731  0.64680731  0.85319269  1
  O  O42  1  0.85319269  0.64680731  0.64680731  1
  O  O43  1  0.64680731  0.85319269  0.64680731  1
  O  O44  1  0.59935100  0.24339249  0.53583772  1
  O  O45  1  0.53583772  0.59935100  0.24339249  1
  O  O46  1  0.24339249  0.53583772  0.59935100  1
  O  O47  1  0.25660751  0.96416228  0.59935100  1
  O  O48  1  0.53583772  0.90064900  0.25660751  1
  O  O49  1  0.25660751  0.53583772  0.90064900  1
  O  O50  1  0.96416228  0.90064900  0.24339249  1
  O  O51  1  0.96416228  0.59935100  0.25660751  1
  O  O52  1  0.24339249  0.96416228  0.90064900  1
  O  O53  1  0.59935100  0.25660751  0.96416228  1
  O  O54  1  0.90064900  0.24339249  0.96416228  1
  O  O55  1  0.90064900  0.25660751  0.53583772  1
  O  O56  1  0.40064900  0.75660751  0.46416228  1
  O  O57  1  0.46416228  0.40064900  0.75660751  1
  O  O58  1  0.75660751  0.46416228  0.40064900  1
  O  O59  1  0.74339249  0.03583772  0.40064900  1
  O  O60  1  0.46416228  0.09935100  0.74339249  1
  O  O61  1  0.74339249  0.46416228  0.09935100  1
  O  O62  1  0.03583772  0.09935100  0.75660751  1
  O  O63  1  0.03583772  0.40064900  0.74339249  1
  O  O64  1  0.75660751  0.03583772  0.09935100  1
  O  O65  1  0.40064900  0.74339249  0.03583772  1
  O  O66  1  0.09935100  0.75660751  0.03583772  1
  O  O67  1  0.09935100  0.74339249  0.46416228  1
