# generated using pymatgen
data_Nd3Cu3Sb4
_symmetry_space_group_name_H-M   'P 1'
_cell_length_a   8.46219752
_cell_length_b   8.46219752
_cell_length_c   8.46219752
_cell_angle_alpha   109.47122066
_cell_angle_beta   109.47122066
_cell_angle_gamma   109.47122063
_symmetry_Int_Tables_number   1
_chemical_formula_structural   Nd3Cu3Sb4
_chemical_formula_sum   'Nd6 Cu6 Sb8'
_cell_volume   466.47415155
_cell_formula_units_Z   2
loop_
 _symmetry_equiv_pos_site_id
 _symmetry_equiv_pos_as_xyz
  1  'x, y, z'
loop_
 _atom_site_type_symbol
 _atom_site_label
 _atom_site_symmetry_multiplicity
 _atom_site_fract_x
 _atom_site_fract_y
 _atom_site_fract_z
 _atom_site_occupancy
  Cu  Cu0  1  0.25000000  0.12500000  0.87500000  1
  Cu  Cu1  1  0.87500000  0.25000000  0.12500000  1
  Cu  Cu2  1  0.62500000  0.75000000  0.37500000  1
  Cu  Cu3  1  0.37500000  0.62500000  0.75000000  1
  Cu  Cu4  1  0.12500000  0.87500000  0.25000000  1
  Cu  Cu5  1  0.75000000  0.37500000  0.62500000  1
  Sb  Sb6  1  0.33944946  0.50000000  0.00000000  1
  Sb  Sb7  1  0.50000000  0.00000000  0.33944946  1
  Sb  Sb8  1  0.00000000  0.33944946  0.50000000  1
  Sb  Sb9  1  0.50000000  0.00000000  0.83944946  1
  Sb  Sb10  1  0.66055054  0.66055054  0.66055054  1
  Sb  Sb11  1  0.00000000  0.83944946  0.50000000  1
  Sb  Sb12  1  0.16055054  0.16055054  0.16055054  1
  Sb  Sb13  1  0.83944946  0.50000000  0.00000000  1
  Nd  Nd14  1  0.75000000  0.87500000  0.12500000  1
  Nd  Nd15  1  0.87500000  0.12500000  0.75000000  1
  Nd  Nd16  1  0.12500000  0.75000000  0.87500000  1
  Nd  Nd17  1  0.37500000  0.25000000  0.62500000  1
  Nd  Nd18  1  0.25000000  0.62500000  0.37500000  1
  Nd  Nd19  1  0.62500000  0.37500000  0.25000000  1
