# generated using pymatgen
data_Sr(LaS2)2
_symmetry_space_group_name_H-M   'P 1'
_cell_length_a   7.63110046
_cell_length_b   7.63110066
_cell_length_c   7.63110071
_cell_angle_alpha   109.38452196
_cell_angle_beta   109.64475277
_cell_angle_gamma   109.38451944
_symmetry_Int_Tables_number   1
_chemical_formula_structural   Sr(LaS2)2
_chemical_formula_sum   'Sr2 La4 S8'
_cell_volume   342.08709990
_cell_formula_units_Z   2
loop_
 _symmetry_equiv_pos_site_id
 _symmetry_equiv_pos_as_xyz
  1  'x, y, z'
loop_
 _atom_site_type_symbol
 _atom_site_label
 _atom_site_symmetry_multiplicity
 _atom_site_fract_x
 _atom_site_fract_y
 _atom_site_fract_z
 _atom_site_occupancy
  La  La0  1  0.25000000  0.62850977  0.37850977  1
  La  La1  1  0.62149023  0.37149023  0.25000000  1
  La  La2  1  0.75000000  0.87149023  0.12149023  1
  La  La3  1  0.87850977  0.12850977  0.75000000  1
  S  S4  1  0.99177918  0.84824940  0.49275462  1
  S  S5  1  0.14352977  0.15175060  0.14450521  1
  S  S6  1  0.35647023  0.50097544  0.00822082  1
  S  S7  1  0.50822082  0.00097544  0.85647023  1
  S  S8  1  0.64450521  0.65175060  0.64352977  1
  S  S9  1  0.50724538  0.99902456  0.35549479  1
  S  S10  1  0.85549479  0.49902456  0.00724538  1
  S  S11  1  0.99275462  0.34824940  0.49177918  1
  Sr  Sr12  1  0.12500000  0.75000000  0.87500000  1
  Sr  Sr13  1  0.37500000  0.25000000  0.62500000  1
