# generated using pymatgen
data_Na3CoO3
_symmetry_space_group_name_H-M   'P 1'
_cell_length_a   8.25605156
_cell_length_b   8.25605156
_cell_length_c   16.34831331
_cell_angle_alpha   90.00000000
_cell_angle_beta   90.00000000
_cell_angle_gamma   83.21846675
_symmetry_Int_Tables_number   1
_chemical_formula_structural   Na3CoO3
_chemical_formula_sum   'Na36 Co12 O36'
_cell_volume   1106.54371774
_cell_formula_units_Z   12
loop_
 _symmetry_equiv_pos_site_id
 _symmetry_equiv_pos_as_xyz
  1  'x, y, z'
loop_
 _atom_site_type_symbol
 _atom_site_label
 _atom_site_symmetry_multiplicity
 _atom_site_fract_x
 _atom_site_fract_y
 _atom_site_fract_z
 _atom_site_occupancy
  Na  Na0  1  0.37403865  0.98080816  0.56898554  1
  Na  Na1  1  0.01919184  0.62596135  0.43101446  1
  Na  Na2  1  0.22891586  0.82417807  0.08616745  1
  Na  Na3  1  0.17582193  0.77108414  0.91383255  1
  Na  Na4  1  0.16816918  0.66816918  0.25000000  1
  Na  Na5  1  0.33183082  0.83183082  0.75000000  1
  Na  Na6  1  0.27108414  0.67582193  0.58616745  1
  Na  Na7  1  0.32417807  0.72891586  0.41383255  1
  Na  Na8  1  0.12596135  0.51919184  0.06898554  1
  Na  Na9  1  0.48080816  0.87403865  0.93101446  1
  Na  Na10  1  0.01703137  0.33797565  0.31486698  1
  Na  Na11  1  0.66202435  0.98296863  0.68513302  1
  Na  Na12  1  0.51703137  0.83797565  0.18513302  1
  Na  Na13  1  0.16202435  0.48296863  0.81486698  1
  Na  Na14  1  0.02504217  0.02504217  0.21923989  1
  Na  Na15  1  0.32725267  0.32725267  0.21879896  1
  Na  Na16  1  0.97495783  0.97495783  0.78076011  1
  Na  Na17  1  0.17274733  0.17274733  0.71879896  1
  Na  Na18  1  0.52504217  0.52504217  0.28076011  1
  Na  Na19  1  0.67274733  0.67274733  0.78120104  1
  Na  Na20  1  0.47495783  0.47495783  0.71923989  1
  Na  Na21  1  0.82725267  0.82725267  0.28120104  1
  Na  Na22  1  0.33797565  0.01703137  0.31486698  1
  Na  Na23  1  0.48296863  0.16202435  0.81486698  1
  Na  Na24  1  0.83797565  0.51703137  0.18513302  1
  Na  Na25  1  0.98296863  0.66202435  0.68513302  1
  Na  Na26  1  0.51919184  0.12596135  0.06898554  1
  Na  Na27  1  0.87403865  0.48080816  0.93101446  1
  Na  Na28  1  0.72891586  0.32417807  0.41383255  1
  Na  Na29  1  0.67582193  0.27108414  0.58616745  1
  Na  Na30  1  0.66816918  0.16816918  0.25000000  1
  Na  Na31  1  0.83183082  0.33183082  0.75000000  1
  Na  Na32  1  0.82417807  0.22891586  0.08616745  1
  Na  Na33  1  0.77108414  0.17582193  0.91383255  1
  Na  Na34  1  0.98080816  0.37403865  0.56898554  1
  Na  Na35  1  0.62596135  0.01919184  0.43101446  1
  Co  Co36  1  0.99978391  0.99978391  0.41366884  1
  Co  Co37  1  0.17210357  0.17210357  0.09261754  1
  Co  Co38  1  0.34793117  0.34793117  0.41977160  1
  Co  Co39  1  0.00021609  0.00021609  0.58633116  1
  Co  Co40  1  0.32789643  0.32789643  0.59261754  1
  Co  Co41  1  0.15206883  0.15206883  0.91977160  1
  Co  Co42  1  0.67210357  0.67210357  0.40738246  1
  Co  Co43  1  0.50021609  0.50021609  0.91366884  1
  Co  Co44  1  0.49978391  0.49978391  0.08633116  1
  Co  Co45  1  0.65206883  0.65206883  0.58022840  1
  Co  Co46  1  0.82789643  0.82789643  0.90738246  1
  Co  Co47  1  0.84793117  0.84793117  0.08022840  1
  O  O48  1  0.11610941  0.88389059  0.50000000  1
  O  O49  1  0.11364020  0.87148815  0.33880521  1
  O  O50  1  0.12851185  0.88635980  0.66119479  1
  O  O51  1  0.55490952  0.80248162  0.33219670  1
  O  O52  1  0.69751838  0.94509048  0.83219670  1
  O  O53  1  0.05490952  0.30248162  0.16780330  1
  O  O54  1  0.19751838  0.44509048  0.66780330  1
  O  O55  1  0.24012243  0.48041560  0.34635087  1
  O  O56  1  0.01958440  0.25987757  0.84635087  1
  O  O57  1  0.51958440  0.75987757  0.65364913  1
  O  O58  1  0.74012243  0.98041560  0.15364913  1
  O  O59  1  0.37148815  0.61364020  0.16119479  1
  O  O60  1  0.38635980  0.62851185  0.83880521  1
  O  O61  1  0.38389059  0.61610941  0.00000000  1
  O  O62  1  0.72783697  0.94753244  0.99430210  1
  O  O63  1  0.55246756  0.77216303  0.49430210  1
  O  O64  1  0.05246756  0.27216303  0.00569790  1
  O  O65  1  0.22783697  0.44753244  0.50569790  1
  O  O66  1  0.77216303  0.55246756  0.49430210  1
  O  O67  1  0.44753244  0.22783697  0.50569790  1
  O  O68  1  0.27216303  0.05246756  0.00569790  1
  O  O69  1  0.94753244  0.72783697  0.99430210  1
  O  O70  1  0.61610941  0.38389059  0.00000000  1
  O  O71  1  0.62851185  0.38635980  0.83880521  1
  O  O72  1  0.61364020  0.37148815  0.16119479  1
  O  O73  1  0.25987757  0.01958440  0.84635087  1
  O  O74  1  0.48041560  0.24012243  0.34635087  1
  O  O75  1  0.98041560  0.74012243  0.15364913  1
  O  O76  1  0.75987757  0.51958440  0.65364913  1
  O  O77  1  0.80248162  0.55490952  0.33219670  1
  O  O78  1  0.30248162  0.05490952  0.16780330  1
  O  O79  1  0.44509048  0.19751838  0.66780330  1
  O  O80  1  0.94509048  0.69751838  0.83219670  1
  O  O81  1  0.87148815  0.11364020  0.33880521  1
  O  O82  1  0.88635980  0.12851185  0.66119479  1
  O  O83  1  0.88389059  0.11610941  0.50000000  1
