# generated using pymatgen
data_LiBi(PO3)4
_symmetry_space_group_name_H-M   'P 1'
_cell_length_a   7.17399732
_cell_length_b   9.02958868
_cell_length_c   9.08673240
_cell_angle_alpha   114.15443198
_cell_angle_beta   113.25045325
_cell_angle_gamma   66.59366610
_symmetry_Int_Tables_number   1
_chemical_formula_structural   LiBi(PO3)4
_chemical_formula_sum   'Li2 Bi2 P8 O24'
_cell_volume   473.56075671
_cell_formula_units_Z   2
loop_
 _symmetry_equiv_pos_site_id
 _symmetry_equiv_pos_as_xyz
  1  'x, y, z'
loop_
 _atom_site_type_symbol
 _atom_site_label
 _atom_site_symmetry_multiplicity
 _atom_site_fract_x
 _atom_site_fract_y
 _atom_site_fract_z
 _atom_site_occupancy
  Bi  Bi0  1  0.80337417  0.75000000  0.75000000  1
  Bi  Bi1  1  0.19662583  0.25000000  0.25000000  1
  Li  Li2  1  0.29746808  0.75000000  0.75000000  1
  Li  Li3  1  0.70253192  0.25000000  0.25000000  1
  O  O4  1  0.40445224  0.95280974  0.18945734  1
  O  O5  1  0.78353188  0.91547138  0.22825532  1
  O  O6  1  0.02002867  0.77048403  0.02904452  1
  O  O7  1  0.17478789  0.84208669  0.34818145  1
  O  O8  1  0.01949832  0.91798936  0.77659016  1
  O  O9  1  0.66869213  0.65791331  0.15181855  1
  O  O10  1  0.76146818  0.72951597  0.47095548  1
  O  O11  1  0.42051729  0.70334208  0.56813326  1
  O  O12  1  0.55572610  0.79665792  0.93186674  1
  O  O13  1  0.47074794  0.58452862  0.27174468  1
  O  O14  1  0.16780464  0.54719026  0.31054266  1
  O  O15  1  0.16089651  0.58201064  0.72340984  1
  O  O16  1  0.83910349  0.41798936  0.27659016  1
  O  O17  1  0.83219536  0.45280974  0.68945734  1
  O  O18  1  0.52925206  0.41547138  0.72825532  1
  O  O19  1  0.44427390  0.20334208  0.06813326  1
  O  O20  1  0.57948271  0.29665792  0.43186674  1
  O  O21  1  0.23853182  0.27048403  0.52904452  1
  O  O22  1  0.33130787  0.34208569  0.84818145  1
  O  O23  1  0.98050168  0.08201064  0.22340984  1
  O  O24  1  0.82521211  0.15791431  0.65181855  1
  O  O25  1  0.97997133  0.22951597  0.97095548  1
  O  O26  1  0.21646812  0.08452862  0.77174468  1
  O  O27  1  0.59554776  0.04719026  0.81054266  1
  P  P28  1  0.99534197  0.90095715  0.19343509  1
  P  P29  1  0.58608021  0.83850185  0.11688026  1
  P  P30  1  0.30770280  0.66149815  0.38311974  1
  P  P31  1  0.70286403  0.59904285  0.30656491  1
  P  P32  1  0.29713597  0.40095715  0.69343509  1
  P  P33  1  0.69229720  0.33850185  0.61688026  1
  P  P34  1  0.41391979  0.16149815  0.88311974  1
  P  P35  1  0.00465803  0.09904285  0.80656491  1
