# generated using pymatgen
data_RbZnF3
_symmetry_space_group_name_H-M   'P 1'
_cell_length_a   6.01545044
_cell_length_b   6.01545043
_cell_length_c   14.71925478
_cell_angle_alpha   90.00000000
_cell_angle_beta   90.00000000
_cell_angle_gamma   120.00000003
_symmetry_Int_Tables_number   1
_chemical_formula_structural   RbZnF3
_chemical_formula_sum   'Rb6 Zn6 F18'
_cell_volume   461.26739792
_cell_formula_units_Z   6
loop_
 _symmetry_equiv_pos_site_id
 _symmetry_equiv_pos_as_xyz
  1  'x, y, z'
loop_
 _atom_site_type_symbol
 _atom_site_label
 _atom_site_symmetry_multiplicity
 _atom_site_fract_x
 _atom_site_fract_y
 _atom_site_fract_z
 _atom_site_occupancy
  F  F0  1  0.83447647  0.16552353  0.41997373  1
  F  F1  1  0.83447647  0.66895294  0.41997373  1
  F  F2  1  0.33104706  0.16552353  0.41997373  1
  F  F3  1  0.66895294  0.83447647  0.91997373  1
  F  F4  1  0.16552353  0.33104706  0.58002627  1
  F  F5  1  0.16552353  0.83447647  0.91997373  1
  F  F6  1  0.16552353  0.33104706  0.91997373  1
  F  F7  1  0.83447647  0.16552353  0.08002627  1
  F  F8  1  0.33104706  0.16552353  0.08002627  1
  F  F9  1  0.66895294  0.83447647  0.58002627  1
  F  F10  1  0.16552353  0.83447647  0.58002627  1
  F  F11  1  0.83447647  0.66895294  0.08002627  1
  F  F12  1  0.51743551  0.03487103  0.25000000  1
  F  F13  1  0.48256449  0.51743551  0.75000000  1
  F  F14  1  0.03487103  0.51743551  0.75000000  1
  F  F15  1  0.96512897  0.48256449  0.25000000  1
  F  F16  1  0.51743551  0.48256449  0.25000000  1
  F  F17  1  0.48256449  0.96512897  0.75000000  1
  Zn  Zn18  1  0.33333333  0.66666667  0.65364654  1
  Zn  Zn19  1  0.66666667  0.33333333  0.15364654  1
  Zn  Zn20  1  0.66666667  0.33333333  0.34635346  1
  Zn  Zn21  1  0.33333333  0.66666667  0.84635346  1
  Zn  Zn22  1  0.00000000  0.00000000  0.50000000  1
  Zn  Zn23  1  0.00000000  0.00000000  0.00000000  1
  Rb  Rb24  1  0.33333333  0.66666667  0.40365045  1
  Rb  Rb25  1  0.66666667  0.33333333  0.90365045  1
  Rb  Rb26  1  0.66666667  0.33333333  0.59634955  1
  Rb  Rb27  1  0.33333333  0.66666667  0.09634955  1
  Rb  Rb28  1  0.00000000  0.00000000  0.75000000  1
  Rb  Rb29  1  0.00000000  0.00000000  0.25000000  1
