# generated using pymatgen
data_K2CdPb
_symmetry_space_group_name_H-M   'P 1'
_cell_length_a   6.65877383
_cell_length_b   7.08519598
_cell_length_c   7.08519661
_cell_angle_alpha   103.96515501
_cell_angle_beta   90.00000000
_cell_angle_gamma   90.00000000
_symmetry_Int_Tables_number   1
_chemical_formula_structural   K2CdPb
_chemical_formula_sum   'K4 Cd2 Pb2'
_cell_volume   324.39034795
_cell_formula_units_Z   2
loop_
 _symmetry_equiv_pos_site_id
 _symmetry_equiv_pos_as_xyz
  1  'x, y, z'
loop_
 _atom_site_type_symbol
 _atom_site_label
 _atom_site_symmetry_multiplicity
 _atom_site_fract_x
 _atom_site_fract_y
 _atom_site_fract_z
 _atom_site_occupancy
  K  K0  1  0.25000000  0.32121950  0.97890404  1
  K  K1  1  0.75000000  0.02109596  0.67878050  1
  K  K2  1  0.25000000  0.96186533  0.32277857  1
  K  K3  1  0.75000000  0.67722143  0.03813467  1
  Cd  Cd4  1  0.00000000  0.49191346  0.50808654  1
  Cd  Cd5  1  0.50000000  0.49191346  0.50808654  1
  Pb  Pb6  1  0.25000000  0.77065323  0.77688237  1
  Pb  Pb7  1  0.75000000  0.22311763  0.22934677  1
