# generated using pymatgen
data_Si(PbS2)2
_symmetry_space_group_name_H-M   'P 1'
_cell_length_a   6.69483902
_cell_length_b   6.80601933
_cell_length_c   16.19726533
_cell_angle_alpha   90.00000000
_cell_angle_beta   94.96908834
_cell_angle_gamma   90.00000000
_symmetry_Int_Tables_number   1
_chemical_formula_structural   Si(PbS2)2
_chemical_formula_sum   'Si4 Pb8 S16'
_cell_volume   735.25785854
_cell_formula_units_Z   4
loop_
 _symmetry_equiv_pos_site_id
 _symmetry_equiv_pos_as_xyz
  1  'x, y, z'
loop_
 _atom_site_type_symbol
 _atom_site_label
 _atom_site_symmetry_multiplicity
 _atom_site_fract_x
 _atom_site_fract_y
 _atom_site_fract_z
 _atom_site_occupancy
  Si  Si0  1  0.68374005  0.75424929  0.89758781  1
  Si  Si1  1  0.31625995  0.24575071  0.10241219  1
  Si  Si2  1  0.81625995  0.25424929  0.60241219  1
  Si  Si3  1  0.18374005  0.74575071  0.39758781  1
  Pb  Pb4  1  0.22359968  0.73721218  0.98022694  1
  Pb  Pb5  1  0.72359968  0.76278782  0.48022694  1
  Pb  Pb6  1  0.02770525  0.32785718  0.28397591  1
  Pb  Pb7  1  0.97229475  0.67214282  0.71602409  1
  Pb  Pb8  1  0.52770525  0.17214282  0.78397591  1
  Pb  Pb9  1  0.77640032  0.26278782  0.01977306  1
  Pb  Pb10  1  0.47229475  0.82785718  0.21602409  1
  Pb  Pb11  1  0.27640032  0.23721218  0.51977306  1
  S  S12  1  0.63768167  0.50337193  0.62774102  1
  S  S13  1  0.35680040  0.26577782  0.97362875  1
  S  S14  1  0.90310806  0.71676408  0.32370148  1
  S  S15  1  0.14822193  0.49598195  0.13617176  1
  S  S16  1  0.40310806  0.78323592  0.82370148  1
  S  S17  1  0.64319960  0.73422218  0.02637125  1
  S  S18  1  0.35177807  -0.00401805  0.36382824  1
  S  S19  1  0.36231833  0.49662807  0.37225898  1
  S  S20  1  0.85680040  0.23422218  0.47362875  1
  S  S21  1  0.64822193  1.00401805  0.63617176  1
  S  S22  1  0.86231833  0.00337193  0.87225898  1
  S  S23  1  0.59689194  0.21676408  0.17629852  1
  S  S24  1  0.13768167  0.99662807  0.12774102  1
  S  S25  1  0.14319960  0.76577782  0.52637125  1
  S  S26  1  0.09689194  0.28323592  0.67629852  1
  S  S27  1  0.85177807  0.50401805  0.86382824  1
