# generated using pymatgen
data_Eu2Te4O11
_symmetry_space_group_name_H-M   'P 1'
_cell_length_a   5.30010032
_cell_length_b   6.85992034
_cell_length_c   16.49615306
_cell_angle_alpha   79.29399814
_cell_angle_beta   80.75557344
_cell_angle_gamma   67.27496052
_symmetry_Int_Tables_number   1
_chemical_formula_structural   Eu2Te4O11
_chemical_formula_sum   'Eu4 Te8 O22'
_cell_volume   540.96100179
_cell_formula_units_Z   2
loop_
 _symmetry_equiv_pos_site_id
 _symmetry_equiv_pos_as_xyz
  1  'x, y, z'
loop_
 _atom_site_type_symbol
 _atom_site_label
 _atom_site_symmetry_multiplicity
 _atom_site_fract_x
 _atom_site_fract_y
 _atom_site_fract_z
 _atom_site_occupancy
  O  O0  1  0.85025924  0.25000000  0.75000000  1
  O  O1  1  0.14974076  0.75000000  0.25000000  1
  O  O2  1  0.19612146  0.87149613  0.83027885  1
  O  O3  1  0.89789644  0.62850387  0.66972115  1
  O  O4  1  0.80387854  0.12850387  0.16972115  1
  O  O5  1  0.10210356  0.37149613  0.33027885  1
  O  O6  1  0.60181912  0.05476293  0.89757838  1
  O  O7  1  0.55416043  0.44523707  0.60242162  1
  O  O8  1  0.39818088  0.94523707  0.10242162  1
  O  O9  1  0.44583957  0.55476293  0.39757838  1
  O  O10  1  0.03797132  0.18955422  0.95187336  1
  O  O11  1  0.17939891  0.31044578  0.54812664  1
  O  O12  1  0.67747885  0.13636809  0.37175853  1
  O  O13  1  0.18560547  0.36363191  0.12824147  1
  O  O14  1  0.32252115  0.86363191  0.62824147  1
  O  O15  1  0.81439453  0.63636809  0.87175853  1
  O  O16  1  0.25630320  0.96861047  0.44723897  1
  O  O17  1  0.67215264  0.53138953  0.05276103  1
  O  O18  1  0.74369680  0.03138953  0.55276103  1
  O  O19  1  0.32784736  0.46861047  0.94723897  1
  O  O20  1  0.82060109  0.68955422  0.45187336  1
  O  O21  1  0.96202868  0.81044578  0.04812664  1
  Te  Te22  1  0.59957517  0.54075816  0.69912797  1
  Te  Te23  1  0.83946130  0.95924184  0.80087203  1
  Te  Te24  1  0.40042483  0.45924184  0.30087203  1
  Te  Te25  1  0.16053870  0.04075816  0.19912797  1
  Te  Te26  1  0.15106146  0.38761177  0.87526138  1
  Te  Te27  1  0.41393460  0.11238823  0.62473862  1
  Te  Te28  1  0.84893854  0.61238823  0.12473862  1
  Te  Te29  1  0.58606540  0.88761177  0.37526138  1
  Eu  Eu30  1  0.12864917  0.70124874  0.53880688  1
  Eu  Eu31  1  0.36870479  0.79875126  0.96119312  1
  Eu  Eu32  1  0.87135083  0.29875126  0.46119312  1
  Eu  Eu33  1  0.63129521  0.20124874  0.03880688  1
