# generated using pymatgen
data_LiMn3(BO3)3
_symmetry_space_group_name_H-M   'P 1'
_cell_length_a   7.76735078
_cell_length_b   9.17189253
_cell_length_c   6.17377699
_cell_angle_alpha   106.27947946
_cell_angle_beta   83.49166364
_cell_angle_gamma   66.30705609
_symmetry_Int_Tables_number   1
_chemical_formula_structural   LiMn3(BO3)3
_chemical_formula_sum   'Li2 Mn6 B6 O18'
_cell_volume   373.61154876
_cell_formula_units_Z   2
loop_
 _symmetry_equiv_pos_site_id
 _symmetry_equiv_pos_as_xyz
  1  'x, y, z'
loop_
 _atom_site_type_symbol
 _atom_site_label
 _atom_site_symmetry_multiplicity
 _atom_site_fract_x
 _atom_site_fract_y
 _atom_site_fract_z
 _atom_site_occupancy
  Li  Li0  1  0.72677702  0.94399104  0.59963120  1
  Li  Li1  1  0.27322298  0.05600896  0.40036880  1
  Mn  Mn2  1  0.98827903  0.40950966  0.75512240  1
  Mn  Mn3  1  0.68043395  0.28800368  0.58711132  1
  Mn  Mn4  1  0.65958985  0.06050294  0.09559457  1
  Mn  Mn5  1  0.34041015  0.93949706  0.90440543  1
  Mn  Mn6  1  0.31956605  0.71199632  0.41288868  1
  Mn  Mn7  1  0.01172097  0.59049034  0.24487760  1
  B  B8  1  0.97904518  0.05950362  0.75067517  1
  B  B9  1  0.36422554  0.27408102  0.88663649  1
  B  B10  1  0.68340291  0.62067370  0.56260973  1
  B  B11  1  0.31659709  0.37932630  0.43739027  1
  B  B12  1  0.63577446  0.72591898  0.11336351  1
  B  B13  1  0.02095482  0.94049638  0.24932483  1
  O  O14  1  0.88321695  0.22722336  0.75422669  1
  O  O15  1  0.84135990  0.63911165  0.02164842  1
  O  O16  1  0.88312459  0.97823970  0.81771634  1
  O  O17  1  0.81816311  0.02483476  0.34685092  1
  O  O18  1  0.46326146  0.10600758  0.87173179  1
  O  O19  1  0.79181860  0.45894219  0.56644671  1
  O  O20  1  0.45451977  0.36224195  0.82866005  1
  O  O21  1  0.77123176  0.71234582  0.50348308  1
  O  O22  1  0.48133896  0.69147447  0.63793270  1
  O  O23  1  0.51866104  0.30852553  0.36206730  1
  O  O24  1  0.22876824  0.28765418  0.49651692  1
  O  O25  1  0.54548023  0.63775805  0.17133995  1
  O  O26  1  0.20818140  0.54105781  0.43355329  1
  O  O27  1  0.53673854  0.89399242  0.12826821  1
  O  O28  1  0.18183689  0.97516524  0.65314908  1
  O  O29  1  0.11687541  0.02176030  0.18228366  1
  O  O30  1  0.15864010  0.36088835  0.97835158  1
  O  O31  1  0.11678305  0.77277664  0.24577331  1
