# generated using pymatgen
data_Pr2Mo2C3
_symmetry_space_group_name_H-M   'P 1'
_cell_length_a   6.02829523
_cell_length_b   6.70870162
_cell_length_c   11.30236464
_cell_angle_alpha   90.00000000
_cell_angle_beta   97.51270289
_cell_angle_gamma   90.00000000
_symmetry_Int_Tables_number   1
_chemical_formula_structural   Pr2Mo2C3
_chemical_formula_sum   'Pr8 Mo8 C12'
_cell_volume   453.16690283
_cell_formula_units_Z   4
loop_
 _symmetry_equiv_pos_site_id
 _symmetry_equiv_pos_as_xyz
  1  'x, y, z'
loop_
 _atom_site_type_symbol
 _atom_site_label
 _atom_site_symmetry_multiplicity
 _atom_site_fract_x
 _atom_site_fract_y
 _atom_site_fract_z
 _atom_site_occupancy
  C  C0  1  0.85693482  0.62853124  0.35966742  1
  C  C1  1  0.64306518  0.12853124  0.14033258  1
  C  C2  1  0.14306518  0.37146876  0.64033258  1
  C  C3  1  0.35693482  0.87146876  0.85966742  1
  C  C4  1  0.06782751  0.21834501  0.01061545  1
  C  C5  1  0.43217249  0.71834501  0.48938455  1
  C  C6  1  0.93217249  0.78165499  0.98938455  1
  C  C7  1  0.56782751  0.28165499  0.51061545  1
  C  C8  1  0.71926017  0.48604688  0.75195492  1
  C  C9  1  0.21926017  0.01395312  0.25195492  1
  C  C10  1  0.78073983  0.98604688  0.74804508  1
  C  C11  1  0.28073983  0.51395312  0.24804508  1
  Mo  Mo12  1  0.06152152  0.99480260  0.88054572  1
  Mo  Mo13  1  0.43847848  0.49480260  0.61945428  1
  Mo  Mo14  1  0.93847848  0.00519740  0.11945428  1
  Mo  Mo15  1  0.56152152  0.50519740  0.38054572  1
  Mo  Mo16  1  0.16573940  0.75613621  0.34300249  1
  Mo  Mo17  1  0.83426060  0.24386379  0.65699751  1
  Mo  Mo18  1  0.66573940  0.74386379  0.84300249  1
  Mo  Mo19  1  0.33426060  0.25613621  0.15699751  1
  Pr  Pr20  1  0.40255166  0.78390685  0.09061710  1
  Pr  Pr21  1  0.09744834  0.28390685  0.40938290  1
  Pr  Pr22  1  0.59744834  0.21609315  0.90938290  1
  Pr  Pr23  1  0.90255166  0.71609315  0.59061710  1
  Pr  Pr24  1  0.63343795  0.99888336  0.36268195  1
  Pr  Pr25  1  0.86656205  0.49888336  0.13731805  1
  Pr  Pr26  1  0.36656205  0.00111664  0.63731805  1
  Pr  Pr27  1  0.13343795  0.50111664  0.86268195  1
