# generated using pymatgen
data_K3FeO3
_symmetry_space_group_name_H-M   'P 1'
_cell_length_a   6.60398726
_cell_length_b   6.72076468
_cell_length_c   6.72076468
_cell_angle_alpha   114.95795131
_cell_angle_beta   96.06946480
_cell_angle_gamma   96.06946497
_symmetry_Int_Tables_number   1
_chemical_formula_structural   K3FeO3
_chemical_formula_sum   'K6 Fe2 O6'
_cell_volume   265.15606678
_cell_formula_units_Z   2
loop_
 _symmetry_equiv_pos_site_id
 _symmetry_equiv_pos_as_xyz
  1  'x, y, z'
loop_
 _atom_site_type_symbol
 _atom_site_label
 _atom_site_symmetry_multiplicity
 _atom_site_fract_x
 _atom_site_fract_y
 _atom_site_fract_z
 _atom_site_occupancy
  O  O0  1  0.73518979  0.84068465  0.56794758  1
  O  O1  1  0.16093127  0.90156300  0.90156300  1
  O  O2  1  0.83906873  0.09843700  0.09843700  1
  O  O3  1  0.26481021  0.15931535  0.43205242  1
  O  O4  1  0.26481021  0.43205242  0.15931535  1
  O  O5  1  0.73518979  0.56794758  0.84068465  1
  K  K6  1  0.35207684  0.62691929  0.62691929  1
  K  K7  1  0.00000000  0.74238780  0.25761220  1
  K  K8  1  0.50000000  0.80776473  0.19223527  1
  K  K9  1  0.00000000  0.25761220  0.74238780  1
  K  K10  1  0.64792316  0.37308071  0.37308071  1
  K  K11  1  0.50000000  0.19223527  0.80776473  1
  Fe  Fe12  1  0.85451756  0.82827106  0.82827106  1
  Fe  Fe13  1  0.14548244  0.17172894  0.17172894  1
