# generated using pymatgen
data_LiFeP3H8O13
_symmetry_space_group_name_H-M   'P 1'
_cell_length_a   9.60052138
_cell_length_b   8.62751887
_cell_length_c   7.59705532
_cell_angle_alpha   107.11618180
_cell_angle_beta   91.12552192
_cell_angle_gamma   100.99908523
_symmetry_Int_Tables_number   1
_chemical_formula_structural   LiFeP3H8O13
_chemical_formula_sum   'Li2 Fe2 P6 H16 O26'
_cell_volume   588.40724444
_cell_formula_units_Z   2
loop_
 _symmetry_equiv_pos_site_id
 _symmetry_equiv_pos_as_xyz
  1  'x, y, z'
loop_
 _atom_site_type_symbol
 _atom_site_label
 _atom_site_symmetry_multiplicity
 _atom_site_fract_x
 _atom_site_fract_y
 _atom_site_fract_z
 _atom_site_occupancy
  Li  Li0  1  0.30879604  0.40175917  0.71402894  1
  Li  Li1  1  0.69120396  0.59824083  0.28597106  1
  Fe  Fe2  1  0.00000000  0.50000000  0.00000000  1
  Fe  Fe3  1  0.50000000  0.00000000  0.50000000  1
  P  P4  1  0.06011622  0.72484699  0.71563789  1
  P  P5  1  0.24267162  0.35549407  0.19774797  1
  P  P6  1  0.22026715  0.99840308  0.01007597  1
  P  P7  1  0.77973285  0.00159692  0.98992403  1
  P  P8  1  0.75732838  0.64450593  0.80225203  1
  P  P9  1  0.93988378  0.27515301  0.28436211  1
  H  H10  1  0.05227888  0.81263109  0.20120578  1
  H  H11  1  0.03593017  0.70422564  0.33854713  1
  H  H12  1  0.22999121  0.90528853  0.53360869  1
  H  H13  1  0.36770429  0.68895637  0.19005614  1
  H  H14  1  0.24624668  0.00529581  0.38886697  1
  H  H15  1  0.41882519  0.86841643  0.75777447  1
  H  H16  1  0.45503313  0.82498024  0.11354524  1
  H  H17  1  0.52557834  0.75282151  0.65543423  1
  H  H18  1  0.47442166  0.24717849  0.34456577  1
  H  H19  1  0.54496687  0.17501976  0.88645476  1
  H  H20  1  0.58117481  0.13158357  0.24222553  1
  H  H21  1  0.75375332  0.99470419  0.61113303  1
  H  H22  1  0.63229571  0.31104363  0.80994386  1
  H  H23  1  0.77000879  0.09471147  0.46639131  1
  H  H24  1  0.96406983  0.29577436  0.66145287  1
  H  H25  1  0.94772112  0.18736891  0.79879422  1
  O  O26  1  0.99315177  0.71017103  0.21943737  1
  O  O27  1  0.08926360  0.91342952  0.85162910  1
  O  O28  1  0.10904871  0.61535849  0.81659484  1
  O  O29  1  0.11843805  0.72376297  0.53427238  1
  O  O30  1  0.17527536  0.96881577  0.18718054  1
  O  O31  1  0.11144686  0.31455162  0.32043786  1
  O  O32  1  0.22233487  0.48897652  0.11327331  1
  O  O33  1  0.35672870  0.95456358  0.94133213  1
  O  O34  1  0.22230851  0.18988093  0.02180466  1
  O  O35  1  0.28511186  0.00877953  0.51416733  1
  O  O36  1  0.37467419  0.38009553  0.32028694  1
  O  O37  1  0.45873107  0.77081752  0.21038129  1
  O  O38  1  0.45854935  0.82210044  0.63660130  1
  O  O39  1  0.54145065  0.17789956  0.36339870  1
  O  O40  1  0.54126893  0.22918248  0.78961871  1
  O  O41  1  0.62532581  0.61990447  0.67971306  1
  O  O42  1  0.71488814  0.99122047  0.48583267  1
  O  O43  1  0.77769149  0.81011907  0.97819534  1
  O  O44  1  0.64327130  0.04543642  0.05866787  1
  O  O45  1  0.77766513  0.51102348  0.88672669  1
  O  O46  1  0.88855314  0.68544838  0.67956214  1
  O  O47  1  0.82472464  0.03118423  0.81281946  1
  O  O48  1  0.88156195  0.27623703  0.46572762  1
  O  O49  1  0.89095129  0.38464151  0.18340516  1
  O  O50  1  0.91073640  0.08657048  0.14837090  1
  O  O51  1  0.00684823  0.28982897  0.78056263  1
