# generated using pymatgen
data_Mg3(BO3)2
_symmetry_space_group_name_H-M   'P 1'
_cell_length_a   4.54288119
_cell_length_b   5.45811947
_cell_length_c   8.51042264
_cell_angle_alpha   90.00000000
_cell_angle_beta   90.00000000
_cell_angle_gamma   90.00000000
_symmetry_Int_Tables_number   1
_chemical_formula_structural   Mg3(BO3)2
_chemical_formula_sum   'Mg6 B4 O12'
_cell_volume   211.02093581
_cell_formula_units_Z   2
loop_
 _symmetry_equiv_pos_site_id
 _symmetry_equiv_pos_as_xyz
  1  'x, y, z'
loop_
 _atom_site_type_symbol
 _atom_site_label
 _atom_site_symmetry_multiplicity
 _atom_site_fract_x
 _atom_site_fract_y
 _atom_site_fract_z
 _atom_site_occupancy
  B  B0  1  0.04554015  0.24448181  0.50000000  1
  B  B1  1  0.45445985  0.74448181  0.00000000  1
  B  B2  1  0.95445985  0.75551819  0.50000000  1
  B  B3  1  0.54554015  0.25551819  0.00000000  1
  O  O4  1  0.29881191  0.79545202  0.13861648  1
  O  O5  1  0.79881191  0.70454798  0.36138352  1
  O  O6  1  0.29881191  0.79545202  0.86138352  1
  O  O7  1  0.70118809  0.20454798  0.86138352  1
  O  O8  1  0.79881191  0.70454798  0.63861648  1
  O  O9  1  0.20118809  0.29545202  0.63861648  1
  O  O10  1  0.25089073  0.32072371  0.00000000  1
  O  O11  1  0.75089073  0.17927629  0.50000000  1
  O  O12  1  0.24910927  0.82072371  0.50000000  1
  O  O13  1  0.74910927  0.67927629  0.00000000  1
  O  O14  1  0.70118809  0.20454798  0.13861648  1
  O  O15  1  0.20118809  0.29545202  0.36138352  1
  Mg  Mg16  1  0.00000000  0.50000000  0.81311951  1
  Mg  Mg17  1  0.50000000  0.00000000  0.68688049  1
  Mg  Mg18  1  0.00000000  0.50000000  0.18688049  1
  Mg  Mg19  1  0.50000000  0.00000000  0.31311951  1
  Mg  Mg20  1  0.50000000  0.50000000  0.50000000  1
  Mg  Mg21  1  0.00000000  0.00000000  0.00000000  1
