# generated using pymatgen
data_Li5Cr4O8
_symmetry_space_group_name_H-M   'P 1'
_cell_length_a   5.93410870
_cell_length_b   6.06286091
_cell_length_c   9.96338677
_cell_angle_alpha   89.93521828
_cell_angle_beta   89.86598706
_cell_angle_gamma   60.69959017
_symmetry_Int_Tables_number   1
_chemical_formula_structural   Li5Cr4O8
_chemical_formula_sum   'Li10 Cr8 O16'
_cell_volume   312.59940382
_cell_formula_units_Z   2
loop_
 _symmetry_equiv_pos_site_id
 _symmetry_equiv_pos_as_xyz
  1  'x, y, z'
loop_
 _atom_site_type_symbol
 _atom_site_label
 _atom_site_symmetry_multiplicity
 _atom_site_fract_x
 _atom_site_fract_y
 _atom_site_fract_z
 _atom_site_occupancy
  Li  Li0  1  0.82411493  0.79027076  0.93715310  1
  Li  Li1  1  0.38407141  0.78848378  0.93632079  1
  Li  Li2  1  0.79385935  0.41035077  0.94970805  1
  Li  Li3  1  0.68465861  0.63257786  0.72307892  1
  Li  Li4  1  0.98968157  0.02198035  0.01324499  1
  Li  Li5  1  0.20419660  0.58964875  0.44971282  1
  Li  Li6  1  0.01167491  0.97801058  0.51324735  1
  Li  Li7  1  0.61438793  0.20973325  0.43715884  1
  Li  Li8  1  0.31722061  0.36740993  0.22310242  1
  Li  Li9  1  0.17251821  0.21153405  0.43633455  1
  Cr  Cr10  1  0.66163974  0.67614736  0.47358984  1
  Cr  Cr11  1  0.32057590  0.86315340  0.21416800  1
  Cr  Cr12  1  0.33772521  0.32392897  0.97361381  1
  Cr  Cr13  1  0.18374537  0.13683507  0.71417370  1
  Cr  Cr14  1  0.81674011  0.86321414  0.21411668  1
  Cr  Cr15  1  0.18301156  0.63416082  0.71414364  1
  Cr  Cr16  1  0.81715594  0.36582933  0.21414907  1
  Cr  Cr17  1  0.67997679  0.13677841  0.71412291  1
  O  O18  1  0.01735863  0.96479415  0.82454486  1
  O  O19  1  0.85627593  0.81157029  0.59807326  1
  O  O20  1  0.48742597  0.02461897  0.32570638  1
  O  O21  1  0.96807606  0.53766326  0.33223832  1
  O  O22  1  0.65584680  0.68940957  0.09996428  1
  O  O23  1  0.33275682  0.81182265  0.59841324  1
  O  O24  1  0.49382257  0.53750376  0.33247760  1
  O  O25  1  0.14458733  0.71251540  0.10127071  1
  O  O26  1  0.85712076  0.28747948  0.60127382  1
  O  O27  1  0.50574720  0.46233426  0.83224729  1
  O  O28  1  0.03133767  0.46249783  0.83247727  1
  O  O29  1  0.34528140  0.31056967  0.59996746  1
  O  O30  1  0.98213530  0.03519059  0.32454406  1
  O  O31  1  0.66782945  0.18842209  0.09807378  1
  O  O32  1  0.51206158  0.97538609  0.82571192  1
  O  O33  1  0.14456780  0.18817339  0.09841226  1
