# generated using pymatgen
data_ZrP2O7
_symmetry_space_group_name_H-M   'P 1'
_cell_length_a   8.55058514
_cell_length_b   8.55058514
_cell_length_c   8.55058514
_cell_angle_alpha   90.00000000
_cell_angle_beta   90.00000000
_cell_angle_gamma   90.00000000
_symmetry_Int_Tables_number   1
_chemical_formula_structural   ZrP2O7
_chemical_formula_sum   'Zr4 P8 O28'
_cell_volume   625.15470937
_cell_formula_units_Z   4
loop_
 _symmetry_equiv_pos_site_id
 _symmetry_equiv_pos_as_xyz
  1  'x, y, z'
loop_
 _atom_site_type_symbol
 _atom_site_label
 _atom_site_symmetry_multiplicity
 _atom_site_fract_x
 _atom_site_fract_y
 _atom_site_fract_z
 _atom_site_occupancy
  O  O0  1  0.50000000  0.00000000  0.00000000  1
  O  O1  1  0.00000000  0.00000000  0.50000000  1
  O  O2  1  0.00000000  0.50000000  0.00000000  1
  O  O3  1  0.50000000  0.50000000  0.50000000  1
  O  O4  1  0.94273955  0.22465649  0.07759523  1
  O  O5  1  0.44273955  0.27534351  0.92240477  1
  O  O6  1  0.05726045  0.72465649  0.42240477  1
  O  O7  1  0.27534351  0.92240477  0.44273955  1
  O  O8  1  0.42240477  0.05726045  0.72465649  1
  O  O9  1  0.92240477  0.44273955  0.27534351  1
  O  O10  1  0.22465649  0.07759523  0.94273955  1
  O  O11  1  0.07759523  0.94273955  0.22465649  1
  O  O12  1  0.44273955  0.22465649  0.42240477  1
  O  O13  1  0.42240477  0.44273955  0.22465649  1
  O  O14  1  0.22465649  0.42240477  0.44273955  1
  O  O15  1  0.27534351  0.57759523  0.94273955  1
  O  O16  1  0.92240477  0.05726045  0.77534351  1
  O  O17  1  0.77534351  0.92240477  0.05726045  1
  O  O18  1  0.07759523  0.55726045  0.72465649  1
  O  O19  1  0.57759523  0.94273955  0.27534351  1
  O  O20  1  0.72465649  0.07759523  0.55726045  1
  O  O21  1  0.94273955  0.27534351  0.57759523  1
  O  O22  1  0.55726045  0.72465649  0.07759523  1
  O  O23  1  0.05726045  0.77534351  0.92240477  1
  O  O24  1  0.55726045  0.77534351  0.57759523  1
  O  O25  1  0.57759523  0.55726045  0.77534351  1
  O  O26  1  0.77534351  0.57759523  0.55726045  1
  O  O27  1  0.72465649  0.42240477  0.05726045  1
  P  P28  1  0.39301065  0.10698935  0.89301065  1
  P  P29  1  0.10698935  0.89301065  0.39301065  1
  P  P30  1  0.89301065  0.39301065  0.10698935  1
  P  P31  1  0.60698935  0.60698935  0.60698935  1
  P  P32  1  0.60698935  0.89301065  0.10698935  1
  P  P33  1  0.89301065  0.10698935  0.60698935  1
  P  P34  1  0.10698935  0.60698935  0.89301065  1
  P  P35  1  0.39301065  0.39301065  0.39301065  1
  Zr  Zr36  1  0.00000000  0.50000000  0.50000000  1
  Zr  Zr37  1  0.50000000  0.50000000  0.00000000  1
  Zr  Zr38  1  0.50000000  0.00000000  0.50000000  1
  Zr  Zr39  1  0.00000000  0.00000000  0.00000000  1
