# generated using pymatgen
data_LiFe2C2O7
_symmetry_space_group_name_H-M   'P 1'
_cell_length_a   8.33042474
_cell_length_b   8.33042474
_cell_length_c   8.06329291
_cell_angle_alpha   89.46621845
_cell_angle_beta   89.46621845
_cell_angle_gamma   60.90558715
_symmetry_Int_Tables_number   1
_chemical_formula_structural   LiFe2C2O7
_chemical_formula_sum   'Li3 Fe6 C6 O21'
_cell_volume   488.92603962
_cell_formula_units_Z   3
loop_
 _symmetry_equiv_pos_site_id
 _symmetry_equiv_pos_as_xyz
  1  'x, y, z'
loop_
 _atom_site_type_symbol
 _atom_site_label
 _atom_site_symmetry_multiplicity
 _atom_site_fract_x
 _atom_site_fract_y
 _atom_site_fract_z
 _atom_site_occupancy
  Li  Li0  1  0.27692981  0.72307019  0.50000000  1
  Li  Li1  1  0.00340063  0.35585029  0.50657733  1
  Li  Li2  1  0.64414971  0.99659937  0.49342267  1
  Fe  Fe3  1  0.32771014  0.33791605  0.19387315  1
  Fe  Fe4  1  0.66208395  0.67228986  0.80612685  1
  Fe  Fe5  1  0.34022841  0.34067486  0.73886817  1
  Fe  Fe6  1  0.65932514  0.65977159  0.26113183  1
  Fe  Fe7  1  0.00216725  0.99445448  0.72727381  1
  Fe  Fe8  1  0.00554552  0.99783275  0.27272619  1
  C  C9  1  0.99607618  0.65952280  0.70375689  1
  C  C10  1  0.34047720  0.00392382  0.29624311  1
  C  C11  1  0.34144058  0.00380053  0.70417539  1
  C  C12  1  0.99619947  0.65855942  0.29582461  1
  C  C13  1  0.66720871  0.33560679  0.70430696  1
  C  C14  1  0.66439321  0.33279129  0.29569304  1
  O  O15  1  0.03236280  0.96763720  0.50000000  1
  O  O16  1  0.08046646  0.73450814  0.22289159  1
  O  O17  1  0.26549186  0.91953354  0.77710841  1
  O  O18  1  0.16211654  0.59643597  0.64743952  1
  O  O19  1  0.40356403  0.83788346  0.35256048  1
  O  O20  1  0.08252530  0.47915913  0.31221127  1
  O  O21  1  0.52084087  0.91747470  0.68778873  1
  O  O22  1  0.32361107  0.33822346  0.97642568  1
  O  O23  1  0.66177654  0.67638893  0.02357432  1
  O  O24  1  0.83092666  0.75256307  0.35382966  1
  O  O25  1  0.24743693  0.16907334  0.64617034  1
  O  O26  1  0.48644951  0.43398491  0.29436114  1
  O  O27  1  0.56601509  0.51355049  0.70563886  1
  O  O28  1  0.18204914  0.08973561  0.22608766  1
  O  O29  1  0.91026439  0.81795086  0.77391234  1
  O  O30  1  0.43752345  0.08733852  0.30968451  1
  O  O31  1  0.91266148  0.56247655  0.69031549  1
  O  O32  1  0.60050552  0.23511369  0.64574741  1
  O  O33  1  0.76488631  0.39949448  0.35425259  1
  O  O34  1  0.83130163  0.26097649  0.76301693  1
  O  O35  1  0.73902351  0.16869837  0.23698307  1
