# generated using pymatgen
data_CaTe2O5
_symmetry_space_group_name_H-M   'P 1'
_cell_length_a   5.85167839
_cell_length_b   9.62411618
_cell_length_c   11.37543449
_cell_angle_alpha   116.11667207
_cell_angle_beta   90.00000000
_cell_angle_gamma   90.00000000
_symmetry_Int_Tables_number   1
_chemical_formula_structural   CaTe2O5
_chemical_formula_sum   'Ca4 Te8 O20'
_cell_volume   575.22405726
_cell_formula_units_Z   4
loop_
 _symmetry_equiv_pos_site_id
 _symmetry_equiv_pos_as_xyz
  1  'x, y, z'
loop_
 _atom_site_type_symbol
 _atom_site_label
 _atom_site_symmetry_multiplicity
 _atom_site_fract_x
 _atom_site_fract_y
 _atom_site_fract_z
 _atom_site_occupancy
  O  O0  1  0.10695052  0.61458104  0.09063816  1
  O  O1  1  0.60695052  0.88541896  0.40936184  1
  O  O2  1  0.89304948  0.38541896  0.90936184  1
  O  O3  1  0.39304948  0.11458104  0.59063816  1
  O  O4  1  0.47362712  0.13805489  0.34324969  1
  O  O5  1  0.97362712  0.36194511  0.15675031  1
  O  O6  1  0.52637288  0.86194511  0.65675031  1
  O  O7  1  0.02637288  0.63805489  0.84324969  1
  O  O8  1  0.90914520  0.87203157  0.09649344  1
  O  O9  1  0.40914520  0.62796843  0.40350656  1
  O  O10  1  0.09085480  0.12796843  0.90350656  1
  O  O11  1  0.59085480  0.37203157  0.59649344  1
  O  O12  1  0.49132175  0.64712474  0.78373799  1
  O  O13  1  0.99132175  0.85287526  0.71626201  1
  O  O14  1  0.50867825  0.35287526  0.21626201  1
  O  O15  1  0.00867825  0.14712474  0.28373799  1
  O  O16  1  0.14571326  0.46959713  0.58452300  1
  O  O17  1  0.64571326  0.03040287  0.91547700  1
  O  O18  1  0.85428674  0.53040287  0.41547700  1
  O  O19  1  0.35428674  0.96959713  0.08452300  1
  Ca  Ca20  1  0.80405110  0.61603279  0.64062806  1
  Ca  Ca21  1  0.30405110  0.88396721  0.85937194  1
  Ca  Ca22  1  0.19594890  0.38396721  0.35937194  1
  Ca  Ca23  1  0.69594890  0.11603279  0.14062806  1
  Te  Te24  1  0.17830986  0.96097902  0.21870275  1
  Te  Te25  1  0.67830986  0.53902098  0.28129725  1
  Te  Te26  1  0.82169014  0.03902098  0.78129725  1
  Te  Te27  1  0.32169014  0.46097902  0.71870275  1
  Te  Te28  1  0.63777378  0.13974476  0.48787036  1
  Te  Te29  1  0.13777378  0.36025524  0.01212964  1
  Te  Te30  1  0.36222622  0.86025524  0.51212964  1
  Te  Te31  1  0.86222622  0.63974476  0.98787036  1
