# generated using pymatgen
data_Ta2NiO6
_symmetry_space_group_name_H-M   'P 1'
_cell_length_a   4.78067461
_cell_length_b   4.78067461
_cell_length_c   9.18411953
_cell_angle_alpha   90.00000000
_cell_angle_beta   90.00000000
_cell_angle_gamma   90.00000000
_symmetry_Int_Tables_number   1
_chemical_formula_structural   Ta2NiO6
_chemical_formula_sum   'Ta4 Ni2 O12'
_cell_volume   209.90167173
_cell_formula_units_Z   2
loop_
 _symmetry_equiv_pos_site_id
 _symmetry_equiv_pos_as_xyz
  1  'x, y, z'
loop_
 _atom_site_type_symbol
 _atom_site_label
 _atom_site_symmetry_multiplicity
 _atom_site_fract_x
 _atom_site_fract_y
 _atom_site_fract_z
 _atom_site_occupancy
  O  O0  1  0.70296185  0.70296185  0.67504605  1
  O  O1  1  0.29704004  0.29704004  0.67504605  1
  O  O2  1  0.70296185  0.70296185  0.32495425  1
  O  O3  1  0.20296090  0.79703889  0.17504590  1
  O  O4  1  0.79703889  0.20296090  0.17504590  1
  O  O5  1  0.79703889  0.20296090  0.82495440  1
  O  O6  1  0.31047709  0.31047709  0.00000000  1
  O  O7  1  0.18952176  0.81047803  0.50000015  1
  O  O8  1  0.81047803  0.18952176  0.50000015  1
  O  O9  1  0.20296090  0.79703889  0.82495440  1
  O  O10  1  0.29704004  0.29704004  0.32495425  1
  O  O11  1  0.68952271  0.68952271  0.00000000  1
  Ni  Ni12  1  0.00000000  0.00000000  0.00000000  1
  Ni  Ni13  1  0.50000094  0.50000094  0.50000015  1
  Ta  Ta14  1  0.00000000  0.00000000  0.33128104  1
  Ta  Ta15  1  0.50000094  0.50000094  0.83128119  1
  Ta  Ta16  1  0.50000094  0.50000094  0.16871911  1
  Ta  Ta17  1  0.00000000  0.00000000  0.66871926  1
