# generated using pymatgen
data_Ba4Y3F17
_symmetry_space_group_name_H-M   'P 1'
_cell_length_a   9.48029395
_cell_length_b   9.42853956
_cell_length_c   9.42530169
_cell_angle_alpha   73.00219057
_cell_angle_beta   72.98952145
_cell_angle_gamma   72.79899024
_symmetry_Int_Tables_number   1
_chemical_formula_structural   Ba4Y3F17
_chemical_formula_sum   'Ba8 Y6 F34'
_cell_volume   749.80346370
_cell_formula_units_Z   2
loop_
 _symmetry_equiv_pos_site_id
 _symmetry_equiv_pos_as_xyz
  1  'x, y, z'
loop_
 _atom_site_type_symbol
 _atom_site_label
 _atom_site_symmetry_multiplicity
 _atom_site_fract_x
 _atom_site_fract_y
 _atom_site_fract_z
 _atom_site_occupancy
  Ba  Ba0  1  0.04686057  0.31153835  0.89169596  1
  Ba  Ba1  1  0.26667519  0.26419121  0.26904687  1
  Ba  Ba2  1  0.31451000  0.88535095  0.05768505  1
  Ba  Ba3  1  0.11127193  0.94784408  0.68712729  1
  Ba  Ba4  1  0.88363468  0.05515047  0.31425059  1
  Ba  Ba5  1  0.68551347  0.11369174  0.95028460  1
  Ba  Ba6  1  0.73208291  0.73092755  0.73769858  1
  Ba  Ba7  1  0.94538330  0.68785449  0.11247643  1
  F  F8  1  -0.00463018  0.00519192  0.99870381  1
  F  F9  1  0.01189518  0.18267808  0.45588586  1
  F  F10  1  0.13769309  0.13657910  0.13973176  1
  F  F11  1  0.04249642  0.48879598  0.36358429  1
  F  F12  1  0.18279398  0.45261159  0.01204438  1
  F  F13  1  0.08383093  0.78258925  0.26464486  1
  F  F14  1  0.45171686  0.01155940  0.18804100  1
  F  F15  1  0.36252126  0.03538559  0.49193632  1
  F  F16  1  0.26369935  0.08670162  0.78239490  1
  F  F17  1  0.26607810  0.34969173  0.54329267  1
  F  F18  1  0.21378538  0.58907447  0.69446467  1
  F  F19  1  0.34485292  0.54831090  0.25981201  1
  F  F20  1  0.48514895  0.36043722  0.04321939  1
  F  F21  1  0.30011519  0.79194269  0.40723606  1
  F  F22  1  0.21804998  0.73626794  0.91493235  1
  F  F23  1  0.54530879  0.25680361  0.35123453  1
  F  F24  1  0.41576803  0.30413793  0.78601433  1
  F  F25  1  0.55417101  0.52463168  0.43333276  1
  F  F26  1  0.59642961  0.72004316  0.17662339  1
  F  F27  1  0.45647640  0.73397832  0.65164996  1
  F  F28  1  0.77336037  0.26863873  0.09088294  1
  F  F29  1  0.69821371  0.20617496  0.58327762  1
  F  F30  1  0.50895512  0.63532891  0.96210993  1
  F  F31  1  0.64850513  0.45676828  0.73607147  1
  F  F32  1  0.82150474  0.40387230  0.28543136  1
  F  F33  1  0.75509158  0.65817262  0.45175019  1
  F  F34  1  0.73335625  0.91398394  0.22159473  1
  F  F35  1  0.63692823  0.95503188  0.51386729  1
  F  F36  1  0.54561510  0.98754851  0.81811095  1
  F  F37  1  0.90759804  0.22355012  0.73329570  1
  F  F38  1  0.81615551  0.54645704  0.98872902  1
  F  F39  1  0.95977788  0.50978629  0.64022170  1
  F  F40  1  0.86222489  0.86330119  0.86046792  1
  F  F41  1  0.98689388  0.81557901  0.54849252  1
  Y  Y42  1  0.16238683  0.60875278  0.46847489  1
  Y  Y43  1  0.46790719  0.16057455  0.60923907  1
  Y  Y44  1  0.39096240  0.53070385  0.83991948  1
  Y  Y45  1  0.60739778  0.47319864  0.18660205  1
  Y  Y46  1  0.53514447  0.81682960  0.39108892  1
  Y  Y47  1  0.82538757  0.39508578  0.52702759  1
