# generated using pymatgen
data_La2Ni5B4
_symmetry_space_group_name_H-M   'P 1'
_cell_length_a   5.13167770
_cell_length_b   5.53779982
_cell_length_c   6.21499044
_cell_angle_alpha   70.57984732
_cell_angle_beta   65.61620851
_cell_angle_gamma   62.39768655
_symmetry_Int_Tables_number   1
_chemical_formula_structural   La2Ni5B4
_chemical_formula_sum   'La2 Ni5 B4'
_cell_volume   140.35716665
_cell_formula_units_Z   1
loop_
 _symmetry_equiv_pos_site_id
 _symmetry_equiv_pos_as_xyz
  1  'x, y, z'
loop_
 _atom_site_type_symbol
 _atom_site_label
 _atom_site_symmetry_multiplicity
 _atom_site_fract_x
 _atom_site_fract_y
 _atom_site_fract_z
 _atom_site_occupancy
  B  B0  1  0.59753928  0.94100796  0.86391347  1
  B  B1  1  0.40246072  0.05899204  0.13608653  1
  B  B2  1  0.22213191  0.39650499  0.15923120  1
  B  B3  1  0.77786809  0.60349501  0.84076880  1
  Ni  Ni4  1  0.32821060  0.72055666  0.12578634  1
  Ni  Ni5  1  0.67178940  0.27944334  0.87421366  1
  Ni  Ni6  1  0.00000000  0.50000000  0.50000000  1
  Ni  Ni7  1  0.82544640  0.72055666  0.12578634  1
  Ni  Ni8  1  0.17455360  0.27944334  0.87421366  1
  La  La9  1  0.72480885  0.19710285  0.35327944  1
  La  La10  1  0.27519115  0.80289715  0.64672056  1
