# generated using pymatgen
data_Ca4P7Ir8
_symmetry_space_group_name_H-M   'P 1'
_cell_length_a   3.98246136
_cell_length_b   12.63393531
_cell_length_c   13.16998452
_cell_angle_alpha   98.91707952
_cell_angle_beta   90.00000000
_cell_angle_gamma   90.00000000
_symmetry_Int_Tables_number   1
_chemical_formula_structural   Ca4P7Ir8
_chemical_formula_sum   'Ca8 P14 Ir16'
_cell_volume   654.62787398
_cell_formula_units_Z   2
loop_
 _symmetry_equiv_pos_site_id
 _symmetry_equiv_pos_as_xyz
  1  'x, y, z'
loop_
 _atom_site_type_symbol
 _atom_site_label
 _atom_site_symmetry_multiplicity
 _atom_site_fract_x
 _atom_site_fract_y
 _atom_site_fract_z
 _atom_site_occupancy
  P  P0  1  0.25000000  0.09126542  0.41240580  1
  P  P1  1  0.75000000  0.52856832  0.12821074  1
  P  P2  1  0.25000000  0.47143168  0.87178926  1
  P  P3  1  0.75000000  0.90873458  0.58759420  1
  P  P4  1  0.25000000  0.25852757  0.07964430  1
  P  P5  1  0.75000000  0.74147243  0.92035570  1
  P  P6  1  0.75000000  0.84499629  0.28076324  1
  P  P7  1  0.25000000  0.15500371  0.71923676  1
  P  P8  1  0.25000000  0.94374524  0.09936289  1
  P  P9  1  0.75000000  0.05625476  0.90063711  1
  P  P10  1  0.25000000  0.69026820  0.68817248  1
  P  P11  1  0.75000000  0.30973180  0.31182752  1
  P  P12  1  0.25000000  0.38967216  0.56230757  1
  P  P13  1  0.75000000  0.61032784  0.43769243  1
  Ca  Ca14  1  0.75000000  0.21419781  0.56579009  1
  Ca  Ca15  1  0.25000000  0.78580219  0.43420991  1
  Ca  Ca16  1  0.75000000  0.51464323  0.70875905  1
  Ca  Ca17  1  0.25000000  0.48535677  0.29124095  1
  Ca  Ca18  1  0.75000000  0.28327626  0.89458017  1
  Ca  Ca19  1  0.25000000  0.89621902  0.79261388  1
  Ca  Ca20  1  0.75000000  0.10378098  0.20738612  1
  Ca  Ca21  1  0.25000000  0.71672374  0.10541983  1
  Ir  Ir22  1  0.25000000  0.01404478  0.57497432  1
  Ir  Ir23  1  0.75000000  0.98595522  0.42502568  1
  Ir  Ir24  1  0.25000000  0.33696252  0.72720370  1
  Ir  Ir25  1  0.75000000  0.66303748  0.27279630  1
  Ir  Ir26  1  0.25000000  0.44599678  0.04824016  1
  Ir  Ir27  1  0.75000000  0.55400322  0.95175984  1
  Ir  Ir28  1  0.25000000  0.93875980  0.27401067  1
  Ir  Ir29  1  0.75000000  0.06124020  0.72598933  1
  Ir  Ir30  1  0.25000000  0.57669644  0.52749628  1
  Ir  Ir31  1  0.75000000  0.42330356  0.47250372  1
  Ir  Ir32  1  0.25000000  0.08308556  0.99886805  1
  Ir  Ir33  1  0.75000000  0.91691444  0.00113195  1
  Ir  Ir34  1  0.25000000  0.27141608  0.39576242  1
  Ir  Ir35  1  0.75000000  0.72858392  0.60423758  1
  Ir  Ir36  1  0.25000000  0.66066637  0.85804748  1
  Ir  Ir37  1  0.75000000  0.33933363  0.14195252  1
