# generated using pymatgen
data_K4Sn3Se8
_symmetry_space_group_name_H-M   'P 1'
_cell_length_a   8.42020177
_cell_length_b   8.46026816
_cell_length_c   14.73955863
_cell_angle_alpha   106.67795145
_cell_angle_beta   90.00000000
_cell_angle_gamma   90.00000000
_symmetry_Int_Tables_number   1
_chemical_formula_structural   K4Sn3Se8
_chemical_formula_sum   'K8 Sn6 Se16'
_cell_volume   1005.83384229
_cell_formula_units_Z   2
loop_
 _symmetry_equiv_pos_site_id
 _symmetry_equiv_pos_as_xyz
  1  'x, y, z'
loop_
 _atom_site_type_symbol
 _atom_site_label
 _atom_site_symmetry_multiplicity
 _atom_site_fract_x
 _atom_site_fract_y
 _atom_site_fract_z
 _atom_site_occupancy
  K  K0  1  0.25000000  0.64685842  0.29371683  1
  K  K1  1  0.25000000  0.85314158  0.70628317  1
  K  K2  1  0.75000000  0.35314158  0.70628317  1
  K  K3  1  0.75000000  0.14685842  0.29371683  1
  K  K4  1  0.25000000  0.98299807  0.96599614  1
  K  K5  1  0.25000000  0.51700193  0.03400386  1
  K  K6  1  0.75000000  0.01700193  0.03400386  1
  K  K7  1  0.75000000  0.48299807  0.96599614  1
  Se  Se8  1  0.91149198  0.64999815  0.62226139  1
  Se  Se9  1  0.58850802  0.52773676  0.37773861  1
  Se  Se10  1  0.08850802  0.14999815  0.62226139  1
  Se  Se11  1  0.58850802  0.97226324  0.62226139  1
  Se  Se12  1  0.41149198  0.02773676  0.37773861  1
  Se  Se13  1  0.41149198  0.47226324  0.62226139  1
  Se  Se14  1  0.93030742  0.39736399  0.15406008  1
  Se  Se15  1  0.93030742  0.10263601  0.84593992  1
  Se  Se16  1  0.56969258  0.74330391  0.84593992  1
  Se  Se17  1  0.56969258  0.75669609  0.15406008  1
  Se  Se18  1  0.06969258  0.60263601  0.84593992  1
  Se  Se19  1  0.06969258  0.89736399  0.15406008  1
  Se  Se20  1  0.43030742  0.25669609  0.15406008  1
  Se  Se21  1  0.43030742  0.24330391  0.84593992  1
  Se  Se22  1  0.08850802  0.35000185  0.37773861  1
  Se  Se23  1  0.91149198  0.85000185  0.37773861  1
  Sn  Sn24  1  0.25000000  0.12359170  0.24718339  1
  Sn  Sn25  1  0.25000000  0.37640830  0.75281661  1
  Sn  Sn26  1  0.75000000  0.87640830  0.75281661  1
  Sn  Sn27  1  0.75000000  0.62359170  0.24718339  1
  Sn  Sn28  1  0.25000000  0.25000000  0.50000000  1
  Sn  Sn29  1  0.75000000  0.75000000  0.50000000  1
