# generated using pymatgen
data_Tb2Te4O11
_symmetry_space_group_name_H-M   'P 1'
_cell_length_a   5.19093445
_cell_length_b   6.78003484
_cell_length_c   16.15214509
_cell_angle_alpha   79.89691803
_cell_angle_beta   80.75312685
_cell_angle_gamma   67.49213140
_symmetry_Int_Tables_number   1
_chemical_formula_structural   Tb2Te4O11
_chemical_formula_sum   'Tb4 Te8 O22'
_cell_volume   514.28318915
_cell_formula_units_Z   2
loop_
 _symmetry_equiv_pos_site_id
 _symmetry_equiv_pos_as_xyz
  1  'x, y, z'
loop_
 _atom_site_type_symbol
 _atom_site_label
 _atom_site_symmetry_multiplicity
 _atom_site_fract_x
 _atom_site_fract_y
 _atom_site_fract_z
 _atom_site_occupancy
  O  O0  1  0.85406203  0.25000000  0.75000000  1
  O  O1  1  0.14593797  0.75000000  0.25000000  1
  O  O2  1  0.20485260  0.87013146  0.83264460  1
  O  O3  1  0.90762866  0.62986854  0.66735540  1
  O  O4  1  0.79514740  0.12986854  0.16735540  1
  O  O5  1  0.09237134  0.37013146  0.33264460  1
  O  O6  1  0.60324259  0.04837572  0.90332644  1
  O  O7  1  0.55494475  0.45162428  0.59667356  1
  O  O8  1  0.39675741  0.95162428  0.09667356  1
  O  O9  1  0.44505525  0.54837572  0.40332644  1
  O  O10  1  0.03918020  0.18415022  0.95502536  1
  O  O11  1  0.17835579  0.31584978  0.54497464  1
  O  O12  1  0.68326801  0.13318034  0.37284579  1
  O  O13  1  0.18929415  0.36681966  0.12715421  1
  O  O14  1  0.31673199  0.86681966  0.62715421  1
  O  O15  1  0.81070585  0.63318034  0.87284579  1
  O  O16  1  0.24745055  0.96837748  0.44755279  1
  O  O17  1  0.66338082  0.53162252  0.05244721  1
  O  O18  1  0.75254945  0.03162252  0.55244721  1
  O  O19  1  0.33661918  0.46837748  0.94755279  1
  O  O20  1  0.82164421  0.68415022  0.45502536  1
  O  O21  1  0.96081980  0.81584978  0.04497464  1
  Te  Te22  1  0.60046954  0.54377546  0.69817980  1
  Te  Te23  1  0.84242479  0.95622454  0.80182020  1
  Te  Te24  1  0.39953046  0.45622454  0.30182020  1
  Te  Te25  1  0.15757521  0.04377546  0.19817980  1
  Te  Te26  1  0.15356233  0.38321622  0.87496668  1
  Te  Te27  1  0.41174523  0.11678378  0.62503332  1
  Te  Te28  1  0.84643767  0.61678378  0.12503332  1
  Te  Te29  1  0.58825477  0.88321622  0.37496668  1
  Tb  Tb30  1  0.13101076  0.70072616  0.53724927  1
  Tb  Tb31  1  0.36898620  0.79927384  0.96275073  1
  Tb  Tb32  1  0.86898924  0.29927384  0.46275073  1
  Tb  Tb33  1  0.63101380  0.20072616  0.03724927  1
