# generated using pymatgen
data_CuAsF7
_symmetry_space_group_name_H-M   'P 1'
_cell_length_a   6.97951807
_cell_length_b   6.98099036
_cell_length_c   7.38369362
_cell_angle_alpha   118.21004934
_cell_angle_beta   118.20518595
_cell_angle_gamma   89.99999997
_symmetry_Int_Tables_number   1
_chemical_formula_structural   CuAsF7
_chemical_formula_sum   'Cu2 As2 F14'
_cell_volume   267.57496099
_cell_formula_units_Z   2
loop_
 _symmetry_equiv_pos_site_id
 _symmetry_equiv_pos_as_xyz
  1  'x, y, z'
loop_
 _atom_site_type_symbol
 _atom_site_label
 _atom_site_symmetry_multiplicity
 _atom_site_fract_x
 _atom_site_fract_y
 _atom_site_fract_z
 _atom_site_occupancy
  F  F0  1  0.09676737  0.75000000  0.00000000  1
  F  F1  1  0.90323263  0.25000000  0.00000000  1
  F  F2  1  0.27445225  0.02989091  0.55961676  1
  F  F3  1  0.71483549  0.47010909  0.44038324  1
  F  F4  1  0.35278872  0.56808785  0.27178411  1
  F  F5  1  0.08100461  0.93191215  0.72821589  1
  F  F6  1  0.64733747  0.79628386  0.72826353  1
  F  F7  1  0.91907394  0.70371614  0.27173647  1
  F  F8  1  0.64721128  0.43191215  0.72821589  1
  F  F9  1  0.91899539  0.06808785  0.27178411  1
  F  F10  1  0.35266253  0.20371614  0.27173647  1
  F  F11  1  0.08092606  0.29628386  0.72826353  1
  F  F12  1  0.28516451  0.52989091  0.55961676  1
  F  F13  1  0.72554775  0.97010909  0.44038324  1
  Cu  Cu14  1  0.00000000  0.00000000  0.00000000  1
  Cu  Cu15  1  0.00000000  0.50000000  0.00000000  1
  As  As16  1  0.00000000  0.00000000  0.50000000  1
  As  As17  1  0.50000000  0.50000000  0.50000000  1
