# generated using pymatgen
data_OsOF5
_symmetry_space_group_name_H-M   'P 1'
_cell_length_a   5.23789532
_cell_length_b   8.92127057
_cell_length_c   9.69459923
_cell_angle_alpha   90.00000000
_cell_angle_beta   90.00000000
_cell_angle_gamma   90.00000000
_symmetry_Int_Tables_number   1
_chemical_formula_structural   OsOF5
_chemical_formula_sum   'Os4 O4 F20'
_cell_volume   453.01583840
_cell_formula_units_Z   4
loop_
 _symmetry_equiv_pos_site_id
 _symmetry_equiv_pos_as_xyz
  1  'x, y, z'
loop_
 _atom_site_type_symbol
 _atom_site_label
 _atom_site_symmetry_multiplicity
 _atom_site_fract_x
 _atom_site_fract_y
 _atom_site_fract_z
 _atom_site_occupancy
  Os  Os0  1  0.92632267  0.75000000  0.88452552  1
  Os  Os1  1  0.42632267  0.25000000  0.61547448  1
  Os  Os2  1  0.07367733  0.25000000  0.11547448  1
  Os  Os3  1  0.57367733  0.75000000  0.38452552  1
  O  O4  1  0.18995804  0.75000000  0.98578302  1
  O  O5  1  0.68995804  0.25000000  0.51421698  1
  O  O6  1  0.81004196  0.25000000  0.01421698  1
  O  O7  1  0.31004196  0.75000000  0.48578302  1
  F  F8  1  0.62504779  0.75000000  0.77422987  1
  F  F9  1  0.12504779  0.25000000  0.72577013  1
  F  F10  1  0.37495221  0.25000000  0.22577013  1
  F  F11  1  0.87495221  0.75000000  0.27422987  1
  F  F12  1  0.75562384  0.89912701  0.98670574  1
  F  F13  1  0.25562384  0.10087299  0.51329426  1
  F  F14  1  0.24437616  0.39912701  0.01329426  1
  F  F15  1  0.74437616  0.60087299  0.48670574  1
  F  F16  1  0.24437616  0.10087299  0.01329426  1
  F  F17  1  0.74437616  0.89912701  0.48670574  1
  F  F18  1  0.75562384  0.60087299  0.98670574  1
  F  F19  1  0.25562384  0.39912701  0.51329426  1
  F  F20  1  0.04365598  0.89795923  0.76209594  1
  F  F21  1  0.54365598  0.10204077  0.73790406  1
  F  F22  1  0.95634402  0.39795923  0.23790406  1
  F  F23  1  0.45634402  0.60204077  0.26209594  1
  F  F24  1  0.95634402  0.10204077  0.23790406  1
  F  F25  1  0.45634402  0.89795923  0.26209594  1
  F  F26  1  0.04365598  0.60204077  0.76209594  1
  F  F27  1  0.54365598  0.39795923  0.73790406  1
