# generated using pymatgen
data_La2Te4O11
_symmetry_space_group_name_H-M   'P 1'
_cell_length_a   5.36181819
_cell_length_b   7.00425858
_cell_length_c   16.61184537
_cell_angle_alpha   79.21531156
_cell_angle_beta   80.71268185
_cell_angle_gamma   67.49561380
_symmetry_Int_Tables_number   1
_chemical_formula_structural   La2Te4O11
_chemical_formula_sum   'La4 Te8 O22'
_cell_volume   563.40337709
_cell_formula_units_Z   2
loop_
 _symmetry_equiv_pos_site_id
 _symmetry_equiv_pos_as_xyz
  1  'x, y, z'
loop_
 _atom_site_type_symbol
 _atom_site_label
 _atom_site_symmetry_multiplicity
 _atom_site_fract_x
 _atom_site_fract_y
 _atom_site_fract_z
 _atom_site_occupancy
  O  O0  1  0.85255893  0.25000000  0.75000000  1
  O  O1  1  0.14744107  0.75000000  0.25000000  1
  O  O2  1  0.19435584  0.87941994  0.82964870  1
  O  O3  1  0.90342448  0.62058006  0.67035130  1
  O  O4  1  0.80564416  0.12058006  0.17035130  1
  O  O5  1  0.09657552  0.37941994  0.32964870  1
  O  O6  1  0.61595692  0.05121708  0.89743030  1
  O  O7  1  0.56460429  0.44878292  0.60256970  1
  O  O8  1  0.38404308  0.94878292  0.10256970  1
  O  O9  1  0.43539571  0.55121708  0.39743030  1
  O  O10  1  0.04614967  0.19498558  0.95291855  1
  O  O11  1  0.19405379  0.30501442  0.54708145  1
  O  O12  1  0.67672497  0.13249293  0.37186338  1
  O  O13  1  0.18108129  0.36750707  0.12813662  1
  O  O14  1  0.32327503  0.86750707  0.62813662  1
  O  O15  1  0.81891871  0.63249293  0.87186338  1
  O  O16  1  0.25366262  0.97071245  0.44335187  1
  O  O17  1  0.66772695  0.52928755  0.05664813  1
  O  O18  1  0.74633738  0.02928755  0.55664813  1
  O  O19  1  0.33227305  0.47071245  0.94335187  1
  O  O20  1  0.80594621  0.69498558  0.45291855  1
  O  O21  1  0.95385033  0.80501442  0.04708145  1
  Te  Te22  1  0.60847895  0.53474036  0.70047080  1
  Te  Te23  1  0.84369011  0.96525964  0.79952920  1
  Te  Te24  1  0.39152105  0.46525964  0.29952920  1
  Te  Te25  1  0.15630989  0.03474036  0.20047080  1
  Te  Te26  1  0.14811863  0.39255112  0.87378014  1
  Te  Te27  1  0.41444989  0.10744888  0.62621986  1
  Te  Te28  1  0.85188137  0.60744888  0.12621986  1
  Te  Te29  1  0.58555011  0.89255112  0.37378014  1
  La  La30  1  0.13351970  0.69903582  0.53870191  1
  La  La31  1  0.37125743  0.80096418  0.96129809  1
  La  La32  1  0.86648030  0.30096418  0.46129809  1
  La  La33  1  0.62874257  0.19903582  0.03870191  1
