# generated using pymatgen
data_LiMn6P7O24
_symmetry_space_group_name_H-M   'P 1'
_cell_length_a   5.46016183
_cell_length_b   27.15620680
_cell_length_c   6.64708466
_cell_angle_alpha   90.00000000
_cell_angle_beta   107.74672523
_cell_angle_gamma   90.00000000
_symmetry_Int_Tables_number   1
_chemical_formula_structural   LiMn6P7O24
_chemical_formula_sum   'Li2 Mn12 P14 O48'
_cell_volume   938.70957534
_cell_formula_units_Z   2
loop_
 _symmetry_equiv_pos_site_id
 _symmetry_equiv_pos_as_xyz
  1  'x, y, z'
loop_
 _atom_site_type_symbol
 _atom_site_label
 _atom_site_symmetry_multiplicity
 _atom_site_fract_x
 _atom_site_fract_y
 _atom_site_fract_z
 _atom_site_occupancy
  Li  Li0  1  0.10443606  0.25000000  0.45542293  1
  Li  Li1  1  0.89556461  0.75000000  0.54457759  1
  O  O2  1  0.14161246  0.40514422  0.39662397  1
  O  O3  1  0.93350981  0.16373632  0.05216467  1
  O  O4  1  0.86987760  0.45265516  0.00329070  1
  O  O5  1  0.86987760  0.04734484  0.00329070  1
  O  O6  1  0.85146031  0.02224480  0.63009061  1
  O  O7  1  0.84381830  0.62211472  0.23406205  1
  O  O8  1  0.87878425  0.30570687  0.39708005  1
  O  O9  1  0.87878425  0.19429213  0.39708005  1
  O  O10  1  0.80509720  0.75000000  0.23358822  1
  O  O11  1  0.85838750  0.90514400  0.60337569  1
  O  O12  1  0.85838750  0.59485600  0.60337569  1
  O  O13  1  0.85146031  0.47775520  0.63009061  1
  O  O14  1  0.06649101  0.66373632  0.94783624  1
  O  O15  1  0.06649101  0.83626368  0.94783624  1
  O  O16  1  0.13012367  0.54734488  0.99670820  1
  O  O17  1  0.13012367  0.95265512  0.99670820  1
  O  O18  1  0.15618020  0.12211475  0.76593719  1
  O  O19  1  0.15618020  0.37788625  0.76593719  1
  O  O20  1  0.12121593  0.69429299  0.60292132  1
  O  O21  1  0.12121593  0.80570701  0.60292132  1
  O  O22  1  0.19490419  0.25000000  0.76641133  1
  O  O23  1  0.14161246  0.09485578  0.39662397  1
  O  O24  1  0.93350981  0.33626368  0.05216467  1
  O  O25  1  0.14854185  0.52224487  0.36990867  1
  O  O26  1  0.14854185  0.97775513  0.36990867  1
  O  O27  1  0.38938266  0.62047445  0.79278577  1
  O  O28  1  0.38938266  0.87952455  0.79278577  1
  O  O29  1  0.48872684  0.70380765  0.94400394  1
  O  O30  1  0.48872684  0.79619235  0.94400394  1
  O  O31  1  0.45103483  0.05714075  0.71141365  1
  O  O32  1  0.45103483  0.44285925  0.71141365  1
  O  O33  1  0.32544337  0.75000000  0.21472512  1
  O  O34  1  0.58977863  0.52594694  0.82448734  1
  O  O35  1  0.58977863  0.97405306  0.82448734  1
  O  O36  1  0.51475635  0.14706110  0.61557800  1
  O  O37  1  0.51475635  0.35293890  0.61557800  1
  O  O38  1  0.48524232  0.64706093  0.38442102  1
  O  O39  1  0.48524232  0.85293907  0.38442102  1
  O  O40  1  0.41022261  0.02594702  0.17551196  1
  O  O41  1  0.41022261  0.47405298  0.17551196  1
  O  O42  1  0.67455797  0.25000000  0.78527648  1
  O  O43  1  0.54896676  0.55714068  0.28858554  1
  O  O44  1  0.54896676  0.94285932  0.28858554  1
  O  O45  1  0.51127432  0.20380756  0.05599639  1
  O  O46  1  0.51127432  0.29619244  0.05599639  1
  O  O47  1  0.61061655  0.12047468  0.20721264  1
  O  O48  1  0.61061655  0.37952532  0.20721264  1
  O  O49  1  0.84381830  0.87788628  0.23406205  1
  P  P50  1  0.75174628  0.33208917  0.18781991  1
  P  P51  1  0.75174628  0.16791083  0.18781991  1
  P  P52  1  0.68318248  0.89130077  0.38182626  1
  P  P53  1  0.68318248  0.60869823  0.38182626  1
  P  P54  1  0.52481551  0.75000000  0.09669230  1
  P  P55  1  0.70688760  0.47586794  0.79473927  1
  P  P56  1  0.70688760  0.02413206  0.79473927  1
  P  P57  1  0.29311371  0.97586795  0.20525970  1
  P  P58  1  0.29311371  0.52413205  0.20525970  1
  P  P59  1  0.47518565  0.25000000  0.90330884  1
  P  P60  1  0.31681619  0.39130091  0.61817302  1
  P  P61  1  0.31681619  0.10869809  0.61817302  1
  P  P62  1  0.24825444  0.66791048  0.81218075  1
  P  P63  1  0.24825444  0.83208852  0.81218075  1
  Mn  Mn64  1  0.18755960  0.54522074  0.68605181  1
  Mn  Mn65  1  0.18755960  0.95477926  0.68605181  1
  Mn  Mn66  1  0.12757673  0.68105928  0.28082153  1
  Mn  Mn67  1  0.12757673  0.81894172  0.28082153  1
  Mn  Mn68  1  0.20879529  0.09771560  0.08773196  1
  Mn  Mn69  1  0.20879529  0.40228440  0.08773196  1
  Mn  Mn70  1  0.79120127  0.59771551  0.91226530  1
  Mn  Mn71  1  0.79120127  0.90228449  0.91226530  1
  Mn  Mn72  1  0.87242145  0.18105882  0.71918217  1
  Mn  Mn73  1  0.87242145  0.31894218  0.71918217  1
  Mn  Mn74  1  0.81244041  0.04522083  0.31394677  1
  Mn  Mn75  1  0.81244041  0.45477917  0.31394677  1
