# generated using pymatgen
data_Y2ReB6
_symmetry_space_group_name_H-M   'P 1'
_cell_length_a   3.68662141
_cell_length_b   9.19343761
_cell_length_c   11.58180842
_cell_angle_alpha   90.00000000
_cell_angle_beta   90.00000000
_cell_angle_gamma   90.00000000
_symmetry_Int_Tables_number   1
_chemical_formula_structural   Y2ReB6
_chemical_formula_sum   'Y8 Re4 B24'
_cell_volume   392.53903533
_cell_formula_units_Z   4
loop_
 _symmetry_equiv_pos_site_id
 _symmetry_equiv_pos_as_xyz
  1  'x, y, z'
loop_
 _atom_site_type_symbol
 _atom_site_label
 _atom_site_symmetry_multiplicity
 _atom_site_fract_x
 _atom_site_fract_y
 _atom_site_fract_z
 _atom_site_occupancy
  Y  Y0  1  0.00000000  0.82352140  0.08604574  1
  Y  Y1  1  0.00000000  0.17647860  0.91395426  1
  Y  Y2  1  0.00000000  0.32352140  0.41395426  1
  Y  Y3  1  0.00000000  0.67647860  0.58604574  1
  Y  Y4  1  0.00000000  0.44303199  0.12970398  1
  Y  Y5  1  0.00000000  0.55696801  0.87029602  1
  Y  Y6  1  0.00000000  0.94303199  0.37029602  1
  Y  Y7  1  0.00000000  0.05696801  0.62970398  1
  Re  Re8  1  0.00000000  0.13843952  0.17917978  1
  Re  Re9  1  0.00000000  0.86156048  0.82082022  1
  Re  Re10  1  0.00000000  0.63843952  0.32082022  1
  Re  Re11  1  0.00000000  0.36156048  0.67917978  1
  B  B12  1  0.50000000  0.05318419  0.06730750  1
  B  B13  1  0.50000000  0.94681581  0.93269250  1
  B  B14  1  0.50000000  0.55318419  0.43269250  1
  B  B15  1  0.50000000  0.44681581  0.56730750  1
  B  B16  1  0.50000000  0.24844117  0.08166348  1
  B  B17  1  0.50000000  0.75155883  0.91833652  1
  B  B18  1  0.50000000  0.74844117  0.41833652  1
  B  B19  1  0.50000000  0.25155883  0.58166348  1
  B  B20  1  0.50000000  0.29163525  0.23436255  1
  B  B21  1  0.50000000  0.70836475  0.76563745  1
  B  B22  1  0.50000000  0.79163525  0.26563745  1
  B  B23  1  0.50000000  0.20836475  0.73436255  1
  B  B24  1  0.50000000  0.13072728  0.31409053  1
  B  B25  1  0.50000000  0.86927272  0.68590947  1
  B  B26  1  0.50000000  0.63072728  0.18590947  1
  B  B27  1  0.50000000  0.36927272  0.81409053  1
  B  B28  1  0.50000000  0.48226683  0.28813956  1
  B  B29  1  0.50000000  0.51773317  0.71186044  1
  B  B30  1  0.50000000  0.98226683  0.21186044  1
  B  B31  1  0.50000000  0.01773317  0.78813956  1
  B  B32  1  0.50000000  0.10047803  0.47182186  1
  B  B33  1  0.50000000  0.89952197  0.52817814  1
  B  B34  1  0.50000000  0.60047803  0.02817814  1
  B  B35  1  0.50000000  0.39952197  0.97182186  1
