# generated using pymatgen
data_Er3Pb4F17
_symmetry_space_group_name_H-M   'P 1'
_cell_length_a   9.20292913
_cell_length_b   9.15295216
_cell_length_c   9.15156199
_cell_angle_alpha   73.15224747
_cell_angle_beta   73.21584598
_cell_angle_gamma   72.97385938
_symmetry_Int_Tables_number   1
_chemical_formula_structural   Er3Pb4F17
_chemical_formula_sum   'Er6 Pb8 F34'
_cell_volume   687.71496516
_cell_formula_units_Z   2
loop_
 _symmetry_equiv_pos_site_id
 _symmetry_equiv_pos_as_xyz
  1  'x, y, z'
loop_
 _atom_site_type_symbol
 _atom_site_label
 _atom_site_symmetry_multiplicity
 _atom_site_fract_x
 _atom_site_fract_y
 _atom_site_fract_z
 _atom_site_occupancy
  Er  Er0  1  0.16265850  0.60709537  0.46976520  1
  Er  Er1  1  0.46887154  0.16060045  0.60780419  1
  Er  Er2  1  0.60477440  0.47415687  0.18537388  1
  Er  Er3  1  0.39238300  0.52978822  0.83925968  1
  Er  Er4  1  0.53390340  0.81517993  0.39452891  1
  Er  Er5  1  0.82264270  0.39845262  0.52486283  1
  F  F6  1  0.99075584  0.01021763  -0.00182682  1
  F  F7  1  0.13771826  0.13542941  0.13946629  1
  F  F8  1  0.01834894  0.18035120  0.45553518  1
  F  F9  1  0.04377217  0.48998981  0.35847257  1
  F  F10  1  0.18050363  0.45233640  0.01932890  1
  F  F11  1  0.08216489  0.78951901  0.25550276  1
  F  F12  1  0.25519816  0.08604247  0.78906120  1
  F  F13  1  0.35677181  0.03610510  0.49317408  1
  F  F14  1  0.26558900  0.34807731  0.54206377  1
  F  F15  1  0.45077342  0.01893132  0.18435674  1
  F  F16  1  0.34387870  0.54946111  0.25921936  1
  F  F17  1  0.21505554  0.58632063  0.69621223  1
  F  F18  1  0.48890729  0.35657315  0.04726874  1
  F  F19  1  0.29789282  0.79209627  0.40831830  1
  F  F20  1  0.54459855  0.25651885  0.34906932  1
  F  F21  1  0.21063545  0.74479865  0.91678445  1
  F  F22  1  0.42036894  0.30172689  0.78550978  1
  F  F23  1  0.59332374  0.72206976  0.17758985  1
  F  F24  1  0.55338261  0.52499609  0.44136054  1
  F  F25  1  0.78108376  0.25964572  0.08895166  1
  F  F26  1  0.45712244  0.73561826  0.65470938  1
  F  F27  1  0.70104523  0.20559274  0.57923358  1
  F  F28  1  0.50751687  0.64098699  0.96130677  1
  F  F29  1  0.82070750  0.40917935  0.28035852  1
  F  F30  1  0.65110952  0.45824559  0.73870332  1
  F  F31  1  0.54494058  0.97875538  0.82130713  1
  F  F32  1  0.75843332  0.66197539  0.45185478  1
  F  F33  1  0.64085194  0.95346181  0.51006815  1
  F  F34  1  0.74186569  0.91575831  0.21345001  1
  F  F35  1  0.90823644  0.21593583  0.74105605  1
  F  F36  1  0.81834684  0.54698463  0.97998903  1
  F  F37  1  0.95792766  0.50649595  0.64490066  1
  F  F38  1  0.98066100  0.81909717  0.54862118  1
  F  F39  1  0.86312587  0.86212896  0.86191428  1
  Pb  Pb40  1  0.03274934  0.30625623  0.90138542  1
  Pb  Pb41  1  0.26398778  0.26018260  0.26632063  1
  Pb  Pb42  1  0.31608404  0.89349685  0.04615996  1
  Pb  Pb43  1  0.09975678  0.96294709  0.68968827  1
  Pb  Pb44  1  0.89356819  0.04086117  0.31097650  1
  Pb  Pb45  1  0.68973498  0.10357671  0.96444728  1
  Pb  Pb46  1  0.73579100  0.73271019  0.73974571  1
  Pb  Pb47  1  0.95847997  0.68727257  0.10278984  1
