# generated using pymatgen
data_La5(AlBr)4
_symmetry_space_group_name_H-M   'P 1'
_cell_length_a   8.32952435
_cell_length_b   8.32952435
_cell_length_c   11.74835066
_cell_angle_alpha   110.76265692
_cell_angle_beta   110.76265689
_cell_angle_gamma   90.00000000
_symmetry_Int_Tables_number   1
_chemical_formula_structural   La5(AlBr)4
_chemical_formula_sum   'La10 Al8 Br8'
_cell_volume   705.27820014
_cell_formula_units_Z   2
loop_
 _symmetry_equiv_pos_site_id
 _symmetry_equiv_pos_as_xyz
  1  'x, y, z'
loop_
 _atom_site_type_symbol
 _atom_site_label
 _atom_site_symmetry_multiplicity
 _atom_site_fract_x
 _atom_site_fract_y
 _atom_site_fract_z
 _atom_site_occupancy
  Al  Al0  1  0.86271948  0.07760444  0.44032392  1
  Al  Al1  1  0.13728052  0.92239556  0.55967608  1
  Al  Al2  1  0.42239556  0.63728052  0.55967608  1
  Al  Al3  1  0.92239556  0.42239556  0.55967608  1
  Al  Al4  1  0.63728052  0.13728052  0.55967608  1
  Al  Al5  1  0.36271948  0.86271948  0.44032392  1
  Al  Al6  1  0.07760444  0.57760444  0.44032392  1
  Al  Al7  1  0.57760444  0.36271948  0.44032392  1
  Br  Br8  1  0.35596066  0.14403934  0.00000000  1
  Br  Br9  1  0.85596066  0.35596066  0.00000000  1
  Br  Br10  1  0.40531336  0.40531336  0.81062673  1
  Br  Br11  1  0.09468664  0.09468664  0.18937327  1
  Br  Br12  1  0.59468664  0.59468664  0.18937327  1
  Br  Br13  1  0.90531336  0.90531336  0.81062673  1
  Br  Br14  1  0.64403934  0.85596066  0.00000000  1
  Br  Br15  1  0.14403934  0.64403934  0.00000000  1
  La  La16  1  0.75000000  0.75000000  0.50000000  1
  La  La17  1  0.25000000  0.25000000  0.50000000  1
  La  La18  1  0.04732010  0.22375717  0.77107727  1
  La  La19  1  0.95267990  0.77624283  0.22892273  1
  La  La20  1  0.27624283  0.45267990  0.22892273  1
  La  La21  1  0.77624283  0.27624283  0.22892273  1
  La  La22  1  0.45267990  0.95267990  0.22892273  1
  La  La23  1  0.54732010  0.04732010  0.77107727  1
  La  La24  1  0.22375717  0.72375717  0.77107727  1
  La  La25  1  0.72375717  0.54732010  0.77107727  1
