# generated using pymatgen
data_K(WO3)6
_symmetry_space_group_name_H-M   'P 1'
_cell_length_a   7.51681309
_cell_length_b   7.51681348
_cell_length_c   7.72941011
_cell_angle_alpha   90.00000000
_cell_angle_beta   90.00000000
_cell_angle_gamma   119.99999832
_symmetry_Int_Tables_number   1
_chemical_formula_structural   K(WO3)6
_chemical_formula_sum   'K1 W6 O18'
_cell_volume   378.22002176
_cell_formula_units_Z   1
loop_
 _symmetry_equiv_pos_site_id
 _symmetry_equiv_pos_as_xyz
  1  'x, y, z'
loop_
 _atom_site_type_symbol
 _atom_site_label
 _atom_site_symmetry_multiplicity
 _atom_site_fract_x
 _atom_site_fract_y
 _atom_site_fract_z
 _atom_site_occupancy
  K  K0  1  0.00000000  0.00000000  0.49984565  1
  O  O1  1  1.00000000  0.50037542  0.50000616  1
  O  O2  1  0.00000000  0.50035179  1.00000697  1
  O  O3  1  0.21120535  0.78724707  0.25199481  1
  O  O4  1  0.21306998  0.78912057  0.74802196  1
  O  O5  1  0.21275293  0.42395828  0.25199481  1
  O  O6  1  0.21087943  0.42394941  0.74802196  1
  O  O7  1  0.50037542  0.00000000  0.50000616  1
  O  O8  1  0.57604172  0.78879465  0.25199481  1
  O  O9  1  0.57605059  0.78693002  0.74802196  1
  O  O10  1  0.49962458  0.49962458  0.50000616  1
  O  O11  1  0.49964821  0.49964821  1.00000697  1
  O  O12  1  0.42395828  0.21275293  0.25199481  1
  O  O13  1  0.42394941  0.21087943  0.74802196  1
  O  O14  1  0.50035179  0.00000000  1.00000697  1
  O  O15  1  0.78693002  0.57605059  0.74802196  1
  O  O16  1  0.78879465  0.57604172  0.25199481  1
  O  O17  1  0.78724707  0.21120535  0.25199481  1
  O  O18  1  0.78912057  0.21306998  0.74802196  1
  W  W19  1  0.00000000  0.49622570  0.24949006  1
  W  W20  1  0.49622570  0.00000000  0.24949006  1
  W  W21  1  0.50448923  0.00000000  0.75051472  1
  W  W22  1  0.49551077  0.49551077  0.75051472  1
  W  W23  1  0.50377430  0.50377430  0.24949006  1
  W  W24  1  1.00000000  0.50448923  0.75051472  1
