# generated using pymatgen
data_BaVS3
_symmetry_space_group_name_H-M   'P 1'
_cell_length_a   5.65607508
_cell_length_b   6.75630805
_cell_length_c   6.75630806
_cell_angle_alpha   119.24689516
_cell_angle_beta   90.00000000
_cell_angle_gamma   90.00000000
_symmetry_Int_Tables_number   1
_chemical_formula_structural   BaVS3
_chemical_formula_sum   'Ba2 V2 S6'
_cell_volume   225.27379714
_cell_formula_units_Z   2
loop_
 _symmetry_equiv_pos_site_id
 _symmetry_equiv_pos_as_xyz
  1  'x, y, z'
loop_
 _atom_site_type_symbol
 _atom_site_label
 _atom_site_symmetry_multiplicity
 _atom_site_fract_x
 _atom_site_fract_y
 _atom_site_fract_z
 _atom_site_occupancy
  S  S0  1  0.24220387  0.15990097  0.31978649  1
  S  S1  1  0.74220387  0.84009903  0.68021351  1
  S  S2  1  0.24220387  0.68021351  0.84009903  1
  S  S3  1  0.74220387  0.31978649  0.15990097  1
  S  S4  1  0.75920550  0.82909270  0.17090730  1
  S  S5  1  0.25920550  0.17090730  0.82909270  1
  V  V6  1  0.51394247  0.97552625  0.02447375  1
  V  V7  1  0.01394247  0.02447375  0.97552625  1
  Ba  Ba8  1  0.25134428  0.66354773  0.33645227  1
  Ba  Ba9  1  0.75134428  0.33645227  0.66354773  1
