# generated using pymatgen
data_Rb2PbO2
_symmetry_space_group_name_H-M   'P 1'
_cell_length_a   8.00042949
_cell_length_b   7.74360378
_cell_length_c   10.64833631
_cell_angle_alpha   70.30174036
_cell_angle_beta   85.19106850
_cell_angle_gamma   61.31577145
_symmetry_Int_Tables_number   1
_chemical_formula_structural   Rb2PbO2
_chemical_formula_sum   'Rb8 Pb4 O8'
_cell_volume   542.43048986
_cell_formula_units_Z   4
loop_
 _symmetry_equiv_pos_site_id
 _symmetry_equiv_pos_as_xyz
  1  'x, y, z'
loop_
 _atom_site_type_symbol
 _atom_site_label
 _atom_site_symmetry_multiplicity
 _atom_site_fract_x
 _atom_site_fract_y
 _atom_site_fract_z
 _atom_site_occupancy
  Rb  Rb0  1  0.93329227  0.07607922  0.17644910  1
  Rb  Rb1  1  0.06670773  0.92392078  0.82355090  1
  Rb  Rb2  1  0.26861599  0.23863159  0.49326668  1
  Rb  Rb3  1  0.73138401  0.76136841  0.50673332  1
  Rb  Rb4  1  0.43165317  0.60199174  0.14156365  1
  Rb  Rb5  1  0.56834683  0.39800826  0.85843635  1
  Rb  Rb6  1  0.45130669  0.06433238  0.16952751  1
  Rb  Rb7  1  0.54869331  0.93566762  0.83047249  1
  Pb  Pb8  1  0.94059199  0.59785948  0.12542895  1
  Pb  Pb9  1  0.05940801  0.40214052  0.87457105  1
  Pb  Pb10  1  0.29686140  0.69429310  0.52638888  1
  Pb  Pb11  1  0.70313860  0.30570690  0.47361112  1
  O  O12  1  0.78719173  0.92928869  0.02230065  1
  O  O13  1  0.21280827  0.07071131  0.97769935  1
  O  O14  1  0.80730455  0.49645272  0.00507213  1
  O  O15  1  0.19269545  0.50354728  0.99492787  1
  O  O16  1  0.40227034  0.80547439  0.64485486  1
  O  O17  1  0.59772966  0.19452561  0.35514514  1
  O  O18  1  0.48402487  0.34214202  0.62555166  1
  O  O19  1  0.51597513  0.65785798  0.37444834  1
