# generated using pymatgen
data_Fe5O7F3
_symmetry_space_group_name_H-M   'P 1'
_cell_length_a   4.66250842
_cell_length_b   4.66250842
_cell_length_c   15.26308624
_cell_angle_alpha   90.02686401
_cell_angle_beta   90.02686401
_cell_angle_gamma   91.42333368
_symmetry_Int_Tables_number   1
_chemical_formula_structural   Fe5O7F3
_chemical_formula_sum   'Fe10 O14 F6'
_cell_volume   331.70154872
_cell_formula_units_Z   2
loop_
 _symmetry_equiv_pos_site_id
 _symmetry_equiv_pos_as_xyz
  1  'x, y, z'
loop_
 _atom_site_type_symbol
 _atom_site_label
 _atom_site_symmetry_multiplicity
 _atom_site_fract_x
 _atom_site_fract_y
 _atom_site_fract_z
 _atom_site_occupancy
  Fe  Fe0  1  0.98555765  0.96315661  0.00530283  1
  Fe  Fe1  1  0.03684339  0.01444235  0.19469717  1
  Fe  Fe2  1  0.01450344  0.97978490  0.39970330  1
  Fe  Fe3  1  0.01737726  0.98262274  0.60000000  1
  Fe  Fe4  1  0.02021510  0.98549656  0.80029670  1
  Fe  Fe5  1  0.50904777  0.49095223  0.10000000  1
  Fe  Fe6  1  0.48609713  0.51353527  0.50140662  1
  Fe  Fe7  1  0.47223196  0.51339155  0.30690478  1
  Fe  Fe8  1  0.48646473  0.51390287  0.69859338  1
  Fe  Fe9  1  0.48660845  0.52776804  0.89309522  1
  O  O10  1  0.20808269  0.79191731  0.10000000  1
  O  O11  1  0.19599338  0.81989609  0.29839354  1
  O  O12  1  0.18776400  0.80579672  0.50036164  1
  O  O13  1  0.19420328  0.81223600  0.69963836  1
  O  O14  1  0.18010391  0.80400662  0.90160646  1
  O  O15  1  0.32616369  0.32048294  0.19983735  1
  O  O16  1  0.30024548  0.30341147  0.40476473  1
  O  O17  1  0.30858461  0.30650440  0.60020984  1
  O  O18  1  0.30395300  0.30794392  0.79685492  1
  O  O19  1  0.67951706  0.67383631  0.00016265  1
  O  O20  1  0.69205608  0.69604700  0.40314508  1
  O  O21  1  0.69349560  0.69141539  0.59979016  1
  O  O22  1  0.69658853  0.69975452  0.79523527  1
  O  O23  1  0.80687152  0.19312848  0.10000000  1
  F  F24  1  0.29411364  0.29229693  0.99569016  1
  F  F25  1  0.70770307  0.70588636  0.20431084  1
  F  F26  1  0.80263024  0.19409367  0.50088448  1
  F  F27  1  0.80713849  0.20606147  0.30045014  1
  F  F28  1  0.79393853  0.19286151  0.89954986  1
  F  F29  1  0.80590633  0.19736976  0.69911552  1
