# generated using pymatgen
data_Ba3(SbO3)2
_symmetry_space_group_name_H-M   'P 1'
_cell_length_a   6.27341534
_cell_length_b   9.93202401
_cell_length_c   12.37227349
_cell_angle_alpha   104.93016523
_cell_angle_beta   90.39888117
_cell_angle_gamma   108.22224900
_symmetry_Int_Tables_number   1
_chemical_formula_structural   Ba3(SbO3)2
_chemical_formula_sum   'Ba9 Sb6 O18'
_cell_volume   704.28416806
_cell_formula_units_Z   3
loop_
 _symmetry_equiv_pos_site_id
 _symmetry_equiv_pos_as_xyz
  1  'x, y, z'
loop_
 _atom_site_type_symbol
 _atom_site_label
 _atom_site_symmetry_multiplicity
 _atom_site_fract_x
 _atom_site_fract_y
 _atom_site_fract_z
 _atom_site_occupancy
  O  O0  1  0.43818268  0.15744594  0.52046231  1
  O  O1  1  0.56181732  0.84255406  0.47953769  1
  O  O2  1  0.60367891  0.32615292  0.35309435  1
  O  O3  1  0.39632109  0.67384708  0.64690565  1
  O  O4  1  0.93617636  0.25267950  0.48615185  1
  O  O5  1  0.06382364  0.74732050  0.51384815  1
  O  O6  1  0.62887246  0.29172806  0.85138151  1
  O  O7  1  0.37112754  0.70827194  0.14861849  1
  O  O8  1  0.56304938  0.57896583  0.84137872  1
  O  O9  1  0.43695062  0.42103417  0.15862128  1
  O  O10  1  0.01132935  0.56599581  0.82227147  1
  O  O11  1  0.79526255  0.05039446  0.15703073  1
  O  O12  1  0.20473745  0.94960554  0.84296927  1
  O  O13  1  0.26648210  0.04114948  0.14165016  1
  O  O14  1  0.73351790  0.95885052  0.85834984  1
  O  O15  1  0.97035834  0.88624835  0.28075426  1
  O  O16  1  0.02964166  0.11375165  0.71924574  1
  O  O17  1  0.98867065  0.43400419  0.17772853  1
  Sb  Sb18  1  0.76363662  0.50599217  0.91774254  1
  Sb  Sb19  1  0.23636338  0.49400783  0.08225746  1
  Sb  Sb20  1  0.04488307  0.09670045  0.87524490  1
  Sb  Sb21  1  0.95511693  0.90329955  0.12475510  1
  Sb  Sb22  1  0.68298490  0.33351408  0.50794865  1
  Sb  Sb23  1  0.31701510  0.66648592  0.49205135  1
  Ba  Ba24  1  0.61072975  0.21195189  0.06174124  1
  Ba  Ba25  1  0.21769669  0.39973271  0.70252049  1
  Ba  Ba26  1  0.38927025  0.78804811  0.93825876  1
  Ba  Ba27  1  0.78230331  0.60026729  0.29747951  1
  Ba  Ba28  1  0.51588368  0.03697761  0.70240231  1
  Ba  Ba29  1  0.48411632  0.96302239  0.29759769  1
  Ba  Ba30  1  0.84811805  0.72246591  0.71116062  1
  Ba  Ba31  1  0.15188195  0.27753409  0.28883938  1
  Ba  Ba32  1  0.00000000  0.00000000  0.50000000  1
