# generated using pymatgen
data_Na2B2Se7
_symmetry_space_group_name_H-M   'P 1'
_cell_length_a   6.87023309
_cell_length_b   8.28300634
_cell_length_c   11.20407751
_cell_angle_alpha   74.87025251
_cell_angle_beta   72.14583842
_cell_angle_gamma   65.49840523
_symmetry_Int_Tables_number   1
_chemical_formula_structural   Na2B2Se7
_chemical_formula_sum   'Na4 B4 Se14'
_cell_volume   545.59155652
_cell_formula_units_Z   2
loop_
 _symmetry_equiv_pos_site_id
 _symmetry_equiv_pos_as_xyz
  1  'x, y, z'
loop_
 _atom_site_type_symbol
 _atom_site_label
 _atom_site_symmetry_multiplicity
 _atom_site_fract_x
 _atom_site_fract_y
 _atom_site_fract_z
 _atom_site_occupancy
  B  B0  1  0.83734743  0.61445757  0.15036169  1
  B  B1  1  0.60216669  0.88554243  0.34963831  1
  B  B2  1  0.16265257  0.38554243  0.84963831  1
  B  B3  1  0.39783331  0.11445757  0.65036169  1
  Na  Na4  1  0.67332011  0.17707384  0.04296655  1
  Na  Na5  1  0.89336050  0.32292616  0.45703345  1
  Na  Na6  1  0.32667989  0.82292616  0.95703345  1
  Na  Na7  1  0.10663950  0.67707384  0.54296655  1
  Se  Se8  1  0.52462506  0.75000000  0.25000000  1
  Se  Se9  1  0.47537494  0.25000000  0.75000000  1
  Se  Se10  1  0.19897434  0.22294257  0.01975919  1
  Se  Se11  1  0.44167609  0.27705743  0.48024081  1
  Se  Se12  1  0.80102566  0.77705743  0.98024081  1
  Se  Se13  1  0.55832391  0.72294257  0.51975919  1
  Se  Se14  1  0.85518948  0.35523592  0.16833289  1
  Se  Se15  1  0.37875829  0.14476408  0.33166711  1
  Se  Se16  1  0.14481052  0.64476408  0.83166711  1
  Se  Se17  1  0.62124171  0.85523592  0.66833289  1
  Se  Se18  1  0.08384200  0.60141959  0.22393814  1
  Se  Se19  1  0.90919973  0.89858041  0.27606186  1
  Se  Se20  1  0.91615800  0.39858041  0.77606186  1
  Se  Se21  1  0.09080027  0.10141959  0.72393814  1
