# generated using pymatgen
data_Li8CoO6
_symmetry_space_group_name_H-M   'P 1'
_cell_length_a   5.55607009
_cell_length_b   5.55607009
_cell_length_c   10.89773252
_cell_angle_alpha   90.00000000
_cell_angle_beta   90.00000000
_cell_angle_gamma   120.00000006
_symmetry_Int_Tables_number   1
_chemical_formula_structural   Li8CoO6
_chemical_formula_sum   'Li16 Co2 O12'
_cell_volume   291.34140281
_cell_formula_units_Z   2
loop_
 _symmetry_equiv_pos_site_id
 _symmetry_equiv_pos_as_xyz
  1  'x, y, z'
loop_
 _atom_site_type_symbol
 _atom_site_label
 _atom_site_symmetry_multiplicity
 _atom_site_fract_x
 _atom_site_fract_y
 _atom_site_fract_z
 _atom_site_occupancy
  Li  Li0  1  0.68752475  0.00000000  0.76774038  1
  Li  Li1  1  0.68752329  0.68752361  0.26773985  1
  Li  Li2  1  0.99999978  0.31247667  0.26773985  1
  Li  Li3  1  0.00000033  0.68752361  0.76774038  1
  Li  Li4  1  0.31247689  0.31247667  0.76774038  1
  Li  Li5  1  0.31247531  0.00000000  0.26773985  1
  Li  Li6  1  0.61143450  0.00000000  0.12741584  1
  Li  Li7  1  0.61143459  0.61143468  0.62741545  1
  Li  Li8  1  0.00000002  0.38856561  0.62741545  1
  Li  Li9  1  0.00000009  0.61143468  0.12741584  1
  Li  Li10  1  0.38856559  0.38856561  0.12741584  1
  Li  Li11  1  0.38856556  0.00000000  0.62741545  1
  Li  Li12  1  0.66666640  0.33333274  0.40699284  1
  Li  Li13  1  0.33333377  0.66666755  0.90699245  1
  Li  Li14  1  0.33333377  0.66666755  0.40699284  1
  Li  Li15  1  0.66666640  0.33333274  0.90699245  1
  O  O16  1  0.69047686  0.00000000  0.94915257  1
  O  O17  1  0.69047676  0.69047666  0.44915205  1
  O  O18  1  0.00000021  0.30952362  0.44915205  1
  O  O19  1  0.99999990  0.69047666  0.94915257  1
  O  O20  1  0.30952341  0.30952362  0.94915257  1
  O  O21  1  0.30952321  0.00000000  0.44915205  1
  O  O22  1  0.66666640  0.33333274  0.21678954  1
  O  O23  1  0.00000000  0.00000000  0.16551957  1
  O  O24  1  0.66666640  0.33333274  0.71678914  1
  O  O25  1  0.33333377  0.66666755  0.21678954  1
  O  O26  1  0.00000000  0.00000000  0.66552009  1
  O  O27  1  0.33333377  0.66666755  0.71678914  1
  Co  Co28  1  0.00000000  0.00000000  0.49599164  1
  Co  Co29  1  0.00000000  0.00000000  0.99599125  1
