# generated using pymatgen
data_LiSb(PO3)4
_symmetry_space_group_name_H-M   'P 1'
_cell_length_a   7.12874691
_cell_length_b   8.94523400
_cell_length_c   9.10362200
_cell_angle_alpha   114.08273687
_cell_angle_beta   113.04995868
_cell_angle_gamma   66.51766849
_symmetry_Int_Tables_number   1
_chemical_formula_structural   LiSb(PO3)4
_chemical_formula_sum   'Li2 Sb2 P8 O24'
_cell_volume   467.57867168
_cell_formula_units_Z   2
loop_
 _symmetry_equiv_pos_site_id
 _symmetry_equiv_pos_as_xyz
  1  'x, y, z'
loop_
 _atom_site_type_symbol
 _atom_site_label
 _atom_site_symmetry_multiplicity
 _atom_site_fract_x
 _atom_site_fract_y
 _atom_site_fract_z
 _atom_site_occupancy
  Li  Li0  1  0.30744377  0.75000000  0.75000000  1
  Li  Li1  1  0.69255623  0.25000000  0.25000000  1
  O  O2  1  0.40303356  0.95539384  0.19740217  1
  O  O3  1  0.78221701  0.91955798  0.22608490  1
  O  O4  1  0.01818706  0.77444824  0.02337186  1
  O  O5  1  0.17528607  0.84070566  0.34163788  1
  O  O6  1  0.01931774  0.91395249  0.77785425  1
  O  O7  1  0.67435385  0.65929434  0.15836212  1
  O  O8  1  0.76926344  0.72555176  0.47662814  1
  O  O9  1  0.41176166  0.70169326  0.56414535  1
  O  O10  1  0.54930957  0.79830674  0.93585465  1
  O  O11  1  0.47569009  0.58044202  0.27391510  1
  O  O12  1  0.16102523  0.54460616  0.30259783  1
  O  O13  1  0.15541498  0.58604751  0.72214575  1
  O  O14  1  0.84458502  0.41395249  0.27785425  1
  O  O15  1  0.83897477  0.45539384  0.69740217  1
  O  O16  1  0.52430991  0.41955798  0.72608490  1
  O  O17  1  0.45069043  0.20169326  0.06414535  1
  O  O18  1  0.58823834  0.29830674  0.43585465  1
  O  O19  1  0.23073656  0.27444824  0.52337186  1
  O  O20  1  0.32564615  0.34070566  0.84163788  1
  O  O21  1  0.98068226  0.08604751  0.22214575  1
  O  O22  1  0.82471393  0.15929434  0.65836212  1
  O  O23  1  0.98181294  0.22555176  0.97662814  1
  O  O24  1  0.21778299  0.08044202  0.77391510  1
  O  O25  1  0.59696644  0.04460616  0.80259783  1
  P  P26  1  0.99481958  0.90156499  0.19006260  1
  P  P27  1  0.58181833  0.84177192  0.11957681  1
  P  P28  1  0.30401345  0.65822808  0.38042319  1
  P  P29  1  0.70632197  0.59843501  0.30993740  1
  P  P30  1  0.29367803  0.40156499  0.69006260  1
  P  P31  1  0.69598655  0.34177192  0.61957681  1
  P  P32  1  0.41818167  0.15822808  0.88042319  1
  P  P33  1  0.00518042  0.09843501  0.80993740  1
  Sb  Sb34  1  0.82641944  0.75000000  0.75000000  1
  Sb  Sb35  1  0.17358056  0.25000000  0.25000000  1
