# generated using pymatgen
data_Ti3PbO7
_symmetry_space_group_name_H-M   'P 1'
_cell_length_a   3.83644990
_cell_length_b   6.68049418
_cell_length_c   10.83378306
_cell_angle_alpha   97.80024490
_cell_angle_beta   90.00000000
_cell_angle_gamma   90.00000000
_symmetry_Int_Tables_number   1
_chemical_formula_structural   Ti3PbO7
_chemical_formula_sum   'Ti6 Pb2 O14'
_cell_volume   275.09401144
_cell_formula_units_Z   2
loop_
 _symmetry_equiv_pos_site_id
 _symmetry_equiv_pos_as_xyz
  1  'x, y, z'
loop_
 _atom_site_type_symbol
 _atom_site_label
 _atom_site_symmetry_multiplicity
 _atom_site_fract_x
 _atom_site_fract_y
 _atom_site_fract_z
 _atom_site_occupancy
  Pb  Pb0  1  0.25000000  0.00502718  0.15135568  1
  Pb  Pb1  1  0.75000000  0.99497282  0.84864432  1
  Ti  Ti2  1  0.25000000  0.55114221  0.89867990  1
  Ti  Ti3  1  0.75000000  0.44885779  0.10132010  1
  Ti  Ti4  1  0.25000000  0.69409554  0.56416888  1
  Ti  Ti5  1  0.75000000  0.30590446  0.43583112  1
  Ti  Ti6  1  0.25000000  0.25476572  0.65615613  1
  Ti  Ti7  1  0.75000000  0.74523428  0.34384387  1
  O  O8  1  0.25000000  0.47640622  0.07407719  1
  O  O9  1  0.75000000  0.52359378  0.92592281  1
  O  O10  1  0.25000000  0.74303174  0.38134145  1
  O  O11  1  0.75000000  0.25696826  0.61865855  1
  O  O12  1  0.25000000  0.35443038  0.47842068  1
  O  O13  1  0.75000000  0.64556962  0.52157932  1
  O  O14  1  0.25000000  0.82938049  0.94316224  1
  O  O15  1  0.75000000  0.17061951  0.05683776  1
  O  O16  1  0.25000000  0.95443138  0.62786380  1
  O  O17  1  0.75000000  0.04556862  0.37213620  1
  O  O18  1  0.25000000  0.56432103  0.71447806  1
  O  O19  1  0.75000000  0.43567897  0.28552194  1
  O  O20  1  0.25000000  0.24716996  0.82410929  1
  O  O21  1  0.75000000  0.75283004  0.17589071  1
