# generated using pymatgen
data_Pr(SiAu)2
_symmetry_space_group_name_H-M   'P 1'
_cell_length_a   4.34712355
_cell_length_b   4.34712355
_cell_length_c   6.02147593
_cell_angle_alpha   111.15967284
_cell_angle_beta   111.15967286
_cell_angle_gamma   90.00000006
_symmetry_Int_Tables_number   1
_chemical_formula_structural   Pr(SiAu)2
_chemical_formula_sum   'Pr1 Si2 Au2'
_cell_volume   97.84705603
_cell_formula_units_Z   1
loop_
 _symmetry_equiv_pos_site_id
 _symmetry_equiv_pos_as_xyz
  1  'x, y, z'
loop_
 _atom_site_type_symbol
 _atom_site_label
 _atom_site_symmetry_multiplicity
 _atom_site_fract_x
 _atom_site_fract_y
 _atom_site_fract_z
 _atom_site_occupancy
  Si  Si0  1  0.61380102  0.61380102  0.22760205  1
  Si  Si1  1  0.38619898  0.38619898  0.77239795  1
  Pr  Pr2  1  0.00000000  0.00000000  0.00000000  1
  Au  Au3  1  0.25000000  0.75000000  0.50000000  1
  Au  Au4  1  0.75000000  0.25000000  0.50000000  1
