# generated using pymatgen
data_NaNdF4
_symmetry_space_group_name_H-M   'P 1'
_cell_length_a   6.19186448
_cell_length_b   6.19186451
_cell_length_c   7.41379271
_cell_angle_alpha   90.00000000
_cell_angle_beta   90.00000000
_cell_angle_gamma   119.99999982
_symmetry_Int_Tables_number   1
_chemical_formula_structural   NaNdF4
_chemical_formula_sum   'Na3 Nd3 F12'
_cell_volume   246.15800230
_cell_formula_units_Z   3
loop_
 _symmetry_equiv_pos_site_id
 _symmetry_equiv_pos_as_xyz
  1  'x, y, z'
loop_
 _atom_site_type_symbol
 _atom_site_label
 _atom_site_symmetry_multiplicity
 _atom_site_fract_x
 _atom_site_fract_y
 _atom_site_fract_z
 _atom_site_occupancy
  F  F0  1  0.24727278  0.97757261  0.25000000  1
  F  F1  1  0.23131354  0.94611385  0.75000000  1
  F  F2  1  0.02242739  0.26970017  0.25000000  1
  F  F3  1  0.05388615  0.28519970  0.75000000  1
  F  F4  1  0.40864104  0.35102553  0.01130481  1
  F  F5  1  0.40864104  0.35102553  0.48869519  1
  F  F6  1  0.73029983  0.75272722  0.25000000  1
  F  F7  1  0.71480030  0.76868646  0.75000000  1
  F  F8  1  0.64897447  0.05761551  0.01130481  1
  F  F9  1  0.64897447  0.05761551  0.48869519  1
  F  F10  1  0.94238449  0.59135896  0.01130481  1
  F  F11  1  0.94238449  0.59135896  0.48869519  1
  Na  Na12  1  0.33333300  0.66666700  0.54413530  1
  Na  Na13  1  0.33333300  0.66666700  0.95586470  1
  Na  Na14  1  0.66666700  0.33333300  0.75000000  1
  Nd  Nd15  1  0.00000000  0.00000000  0.99586065  1
  Nd  Nd16  1  0.00000000  0.00000000  0.50413935  1
  Nd  Nd17  1  0.66666700  0.33333300  0.25000000  1
