# generated using pymatgen
data_Na4(BSe)9
_symmetry_space_group_name_H-M   'P 1'
_cell_length_a   11.14408518
_cell_length_b   11.70885206
_cell_length_c   16.49581407
_cell_angle_alpha   90.00000000
_cell_angle_beta   90.00000000
_cell_angle_gamma   118.05139413
_symmetry_Int_Tables_number   1
_chemical_formula_structural   Na4(BSe)9
_chemical_formula_sum   'Na16 B36 Se36'
_cell_volume   1899.59082804
_cell_formula_units_Z   4
loop_
 _symmetry_equiv_pos_site_id
 _symmetry_equiv_pos_as_xyz
  1  'x, y, z'
loop_
 _atom_site_type_symbol
 _atom_site_label
 _atom_site_symmetry_multiplicity
 _atom_site_fract_x
 _atom_site_fract_y
 _atom_site_fract_z
 _atom_site_occupancy
  B  B0  1  0.50053757  0.85566901  0.51068308  1
  B  B1  1  0.49946243  0.64433099  0.01068308  1
  B  B2  1  0.49946243  0.14433099  0.48931692  1
  B  B3  1  0.50053757  0.35566901  0.98931692  1
  B  B4  1  0.82310817  0.48895273  0.86426118  1
  B  B5  1  0.17689183  0.01104727  0.36426118  1
  B  B6  1  0.17689183  0.51104727  0.13573882  1
  B  B7  1  0.82310817  0.98895273  0.63573882  1
  B  B8  1  0.38413986  0.89295717  0.56528710  1
  B  B9  1  0.61586014  0.60704283  0.06528710  1
  B  B10  1  0.61586014  0.10704283  0.43471290  1
  B  B11  1  0.38413986  0.39295717  0.93471290  1
  B  B12  1  0.28183440  0.94011471  0.72404285  1
  B  B13  1  0.71816560  0.55988529  0.22404285  1
  B  B14  1  0.71816560  0.05988529  0.27595715  1
  B  B15  1  0.28183440  0.44011471  0.77595715  1
  B  B16  1  0.46324967  0.06112759  0.58342916  1
  B  B17  1  0.53675033  0.43887241  0.08342916  1
  B  B18  1  0.53675033  0.93887241  0.41657084  1
  B  B19  1  0.46324967  0.56112759  0.91657084  1
  B  B20  1  0.34564676  0.99515040  0.50166350  1
  B  B21  1  0.65435324  0.50484960  0.00166350  1
  B  B22  1  0.65435324  0.00484960  0.49833650  1
  B  B23  1  0.34564676  0.49515040  0.99833650  1
  B  B24  1  0.63019799  0.13086122  0.54150130  1
  B  B25  1  0.36980201  0.36913878  0.04150130  1
  B  B26  1  0.36980201  0.86913878  0.45849870  1
  B  B27  1  0.63019799  0.63086122  0.95849870  1
  B  B28  1  0.55992934  0.97539767  0.58889514  1
  B  B29  1  0.44007066  0.52460233  0.08889514  1
  B  B30  1  0.44007066  0.02460233  0.41110486  1
  B  B31  1  0.55992934  0.47539767  0.91110486  1
  B  B32  1  0.69626267  0.41122697  0.55390876  1
  B  B33  1  0.30373733  0.08877303  0.05390876  1
  B  B34  1  0.30373733  0.58877303  0.44609124  1
  B  B35  1  0.69626267  0.91122697  0.94609124  1
  Na  Na36  1  0.18659002  0.20454889  0.57782062  1
  Na  Na37  1  0.81340998  0.29545111  0.07782062  1
  Na  Na38  1  0.81340998  0.79545111  0.42217938  1
  Na  Na39  1  0.18659002  0.70454889  0.92217938  1
  Na  Na40  1  0.46739870  0.43345278  0.34001416  1
  Na  Na41  1  0.53260130  0.06654722  0.84001416  1
  Na  Na42  1  0.53260130  0.56654722  0.65998584  1
  Na  Na43  1  0.46739870  0.93345278  0.15998584  1
  Na  Na44  1  0.93673003  0.23610540  0.75793386  1
  Na  Na45  1  0.06326997  0.26389460  0.25793386  1
  Na  Na46  1  0.06326997  0.76389460  0.24206614  1
  Na  Na47  1  0.93673003  0.73610540  0.74206614  1
  Na  Na48  1  0.96928874  0.45964233  0.37670622  1
  Na  Na49  1  0.03071126  0.04035767  0.87670622  1
  Na  Na50  1  0.03071126  0.54035767  0.62329378  1
  Na  Na51  1  0.96928874  0.95964233  0.12329378  1
  Se  Se52  1  0.79124187  0.59499503  0.57702404  1
  Se  Se53  1  0.20875813  0.90500497  0.07702404  1
  Se  Se54  1  0.20875813  0.40500497  0.42297596  1
  Se  Se55  1  0.79124187  0.09499503  0.92297596  1
  Se  Se56  1  0.97899908  0.00556015  0.69577096  1
  Se  Se57  1  0.02100092  0.49443985  0.19577096  1
  Se  Se58  1  0.02100092  0.99443985  0.30422904  1
  Se  Se59  1  0.97899908  0.50556015  0.80422904  1
  Se  Se60  1  0.48005014  0.67408878  0.50613733  1
  Se  Se61  1  0.51994986  0.82591122  0.00613733  1
  Se  Se62  1  0.51994986  0.32591122  0.49386267  1
  Se  Se63  1  0.48005014  0.17408878  0.99386267  1
  Se  Se64  1  0.20271444  0.41654095  0.66909355  1
  Se  Se65  1  0.79728556  0.08345905  0.16909355  1
  Se  Se66  1  0.79728556  0.58345905  0.33090645  1
  Se  Se67  1  0.20271444  0.91654095  0.83090645  1
  Se  Se68  1  0.64899861  0.95128962  0.68882029  1
  Se  Se69  1  0.35100139  0.54871038  0.18882029  1
  Se  Se70  1  0.35100139  0.04871038  0.31117971  1
  Se  Se71  1  0.64899861  0.45128962  0.81117971  1
  Se  Se72  1  0.40601281  0.11742246  0.68514648  1
  Se  Se73  1  0.59398719  0.38257754  0.18514648  1
  Se  Se74  1  0.59398719  0.88257754  0.31485352  1
  Se  Se75  1  0.40601281  0.61742246  0.81485352  1
  Se  Se76  1  0.77418822  0.29792932  0.58812966  1
  Se  Se77  1  0.22581178  0.20207068  0.08812966  1
  Se  Se78  1  0.22581178  0.70207068  0.41187034  1
  Se  Se79  1  0.77418822  0.79792932  0.91187034  1
  Se  Se80  1  0.26043424  0.79174628  0.65704015  1
  Se  Se81  1  0.73956576  0.70825372  0.15704015  1
  Se  Se82  1  0.73956576  0.20825372  0.34295985  1
  Se  Se83  1  0.26043424  0.29174628  0.84295985  1
  Se  Se84  1  0.83938620  0.01769572  0.51638565  1
  Se  Se85  1  0.16061380  0.48230428  0.01638565  1
  Se  Se86  1  0.16061380  0.98230428  0.48361435  1
  Se  Se87  1  0.83938620  0.51769572  0.98361435  1
