# generated using pymatgen
data_Ba5Ta4O15
_symmetry_space_group_name_H-M   'P 1'
_cell_length_a   5.86229879
_cell_length_b   5.86229872
_cell_length_c   11.98142981
_cell_angle_alpha   90.00000000
_cell_angle_beta   90.00000000
_cell_angle_gamma   120.00000047
_symmetry_Int_Tables_number   1
_chemical_formula_structural   Ba5Ta4O15
_chemical_formula_sum   'Ba5 Ta4 O15'
_cell_volume   356.59493627
_cell_formula_units_Z   1
loop_
 _symmetry_equiv_pos_site_id
 _symmetry_equiv_pos_as_xyz
  1  'x, y, z'
loop_
 _atom_site_type_symbol
 _atom_site_label
 _atom_site_symmetry_multiplicity
 _atom_site_fract_x
 _atom_site_fract_y
 _atom_site_fract_z
 _atom_site_occupancy
  Ba  Ba0  1  0.33333300  0.66666700  0.78800465  1
  Ba  Ba1  1  0.00000000  0.00000000  0.00000000  1
  Ba  Ba2  1  0.66666700  0.33333300  0.56891492  1
  Ba  Ba3  1  0.33333300  0.66666700  0.43108508  1
  Ba  Ba4  1  0.66666700  0.33333300  0.21199535  1
  Ta  Ta5  1  0.66666700  0.33333300  0.89643189  1
  Ta  Ta6  1  0.33333300  0.66666700  0.10356811  1
  Ta  Ta7  1  0.00000000  0.00000000  0.68639198  1
  Ta  Ta8  1  0.00000000  0.00000000  0.31360802  1
  O  O9  1  0.32575836  0.16287918  0.38627988  1
  O  O10  1  0.83064059  0.66128117  0.80921413  1
  O  O11  1  0.83712082  0.16287918  0.38627988  1
  O  O12  1  0.83064059  0.16935941  0.80921413  1
  O  O13  1  0.16287918  0.32575836  0.61372012  1
  O  O14  1  0.50000000  0.50000000  0.00000000  1
  O  O15  1  0.00000000  0.50000000  0.00000000  1
  O  O16  1  0.83712082  0.67424164  0.38627988  1
  O  O17  1  0.50000000  0.00000000  0.00000000  1
  O  O18  1  0.66128117  0.83064059  0.19078587  1
  O  O19  1  0.33871883  0.16935941  0.80921413  1
  O  O20  1  0.16935941  0.83064059  0.19078587  1
  O  O21  1  0.16935941  0.33871883  0.19078587  1
  O  O22  1  0.16287918  0.83712082  0.61372012  1
  O  O23  1  0.67424164  0.83712082  0.61372012  1
