# generated using pymatgen
data_MoOF4
_symmetry_space_group_name_H-M   'P 1'
_cell_length_a   5.65044789
_cell_length_b   8.19136311
_cell_length_c   17.86693946
_cell_angle_alpha   90.00000000
_cell_angle_beta   90.00000000
_cell_angle_gamma   91.38549337
_symmetry_Int_Tables_number   1
_chemical_formula_structural   MoOF4
_chemical_formula_sum   'Mo8 O8 F32'
_cell_volume   826.72720847
_cell_formula_units_Z   8
loop_
 _symmetry_equiv_pos_site_id
 _symmetry_equiv_pos_as_xyz
  1  'x, y, z'
loop_
 _atom_site_type_symbol
 _atom_site_label
 _atom_site_symmetry_multiplicity
 _atom_site_fract_x
 _atom_site_fract_y
 _atom_site_fract_z
 _atom_site_occupancy
  O  O0  1  0.43661305  0.65128726  0.63732372  1
  O  O1  1  0.56338695  0.84871274  0.13732372  1
  O  O2  1  0.56338695  0.34871274  0.36267628  1
  O  O3  1  0.43661305  0.15128726  0.86267628  1
  O  O4  1  0.90347010  0.94593590  0.57969447  1
  O  O5  1  0.09652990  0.55406410  0.07969447  1
  O  O6  1  0.09652990  0.05406410  0.42030553  1
  O  O7  1  0.90347010  0.44593590  0.92030553  1
  F  F8  1  0.69445146  0.54180355  0.78790939  1
  F  F9  1  0.30554854  0.95819645  0.28790939  1
  F  F10  1  0.30554854  0.45819645  0.21209061  1
  F  F11  1  0.69445146  0.04180355  0.71209061  1
  F  F12  1  0.73858288  0.74153345  0.97127158  1
  F  F13  1  0.26141712  0.75846655  0.47127158  1
  F  F14  1  0.26141712  0.25846655  0.02872842  1
  F  F15  1  0.73858288  0.24153345  0.52872842  1
  F  F16  1  0.43659408  0.52281576  0.91340540  1
  F  F17  1  0.56340592  0.97718424  0.41340540  1
  F  F18  1  0.56340592  0.47718424  0.08659460  1
  F  F19  1  0.43659408  0.02281576  0.58659460  1
  F  F20  1  0.99458155  0.74538283  0.85084614  1
  F  F21  1  0.00541845  0.75461717  0.35084614  1
  F  F22  1  0.00541845  0.25461717  0.14915386  1
  F  F23  1  0.99458155  0.24538283  0.64915386  1
  F  F24  1  0.20145597  0.96281184  0.75535279  1
  F  F25  1  0.79854403  0.53718816  0.25535279  1
  F  F26  1  0.79854403  0.03718816  0.24464721  1
  F  F27  1  0.20145597  0.46281184  0.74464721  1
  F  F28  1  0.25463244  0.91060198  0.95791448  1
  F  F29  1  0.74536756  0.58939802  0.45791448  1
  F  F30  1  0.74536756  0.08939802  0.04208552  1
  F  F31  1  0.25463244  0.41060198  0.54208552  1
  F  F32  1  0.96371087  0.07889229  0.87167210  1
  F  F33  1  0.03628913  0.42110771  0.37167210  1
  F  F34  1  0.03628913  0.92110771  0.12832790  1
  F  F35  1  0.96371087  0.57889229  0.62832790  1
  F  F36  1  0.49771276  0.81759904  0.84305540  1
  F  F37  1  0.50228724  0.68240096  0.34305540  1
  F  F38  1  0.50228724  0.18240096  0.15694460  1
  F  F39  1  0.49771276  0.31759904  0.65694460  1
  Mo  Mo40  1  0.25821531  0.48427721  0.64149800  1
  Mo  Mo41  1  0.74178469  0.01572279  0.14149800  1
  Mo  Mo42  1  0.74178469  0.51572279  0.35850200  1
  Mo  Mo43  1  0.25821531  0.98427721  0.85850200  1
  Mo  Mo44  1  0.74078544  0.10047628  0.61157960  1
  Mo  Mo45  1  0.25921456  0.39952372  0.11157960  1
  Mo  Mo46  1  0.25921456  0.89952372  0.38842040  1
  Mo  Mo47  1  0.74078544  0.60047628  0.88842040  1
