# generated using pymatgen
data_RbReO4
_symmetry_space_group_name_H-M   'P 1'
_cell_length_a   6.00964794
_cell_length_b   6.00964795
_cell_length_c   7.97191012
_cell_angle_alpha   112.14343080
_cell_angle_beta   112.14343079
_cell_angle_gamma   90.00000005
_symmetry_Int_Tables_number   1
_chemical_formula_structural   RbReO4
_chemical_formula_sum   'Rb2 Re2 O8'
_cell_volume   243.59722732
_cell_formula_units_Z   2
loop_
 _symmetry_equiv_pos_site_id
 _symmetry_equiv_pos_as_xyz
  1  'x, y, z'
loop_
 _atom_site_type_symbol
 _atom_site_label
 _atom_site_symmetry_multiplicity
 _atom_site_fract_x
 _atom_site_fract_y
 _atom_site_fract_z
 _atom_site_occupancy
  O  O0  1  0.90988446  0.33700756  0.60131528  1
  O  O1  1  0.26430772  0.40988446  0.10131528  1
  O  O2  1  0.83700756  0.19143082  0.10131528  1
  O  O3  1  0.69143082  0.76430772  0.60131528  1
  O  O4  1  0.30856918  0.23569228  0.39868472  1
  O  O5  1  0.16299244  0.80856918  0.89868472  1
  O  O6  1  0.73569228  0.59011554  0.89868472  1
  O  O7  1  0.09011554  0.66299244  0.39868472  1
  Rb  Rb8  1  0.62500000  0.87500000  0.25000000  1
  Rb  Rb9  1  0.37500000  0.12500000  0.75000000  1
  Re  Re10  1  0.12500000  0.37500000  0.25000000  1
  Re  Re11  1  0.87500000  0.62500000  0.75000000  1
