# generated using pymatgen
data_Zr3InF15
_symmetry_space_group_name_H-M   'P 1'
_cell_length_a   8.04798333
_cell_length_b   8.04798234
_cell_length_c   8.04798341
_cell_angle_alpha   99.86676470
_cell_angle_beta   99.86675648
_cell_angle_gamma   99.86675780
_symmetry_Int_Tables_number   1
_chemical_formula_structural   Zr3InF15
_chemical_formula_sum   'Zr6 In2 F30'
_cell_volume   495.02537550
_cell_formula_units_Z   2
loop_
 _symmetry_equiv_pos_site_id
 _symmetry_equiv_pos_as_xyz
  1  'x, y, z'
loop_
 _atom_site_type_symbol
 _atom_site_label
 _atom_site_symmetry_multiplicity
 _atom_site_fract_x
 _atom_site_fract_y
 _atom_site_fract_z
 _atom_site_occupancy
  F  F0  1  0.03763601  0.46236399  0.75000000  1
  F  F1  1  0.01985970  0.78363356  0.77873634  1
  F  F2  1  0.17560621  0.65036377  0.54819887  1
  F  F3  1  0.53763601  0.25000000  0.96236399  1
  F  F4  1  0.51985970  0.27873634  0.28363356  1
  F  F5  1  0.67560621  0.04819887  0.15036377  1
  F  F6  1  0.71636644  0.48014030  0.72126366  1
  F  F7  1  0.72126366  0.71636644  0.48014030  1
  F  F8  1  0.54819887  0.17560621  0.65036377  1
  F  F9  1  0.84963623  0.32439379  0.95180113  1
  F  F10  1  0.75000000  0.03763601  0.46236399  1
  F  F11  1  0.65036377  0.54819887  0.17560621  1
  F  F12  1  0.95180113  0.84963623  0.32439379  1
  F  F13  1  0.77873634  0.01985970  0.78363356  1
  F  F14  1  0.78363356  0.77873634  0.01985970  1
  F  F15  1  0.21636644  0.22126366  0.98014030  1
  F  F16  1  0.22126366  0.98014030  0.21636644  1
  F  F17  1  0.04819887  0.15036377  0.67560621  1
  F  F18  1  0.34963623  0.45180113  0.82439379  1
  F  F19  1  0.25000000  0.96236399  0.53763601  1
  F  F20  1  0.15036377  0.67560621  0.04819887  1
  F  F21  1  0.45180113  0.82439379  0.34963623  1
  F  F22  1  0.27873634  0.28363356  0.51985970  1
  F  F23  1  0.28363356  0.51985970  0.27873634  1
  F  F24  1  0.32439379  0.95180113  0.84963623  1
  F  F25  1  0.48014030  0.72126366  0.71636644  1
  F  F26  1  0.46236399  0.75000000  0.03763601  1
  F  F27  1  0.82439379  0.34963623  0.45180113  1
  F  F28  1  0.98014030  0.21636644  0.22126366  1
  F  F29  1  0.96236399  0.53763601  0.25000000  1
  In  In30  1  0.25000000  0.25000000  0.25000000  1
  In  In31  1  0.75000000  0.75000000  0.75000000  1
  Zr  Zr32  1  0.31935747  0.18064253  0.75000000  1
  Zr  Zr33  1  0.81935747  0.25000000  0.68064253  1
  Zr  Zr34  1  0.75000000  0.31935747  0.18064253  1
  Zr  Zr35  1  0.25000000  0.68064253  0.81935747  1
  Zr  Zr36  1  0.18064253  0.75000000  0.31935747  1
  Zr  Zr37  1  0.68064253  0.81935747  0.25000000  1
