# generated using pymatgen
data_ErAl2Ni
_symmetry_space_group_name_H-M   'P 1'
_cell_length_a   4.05377256
_cell_length_b   5.42113589
_cell_length_c   6.85229337
_cell_angle_alpha   90.00000000
_cell_angle_beta   90.00000000
_cell_angle_gamma   111.95547149
_symmetry_Int_Tables_number   1
_chemical_formula_structural   ErAl2Ni
_chemical_formula_sum   'Er2 Al4 Ni2'
_cell_volume   139.66503530
_cell_formula_units_Z   2
loop_
 _symmetry_equiv_pos_site_id
 _symmetry_equiv_pos_as_xyz
  1  'x, y, z'
loop_
 _atom_site_type_symbol
 _atom_site_label
 _atom_site_symmetry_multiplicity
 _atom_site_fract_x
 _atom_site_fract_y
 _atom_site_fract_z
 _atom_site_occupancy
  Al  Al0  1  0.34596536  0.69193073  0.94623544  1
  Al  Al1  1  0.65403464  0.30806927  0.05376456  1
  Al  Al2  1  0.65403464  0.30806927  0.44623544  1
  Al  Al3  1  0.34596536  0.69193073  0.55376456  1
  Ni  Ni4  1  0.78533169  0.57066339  0.75000000  1
  Ni  Ni5  1  0.21466831  0.42933661  0.25000000  1
  Er  Er6  1  0.06292530  0.12585060  0.75000000  1
  Er  Er7  1  0.93707470  0.87414940  0.25000000  1
