# generated using pymatgen
data_KPO3
_symmetry_space_group_name_H-M   'P 1'
_cell_length_a   4.62236831
_cell_length_b   10.53277818
_cell_length_c   14.28361322
_cell_angle_alpha   101.31195034
_cell_angle_beta   90.00000000
_cell_angle_gamma   90.00000000
_symmetry_Int_Tables_number   1
_chemical_formula_structural   KPO3
_chemical_formula_sum   'K8 P8 O24'
_cell_volume   681.90808213
_cell_formula_units_Z   8
loop_
 _symmetry_equiv_pos_site_id
 _symmetry_equiv_pos_as_xyz
  1  'x, y, z'
loop_
 _atom_site_type_symbol
 _atom_site_label
 _atom_site_symmetry_multiplicity
 _atom_site_fract_x
 _atom_site_fract_y
 _atom_site_fract_z
 _atom_site_occupancy
  O  O0  1  0.11792157  0.72314913  0.56164306  1
  O  O1  1  0.61792157  0.27685087  0.93835694  1
  O  O2  1  0.88207843  0.27685087  0.43835694  1
  O  O3  1  0.38207843  0.72314913  0.06164306  1
  O  O4  1  0.61697511  0.67908622  0.60439675  1
  O  O5  1  0.11697511  0.32091378  0.89560325  1
  O  O6  1  0.38302489  0.32091378  0.39560325  1
  O  O7  1  0.88302489  0.67908622  0.10439675  1
  O  O8  1  0.27902448  0.80134765  0.73673698  1
  O  O9  1  0.77902448  0.19865235  0.76326302  1
  O  O10  1  0.72097552  0.19865235  0.26326302  1
  O  O11  1  0.22097552  0.80134765  0.23673698  1
  O  O12  1  0.22612885  0.55653974  0.66740270  1
  O  O13  1  0.72612885  0.44346026  0.83259730  1
  O  O14  1  0.77387115  0.44346026  0.33259730  1
  O  O15  1  0.27387115  0.55653974  0.16740270  1
  O  O16  1  0.72481052  0.91645904  0.11751003  1
  O  O17  1  0.22481052  0.08354096  0.38248997  1
  O  O18  1  0.27518948  0.08354096  0.88248997  1
  O  O19  1  0.77518948  0.91645904  0.61751003  1
  O  O20  1  0.22749294  0.23681705  0.04906588  1
  O  O21  1  0.72749294  0.76318295  0.45093412  1
  O  O22  1  0.77250706  0.76318295  0.95093412  1
  O  O23  1  0.27250706  0.23681705  0.54906588  1
  P  P24  1  0.79558513  0.78449198  0.55538136  1
  P  P25  1  0.29558513  0.21550802  0.94461864  1
  P  P26  1  0.20441487  0.21550802  0.44461864  1
  P  P27  1  0.70441487  0.78449198  0.05538136  1
  P  P28  1  0.29702705  0.69034488  0.65303294  1
  P  P29  1  0.79702705  0.30965512  0.84696706  1
  P  P30  1  0.70297295  0.30965512  0.34696706  1
  P  P31  1  0.20297295  0.69034488  0.15303294  1
  K  K32  1  0.27906045  0.06671451  0.67083334  1
  K  K33  1  0.77906045  0.93328549  0.82916666  1
  K  K34  1  0.72093955  0.93328549  0.32916666  1
  K  K35  1  0.22093955  0.06671451  0.17083334  1
  K  K36  1  0.73614940  0.39788546  0.63125770  1
  K  K37  1  0.23614940  0.60211454  0.86874230  1
  K  K38  1  0.26385060  0.60211454  0.36874230  1
  K  K39  1  0.76385060  0.39788546  0.13125770  1
