# generated using pymatgen
data_CsAl(H2N)4
_symmetry_space_group_name_H-M   'P 1'
_cell_length_a   5.48291124
_cell_length_b   7.86342961
_cell_length_c   7.86342961
_cell_angle_alpha   90.00000000
_cell_angle_beta   90.00000000
_cell_angle_gamma   90.00000000
_symmetry_Int_Tables_number   1
_chemical_formula_structural   CsAl(H2N)4
_chemical_formula_sum   'Cs2 Al2 H16 N8'
_cell_volume   339.02773050
_cell_formula_units_Z   2
loop_
 _symmetry_equiv_pos_site_id
 _symmetry_equiv_pos_as_xyz
  1  'x, y, z'
loop_
 _atom_site_type_symbol
 _atom_site_label
 _atom_site_symmetry_multiplicity
 _atom_site_fract_x
 _atom_site_fract_y
 _atom_site_fract_z
 _atom_site_occupancy
  Cs  Cs0  1  0.28475301  0.75000000  0.75000000  1
  Cs  Cs1  1  0.71524699  0.25000000  0.25000000  1
  Al  Al2  1  -0.00000000  0.25000000  0.75000000  1
  Al  Al3  1  -0.00000000  0.75000000  0.25000000  1
  H  H4  1  0.38578523  0.58344292  0.20137934  1
  H  H5  1  0.38578523  0.91655708  0.29862066  1
  H  H6  1  0.38578523  0.20137934  0.91655708  1
  H  H7  1  0.38578523  0.29862066  0.58344292  1
  H  H8  1  0.61421477  0.41655708  0.79862066  1
  H  H9  1  0.61421477  0.08344292  0.70137934  1
  H  H10  1  0.61421477  0.79862066  0.08344292  1
  H  H11  1  0.61421477  0.70137934  0.41655708  1
  H  H12  1  0.17090906  0.48487843  0.09662539  1
  H  H13  1  0.17090906  0.01512157  0.40337461  1
  H  H14  1  0.17090906  0.09662539  0.01512157  1
  H  H15  1  0.17090906  0.40337461  0.48487843  1
  H  H16  1  0.82909094  0.51512157  0.90337461  1
  H  H17  1  0.82909094  0.98487843  0.59662539  1
  H  H18  1  0.82909094  0.90337461  0.98487843  1
  H  H19  1  0.82909094  0.59662539  0.51512157  1
  N  N20  1  0.21878541  0.59950469  0.14609602  1
  N  N21  1  0.21878541  0.90049531  0.35390398  1
  N  N22  1  0.21878541  0.14609602  0.90049531  1
  N  N23  1  0.21878541  0.35390398  0.59950469  1
  N  N24  1  0.78121459  0.40049531  0.85390398  1
  N  N25  1  0.78121459  0.09950469  0.64609602  1
  N  N26  1  0.78121459  0.85390398  0.09950469  1
  N  N27  1  0.78121459  0.64609602  0.40049531  1
