# generated using pymatgen
data_Fe2O3F
_symmetry_space_group_name_H-M   'P 1'
_cell_length_a   4.68803214
_cell_length_b   9.84529078
_cell_length_c   6.00708209
_cell_angle_alpha   72.22598222
_cell_angle_beta   89.98668972
_cell_angle_gamma   86.11031064
_symmetry_Int_Tables_number   1
_chemical_formula_structural   Fe2O3F
_chemical_formula_sum   'Fe8 O12 F4'
_cell_volume   263.35369612
_cell_formula_units_Z   4
loop_
 _symmetry_equiv_pos_site_id
 _symmetry_equiv_pos_as_xyz
  1  'x, y, z'
loop_
 _atom_site_type_symbol
 _atom_site_label
 _atom_site_symmetry_multiplicity
 _atom_site_fract_x
 _atom_site_fract_y
 _atom_site_fract_z
 _atom_site_occupancy
  Fe  Fe0  1  0.46545720  0.23264188  0.63365099  1
  Fe  Fe1  1  0.50000000  0.75000000  0.87500000  1
  Fe  Fe2  1  0.50000000  0.75000000  0.37500000  1
  Fe  Fe3  1  0.53454280  0.26735812  0.11634901  1
  Fe  Fe4  1  -0.00051238  0.00115055  0.49446549  1
  Fe  Fe5  1  0.00056030  0.49887083  0.74561678  1
  Fe  Fe6  1  -0.00056030  0.00112917  0.00438322  1
  Fe  Fe7  1  0.00051238  0.49884945  0.25553451  1
  O  O8  1  0.82189687  0.41270187  0.04354695  1
  O  O9  1  0.82077654  0.91066785  0.29451792  1
  O  O10  1  0.69256199  0.15355183  0.42306723  1
  O  O11  1  0.69382219  0.65334240  0.17303985  1
  O  O12  1  0.69249880  0.15348458  0.92340592  1
  O  O13  1  0.69386119  0.65330307  0.67352751  1
  O  O14  1  0.30613881  0.84669693  0.07647249  1
  O  O15  1  0.30617781  0.84665760  0.57696015  1
  O  O16  1  0.30750120  0.34651542  0.82659408  1
  O  O17  1  0.30743801  0.34644817  0.32693277  1
  O  O18  1  0.17922346  0.58933215  0.45548208  1
  O  O19  1  0.17810313  0.08729813  0.70645305  1
  F  F20  1  0.79759024  0.39727147  0.55144082  1
  F  F21  1  0.79997785  0.89935583  0.80029947  1
  F  F22  1  0.20002215  0.60064417  0.94970053  1
  F  F23  1  0.20240976  0.10272853  0.19855918  1
