# generated using pymatgen
data_KLiMnPCO7
_symmetry_space_group_name_H-M   'P 1'
_cell_length_a   5.44235430
_cell_length_b   6.33150562
_cell_length_c   9.82477378
_cell_angle_alpha   89.99951096
_cell_angle_beta   92.73409511
_cell_angle_gamma   90.00070768
_symmetry_Int_Tables_number   1
_chemical_formula_structural   KLiMnPCO7
_chemical_formula_sum   'K2 Li2 Mn2 P2 C2 O14'
_cell_volume   338.15959377
_cell_formula_units_Z   2
loop_
 _symmetry_equiv_pos_site_id
 _symmetry_equiv_pos_as_xyz
  1  'x, y, z'
loop_
 _atom_site_type_symbol
 _atom_site_label
 _atom_site_symmetry_multiplicity
 _atom_site_fract_x
 _atom_site_fract_y
 _atom_site_fract_z
 _atom_site_occupancy
  K  K0  1  0.24736542  0.43331607  0.75482757  1
  K  K1  1  0.75263189  0.93331714  0.24517300  1
  Li  Li2  1  0.22554857  0.92384604  0.87115487  1
  Li  Li3  1  0.77445082  0.42385351  0.12885050  1
  Mn  Mn4  1  0.77481341  0.77649387  0.64002397  1
  Mn  Mn5  1  0.22519160  0.27648202  0.35996012  1
  P  P6  1  0.71338127  0.27178844  0.55824403  1
  P  P7  1  0.28662196  0.77178553  0.44175073  1
  C  C8  1  0.72389936  0.73853695  0.90501704  1
  C  C9  1  0.27609325  0.23853845  0.09498916  1
  O  O10  1  0.25813081  0.18370603  0.97093701  1
  O  O11  1  0.92568915  0.76175717  0.83494197  1
  O  O12  1  0.51949044  0.77118955  0.83628987  1
  O  O13  1  0.78094699  0.08270135  0.65433849  1
  O  O14  1  0.76873032  0.46553121  0.65345918  1
  O  O15  1  0.14522708  0.77138701  0.57185889  1
  O  O16  1  0.42890415  0.26932851  0.52547003  1
  O  O17  1  0.57110039  0.76932958  0.47452459  1
  O  O18  1  0.85478262  0.27139036  0.42814049  1
  O  O19  1  0.23126766  0.96553531  0.34654003  1
  O  O20  1  0.21905236  0.58271027  0.34565898  1
  O  O21  1  0.48049931  0.27119027  0.16372013  1
  O  O22  1  0.07430212  0.26175894  0.16504938  1
  O  O23  1  0.74188006  0.68371042  0.02906097  1
