# generated using pymatgen
data_KNaGeO3
_symmetry_space_group_name_H-M   'P 1'
_cell_length_a   4.87183329
_cell_length_b   6.98167335
_cell_length_c   10.80986325
_cell_angle_alpha   90.00000000
_cell_angle_beta   90.00000000
_cell_angle_gamma   90.00000000
_symmetry_Int_Tables_number   1
_chemical_formula_structural   KNaGeO3
_chemical_formula_sum   'K4 Na4 Ge4 O12'
_cell_volume   367.68180952
_cell_formula_units_Z   4
loop_
 _symmetry_equiv_pos_site_id
 _symmetry_equiv_pos_as_xyz
  1  'x, y, z'
loop_
 _atom_site_type_symbol
 _atom_site_label
 _atom_site_symmetry_multiplicity
 _atom_site_fract_x
 _atom_site_fract_y
 _atom_site_fract_z
 _atom_site_occupancy
  K  K0  1  0.52049885  0.88529000  0.73491501  1
  K  K1  1  0.52049885  0.38529000  0.76508499  1
  K  K2  1  0.02049885  0.61471000  0.23491501  1
  K  K3  1  0.02049885  0.11471000  0.26508499  1
  Na  Na4  1  0.53686601  0.87765290  0.41559937  1
  Na  Na5  1  0.03686601  0.62234710  0.91559937  1
  Na  Na6  1  0.53686601  0.37765290  0.08440063  1
  Na  Na7  1  0.03686601  0.12234710  0.58440063  1
  Ge  Ge8  1  0.50143173  0.36949796  0.45099171  1
  Ge  Ge9  1  0.00143173  0.63050204  0.54900829  1
  Ge  Ge10  1  0.00143173  0.13050204  0.95099171  1
  Ge  Ge11  1  0.50143173  0.86949796  0.04900829  1
  O  O12  1  0.12994438  0.91623625  0.03047654  1
  O  O13  1  0.55759957  0.16322127  0.54007179  1
  O  O14  1  0.56835946  0.86190648  0.20581125  1
  O  O15  1  0.62994438  0.58376375  0.53047654  1
  O  O16  1  0.12994438  0.41623625  0.46952346  1
  O  O17  1  0.06835946  0.63809352  0.70581125  1
  O  O18  1  0.62994438  0.08376375  0.96952346  1
  O  O19  1  0.05759957  0.33677873  0.04007179  1
  O  O20  1  0.55759957  0.66322127  0.95992821  1
  O  O21  1  0.56835946  0.36190648  0.29418875  1
  O  O22  1  0.05759957  0.83677873  0.45992821  1
  O  O23  1  0.06835946  0.13809352  0.79418875  1
