# generated using pymatgen
data_KLiSi2O5
_symmetry_space_group_name_H-M   'P 1'
_cell_length_a   4.87563102
_cell_length_b   6.08705260
_cell_length_c   8.30316363
_cell_angle_alpha   93.40421954
_cell_angle_beta   90.00000000
_cell_angle_gamma   90.00000000
_symmetry_Int_Tables_number   1
_chemical_formula_structural   KLiSi2O5
_chemical_formula_sum   'K2 Li2 Si4 O10'
_cell_volume   245.98831366
_cell_formula_units_Z   2
loop_
 _symmetry_equiv_pos_site_id
 _symmetry_equiv_pos_as_xyz
  1  'x, y, z'
loop_
 _atom_site_type_symbol
 _atom_site_label
 _atom_site_symmetry_multiplicity
 _atom_site_fract_x
 _atom_site_fract_y
 _atom_site_fract_z
 _atom_site_occupancy
  K  K0  1  0.31321647  0.97011469  0.31384937  1
  K  K1  1  0.81321647  0.02988531  0.68615063  1
  Li  Li2  1  0.29825007  0.86980323  0.90556907  1
  Li  Li3  1  0.79825007  0.13019677  0.09443093  1
  Si  Si4  1  0.77998118  0.62995293  0.06425347  1
  Si  Si5  1  0.86483449  0.44101548  0.39402425  1
  Si  Si6  1  0.36483449  0.55898452  0.60597575  1
  Si  Si7  1  0.27998118  0.37004707  0.93574653  1
  O  O8  1  0.65301848  0.85290960  0.00800491  1
  O  O9  1  0.80846346  0.19288284  0.32930988  1
  O  O10  1  0.60238817  0.40640386  0.00080139  1
  O  O11  1  0.19333978  0.48138400  0.44009203  1
  O  O12  1  0.29320791  0.37005623  0.73706552  1
  O  O13  1  0.79320791  0.62994377  0.26293448  1
  O  O14  1  0.10238817  0.59359614  0.99919861  1
  O  O15  1  0.69333978  0.51861600  0.55990797  1
  O  O16  1  0.30846346  0.80711716  0.67069012  1
  O  O17  1  0.15301848  0.14709040  0.99199509  1
