# generated using pymatgen
data_NaScAs2O7
_symmetry_space_group_name_H-M   'P 1'
_cell_length_a   4.89163995
_cell_length_b   5.67464454
_cell_length_c   5.67466052
_cell_angle_alpha   102.88497561
_cell_angle_beta   97.45590317
_cell_angle_gamma   97.45567988
_symmetry_Int_Tables_number   1
_chemical_formula_structural   NaScAs2O7
_chemical_formula_sum   'Na1 Sc1 As2 O7'
_cell_volume   150.18826150
_cell_formula_units_Z   1
loop_
 _symmetry_equiv_pos_site_id
 _symmetry_equiv_pos_as_xyz
  1  'x, y, z'
loop_
 _atom_site_type_symbol
 _atom_site_label
 _atom_site_symmetry_multiplicity
 _atom_site_fract_x
 _atom_site_fract_y
 _atom_site_fract_z
 _atom_site_occupancy
  O  O0  1  0.24611516  0.62629690  0.04019037  1
  O  O1  1  0.77824028  0.57461890  0.67109530  1
  As  As2  1  0.08604887  0.74856540  0.82356459  1
  Sc  Sc3  1  0.50000117  0.63166131  0.36834662  1
  O  O4  1  0.30553919  0.83762595  0.63814062  1
  O  O5  1  0.75388343  0.95980991  0.37370311  1
  O  O6  1  0.99999921  0.04158452  0.95841458  1
  O  O7  1  0.69445765  0.36185810  0.16237268  1
  As  As8  1  0.91394824  0.17643979  0.25143102  1
  Na  Na9  1  0.50000850  0.24585851  0.75413495  1
  O  O10  1  0.22175831  0.32890472  0.42538216  1
