# generated using pymatgen
data_PBr3O
_symmetry_space_group_name_H-M   'P 1'
_cell_length_a   6.50252421
_cell_length_b   10.41646521
_cell_length_c   10.62522233
_cell_angle_alpha   90.00000000
_cell_angle_beta   90.00000000
_cell_angle_gamma   90.00000000
_symmetry_Int_Tables_number   1
_chemical_formula_structural   PBr3O
_chemical_formula_sum   'P4 Br12 O4'
_cell_volume   719.68155451
_cell_formula_units_Z   4
loop_
 _symmetry_equiv_pos_site_id
 _symmetry_equiv_pos_as_xyz
  1  'x, y, z'
loop_
 _atom_site_type_symbol
 _atom_site_label
 _atom_site_symmetry_multiplicity
 _atom_site_fract_x
 _atom_site_fract_y
 _atom_site_fract_z
 _atom_site_occupancy
  P  P0  1  0.38888400  0.31206403  0.24514633  1
  P  P1  1  0.61111600  0.68793597  0.74514633  1
  P  P2  1  0.88888400  0.18793597  0.74514633  1
  P  P3  1  0.11111600  0.81206403  0.24514633  1
  Br  Br4  1  0.81102614  0.65290278  0.58166505  1
  Br  Br5  1  0.89561457  0.97447012  0.24673617  1
  Br  Br6  1  0.31129054  0.84219928  0.40947311  1
  Br  Br7  1  0.68870946  0.15780072  0.90947311  1
  Br  Br8  1  0.18870946  0.34219928  0.40947311  1
  Br  Br9  1  0.81129054  0.65780072  0.90947311  1
  Br  Br10  1  0.39561457  0.52552988  0.74673617  1
  Br  Br11  1  0.68897386  0.15290278  0.58166505  1
  Br  Br12  1  0.10438543  0.02552988  0.74673617  1
  Br  Br13  1  0.18897386  0.34709722  0.08166505  1
  Br  Br14  1  0.31102614  0.84709722  0.08166505  1
  Br  Br15  1  0.60438543  0.47447012  0.24673617  1
  O  O16  1  0.50922549  0.81472088  0.74357934  1
  O  O17  1  0.99077451  0.31472088  0.74357934  1
  O  O18  1  0.49077451  0.18527912  0.24357934  1
  O  O19  1  0.00922549  0.68527912  0.24357934  1
