# generated using pymatgen
data_Mn2O2F9
_symmetry_space_group_name_H-M   'P 1'
_cell_length_a   8.73109041
_cell_length_b   9.31976614
_cell_length_c   9.88215723
_cell_angle_alpha   99.18952211
_cell_angle_beta   116.21624745
_cell_angle_gamma   90.00000159
_symmetry_Int_Tables_number   1
_chemical_formula_structural   Mn2O2F9
_chemical_formula_sum   'Mn8 O8 F36'
_cell_volume   709.88783529
_cell_formula_units_Z   4
loop_
 _symmetry_equiv_pos_site_id
 _symmetry_equiv_pos_as_xyz
  1  'x, y, z'
loop_
 _atom_site_type_symbol
 _atom_site_label
 _atom_site_symmetry_multiplicity
 _atom_site_fract_x
 _atom_site_fract_y
 _atom_site_fract_z
 _atom_site_occupancy
  O  O0  1  0.26797623  0.28279828  0.62227424  1
  O  O1  1  0.64570199  0.21720272  0.37772576  1
  O  O2  1  0.73202377  0.71720272  0.37772576  1
  O  O3  1  0.35429801  0.78279728  0.62227424  1
  O  O4  1  0.18708067  0.18092046  0.61883308  1
  O  O5  1  0.56824859  0.31907954  0.38116692  1
  O  O6  1  0.81291933  0.81907954  0.38116692  1
  O  O7  1  0.43175141  0.68092046  0.61883208  1
  F  F8  1  0.93683859  0.08950752  0.35668180  1
  F  F9  1  0.51951360  0.08362119  0.66520736  1
  F  F10  1  0.85430724  0.41637881  0.33479364  1
  F  F11  1  0.48048540  0.91637881  0.33479264  1
  F  F12  1  0.14569376  0.58362119  0.66520636  1
  F  F13  1  0.50052617  0.34886106  0.85183329  1
  F  F14  1  0.64869188  0.15113994  0.14816671  1
  F  F15  1  0.49947483  0.65113994  0.14816671  1
  F  F16  1  0.21075425  0.52226330  0.93216386  1
  F  F17  1  0.27859039  0.97773670  0.06783614  1
  F  F18  1  0.78924575  0.47773770  0.06783714  1
  F  F19  1  0.72140861  0.02226330  0.93216386  1
  F  F20  1  0.05831732  0.76806285  0.85006663  1
  F  F21  1  0.20825069  0.73193715  0.14993337  1
  F  F22  1  0.94168268  0.23193615  0.14993337  1
  F  F23  1  0.79174831  0.26806285  0.85006663  1
  F  F24  1  0.06316141  0.91049248  0.64331820  1
  F  F25  1  0.41984221  0.58950752  0.35668180  1
  F  F26  1  0.35130812  0.84886006  0.85183329  1
  F  F27  1  0.58015679  0.41049248  0.64331820  1
  F  F28  1  0.82205266  0.60364570  0.59491480  1
  F  F29  1  0.22713786  0.89635430  0.40508520  1
  F  F30  1  0.58290645  0.61526087  0.85219567  1
  F  F31  1  0.77286314  0.10364670  0.59491580  1
  F  F32  1  0.96863509  0.37216735  0.68141156  1
  F  F33  1  0.28722353  0.12783165  0.31858844  1
  F  F34  1  0.03136491  0.62783265  0.31858844  1
  F  F35  1  0.71277547  0.87216735  0.68141056  1
  F  F36  1  0.98737555  0.04825656  0.86439986  1
  F  F37  1  0.12297469  0.45174344  0.13559814  1
  F  F38  1  0.01262345  0.95174344  0.13559814  1
  F  F39  1  0.87702431  0.54825656  0.86440086  1
  F  F40  1  0.26928921  0.11525987  0.85219567  1
  F  F41  1  0.41709355  0.38474013  0.14780433  1
  F  F42  1  0.73071179  0.88473913  0.14780433  1
  F  F43  1  0.17794634  0.39635330  0.40508420  1
  Mn  Mn44  1  0.16927696  0.94355121  0.84693095  1
  Mn  Mn45  1  0.74125022  0.06164864  0.75171424  1
  Mn  Mn46  1  0.98953598  0.43835136  0.24828576  1
  Mn  Mn47  1  0.25874978  0.93835136  0.24828576  1
  Mn  Mn48  1  0.01046502  0.56164864  0.75171424  1
  Mn  Mn49  1  0.67765399  0.44355021  0.84693095  1
  Mn  Mn50  1  0.83072404  0.05644979  0.15306905  1
  Mn  Mn51  1  0.32234601  0.55644879  0.15307005  1
