# generated using pymatgen
data_MgMo2O7
_symmetry_space_group_name_H-M   'P 1'
_cell_length_a   5.79234456
_cell_length_b   8.28940500
_cell_length_c   14.15298309
_cell_angle_alpha   97.17371410
_cell_angle_beta   90.00000000
_cell_angle_gamma   90.00000000
_symmetry_Int_Tables_number   1
_chemical_formula_structural   MgMo2O7
_chemical_formula_sum   'Mg4 Mo8 O28'
_cell_volume   674.23725169
_cell_formula_units_Z   4
loop_
 _symmetry_equiv_pos_site_id
 _symmetry_equiv_pos_as_xyz
  1  'x, y, z'
loop_
 _atom_site_type_symbol
 _atom_site_label
 _atom_site_symmetry_multiplicity
 _atom_site_fract_x
 _atom_site_fract_y
 _atom_site_fract_z
 _atom_site_occupancy
  O  O0  1  0.82026240  0.60568678  0.75429668  1
  O  O1  1  0.32026140  0.89431322  0.74570432  1
  O  O2  1  0.17973860  0.39431222  0.24570332  1
  O  O3  1  0.67973860  0.10568678  0.25429668  1
  O  O4  1  0.63275108  0.57652215  0.93769792  1
  O  O5  1  0.13275108  0.92347785  0.56230208  1
  O  O6  1  0.36724692  0.42347785  0.06230208  1
  O  O7  1  0.86724792  0.07652315  0.43769792  1
  O  O8  1  0.12859211  0.58093000  0.90446096  1
  O  O9  1  0.62859211  0.91907000  0.59553804  1
  O  O10  1  0.87140789  0.41907000  0.09553904  1
  O  O11  1  0.37140789  0.08092900  0.40446096  1
  O  O12  1  0.38881103  0.72645305  0.41530063  1
  O  O13  1  0.88881103  0.77354795  0.08469937  1
  O  O14  1  0.61118997  0.27354795  0.58469937  1
  O  O15  1  0.11118897  0.22645305  0.91530163  1
  O  O16  1  0.61517065  0.61950255  0.23734361  1
  O  O17  1  0.11516965  0.88049845  0.26265639  1
  O  O18  1  0.38483035  0.38049845  0.76265739  1
  O  O19  1  0.88482835  0.11950255  0.73734261  1
  O  O20  1  0.87131588  0.89874009  0.89308112  1
  O  O21  1  0.37959399  0.78562598  0.09540423  1
  O  O22  1  0.12040601  0.28562598  0.59540423  1
  O  O23  1  0.62040601  0.21437502  0.90459577  1
  O  O24  1  0.62868512  0.39874009  0.39308112  1
  O  O25  1  0.12868412  0.10125891  0.10691888  1
  O  O26  1  0.37131588  0.60125991  0.60691888  1
  O  O27  1  0.87959399  0.71437502  0.40459577  1
  Mg  Mg28  1  0.37290288  0.39746455  0.90923291  1
  Mg  Mg29  1  0.87290288  0.10253445  0.59076809  1
  Mg  Mg30  1  0.62709712  0.60253445  0.09076709  1
  Mg  Mg31  1  0.12709712  0.89746455  0.40923291  1
  Mo  Mo32  1  0.13622292  0.33436036  0.12571340  1
  Mo  Mo33  1  0.36377708  0.83435936  0.62571340  1
  Mo  Mo34  1  0.86377708  0.66564064  0.87428660  1
  Mo  Mo35  1  0.63622392  0.16564064  0.37428760  1
  Mo  Mo36  1  0.87378602  0.11474968  0.86104858  1
  Mo  Mo37  1  0.37378502  0.38525032  0.63895142  1
  Mo  Mo38  1  0.12621498  0.88525032  0.13895142  1
  Mo  Mo39  1  0.62621498  0.61474968  0.36104958  1
