# generated using pymatgen
data_Li2VF6
_symmetry_space_group_name_H-M   'P 1'
_cell_length_a   7.80689970
_cell_length_b   4.86649057
_cell_length_c   10.53658124
_cell_angle_alpha   90.00000000
_cell_angle_beta   107.64192287
_cell_angle_gamma   90.00000000
_symmetry_Int_Tables_number   1
_chemical_formula_structural   Li2VF6
_chemical_formula_sum   'Li8 V4 F24'
_cell_volume   381.48112735
_cell_formula_units_Z   4
loop_
 _symmetry_equiv_pos_site_id
 _symmetry_equiv_pos_as_xyz
  1  'x, y, z'
loop_
 _atom_site_type_symbol
 _atom_site_label
 _atom_site_symmetry_multiplicity
 _atom_site_fract_x
 _atom_site_fract_y
 _atom_site_fract_z
 _atom_site_occupancy
  Li  Li0  1  0.03887886  0.54522463  0.65109720  1
  Li  Li1  1  0.03887886  0.95477537  0.15109720  1
  Li  Li2  1  0.39141141  0.98353371  0.80846455  1
  Li  Li3  1  0.39141141  0.51646629  0.30846455  1
  Li  Li4  1  0.60858859  0.48353371  0.69153545  1
  Li  Li5  1  0.60858859  0.01646629  0.19153545  1
  Li  Li6  1  0.96112114  0.04522463  0.84890280  1
  Li  Li7  1  0.96112114  0.45477537  0.34890280  1
  V  V8  1  0.27335274  0.02489353  0.50271018  1
  V  V9  1  0.27335274  0.47510647  0.00271018  1
  V  V10  1  0.72664726  0.52489353  0.99728982  1
  V  V11  1  0.72664726  0.97510647  0.49728982  1
  F  F12  1  0.12237253  0.35322254  0.82685188  1
  F  F13  1  0.23302896  0.80944667  0.90518812  1
  F  F14  1  0.09417395  0.24482410  0.53732636  1
  F  F15  1  0.24584659  0.78489362  0.63729088  1
  F  F16  1  0.12237253  0.14677746  0.32685188  1
  F  F17  1  0.45087173  0.29787797  0.93324663  1
  F  F18  1  0.23302896  0.69055333  0.40518812  1
  F  F19  1  0.09417395  0.25517590  0.03732636  1
  F  F20  1  0.42028398  0.21264667  0.65791336  1
  F  F21  1  0.24584659  0.71510638  0.13729088  1
  F  F22  1  0.57971602  0.71264667  0.84208664  1
  F  F23  1  0.45087173  0.20212203  0.43324663  1
  F  F24  1  0.54912827  0.79787797  0.56675337  1
  F  F25  1  0.42028398  0.28735333  0.15791336  1
  F  F26  1  0.75415341  0.28489362  0.86270912  1
  F  F27  1  0.57971602  0.78735333  0.34208664  1
  F  F28  1  0.90582605  0.74482410  0.96267364  1
  F  F29  1  0.76697104  0.30944667  0.59481188  1
  F  F30  1  0.54912827  0.70212203  0.06675337  1
  F  F31  1  0.87762747  0.85322254  0.67314812  1
  F  F32  1  0.75415341  0.21510638  0.36270912  1
  F  F33  1  0.90582605  0.75517590  0.46267364  1
  F  F34  1  0.76697104  0.19055333  0.09481188  1
  F  F35  1  0.87762747  0.64677746  0.17314812  1
