# generated using pymatgen
data_LiVF3
_symmetry_space_group_name_H-M   'P 1'
_cell_length_a   7.03015805
_cell_length_b   8.06741750
_cell_length_c   21.04280069
_cell_angle_alpha   96.44679251
_cell_angle_beta   82.90640915
_cell_angle_gamma   93.81448596
_symmetry_Int_Tables_number   1
_chemical_formula_structural   LiVF3
_chemical_formula_sum   'Li18 V18 F54'
_cell_volume   1175.14383168
_cell_formula_units_Z   18
loop_
 _symmetry_equiv_pos_site_id
 _symmetry_equiv_pos_as_xyz
  1  'x, y, z'
loop_
 _atom_site_type_symbol
 _atom_site_label
 _atom_site_symmetry_multiplicity
 _atom_site_fract_x
 _atom_site_fract_y
 _atom_site_fract_z
 _atom_site_occupancy
  Li  Li0  1  0.26940628  0.69830390  0.14017069  1
  Li  Li1  1  0.13174526  0.31091175  0.70633549  1
  Li  Li2  1  0.35361200  0.40310726  0.34529045  1
  Li  Li3  1  0.26879175  0.33581238  0.55566489  1
  Li  Li4  1  0.18387861  0.99883539  0.91017407  1
  Li  Li5  1  0.46674871  0.43495408  0.20169562  1
  Li  Li6  1  0.61846532  0.27992906  0.01739363  1
  Li  Li7  1  0.30903591  0.04231606  0.76863171  1
  Li  Li8  1  0.50251443  0.86367835  0.58749062  1
  Li  Li9  1  0.49748557  0.13632165  0.41250938  1
  Li  Li10  1  0.69096409  0.95768394  0.23136829  1
  Li  Li11  1  0.38153468  0.72007094  0.98260637  1
  Li  Li12  1  0.53325129  0.56504592  0.79830438  1
  Li  Li13  1  0.81612139  0.00116461  0.08982593  1
  Li  Li14  1  0.73120825  0.66418762  0.44433511  1
  Li  Li15  1  0.64638800  0.59689274  0.65470955  1
  Li  Li16  1  0.86825474  0.68908825  0.29366451  1
  Li  Li17  1  0.73059372  0.30169610  0.85982931  1
  V  V18  1  0.10685105  0.35091521  0.03476608  1
  V  V19  1  0.05483990  0.01465335  0.42066858  1
  V  V20  1  0.20025707  0.04959137  0.26539786  1
  V  V21  1  0.00637202  0.67757959  0.80714238  1
  V  V22  1  0.25081900  0.72810803  0.49372044  1
  V  V23  1  0.40005066  0.02997042  0.09823014  1
  V  V24  1  0.13972092  0.70194451  0.65042140  1
  V  V25  1  0.39506789  0.76036149  0.34320826  1
  V  V26  1  0.21276157  0.39429268  0.87189530  1
  V  V27  1  0.78723843  0.60570732  0.12810470  1
  V  V28  1  0.60493211  0.23963851  0.65679174  1
  V  V29  1  0.86027908  0.29805549  0.34957860  1
  V  V30  1  0.59994934  0.97002958  0.90176986  1
  V  V31  1  0.74918100  0.27189197  0.50627956  1
  V  V32  1  0.99362798  0.32242041  0.19285762  1
  V  V33  1  0.79974293  0.95040863  0.73460214  1
  V  V34  1  0.94516010  0.98534665  0.57933142  1
  V  V35  1  0.89314895  0.64908479  0.96523392  1
  F  F36  1  0.00762019  0.17553956  0.10260252  1
  F  F37  1  0.07773731  0.51400035  0.12761754  1
  F  F38  1  0.09766220  0.85612353  0.33185731  1
  F  F39  1  0.20426314  0.91894551  0.17783637  1
  F  F40  1  0.03402820  0.17077188  0.51400723  1
  F  F41  1  0.15136405  0.20872568  0.35916164  1
  F  F42  1  0.34368976  0.78549330  0.06653684  1
  F  F43  1  0.04157113  0.52874682  0.71434713  1
  F  F44  1  0.26909268  0.25744886  0.21227511  1
  F  F45  1  0.16405128  0.55148160  0.55986247  1
  F  F46  1  0.09170813  0.86895916  0.73881820  1
  F  F47  1  0.36548297  0.28014814  0.05864180  1
  F  F48  1  0.27620527  0.58341203  0.40701865  1
  F  F49  1  0.21755259  0.89325090  0.58281172  1
  F  F50  1  0.32950994  0.93871567  0.42996160  1
  F  F51  1  0.49204099  0.60291623  0.14730172  1
  F  F52  1  0.46192762  0.96926301  0.29196779  1
  F  F53  1  0.40588915  0.54806607  0.28179015  1
  F  F54  1  0.12443670  0.21983156  0.94075348  1
  F  F55  1  0.18800644  0.24495832  0.78254899  1
  F  F56  1  0.32326740  0.26838988  0.63452754  1
  F  F57  1  0.17784983  0.54753011  0.96825578  1
  F  F58  1  0.27368194  0.60818976  0.82024842  1
  F  F59  1  0.61010074  0.01089078  0.15915108  1
  F  F60  1  0.46464611  0.27009252  0.49198986  1
  F  F61  1  0.34703412  0.93109925  0.96171520  1
  F  F62  1  0.56669883  0.29374469  0.35429572  1
  F  F63  1  0.43330117  0.70625531  0.64570428  1
  F  F64  1  0.65296588  0.06890075  0.03828480  1
  F  F65  1  0.53535389  0.72990748  0.50801014  1
  F  F66  1  0.38989926  0.98910922  0.84084892  1
  F  F67  1  0.72631806  0.39181024  0.17975158  1
  F  F68  1  0.82215017  0.45246989  0.03174422  1
  F  F69  1  0.67673260  0.73161012  0.36547246  1
  F  F70  1  0.81199356  0.75504168  0.21745101  1
  F  F71  1  0.87556330  0.78016844  0.05924652  1
  F  F72  1  0.59411085  0.45193393  0.71820985  1
  F  F73  1  0.53807238  0.03073699  0.70803221  1
  F  F74  1  0.50795901  0.39708377  0.85269828  1
  F  F75  1  0.67049006  0.06128433  0.57003840  1
  F  F76  1  0.78244741  0.10674910  0.41718828  1
  F  F77  1  0.72379473  0.41658797  0.59298135  1
  F  F78  1  0.63451703  0.71985186  0.94135820  1
  F  F79  1  0.90829187  0.13104084  0.26118180  1
  F  F80  1  0.83594872  0.44851840  0.44013753  1
  F  F81  1  0.73090732  0.74255114  0.78772489  1
  F  F82  1  0.95842887  0.47125318  0.28565287  1
  F  F83  1  0.65631024  0.21450670  0.93346316  1
  F  F84  1  0.84863595  0.79127432  0.64083836  1
  F  F85  1  0.96597180  0.82922812  0.48599277  1
  F  F86  1  0.79573686  0.08105449  0.82216363  1
  F  F87  1  0.90233780  0.14387647  0.66814269  1
  F  F88  1  0.92226269  0.48599965  0.87238246  1
  F  F89  1  0.99237981  0.82446044  0.89739748  1
