# generated using pymatgen
data_ErHO2
_symmetry_space_group_name_H-M   'P 1'
_cell_length_a   3.61623643
_cell_length_b   4.30773945
_cell_length_c   6.05673727
_cell_angle_alpha   112.32189267
_cell_angle_beta   90.00000000
_cell_angle_gamma   90.00000000
_symmetry_Int_Tables_number   1
_chemical_formula_structural   ErHO2
_chemical_formula_sum   'Er2 H2 O4'
_cell_volume   87.28046869
_cell_formula_units_Z   2
loop_
 _symmetry_equiv_pos_site_id
 _symmetry_equiv_pos_as_xyz
  1  'x, y, z'
loop_
 _atom_site_type_symbol
 _atom_site_label
 _atom_site_symmetry_multiplicity
 _atom_site_fract_x
 _atom_site_fract_y
 _atom_site_fract_z
 _atom_site_occupancy
  Er  Er0  1  0.25000000  0.35255408  0.18877922  1
  Er  Er1  1  0.75000000  0.64744592  0.81122078  1
  O  O2  1  0.25000000  0.78592323  0.05334996  1
  O  O3  1  0.75000000  0.21407677  0.94665004  1
  O  O4  1  0.25000000  0.31949761  0.56673696  1
  O  O5  1  0.75000000  0.68050239  0.43326304  1
  H  H6  1  0.25000000  0.11279356  0.59633658  1
  H  H7  1  0.75000000  0.88720644  0.40366342  1
