# generated using pymatgen
data_Li2MnO2F
_symmetry_space_group_name_H-M   'P 1'
_cell_length_a   5.13748376
_cell_length_b   5.13748376
_cell_length_c   9.83493176
_cell_angle_alpha   86.70148078
_cell_angle_beta   93.29851922
_cell_angle_gamma   63.25103499
_symmetry_Int_Tables_number   1
_chemical_formula_structural   Li2MnO2F
_chemical_formula_sum   'Li8 Mn4 O8 F4'
_cell_volume   230.40240803
_cell_formula_units_Z   4
loop_
 _symmetry_equiv_pos_site_id
 _symmetry_equiv_pos_as_xyz
  1  'x, y, z'
loop_
 _atom_site_type_symbol
 _atom_site_label
 _atom_site_symmetry_multiplicity
 _atom_site_fract_x
 _atom_site_fract_y
 _atom_site_fract_z
 _atom_site_occupancy
  Li  Li0  1  0.59237293  0.59237293  0.75000000  1
  Li  Li1  1  0.91084822  0.91084822  0.75000000  1
  Li  Li2  1  0.22774654  0.22774654  0.75000000  1
  Li  Li3  1  0.00000000  0.50000000  0.00000000  1
  Li  Li4  1  0.08915178  0.08915178  0.25000000  1
  Li  Li5  1  0.40762707  0.40762707  0.25000000  1
  Li  Li6  1  0.77225346  0.77225346  0.25000000  1
  Li  Li7  1  0.50000000  0.00000000  0.50000000  1
  Mn  Mn8  1  0.13705406  0.68692373  0.49915714  1
  Mn  Mn9  1  0.31307627  0.86294594  0.99915714  1
  Mn  Mn10  1  0.86294594  0.31307627  0.50084286  1
  Mn  Mn11  1  0.68692373  0.13705406  0.00084286  1
  O  O12  1  0.19933894  0.93647552  0.61629738  1
  O  O13  1  0.58967645  0.89572048  0.88118234  1
  O  O14  1  0.06352448  0.80066106  0.11629738  1
  O  O15  1  0.10427952  0.41032355  0.38118234  1
  O  O16  1  0.89572048  0.58967645  0.61881766  1
  O  O17  1  0.93647552  0.19933894  0.88370262  1
  O  O18  1  0.41032355  0.10427952  0.11881766  1
  O  O19  1  0.80066106  0.06352448  0.38370262  1
  F  F20  1  0.28271213  0.55635883  0.87648918  1
  F  F21  1  0.44364117  0.71728787  0.37648918  1
  F  F22  1  0.55635883  0.28271213  0.62351082  1
  F  F23  1  0.71728787  0.44364117  0.12351082  1
