# generated using pymatgen
data_P3Pb5ClO12
_symmetry_space_group_name_H-M   'P 1'
_cell_length_a   10.23430774
_cell_length_b   10.23430796
_cell_length_c   7.35724627
_cell_angle_alpha   90.00000000
_cell_angle_beta   90.00000000
_cell_angle_gamma   119.99999928
_symmetry_Int_Tables_number   1
_chemical_formula_structural   P3Pb5ClO12
_chemical_formula_sum   'P6 Pb10 Cl2 O24'
_cell_volume   667.36416269
_cell_formula_units_Z   2
loop_
 _symmetry_equiv_pos_site_id
 _symmetry_equiv_pos_as_xyz
  1  'x, y, z'
loop_
 _atom_site_type_symbol
 _atom_site_label
 _atom_site_symmetry_multiplicity
 _atom_site_fract_x
 _atom_site_fract_y
 _atom_site_fract_z
 _atom_site_occupancy
  Pb  Pb0  1  0.33333300  0.66666700  0.00607988  1
  Pb  Pb1  1  0.66666700  0.33333300  0.50607988  1
  Pb  Pb2  1  0.66666700  0.33333300  0.99392012  1
  Pb  Pb3  1  0.33333300  0.66666700  0.49392012  1
  Pb  Pb4  1  0.26185223  0.01962343  0.25000000  1
  Pb  Pb5  1  0.24222881  0.26185223  0.75000000  1
  Pb  Pb6  1  0.01962343  0.75777119  0.75000000  1
  Pb  Pb7  1  0.98037657  0.24222881  0.25000000  1
  Pb  Pb8  1  0.75777119  0.73814777  0.25000000  1
  Pb  Pb9  1  0.73814777  0.98037657  0.75000000  1
  P  P10  1  0.41307058  0.37819510  0.25000000  1
  P  P11  1  0.03487548  0.41307058  0.75000000  1
  P  P12  1  0.37819510  0.96512452  0.75000000  1
  P  P13  1  0.62180490  0.03487548  0.25000000  1
  P  P14  1  0.96512452  0.58692942  0.25000000  1
  P  P15  1  0.58692942  0.62180490  0.75000000  1
  O  O16  1  0.35133891  0.48833943  0.25000000  1
  O  O17  1  0.86299948  0.35133891  0.75000000  1
  O  O18  1  0.48833943  0.13700052  0.75000000  1
  O  O19  1  0.51166057  0.86299948  0.25000000  1
  O  O20  1  0.13700052  0.64866109  0.25000000  1
  O  O21  1  0.64866109  0.51166057  0.75000000  1
  O  O22  1  0.59160899  0.46828636  0.25000000  1
  O  O23  1  0.12332264  0.59160899  0.75000000  1
  O  O24  1  0.46828636  0.87667736  0.75000000  1
  O  O25  1  0.53171364  0.12332264  0.25000000  1
  O  O26  1  0.87667736  0.40839101  0.25000000  1
  O  O27  1  0.40839101  0.53171364  0.75000000  1
  O  O28  1  0.36259468  0.27308229  0.07933881  1
  O  O29  1  0.08951239  0.36259468  0.57933881  1
  O  O30  1  0.27308229  0.91048761  0.57933881  1
  O  O31  1  0.72691771  0.08951239  0.07933881  1
  O  O32  1  0.91048761  0.63740532  0.07933881  1
  O  O33  1  0.63740532  0.72691771  0.57933881  1
  O  O34  1  0.63740532  0.72691771  0.92066119  1
  O  O35  1  0.91048761  0.63740532  0.42066119  1
  O  O36  1  0.72691771  0.08951239  0.42066119  1
  O  O37  1  0.27308229  0.91048761  0.92066119  1
  O  O38  1  0.08951239  0.36259468  0.92066119  1
  O  O39  1  0.36259468  0.27308229  0.42066119  1
  Cl  Cl40  1  0.00000000  0.00000000  0.00000000  1
  Cl  Cl41  1  0.00000000  0.00000000  0.50000000  1
