# generated using pymatgen
data_Np2S3
_symmetry_space_group_name_H-M   'P 1'
_cell_length_a   3.87566819
_cell_length_b   10.34505260
_cell_length_c   10.52615105
_cell_angle_alpha   90.00000000
_cell_angle_beta   90.00000000
_cell_angle_gamma   90.00000000
_symmetry_Int_Tables_number   1
_chemical_formula_structural   Np2S3
_chemical_formula_sum   'Np8 S12'
_cell_volume   422.03540847
_cell_formula_units_Z   4
loop_
 _symmetry_equiv_pos_site_id
 _symmetry_equiv_pos_as_xyz
  1  'x, y, z'
loop_
 _atom_site_type_symbol
 _atom_site_label
 _atom_site_symmetry_multiplicity
 _atom_site_fract_x
 _atom_site_fract_y
 _atom_site_fract_z
 _atom_site_occupancy
  Np  Np0  1  0.25000000  0.31660870  0.99249048  1
  Np  Np1  1  0.75000000  0.68339130  0.00750952  1
  Np  Np2  1  0.75000000  0.81660870  0.50750952  1
  Np  Np3  1  0.25000000  0.18339130  0.49249048  1
  Np  Np4  1  0.25000000  0.50790639  0.31340998  1
  Np  Np5  1  0.75000000  0.49209361  0.68659002  1
  Np  Np6  1  0.75000000  0.00790639  0.18659002  1
  Np  Np7  1  0.25000000  0.99209361  0.81340998  1
  S  S8  1  0.25000000  0.86907538  0.05102749  1
  S  S9  1  0.75000000  0.13092462  0.94897251  1
  S  S10  1  0.75000000  0.36907538  0.44897251  1
  S  S11  1  0.25000000  0.63092462  0.55102749  1
  S  S12  1  0.25000000  0.55502073  0.87517004  1
  S  S13  1  0.75000000  0.44497927  0.12482996  1
  S  S14  1  0.75000000  0.05502073  0.62482996  1
  S  S15  1  0.25000000  0.94497927  0.37517004  1
  S  S16  1  0.25000000  0.20296362  0.22845672  1
  S  S17  1  0.75000000  0.79703638  0.77154328  1
  S  S18  1  0.75000000  0.70296362  0.27154328  1
  S  S19  1  0.25000000  0.29703638  0.72845672  1
