# generated using pymatgen
data_Pr8Ga3Co
_symmetry_space_group_name_H-M   'P 1'
_cell_length_a   10.58589914
_cell_length_b   10.58589874
_cell_length_c   7.03280284
_cell_angle_alpha   90.00000000
_cell_angle_beta   90.00000000
_cell_angle_gamma   120.00000126
_symmetry_Int_Tables_number   1
_chemical_formula_structural   Pr8Ga3Co
_chemical_formula_sum   'Pr16 Ga6 Co2'
_cell_volume   682.51870114
_cell_formula_units_Z   2
loop_
 _symmetry_equiv_pos_site_id
 _symmetry_equiv_pos_as_xyz
  1  'x, y, z'
loop_
 _atom_site_type_symbol
 _atom_site_label
 _atom_site_symmetry_multiplicity
 _atom_site_fract_x
 _atom_site_fract_y
 _atom_site_fract_z
 _atom_site_occupancy
  Pr  Pr0  1  0.17039864  0.82960136  0.99363317  1
  Pr  Pr1  1  0.34079729  0.17039864  0.49363317  1
  Pr  Pr2  1  0.82960136  0.65920271  0.49363317  1
  Pr  Pr3  1  0.17039864  0.34079729  0.99363317  1
  Pr  Pr4  1  0.65920271  0.82960136  0.99363317  1
  Pr  Pr5  1  0.82960136  0.17039864  0.49363317  1
  Pr  Pr6  1  0.33333300  0.66666700  0.67639185  1
  Pr  Pr7  1  0.66666700  0.33333300  0.17639185  1
  Pr  Pr8  1  0.46245004  0.53754996  0.28963233  1
  Pr  Pr9  1  0.92490008  0.46245004  0.78963233  1
  Pr  Pr10  1  0.53754996  0.07509992  0.78963233  1
  Pr  Pr11  1  0.46245004  0.92490008  0.28963233  1
  Pr  Pr12  1  0.07509992  0.53754996  0.28963233  1
  Pr  Pr13  1  0.53754996  0.46245004  0.78963233  1
  Pr  Pr14  1  0.00000000  0.00000000  0.27826909  1
  Pr  Pr15  1  0.00000000  0.00000000  0.77826909  1
  Ga  Ga16  1  0.16449259  0.83550741  0.53307472  1
  Ga  Ga17  1  0.32898518  0.16449259  0.03307472  1
  Ga  Ga18  1  0.83550741  0.67101482  0.03307472  1
  Ga  Ga19  1  0.16449259  0.32898518  0.53307472  1
  Ga  Ga20  1  0.67101482  0.83550741  0.53307472  1
  Ga  Ga21  1  0.83550741  0.16449259  0.03307472  1
  Co  Co22  1  0.33333300  0.66666700  0.05931843  1
  Co  Co23  1  0.66666700  0.33333300  0.55931843  1
