# generated using pymatgen
data_Sr2Zr7O16
_symmetry_space_group_name_H-M   'P 1'
_cell_length_a   9.79381420
_cell_length_b   9.79381387
_cell_length_c   9.79381416
_cell_angle_alpha   38.73688176
_cell_angle_beta   38.73688414
_cell_angle_gamma   38.73687985
_symmetry_Int_Tables_number   1
_chemical_formula_structural   Sr2Zr7O16
_chemical_formula_sum   'Sr2 Zr7 O16'
_cell_volume   330.63446090
_cell_formula_units_Z   1
loop_
 _symmetry_equiv_pos_site_id
 _symmetry_equiv_pos_as_xyz
  1  'x, y, z'
loop_
 _atom_site_type_symbol
 _atom_site_label
 _atom_site_symmetry_multiplicity
 _atom_site_fract_x
 _atom_site_fract_y
 _atom_site_fract_z
 _atom_site_occupancy
  Sr  Sr0  1  0.66682412  0.66682412  0.66682412  1
  Sr  Sr1  1  0.33317588  0.33317588  0.33317588  1
  Zr  Zr2  1  0.25642216  0.88587173  0.51235013  1
  Zr  Zr3  1  0.11412827  0.48764987  0.74357784  1
  Zr  Zr4  1  0.48764987  0.74357784  0.11412827  1
  Zr  Zr5  1  0.00000000  0.00000000  0.00000000  1
  Zr  Zr6  1  0.51235013  0.25642216  0.88587173  1
  Zr  Zr7  1  0.88587173  0.51235013  0.25642216  1
  Zr  Zr8  1  0.74357784  0.11412827  0.48764987  1
  O  O9  1  0.23130020  0.96497056  0.67672432  1
  O  O10  1  0.15011968  0.84478079  0.41533288  1
  O  O11  1  0.15521921  0.58466712  0.84988032  1
  O  O12  1  0.03502944  0.32327568  0.76869980  1
  O  O13  1  0.32327568  0.76869980  0.03502944  1
  O  O14  1  0.58466712  0.84988032  0.15521921  1
  O  O15  1  0.23658854  0.23658854  0.23658854  1
  O  O16  1  0.42773646  0.42773646  0.42773646  1
  O  O17  1  0.76341146  0.76341146  0.76341146  1
  O  O18  1  0.57226354  0.57226354  0.57226354  1
  O  O19  1  0.41533288  0.15011968  0.84478079  1
  O  O20  1  0.67672432  0.23130020  0.96497056  1
  O  O21  1  0.96497056  0.67672432  0.23130020  1
  O  O22  1  0.84478079  0.41533288  0.15011968  1
  O  O23  1  0.84988032  0.15521921  0.58466712  1
  O  O24  1  0.76869980  0.03502944  0.32327568  1
