# generated using pymatgen
data_CsCuF4
_symmetry_space_group_name_H-M   'P 1'
_cell_length_a   6.31512908
_cell_length_b   6.31111540
_cell_length_c   7.62241678
_cell_angle_alpha   114.53815279
_cell_angle_beta   114.54564240
_cell_angle_gamma   89.86592490
_symmetry_Int_Tables_number   1
_chemical_formula_structural   CsCuF4
_chemical_formula_sum   'Cs2 Cu2 F8'
_cell_volume   246.00976661
_cell_formula_units_Z   2
loop_
 _symmetry_equiv_pos_site_id
 _symmetry_equiv_pos_as_xyz
  1  'x, y, z'
loop_
 _atom_site_type_symbol
 _atom_site_label
 _atom_site_symmetry_multiplicity
 _atom_site_fract_x
 _atom_site_fract_y
 _atom_site_fract_z
 _atom_site_occupancy
  Cs  Cs0  1  0.25005535  0.24994063  0.50001097  1
  Cs  Cs1  1  0.74994465  0.75005937  0.49998903  1
  Cu  Cu2  1  0.00000000  0.50000000  0.00000000  1
  Cu  Cu3  1  0.50000000  0.00000000  0.00000000  1
  F  F4  1  0.24299250  0.74291191  0.20303797  1
  F  F5  1  0.45955642  0.24341958  0.20303445  1
  F  F6  1  0.74345557  0.95961396  0.20301861  1
  F  F7  1  0.54044358  0.75658042  0.79696555  1
  F  F8  1  0.25654443  0.04038604  0.79698139  1
  F  F9  1  0.04014087  0.54014056  0.79697107  1
  F  F10  1  0.75700750  0.25708809  0.79696203  1
  F  F11  1  0.95985913  0.45985944  0.20302893  1
