# generated using pymatgen
data_Ag2Mo2O7
_symmetry_space_group_name_H-M   'P 1'
_cell_length_a   6.17287731
_cell_length_b   7.76071881
_cell_length_c   7.74705892
_cell_angle_alpha   111.66372709
_cell_angle_beta   93.08969197
_cell_angle_gamma   110.37082200
_symmetry_Int_Tables_number   1
_chemical_formula_structural   Ag2Mo2O7
_chemical_formula_sum   'Ag4 Mo4 O14'
_cell_volume   316.17923406
_cell_formula_units_Z   2
loop_
 _symmetry_equiv_pos_site_id
 _symmetry_equiv_pos_as_xyz
  1  'x, y, z'
loop_
 _atom_site_type_symbol
 _atom_site_label
 _atom_site_symmetry_multiplicity
 _atom_site_fract_x
 _atom_site_fract_y
 _atom_site_fract_z
 _atom_site_occupancy
  O  O0  1  0.74583986  0.61524530  0.93513387  1
  O  O1  1  0.25416014  0.38475470  0.06486613  1
  O  O2  1  0.91846344  0.61999394  0.60434220  1
  O  O3  1  0.08153656  0.38000606  0.39565780  1
  O  O4  1  0.35462349  0.65035279  0.77083829  1
  O  O5  1  0.64537651  0.34964721  0.22916171  1
  O  O6  1  0.49691946  0.65870686  0.46587990  1
  O  O7  1  0.50308054  0.34129314  0.53412010  1
  O  O8  1  0.65067923  0.02090451  0.29703869  1
  O  O9  1  0.34932077  0.97909549  0.70296131  1
  O  O10  1  0.18545954  0.05936013  0.16567112  1
  O  O11  1  0.81454046  0.94063987  0.83432888  1
  O  O12  1  0.87584799  0.26523485  0.67207078  1
  O  O13  1  0.12415201  0.73476515  0.32792922  1
  Mo  Mo14  1  0.77197185  0.27766417  0.45901024  1
  Mo  Mo15  1  0.22802815  0.72233583  0.54098976  1
  Mo  Mo16  1  0.33268154  0.32110621  0.25110425  1
  Mo  Mo17  1  0.66731846  0.67889379  0.74889575  1
  Ag  Ag18  1  0.75865759  0.25640823  0.94726886  1
  Ag  Ag19  1  0.24134241  0.74359177  0.05273114  1
  Ag  Ag20  1  0.23661157  0.24018807  0.73536389  1
  Ag  Ag21  1  0.76338843  0.75981193  0.26463611  1
