# generated using pymatgen
data_GaHO2
_symmetry_space_group_name_H-M   'P 1'
_cell_length_a   4.56776965
_cell_length_b   9.92279080
_cell_length_c   3.01672126
_cell_angle_alpha   90.00000000
_cell_angle_beta   90.00000000
_cell_angle_gamma   90.00000000
_symmetry_Int_Tables_number   1
_chemical_formula_structural   GaHO2
_chemical_formula_sum   'Ga4 H4 O8'
_cell_volume   136.73295947
_cell_formula_units_Z   4
loop_
 _symmetry_equiv_pos_site_id
 _symmetry_equiv_pos_as_xyz
  1  'x, y, z'
loop_
 _atom_site_type_symbol
 _atom_site_label
 _atom_site_symmetry_multiplicity
 _atom_site_fract_x
 _atom_site_fract_y
 _atom_site_fract_z
 _atom_site_occupancy
  Ga  Ga0  1  0.44869923  0.35503810  0.25000000  1
  Ga  Ga1  1  0.05130077  0.85503810  0.25000000  1
  Ga  Ga2  1  0.55130077  0.64496190  0.75000000  1
  Ga  Ga3  1  0.94869923  0.14496190  0.75000000  1
  H  H4  1  0.09463110  0.58795345  0.25000000  1
  H  H5  1  0.40536890  0.08795345  0.25000000  1
  H  H6  1  0.90536890  0.41204655  0.75000000  1
  H  H7  1  0.59463110  0.91204655  0.75000000  1
  O  O8  1  0.80056334  0.69416723  0.25000000  1
  O  O9  1  0.69943666  0.19416723  0.25000000  1
  O  O10  1  0.19943666  0.30583277  0.75000000  1
  O  O11  1  0.30056334  0.80583277  0.75000000  1
  O  O12  1  0.30439684  0.55516451  0.25000000  1
  O  O13  1  0.19560316  0.05516451  0.25000000  1
  O  O14  1  0.69560316  0.44483549  0.75000000  1
  O  O15  1  0.80439684  0.94483549  0.75000000  1
