# generated using pymatgen
data_Rb2U2O7
_symmetry_space_group_name_H-M   'P 1'
_cell_length_a   7.00726220
_cell_length_b   7.51339073
_cell_length_c   8.11459798
_cell_angle_alpha   90.00000000
_cell_angle_beta   90.00000000
_cell_angle_gamma   108.27737388
_symmetry_Int_Tables_number   1
_chemical_formula_structural   Rb2U2O7
_chemical_formula_sum   'Rb4 U4 O14'
_cell_volume   405.66628494
_cell_formula_units_Z   2
loop_
 _symmetry_equiv_pos_site_id
 _symmetry_equiv_pos_as_xyz
  1  'x, y, z'
loop_
 _atom_site_type_symbol
 _atom_site_label
 _atom_site_symmetry_multiplicity
 _atom_site_fract_x
 _atom_site_fract_y
 _atom_site_fract_z
 _atom_site_occupancy
  Rb  Rb0  1  0.22988550  0.49315930  0.87969361  1
  Rb  Rb1  1  0.72988550  0.49315930  0.62030639  1
  Rb  Rb2  1  0.27011450  0.50684070  0.37969361  1
  Rb  Rb3  1  0.77011450  0.50684070  0.12030639  1
  U  U4  1  0.77666914  0.00574272  0.37993987  1
  U  U5  1  0.72333086  0.99425728  0.87993987  1
  U  U6  1  0.22333086  0.99425728  0.62006013  1
  U  U7  1  0.27666914  0.00574272  0.12006013  1
  O  O8  1  0.36404165  0.27032089  0.12015094  1
  O  O9  1  0.86404165  0.27032089  0.37984906  1
  O  O10  1  0.10768106  0.01218634  0.36103003  1
  O  O11  1  0.13595835  0.72967911  0.62015094  1
  O  O12  1  0.69057775  0.74166042  0.36512084  1
  O  O13  1  0.39231894  0.98781366  0.86103003  1
  O  O14  1  0.80942225  0.25833958  0.86512084  1
  O  O15  1  0.60768106  0.01218634  0.13896997  1
  O  O16  1  0.19057775  0.74166042  0.13487916  1
  O  O17  1  0.30942225  0.25833958  0.63487916  1
  O  O18  1  0.89231894  0.98781366  0.63896997  1
  O  O19  1  0.50000000  0.00000000  0.50000000  1
  O  O20  1  0.63595835  0.72967911  0.87984906  1
  O  O21  1  0.00000000  0.00000000  0.00000000  1
