# generated using pymatgen
data_LiMnPO4
_symmetry_space_group_name_H-M   'P 1'
_cell_length_a   4.91070085
_cell_length_b   7.60109246
_cell_length_c   17.09333635
_cell_angle_alpha   90.00000000
_cell_angle_beta   90.00000000
_cell_angle_gamma   90.00000000
_symmetry_Int_Tables_number   1
_chemical_formula_structural   LiMnPO4
_chemical_formula_sum   'Li8 Mn8 P8 O32'
_cell_volume   638.03768759
_cell_formula_units_Z   8
loop_
 _symmetry_equiv_pos_site_id
 _symmetry_equiv_pos_as_xyz
  1  'x, y, z'
loop_
 _atom_site_type_symbol
 _atom_site_label
 _atom_site_symmetry_multiplicity
 _atom_site_fract_x
 _atom_site_fract_y
 _atom_site_fract_z
 _atom_site_occupancy
  Li  Li0  1  0.24291745  0.51245875  0.05285734  1
  Li  Li1  1  0.24291745  0.01245775  0.44714266  1
  Li  Li2  1  0.28816578  0.31816286  0.35681773  1
  Li  Li3  1  0.28816578  0.81816286  0.14318227  1
  Li  Li4  1  0.74291745  0.98754125  0.55285734  1
  Li  Li5  1  0.74291745  0.48754225  0.94714266  1
  Li  Li6  1  0.78816578  0.18183714  0.85681773  1
  Li  Li7  1  0.78816578  0.68183714  0.64318227  1
  Mn  Mn8  1  0.28922424  0.34122022  0.55208675  1
  Mn  Mn9  1  0.28922424  0.84122022  0.94791325  1
  Mn  Mn10  1  0.35830745  0.04056863  0.75276054  1
  Mn  Mn11  1  0.35830745  0.54056863  0.74723946  1
  Mn  Mn12  1  0.78922424  0.15877978  0.05208675  1
  Mn  Mn13  1  0.78922424  0.65877978  0.44791325  1
  Mn  Mn14  1  0.85830745  0.95943137  0.24723946  1
  Mn  Mn15  1  0.85830745  0.45943137  0.25276054  1
  P  P16  1  0.23743081  0.21474584  0.17413260  1
  P  P17  1  0.23743081  0.71474584  0.32586740  1
  P  P18  1  0.25247907  0.25961611  0.92547898  1
  P  P19  1  0.25247907  0.75961611  0.57452102  1
  P  P20  1  0.73743081  0.78525416  0.82586740  1
  P  P21  1  0.73743081  0.28525416  0.67413260  1
  P  P22  1  0.75247907  0.24038389  0.42547898  1
  P  P23  1  0.75247907  0.74038389  0.07452102  1
  O  O24  1  0.05054608  0.29420763  0.66332903  1
  O  O25  1  0.05054608  0.79420763  0.83667097  1
  O  O26  1  0.06178955  0.73923975  0.05465134  1
  O  O27  1  0.06178955  0.23923975  0.44534866  1
  O  O28  1  0.11748920  0.92997995  0.54536356  1
  O  O29  1  0.11748920  0.42997995  0.95463644  1
  O  O30  1  0.18794466  0.73795621  0.66369860  1
  O  O31  1  0.18794466  0.23795621  0.83630140  1
  O  O32  1  0.09503851  0.54307347  0.35624669  1
  O  O33  1  0.09503851  0.04307347  0.14375331  1
  O  O34  1  0.15020860  0.72679416  0.23877179  1
  O  O35  1  0.15020860  0.22679416  0.26122821  1
  O  O36  1  0.09581663  0.37207929  0.13262728  1
  O  O37  1  0.09581663  0.87207929  0.36737272  1
  O  O38  1  0.11472798  0.59850037  0.53229922  1
  O  O39  1  0.11472798  0.09850037  0.96770078  1
  O  O40  1  0.55054608  0.20579237  0.16332903  1
  O  O41  1  0.55054608  0.70579237  0.33667097  1
  O  O42  1  0.56178955  0.26076025  0.94534866  1
  O  O43  1  0.56178955  0.76076025  0.55465134  1
  O  O44  1  0.61748920  0.07002005  0.45463644  1
  O  O45  1  0.61748920  0.57002005  0.04536356  1
  O  O46  1  0.68794466  0.26204379  0.33630140  1
  O  O47  1  0.68794466  0.76204379  0.16369860  1
  O  O48  1  0.59503851  0.95692653  0.85624669  1
  O  O49  1  0.59503851  0.45692653  0.64375331  1
  O  O50  1  0.65020860  0.77320584  0.73877179  1
  O  O51  1  0.65020860  0.27320584  0.76122821  1
  O  O52  1  0.59581663  0.62792071  0.86737272  1
  O  O53  1  0.59581663  0.12792071  0.63262728  1
  O  O54  1  0.61472798  0.40149963  0.46770078  1
  O  O55  1  0.61472798  0.90149963  0.03229922  1
