# generated using pymatgen
data_TmVO3
_symmetry_space_group_name_H-M   'P 1'
_cell_length_a   5.26282883
_cell_length_b   5.68801226
_cell_length_c   7.62239865
_cell_angle_alpha   90.00000000
_cell_angle_beta   90.12392436
_cell_angle_gamma   90.00000000
_symmetry_Int_Tables_number   1
_chemical_formula_structural   TmVO3
_chemical_formula_sum   'Tm4 V4 O12'
_cell_volume   228.17623586
_cell_formula_units_Z   4
loop_
 _symmetry_equiv_pos_site_id
 _symmetry_equiv_pos_as_xyz
  1  'x, y, z'
loop_
 _atom_site_type_symbol
 _atom_site_label
 _atom_site_symmetry_multiplicity
 _atom_site_fract_x
 _atom_site_fract_y
 _atom_site_fract_z
 _atom_site_occupancy
  Tm  Tm0  1  0.02226042  0.92927324  0.74935385  1
  Tm  Tm1  1  0.47773958  0.42927324  0.75064615  1
  Tm  Tm2  1  0.52226042  0.57072676  0.24935385  1
  Tm  Tm3  1  0.97773958  0.07072676  0.25064615  1
  V  V4  1  0.00000000  0.50000000  0.50000000  1
  V  V5  1  0.00000000  0.50000000  0.00000000  1
  V  V6  1  0.50000000  0.00000000  0.50000000  1
  V  V7  1  0.50000000  0.00000000  0.00000000  1
  O  O8  1  0.12523802  0.44833756  0.24984580  1
  O  O9  1  0.19172427  0.18712783  0.93628514  1
  O  O10  1  0.19139349  0.18711334  0.56261719  1
  O  O11  1  0.30860651  0.68711334  0.93738281  1
  O  O12  1  0.30827573  0.68712783  0.56371486  1
  O  O13  1  0.37476198  0.94833756  0.25015420  1
  O  O14  1  0.62523802  0.05166244  0.74984580  1
  O  O15  1  0.69172427  0.31287217  0.43628514  1
  O  O16  1  0.69139349  0.31288666  0.06261719  1
  O  O17  1  0.80860651  0.81288666  0.43738281  1
  O  O18  1  0.80827573  0.81287217  0.06371486  1
  O  O19  1  0.87476198  0.55166244  0.75015420  1
