# generated using pymatgen
data_Zn(NO3)2
_symmetry_space_group_name_H-M   'P 1'
_cell_length_a   7.62162380
_cell_length_b   7.62154444
_cell_length_c   7.62096283
_cell_angle_alpha   90.01151823
_cell_angle_beta   89.99419081
_cell_angle_gamma   89.98196399
_symmetry_Int_Tables_number   1
_chemical_formula_structural   Zn(NO3)2
_chemical_formula_sum   'Zn4 N8 O24'
_cell_volume   442.69060562
_cell_formula_units_Z   4
loop_
 _symmetry_equiv_pos_site_id
 _symmetry_equiv_pos_as_xyz
  1  'x, y, z'
loop_
 _atom_site_type_symbol
 _atom_site_label
 _atom_site_symmetry_multiplicity
 _atom_site_fract_x
 _atom_site_fract_y
 _atom_site_fract_z
 _atom_site_occupancy
  Zn  Zn0  1  0.00001932  0.99999484  0.99999021  1
  Zn  Zn1  1  0.99999891  0.49999692  0.49999633  1
  Zn  Zn2  1  0.49997967  0.00000115  0.50001607  1
  Zn  Zn3  1  0.49999227  0.49998513  0.00000123  1
  N  N4  1  0.16553454  0.66582092  0.83415557  1
  N  N5  1  0.16585545  0.83432816  0.33434070  1
  N  N6  1  0.33434962  0.33404349  0.33441565  1
  N  N7  1  0.33404644  0.16541178  0.83416767  1
  N  N8  1  0.66560296  0.66602323  0.66557657  1
  N  N9  1  0.66586744  0.83448520  0.16580502  1
  N  N10  1  0.83420065  0.16567782  0.66568805  1
  N  N11  1  0.83448742  0.33422394  0.16590257  1
  O  O12  1  0.04507557  0.72051400  0.32719560  1
  O  O13  1  0.04523454  0.77932814  0.82721176  1
  O  O14  1  0.17275677  0.95490281  0.22055432  1
  O  O15  1  0.17278182  0.54510478  0.72060203  1
  O  O16  1  0.22061564  0.17282317  0.95484654  1
  O  O17  1  0.22059237  0.32723023  0.45483218  1
  O  O18  1  0.27938176  0.82720464  0.45481247  1
  O  O19  1  0.27952230  0.67276928  0.95493872  1
  O  O20  1  0.32723065  0.45500759  0.22047307  1
  O  O21  1  0.32722433  0.04526014  0.72067715  1
  O  O22  1  0.45478373  0.22068591  0.32718106  1
  O  O23  1  0.45503537  0.27956044  0.82722731  1
  O  O24  1  0.54503865  0.72047908  0.17278713  1
  O  O25  1  0.54524511  0.77929098  0.67282334  1
  O  O26  1  0.67275343  0.95481380  0.27934731  1
  O  O27  1  0.67277628  0.54497881  0.77954724  1
  O  O28  1  0.72059998  0.17277929  0.54515236  1
  O  O29  1  0.72047104  0.32722663  0.04503792  1
  O  O30  1  0.77941586  0.67277044  0.54516741  1
  O  O31  1  0.77940193  0.82720725  0.04515214  1
  O  O32  1  0.82724475  0.04508862  0.77943145  1
  O  O33  1  0.82721556  0.45487161  0.27937157  1
  O  O34  1  0.95477695  0.22067462  0.17278205  1
  O  O35  1  0.95490992  0.27945414  0.67279221  1
