# generated using pymatgen
data_Ba3Co(CN)3
_symmetry_space_group_name_H-M   'P 1'
_cell_length_a   9.11984186
_cell_length_b   9.12005888
_cell_length_c   5.82949634
_cell_angle_alpha   90.00000000
_cell_angle_beta   90.00000000
_cell_angle_gamma   119.99612158
_symmetry_Int_Tables_number   1
_chemical_formula_structural   Ba3Co(CN)3
_chemical_formula_sum   'Ba6 Co2 C6 N6'
_cell_volume   419.91712593
_cell_formula_units_Z   2
loop_
 _symmetry_equiv_pos_site_id
 _symmetry_equiv_pos_as_xyz
  1  'x, y, z'
loop_
 _atom_site_type_symbol
 _atom_site_label
 _atom_site_symmetry_multiplicity
 _atom_site_fract_x
 _atom_site_fract_y
 _atom_site_fract_z
 _atom_site_occupancy
  Ba  Ba0  1  0.93023619  0.62170321  0.75000100  1
  Ba  Ba1  1  0.06976231  0.37829679  0.25000000  1
  Ba  Ba2  1  0.37828798  0.30856269  0.75000100  1
  Ba  Ba3  1  0.69141674  0.06970642  0.75000100  1
  Ba  Ba4  1  0.30858356  0.93029283  0.25000000  1
  Ba  Ba5  1  0.62171362  0.69143914  0.25000000  1
  Co  Co6  1  0.33332149  0.66666678  0.75000100  1
  Co  Co7  1  0.66667846  0.33333238  0.25000000  1
  C  C8  1  0.15544745  0.45810880  0.75000100  1
  C  C9  1  0.54210307  0.69735858  0.75000100  1
  C  C10  1  0.45789625  0.30264224  0.25000000  1
  C  C11  1  0.84455229  0.54189115  0.25000000  1
  C  C12  1  0.30265331  0.84467878  0.75000100  1
  C  C13  1  0.69734609  0.15531972  0.25000000  1
  N  N14  1  0.03350211  0.31073465  0.75000100  1
  N  N15  1  0.96649679  0.68926537  0.25000000  1
  N  N16  1  0.72265632  0.03358212  0.25000000  1
  N  N17  1  0.68902252  0.72266517  0.75000100  1
  N  N18  1  0.31097640  0.27733262  0.25000000  1
  N  N19  1  0.27734305  0.96641856  0.75000100  1
