# generated using pymatgen
data_LiMnPO4
_symmetry_space_group_name_H-M   'P 1'
_cell_length_a   7.77545352
_cell_length_b   7.77556037
_cell_length_c   9.87430316
_cell_angle_alpha   90.00626693
_cell_angle_beta   89.99685024
_cell_angle_gamma   120.00056996
_symmetry_Int_Tables_number   1
_chemical_formula_structural   LiMnPO4
_chemical_formula_sum   'Li6 Mn6 P6 O24'
_cell_volume   517.00175733
_cell_formula_units_Z   6
loop_
 _symmetry_equiv_pos_site_id
 _symmetry_equiv_pos_as_xyz
  1  'x, y, z'
loop_
 _atom_site_type_symbol
 _atom_site_label
 _atom_site_symmetry_multiplicity
 _atom_site_fract_x
 _atom_site_fract_y
 _atom_site_fract_z
 _atom_site_occupancy
  Li  Li0  1  0.03416612  0.59162864  0.49063392  1
  Li  Li1  1  0.55760115  0.96602819  0.49056102  1
  Li  Li2  1  0.40835854  0.44252665  0.49065503  1
  Li  Li3  1  0.44239999  0.40842739  0.99056085  1
  Li  Li4  1  0.59164243  0.03416860  0.99065518  1
  Li  Li5  1  0.96583446  0.55746285  0.99063363  1
  Mn  Mn6  1  0.23242915  0.94717019  0.26778446  1
  Mn  Mn7  1  0.05294162  0.28534896  0.26782151  1
  Mn  Mn8  1  0.28526049  0.05285063  0.76774681  1
  Mn  Mn9  1  0.71473416  0.76758476  0.26774825  1
  Mn  Mn10  1  0.76757358  0.71474288  0.76778049  1
  Mn  Mn11  1  0.94705545  0.23240650  0.76782039  1
  P  P12  1  0.33332119  0.66667512  0.17638708  1
  P  P13  1  0.00001051  -0.00000168  0.00241490  1
  P  P14  1  0.99999061  0.99998924  0.50241444  1
  P  P15  1  0.33327673  0.66659706  0.77421475  1
  P  P16  1  0.66667824  0.33335443  0.67638765  1
  P  P17  1  0.66672378  0.33332066  0.27421326  1
  O  O18  1  0.07912286  0.86466757  0.45088910  1
  O  O19  1  0.18608872  0.73295529  0.12491368  1
  O  O20  1  0.39166495  0.87640581  0.83182231  1
  O  O21  1  0.12356133  0.51523773  0.83195854  1
  O  O22  1  0.26705369  0.45317209  0.12488111  1
  O  O23  1  0.33329930  0.66663215  0.33401634  1
  O  O24  1  0.00001611  0.00002131  0.16411944  1
  O  O25  1  0.99998480  0.00000579  0.66411938  1
  O  O26  1  0.33318573  0.66643375  0.61775455  1
  O  O27  1  0.13533602  0.21443689  0.45089798  1
  O  O28  1  0.21446178  0.13532524  0.95088474  1
  O  O29  1  0.54683460  0.81392578  0.12491538  1
  O  O30  1  0.48471744  0.60831376  0.83189768  1
  O  O31  1  0.78553766  0.92086329  0.45088477  1
  O  O32  1  0.45316143  0.26708816  0.62491386  1
  O  O33  1  0.51528420  0.12359783  0.33189932  1
  O  O34  1  0.60833636  0.48474138  0.33182218  1
  O  O35  1  0.81391224  0.54686661  0.62491391  1
  O  O36  1  0.66670199  0.33333425  0.83401708  1
  O  O37  1  0.66681375  0.33324677  0.11775456  1
  O  O38  1  0.92087726  0.78554439  0.95088844  1
  O  O39  1  0.73294668  0.18612076  0.62488273  1
  O  O40  1  0.87643831  0.39167771  0.33195950  1
  O  O41  1  0.86466460  0.07910165  0.95089779  1
