# generated using pymatgen
data_La5In3Br
_symmetry_space_group_name_H-M   'P 1'
_cell_length_a   9.80402266
_cell_length_b   9.80535277
_cell_length_c   6.97329002
_cell_angle_alpha   89.99426349
_cell_angle_beta   89.99464859
_cell_angle_gamma   120.00465144
_symmetry_Int_Tables_number   1
_chemical_formula_structural   La5In3Br
_chemical_formula_sum   'La10 In6 Br2'
_cell_volume   580.51777679
_cell_formula_units_Z   2
loop_
 _symmetry_equiv_pos_site_id
 _symmetry_equiv_pos_as_xyz
  1  'x, y, z'
loop_
 _atom_site_type_symbol
 _atom_site_label
 _atom_site_symmetry_multiplicity
 _atom_site_fract_x
 _atom_site_fract_y
 _atom_site_fract_z
 _atom_site_occupancy
  La  La0  1  0.73418045  0.73417600  0.25005293  1
  La  La1  1  0.00000320  0.73421353  0.74998337  1
  La  La2  1  0.73418693  0.00002558  0.74999013  1
  La  La3  1  0.33331585  0.66663325  0.49994170  1
  La  La4  1  0.26583096  0.26586160  0.74998836  1
  La  La5  1  0.00000711  0.26581446  0.24993185  1
  La  La6  1  0.66668107  0.33332509  0.49995820  1
  La  La7  1  0.26582438  0.00000170  0.24998719  1
  La  La8  1  0.33334929  0.66665103  0.00008134  1
  La  La9  1  0.66665296  0.33332502  0.00002434  1
  In  In10  1  0.39170018  -0.00002022  0.75005044  1
  In  In11  1  -0.00003763  0.60825873  0.25000520  1
  In  In12  1  0.60832409  0.00004779  0.24999433  1
  In  In13  1  0.99996936  0.39172829  0.75000196  1
  In  In14  1  0.39172396  0.39168291  0.25004858  1
  In  In15  1  0.60824336  0.60825668  0.74998780  1
  Br  Br16  1  0.00003192  -0.00000082  0.50002454  1
  Br  Br17  1  0.00001255  0.00001936  -0.00005226  1
