# generated using pymatgen
data_BH3
_symmetry_space_group_name_H-M   'P 1'
_cell_length_a   4.31050873
_cell_length_b   5.81463345
_cell_length_c   6.61943157
_cell_angle_alpha   90.00000000
_cell_angle_beta   90.00000000
_cell_angle_gamma   105.54897212
_symmetry_Int_Tables_number   1
_chemical_formula_structural   BH3
_chemical_formula_sum   'B4 H12'
_cell_volume   159.83760752
_cell_formula_units_Z   4
loop_
 _symmetry_equiv_pos_site_id
 _symmetry_equiv_pos_as_xyz
  1  'x, y, z'
loop_
 _atom_site_type_symbol
 _atom_site_label
 _atom_site_symmetry_multiplicity
 _atom_site_fract_x
 _atom_site_fract_y
 _atom_site_fract_z
 _atom_site_occupancy
  B  B0  1  0.50282249  0.64237910  0.45755094  1
  B  B1  1  0.99717751  0.85762090  0.95755094  1
  B  B2  1  0.49717751  0.35762090  0.54244906  1
  B  B3  1  0.00282249  0.14237910  0.04244906  1
  H  H4  1  0.28186843  0.66777437  0.35859214  1
  H  H5  1  0.21813157  0.83222563  0.85859214  1
  H  H6  1  0.71813157  0.33222563  0.64140786  1
  H  H7  1  0.78186843  0.16777437  0.14140786  1
  H  H8  1  0.72580475  0.80771220  0.49869988  1
  H  H9  1  0.77419525  0.69228780  0.99869988  1
  H  H10  1  0.27419525  0.19228780  0.50130012  1
  H  H11  1  0.22580475  0.30771220  0.00130012  1
  H  H12  1  0.61397696  0.47276448  0.37535353  1
  H  H13  1  0.88602304  0.02723552  0.87535353  1
  H  H14  1  0.38602304  0.52723552  0.62464647  1
  H  H15  1  0.11397696  0.97276448  0.12464647  1
