# generated using pymatgen
data_TlHg3As2Cl3
_symmetry_space_group_name_H-M   'P 1'
_cell_length_a   6.34057164
_cell_length_b   12.58200526
_cell_length_c   12.65443527
_cell_angle_alpha   90.00000000
_cell_angle_beta   90.00000000
_cell_angle_gamma   90.00000000
_symmetry_Int_Tables_number   1
_chemical_formula_structural   TlHg3As2Cl3
_chemical_formula_sum   'Tl4 Hg12 As8 Cl12'
_cell_volume   1009.53422044
_cell_formula_units_Z   4
loop_
 _symmetry_equiv_pos_site_id
 _symmetry_equiv_pos_as_xyz
  1  'x, y, z'
loop_
 _atom_site_type_symbol
 _atom_site_label
 _atom_site_symmetry_multiplicity
 _atom_site_fract_x
 _atom_site_fract_y
 _atom_site_fract_z
 _atom_site_occupancy
  Tl  Tl0  1  0.98266792  0.75000000  0.74762208  1
  Tl  Tl1  1  0.01733208  0.75000000  0.24762208  1
  Tl  Tl2  1  0.01733208  0.25000000  0.25237792  1
  Tl  Tl3  1  0.98266792  0.25000000  0.75237792  1
  Hg  Hg4  1  0.54234058  0.00000000  0.75000000  1
  Hg  Hg5  1  0.44993064  0.25000000  0.02027519  1
  Hg  Hg6  1  0.45765942  0.50000000  0.25000000  1
  Hg  Hg7  1  0.44993064  0.75000000  0.47972481  1
  Hg  Hg8  1  0.00000000  0.50000000  0.00000000  1
  Hg  Hg9  1  0.45765942  0.00000000  0.25000000  1
  Hg  Hg10  1  0.54234058  0.50000000  0.75000000  1
  Hg  Hg11  1  0.00000000  0.50000000  0.50000000  1
  Hg  Hg12  1  0.55006936  0.75000000  0.97972481  1
  Hg  Hg13  1  0.00000000  0.00000000  0.50000000  1
  Hg  Hg14  1  0.00000000  0.00000000  0.00000000  1
  Hg  Hg15  1  0.55006936  0.25000000  0.52027519  1
  As  As16  1  0.37890367  0.05058438  0.05577913  1
  As  As17  1  0.62109633  0.44941562  0.55577913  1
  As  As18  1  0.37890367  0.94941562  0.44422087  1
  As  As19  1  0.37890367  0.55058438  0.44422087  1
  As  As20  1  0.62109633  0.55058438  0.94422087  1
  As  As21  1  0.37890367  0.44941562  0.05577913  1
  As  As22  1  0.62109633  0.94941562  0.94422087  1
  As  As23  1  0.62109633  0.05058438  0.55577913  1
  Cl  Cl24  1  0.89616338  0.25000000  0.00312974  1
  Cl  Cl25  1  0.54711381  0.25000000  0.29554241  1
  Cl  Cl26  1  0.09751179  0.50000000  0.75000000  1
  Cl  Cl27  1  0.90248821  0.00000000  0.25000000  1
  Cl  Cl28  1  0.90248821  0.50000000  0.25000000  1
  Cl  Cl29  1  0.09751179  0.00000000  0.75000000  1
  Cl  Cl30  1  0.54711381  0.75000000  0.20445759  1
  Cl  Cl31  1  0.10383662  0.25000000  0.50312974  1
  Cl  Cl32  1  0.45288619  0.75000000  0.70445759  1
  Cl  Cl33  1  0.10383662  0.75000000  0.99687026  1
  Cl  Cl34  1  0.89616338  0.75000000  0.49687026  1
  Cl  Cl35  1  0.45288619  0.25000000  0.79554241  1
