# generated using pymatgen
data_LiCoSbO4
_symmetry_space_group_name_H-M   'P 1'
_cell_length_a   6.03312532
_cell_length_b   6.19354357
_cell_length_c   6.19354422
_cell_angle_alpha   59.96920858
_cell_angle_beta   60.85316736
_cell_angle_gamma   60.85316400
_symmetry_Int_Tables_number   1
_chemical_formula_structural   LiCoSbO4
_chemical_formula_sum   'Li2 Co2 Sb2 O8'
_cell_volume   165.68524781
_cell_formula_units_Z   2
loop_
 _symmetry_equiv_pos_site_id
 _symmetry_equiv_pos_as_xyz
  1  'x, y, z'
loop_
 _atom_site_type_symbol
 _atom_site_label
 _atom_site_symmetry_multiplicity
 _atom_site_fract_x
 _atom_site_fract_y
 _atom_site_fract_z
 _atom_site_occupancy
  Li  Li0  1  0.14487593  0.10512407  0.10512407  1
  Li  Li1  1  0.85512407  0.89487593  0.89487593  1
  Co  Co2  1  0.00000000  0.50000000  0.50000000  1
  Co  Co3  1  0.50000000  0.50000000  0.50000000  1
  Sb  Sb4  1  0.50000000  0.00000000  0.50000000  1
  Sb  Sb5  1  0.50000000  0.50000000  0.00000000  1
  O  O6  1  0.27413181  0.24944216  0.24944216  1
  O  O7  1  0.27648372  0.24437571  0.70265784  1
  O  O8  1  0.27648372  0.70265784  0.24437571  1
  O  O9  1  0.72698486  0.24944216  0.24944216  1
  O  O10  1  0.27301514  0.75055784  0.75055784  1
  O  O11  1  0.72351628  0.75562429  0.29734216  1
  O  O12  1  0.72351628  0.29734216  0.75562429  1
  O  O13  1  0.72586819  0.75055784  0.75055784  1
