# generated using pymatgen
data_Co(BiO3)2
_symmetry_space_group_name_H-M   'P 1'
_cell_length_a   8.92565631
_cell_length_b   8.92570630
_cell_length_c   5.01495235
_cell_angle_alpha   89.99713987
_cell_angle_beta   90.00043605
_cell_angle_gamma   59.99917462
_symmetry_Int_Tables_number   1
_chemical_formula_structural   Co(BiO3)2
_chemical_formula_sum   'Co3 Bi6 O18'
_cell_volume   346.00038510
_cell_formula_units_Z   3
loop_
 _symmetry_equiv_pos_site_id
 _symmetry_equiv_pos_as_xyz
  1  'x, y, z'
loop_
 _atom_site_type_symbol
 _atom_site_label
 _atom_site_symmetry_multiplicity
 _atom_site_fract_x
 _atom_site_fract_y
 _atom_site_fract_z
 _atom_site_occupancy
  Co  Co0  1  0.00000738  0.99999599  0.00001532  1
  Co  Co1  1  0.33328172  0.33336859  0.49957216  1
  Co  Co2  1  0.66665475  0.66667367  0.50042676  1
  Bi  Bi3  1  0.99998650  0.37400388  -0.00000013  1
  Bi  Bi4  1  0.29230658  -0.00000064  0.49998865  1
  Bi  Bi5  1  0.99998254  0.70771116  0.50001281  1
  Bi  Bi6  1  0.62598698  0.00000550  0.99999257  1
  Bi  Bi7  1  0.37400891  0.62600101  0.99999546  1
  Bi  Bi8  1  0.70770218  0.29229123  0.49999333  1
  O  O9  1  0.08253197  0.11730712  0.21735444  1
  O  O10  1  0.23302998  0.23239399  0.72053864  1
  O  O11  1  0.13647441  0.46137818  0.28074181  1
  O  O12  1  0.40215980  0.13650891  0.28073255  1
  O  O13  1  0.23237392  0.53456088  0.72061601  1
  O  O14  1  0.11732440  0.80018659  0.21742525  1
  O  O15  1  0.53455869  0.23301110  0.72055331  1
  O  O16  1  0.19985092  0.88269553  0.78264801  1
  O  O17  1  0.46132042  0.40224292  0.28086345  1
  O  O18  1  0.80015187  0.08253195  0.21735708  1
  O  O19  1  0.46545236  0.76760073  0.27943417  1
  O  O20  1  0.59785554  0.53861524  0.71922544  1
  O  O21  1  0.53866559  0.86345343  0.71930506  1
  O  O22  1  0.76693595  0.46543946  0.27941897  1
  O  O23  1  0.91749982  0.19981197  0.78254417  1
  O  O24  1  0.76759230  0.76694587  0.27941514  1
  O  O25  1  0.86352693  0.59779557  0.71917085  1
  O  O26  1  0.88267958  0.91747017  0.78265872  1
