# generated using pymatgen
data_Nd3SiAgS7
_symmetry_space_group_name_H-M   'P 1'
_cell_length_a   10.31639741
_cell_length_b   10.31868389
_cell_length_c   5.78558360
_cell_angle_alpha   90.00000000
_cell_angle_beta   90.00000000
_cell_angle_gamma   120.01394706
_symmetry_Int_Tables_number   1
_chemical_formula_structural   Nd3SiAgS7
_chemical_formula_sum   'Nd6 Si2 Ag2 S14'
_cell_volume   533.29697990
_cell_formula_units_Z   2
loop_
 _symmetry_equiv_pos_site_id
 _symmetry_equiv_pos_as_xyz
  1  'x, y, z'
loop_
 _atom_site_type_symbol
 _atom_site_label
 _atom_site_symmetry_multiplicity
 _atom_site_fract_x
 _atom_site_fract_y
 _atom_site_fract_z
 _atom_site_occupancy
  Nd  Nd0  1  0.12531633  0.35983346  0.24722941  1
  Nd  Nd1  1  0.87468367  0.64016754  0.74723141  1
  Nd  Nd2  1  0.64018925  0.76546814  0.24718540  1
  Nd  Nd3  1  0.23456526  0.87480617  0.24719689  1
  Nd  Nd4  1  0.76543474  0.12519383  0.74719589  1
  Nd  Nd5  1  0.35981075  0.23453186  0.74718440  1
  Si  Si6  1  0.33335293  0.66668395  0.65933432  1
  Si  Si7  1  0.66664607  0.33331605  0.15933432  1
  Ag  Ag8  1  0.00002372  0.99995805  0.31336041  1
  Ag  Ag9  1  -0.00002372  0.00004095  0.81336041  1
  S  S10  1  0.33333131  0.66668861  0.02538222  1
  S  S11  1  0.66666869  0.33331139  0.52538222  1
  S  S12  1  0.41012801  0.52505997  0.51354940  1
  S  S13  1  0.58987199  0.47494003  0.01354940  1
  S  S14  1  0.47501652  0.88511093  0.51349906  1
  S  S15  1  0.11492549  0.58995135  0.51336503  1
  S  S16  1  0.88507451  0.41004865  0.01336503  1
  S  S17  1  0.52498448  0.11488807  0.01349906  1
  S  S18  1  0.09378581  0.26933723  0.76532476  1
  S  S19  1  0.90621419  0.73066277  0.26532476  1
  S  S20  1  0.73056315  0.82436161  0.76529129  1
  S  S21  1  0.17548139  0.90625556  0.76527982  1
  S  S22  1  0.82451861  0.09374344  0.26527982  1
  S  S23  1  0.26943685  0.17563839  0.26529129  1
