# generated using pymatgen
data_Sm3(GaNi3)2
_symmetry_space_group_name_H-M   'P 1'
_cell_length_a   7.77371547
_cell_length_b   7.77371594
_cell_length_c   7.77371580
_cell_angle_alpha   109.47121762
_cell_angle_beta   109.47121884
_cell_angle_gamma   109.47122116
_symmetry_Int_Tables_number   1
_chemical_formula_structural   Sm3(GaNi3)2
_chemical_formula_sum   'Sm6 Ga4 Ni12'
_cell_volume   361.62970645
_cell_formula_units_Z   2
loop_
 _symmetry_equiv_pos_site_id
 _symmetry_equiv_pos_as_xyz
  1  'x, y, z'
loop_
 _atom_site_type_symbol
 _atom_site_label
 _atom_site_symmetry_multiplicity
 _atom_site_fract_x
 _atom_site_fract_y
 _atom_site_fract_z
 _atom_site_occupancy
  Sm  Sm0  1  0.00000000  0.28919931  0.28919931  1
  Sm  Sm1  1  0.28919931  0.00000000  0.28919931  1
  Sm  Sm2  1  0.71080069  1.00000000  0.71080069  1
  Sm  Sm3  1  0.71080069  0.71080069  1.00000000  1
  Sm  Sm4  1  0.28919931  0.28919931  0.00000000  1
  Sm  Sm5  1  1.00000000  0.71080069  0.71080069  1
  Ni  Ni6  1  0.32516214  0.66258107  0.66258107  1
  Ni  Ni7  1  0.66258107  0.00000000  0.33741893  1
  Ni  Ni8  1  0.66258107  0.32516214  0.66258107  1
  Ni  Ni9  1  0.66258107  0.66258107  0.32516214  1
  Ni  Ni10  1  0.66258107  0.33741893  0.00000000  1
  Ni  Ni11  1  0.00000000  0.66258107  0.33741893  1
  Ni  Ni12  1  1.00000000  0.33741893  0.66258107  1
  Ni  Ni13  1  0.33741893  0.33741893  0.67483786  1
  Ni  Ni14  1  0.33741893  1.00000000  0.66258107  1
  Ni  Ni15  1  0.33741893  0.66258107  1.00000000  1
  Ni  Ni16  1  0.33741893  0.67483786  0.33741893  1
  Ni  Ni17  1  0.67483786  0.33741893  0.33741893  1
  Ga  Ga18  1  0.50000000  0.50000000  0.50000000  1
  Ga  Ga19  1  0.50000000  0.00000000  0.00000000  1
  Ga  Ga20  1  0.00000000  0.50000000  0.00000000  1
  Ga  Ga21  1  0.00000000  0.00000000  0.50000000  1
