# generated using pymatgen
data_Al2IrRh
_symmetry_space_group_name_H-M   'P 1'
_cell_length_a   4.26485020
_cell_length_b   4.26485555
_cell_length_c   4.26485876
_cell_angle_alpha   59.99996907
_cell_angle_beta   60.00006066
_cell_angle_gamma   60.00000757
_symmetry_Int_Tables_number   1
_chemical_formula_structural   Al2IrRh
_chemical_formula_sum   'Al2 Ir1 Rh1'
_cell_volume   54.85268437
_cell_formula_units_Z   1
loop_
 _symmetry_equiv_pos_site_id
 _symmetry_equiv_pos_as_xyz
  1  'x, y, z'
loop_
 _atom_site_type_symbol
 _atom_site_label
 _atom_site_symmetry_multiplicity
 _atom_site_fract_x
 _atom_site_fract_y
 _atom_site_fract_z
 _atom_site_occupancy
  Al  Al0  1  0.50000147  0.50000088  0.50000053  1
  Al  Al1  1  0.00000061  0.99999988  0.99999971  1
  Ir  Ir2  1  0.25000023  0.25000002  0.24999985  1
  Rh  Rh3  1  0.74999868  0.75000021  0.75000091  1
