# generated using pymatgen
data_Mg5(Si8Pd5)2
_symmetry_space_group_name_H-M   'P 1'
_cell_length_a   8.95331504
_cell_length_b   8.95331666
_cell_length_c   8.95331845
_cell_angle_alpha   59.99979830
_cell_angle_beta   59.99985287
_cell_angle_gamma   59.99970821
_symmetry_Int_Tables_number   1
_chemical_formula_structural   Mg5(Si8Pd5)2
_chemical_formula_sum   'Mg5 Si16 Pd10'
_cell_volume   507.49847556
_cell_formula_units_Z   1
loop_
 _symmetry_equiv_pos_site_id
 _symmetry_equiv_pos_as_xyz
  1  'x, y, z'
loop_
 _atom_site_type_symbol
 _atom_site_label
 _atom_site_symmetry_multiplicity
 _atom_site_fract_x
 _atom_site_fract_y
 _atom_site_fract_z
 _atom_site_occupancy
  Mg  Mg0  1  0.34905454  0.34904812  0.95284997  1
  Mg  Mg1  1  0.34905051  0.95285148  0.34904813  1
  Mg  Mg2  1  0.34904780  0.34904688  0.34905022  1
  Mg  Mg3  1  0.95284502  0.34905398  0.34905010  1
  Mg  Mg4  1  0.99999662  0.00000125  0.99999816  1
  Si  Si5  1  0.41314790  0.95465971  0.95465939  1
  Si  Si6  1  0.41314767  0.95465897  0.67753437  1
  Si  Si7  1  0.95465949  0.41314657  0.95466101  1
  Si  Si8  1  0.95465912  0.95465943  0.41314787  1
  Si  Si9  1  0.95466035  0.41314666  0.67753393  1
  Si  Si10  1  0.41314733  0.67753319  0.95466004  1
  Si  Si11  1  0.95466027  0.95465813  0.67753503  1
  Si  Si12  1  0.67753439  0.95465907  0.41314699  1
  Si  Si13  1  0.67753489  0.95465854  0.95466059  1
  Si  Si14  1  0.67753387  0.41314611  0.95466084  1
  Si  Si15  1  0.57251590  0.57251498  0.28245343  1
  Si  Si16  1  0.57251635  0.57251475  0.57251621  1
  Si  Si17  1  0.95465873  0.67753422  0.41314773  1
  Si  Si18  1  0.57251657  0.28245304  0.57251622  1
  Si  Si19  1  0.28245470  0.57251574  0.57251488  1
  Si  Si20  1  0.95465963  0.67753385  0.95466098  1
  Pd  Pd21  1  0.73698250  0.26301809  0.73698322  1
  Pd  Pd22  1  0.73697588  0.26302689  0.26301400  1
  Pd  Pd23  1  0.26301954  0.73698370  0.73697766  1
  Pd  Pd24  1  0.12862105  0.61414933  0.12861391  1
  Pd  Pd25  1  0.12862086  0.12861425  0.12861743  1
  Pd  Pd26  1  0.12861870  0.12861754  0.61415196  1
  Pd  Pd27  1  0.26301474  0.26301941  0.73698512  1
  Pd  Pd28  1  0.26301724  0.73697975  0.26301598  1
  Pd  Pd29  1  0.61414677  0.12861868  0.12861855  1
  Pd  Pd30  1  0.73698107  0.73697769  0.26301609  1
