# generated using pymatgen
data_Y3(SiRh)2
_symmetry_space_group_name_H-M   'P 1'
_cell_length_a   5.60081321
_cell_length_b   7.80036673
_cell_length_c   13.12496088
_cell_angle_alpha   90.00000000
_cell_angle_beta   90.00000000
_cell_angle_gamma   90.00000000
_symmetry_Int_Tables_number   1
_chemical_formula_structural   Y3(SiRh)2
_chemical_formula_sum   'Y12 Si8 Rh8'
_cell_volume   573.40850185
_cell_formula_units_Z   4
loop_
 _symmetry_equiv_pos_site_id
 _symmetry_equiv_pos_as_xyz
  1  'x, y, z'
loop_
 _atom_site_type_symbol
 _atom_site_label
 _atom_site_symmetry_multiplicity
 _atom_site_fract_x
 _atom_site_fract_y
 _atom_site_fract_z
 _atom_site_occupancy
  Y  Y0  1  0.13732279  0.60673694  0.10368783  1
  Y  Y1  1  0.13732279  0.89326306  0.89631217  1
  Y  Y2  1  0.86267721  0.10673694  0.39631217  1
  Y  Y3  1  0.86267721  0.39326306  0.60368783  1
  Y  Y4  1  0.86267721  0.39326306  0.89631217  1
  Y  Y5  1  0.86267721  0.10673694  0.10368783  1
  Y  Y6  1  0.13732279  0.89326306  0.60368783  1
  Y  Y7  1  0.13732279  0.60673694  0.39631217  1
  Y  Y8  1  0.37046253  0.24766324  0.25000000  1
  Y  Y9  1  0.37046253  0.25233676  0.75000000  1
  Y  Y10  1  0.62953747  0.74766324  0.25000000  1
  Y  Y11  1  0.62953747  0.75233676  0.75000000  1
  Rh  Rh12  1  0.63694495  0.46886431  0.09012810  1
  Rh  Rh13  1  0.63694495  0.03113569  0.90987190  1
  Rh  Rh14  1  0.36305505  0.96886431  0.40987190  1
  Rh  Rh15  1  0.36305505  0.53113569  0.59012810  1
  Rh  Rh16  1  0.36305505  0.53113569  0.90987190  1
  Rh  Rh17  1  0.36305505  0.96886431  0.09012810  1
  Rh  Rh18  1  0.63694495  0.03113569  0.59012810  1
  Rh  Rh19  1  0.63694495  0.46886431  0.40987190  1
  Si  Si20  1  0.85876926  0.39507253  0.25000000  1
  Si  Si21  1  0.85876926  0.10492747  0.75000000  1
  Si  Si22  1  0.14123074  0.89507253  0.25000000  1
  Si  Si23  1  0.14123074  0.60492747  0.75000000  1
  Si  Si24  1  0.38152727  0.25000000  0.00000000  1
  Si  Si25  1  0.61847273  0.75000000  0.50000000  1
  Si  Si26  1  0.61847273  0.75000000  0.00000000  1
  Si  Si27  1  0.38152727  0.25000000  0.50000000  1
