# generated using pymatgen
data_Li7Cu(SiO4)2
_symmetry_space_group_name_H-M   'P 1'
_cell_length_a   6.34736457
_cell_length_b   8.37676226
_cell_length_c   7.81158156
_cell_angle_alpha   90.60859538
_cell_angle_beta   90.00000000
_cell_angle_gamma   67.73645451
_symmetry_Int_Tables_number   1
_chemical_formula_structural   Li7Cu(SiO4)2
_chemical_formula_sum   'Li14 Cu2 Si4 O16'
_cell_volume   384.35577290
_cell_formula_units_Z   2
loop_
 _symmetry_equiv_pos_site_id
 _symmetry_equiv_pos_as_xyz
  1  'x, y, z'
loop_
 _atom_site_type_symbol
 _atom_site_label
 _atom_site_symmetry_multiplicity
 _atom_site_fract_x
 _atom_site_fract_y
 _atom_site_fract_z
 _atom_site_occupancy
  Li  Li0  1  0.34189778  0.83070477  0.62596100  1
  Li  Li1  1  0.82739845  0.83070477  0.62596100  1
  Li  Li2  1  0.07283214  0.85433573  0.29578403  1
  Li  Li3  1  0.64810437  0.70379226  0.85331480  1
  Li  Li4  1  0.93876720  0.63096527  0.15803325  1
  Li  Li5  1  0.43026753  0.63096527  0.15803325  1
  Li  Li6  1  0.06123280  0.36903473  0.84196675  1
  Li  Li7  1  0.56973247  0.36903473  0.84196675  1
  Li  Li8  1  0.35189563  0.29620774  0.14668520  1
  Li  Li9  1  0.92716786  0.14566427  0.70421597  1
  Li  Li10  1  0.65810222  0.16929523  0.37403900  1
  Li  Li11  1  0.17260155  0.16929523  0.37403900  1
  Li  Li12  1  0.00000000  0.00000000  0.00000000  1
  Li  Li13  1  0.50000000  0.00000000  0.00000000  1
  Cu  Cu14  1  0.26754616  0.46490668  0.59849231  1
  Cu  Cu15  1  0.73245384  0.53509332  0.40150769  1
  Si  Si16  1  0.57265227  0.85469645  0.28800857  1
  Si  Si17  1  0.14484947  0.71030106  0.85064231  1
  Si  Si18  1  0.85515053  0.28969894  0.14935769  1
  Si  Si19  1  0.42734773  0.14530355  0.71199143  1
  O  O20  1  0.53224096  0.93551707  0.73720131  1
  O  O21  1  0.04839159  0.90321581  0.76297552  1
  O  O22  1  0.39511370  0.78097363  0.38484786  1
  O  O23  1  0.82391266  0.78097363  0.38484786  1
  O  O24  1  0.61649219  0.76701561  0.09235604  1
  O  O25  1  0.13242071  0.73515857  0.06000899  1
  O  O26  1  0.40958185  0.60896769  0.77973837  1
  O  O27  1  0.98145046  0.60896769  0.77973837  1
  O  O28  1  0.01854954  0.39103231  0.22026163  1
  O  O29  1  0.59041815  0.39103231  0.22026163  1
  O  O30  1  0.86757929  0.26484143  0.93999101  1
  O  O31  1  0.38350781  0.23298439  0.90764396  1
  O  O32  1  0.60488630  0.21902637  0.61515214  1
  O  O33  1  0.17608734  0.21902637  0.61515214  1
  O  O34  1  0.95160841  0.09678419  0.23702448  1
  O  O35  1  0.46775904  0.06448293  0.26279869  1
