# generated using pymatgen
data_Li2CuF5
_symmetry_space_group_name_H-M   'P 1'
_cell_length_a   6.32236671
_cell_length_b   9.46967825
_cell_length_c   7.49298760
_cell_angle_alpha   90.00000000
_cell_angle_beta   106.55011871
_cell_angle_gamma   90.00000000
_symmetry_Int_Tables_number   1
_chemical_formula_structural   Li2CuF5
_chemical_formula_sum   'Li8 Cu4 F20'
_cell_volume   430.02546411
_cell_formula_units_Z   4
loop_
 _symmetry_equiv_pos_site_id
 _symmetry_equiv_pos_as_xyz
  1  'x, y, z'
loop_
 _atom_site_type_symbol
 _atom_site_label
 _atom_site_symmetry_multiplicity
 _atom_site_fract_x
 _atom_site_fract_y
 _atom_site_fract_z
 _atom_site_occupancy
  Li  Li0  1  0.10486053  0.26022350  0.53924767  1
  Li  Li1  1  0.37666903  0.67785843  0.97387896  1
  Li  Li2  1  0.10486053  0.23977650  0.03924767  1
  Li  Li3  1  0.37666903  0.82214157  0.47387896  1
  Li  Li4  1  0.62333097  0.17785843  0.52612104  1
  Li  Li5  1  0.89513947  0.76022350  0.96075233  1
  Li  Li6  1  0.62333097  0.32214157  0.02612104  1
  Li  Li7  1  0.89513947  0.73977650  0.46075233  1
  Cu  Cu8  1  0.34298803  0.00880996  0.77792493  1
  Cu  Cu9  1  0.34298803  0.49119004  0.27792493  1
  Cu  Cu10  1  0.65701197  0.50880996  0.72207507  1
  Cu  Cu11  1  0.65701197  0.99119004  0.22207507  1
  F  F12  1  0.14120462  0.11539682  0.84611561  1
  F  F13  1  0.13521123  0.84771771  0.55836562  1
  F  F14  1  0.34275879  0.88164603  0.95778074  1
  F  F15  1  0.14120462  0.38460318  0.34611561  1
  F  F16  1  0.13521123  0.65228229  0.05836562  1
  F  F17  1  0.36797665  0.14991678  0.62033280  1
  F  F18  1  0.44125372  0.41674169  0.78842720  1
  F  F19  1  0.34275879  0.61835397  0.45778074  1
  F  F20  1  0.55874628  0.91674169  0.71157280  1
  F  F21  1  0.36797665  0.35008322  0.12033280  1
  F  F22  1  0.63202335  0.64991678  0.87966720  1
  F  F23  1  0.44125372  0.08325831  0.28842720  1
  F  F24  1  0.65724121  0.38164603  0.54221926  1
  F  F25  1  0.55874628  0.58325831  0.21157280  1
  F  F26  1  0.63202335  0.85008322  0.37966720  1
  F  F27  1  0.86478877  0.34771771  0.94163438  1
  F  F28  1  0.85879538  0.61539682  0.65388439  1
  F  F29  1  0.65724121  0.11835397  0.04221926  1
  F  F30  1  0.86478877  0.15228229  0.44163438  1
  F  F31  1  0.85879538  0.88460318  0.15388439  1
