# generated using pymatgen
data_KAlH6(OF3)2
_symmetry_space_group_name_H-M   'P 1'
_cell_length_a   8.72915571
_cell_length_b   8.72915571
_cell_length_c   8.72915571
_cell_angle_alpha   90.00000000
_cell_angle_beta   90.00000000
_cell_angle_gamma   90.00000000
_symmetry_Int_Tables_number   1
_chemical_formula_structural   KAlH6(OF3)2
_chemical_formula_sum   'K4 Al4 H24 O8 F24'
_cell_volume   665.14559830
_cell_formula_units_Z   4
loop_
 _symmetry_equiv_pos_site_id
 _symmetry_equiv_pos_as_xyz
  1  'x, y, z'
loop_
 _atom_site_type_symbol
 _atom_site_label
 _atom_site_symmetry_multiplicity
 _atom_site_fract_x
 _atom_site_fract_y
 _atom_site_fract_z
 _atom_site_occupancy
  K  K0  1  0.50000000  0.50000000  0.00000000  1
  K  K1  1  0.50000000  0.00000000  0.50000000  1
  K  K2  1  0.00000000  0.50000000  0.50000000  1
  K  K3  1  0.00000000  0.00000000  0.00000000  1
  Al  Al4  1  0.50000000  0.00000000  0.00000000  1
  Al  Al5  1  0.50000000  0.50000000  0.50000000  1
  Al  Al6  1  0.00000000  0.00000000  0.50000000  1
  Al  Al7  1  0.00000000  0.50000000  0.00000000  1
  H  H8  1  0.35901779  0.80218074  0.20220056  1
  H  H9  1  0.64098221  0.30218074  0.29779944  1
  H  H10  1  0.14098221  0.19781926  0.70220056  1
  H  H11  1  0.85901779  0.69781926  0.79779944  1
  H  H12  1  0.20220056  0.35901779  0.80218074  1
  H  H13  1  0.29779944  0.64098221  0.30218074  1
  H  H14  1  0.70220056  0.14098221  0.19781926  1
  H  H15  1  0.79779944  0.85901779  0.69781926  1
  H  H16  1  0.80218074  0.20220056  0.35901779  1
  H  H17  1  0.30218074  0.29779944  0.64098221  1
  H  H18  1  0.19781926  0.70220056  0.14098221  1
  H  H19  1  0.69781926  0.79779944  0.85901779  1
  H  H20  1  0.64098221  0.19781926  0.79779944  1
  H  H21  1  0.35901779  0.69781926  0.70220056  1
  H  H22  1  0.85901779  0.80218074  0.29779944  1
  H  H23  1  0.14098221  0.30218074  0.20220056  1
  H  H24  1  0.79779944  0.64098221  0.19781926  1
  H  H25  1  0.70220056  0.35901779  0.69781926  1
  H  H26  1  0.29779944  0.85901779  0.80218074  1
  H  H27  1  0.20220056  0.14098221  0.30218074  1
  H  H28  1  0.19781926  0.79779944  0.64098221  1
  H  H29  1  0.69781926  0.70220056  0.35901779  1
  H  H30  1  0.80218074  0.29779944  0.85901779  1
  H  H31  1  0.30218074  0.20220056  0.14098221  1
  O  O32  1  0.30240145  0.69759855  0.19759855  1
  O  O33  1  0.69759855  0.19759855  0.30240145  1
  O  O34  1  0.19759855  0.30240145  0.69759855  1
  O  O35  1  0.80240145  0.80240145  0.80240145  1
  O  O36  1  0.69759855  0.30240145  0.80240145  1
  O  O37  1  0.30240145  0.80240145  0.69759855  1
  O  O38  1  0.80240145  0.69759855  0.30240145  1
  O  O39  1  0.19759855  0.19759855  0.19759855  1
  F  F40  1  0.44997937  0.93853548  0.19520292  1
  F  F41  1  0.55002063  0.43853548  0.30479708  1
  F  F42  1  0.05002063  0.06146452  0.69520292  1
  F  F43  1  0.94997937  0.56146452  0.80479708  1
  F  F44  1  0.19520292  0.44997937  0.93853548  1
  F  F45  1  0.30479708  0.55002063  0.43853548  1
  F  F46  1  0.69520292  0.05002063  0.06146452  1
  F  F47  1  0.80479708  0.94997937  0.56146452  1
  F  F48  1  0.93853548  0.19520292  0.44997937  1
  F  F49  1  0.43853548  0.30479708  0.55002063  1
  F  F50  1  0.06146452  0.69520292  0.05002063  1
  F  F51  1  0.56146452  0.80479708  0.94997937  1
  F  F52  1  0.55002063  0.06146452  0.80479708  1
  F  F53  1  0.44997937  0.56146452  0.69520292  1
  F  F54  1  0.94997937  0.93853548  0.30479708  1
  F  F55  1  0.05002063  0.43853548  0.19520292  1
  F  F56  1  0.80479708  0.55002063  0.06146452  1
  F  F57  1  0.69520292  0.44997937  0.56146452  1
  F  F58  1  0.30479708  0.94997937  0.93853548  1
  F  F59  1  0.19520292  0.05002063  0.43853548  1
  F  F60  1  0.06146452  0.80479708  0.55002063  1
  F  F61  1  0.56146452  0.69520292  0.44997937  1
  F  F62  1  0.93853548  0.30479708  0.94997937  1
  F  F63  1  0.43853548  0.19520292  0.05002063  1
