# generated using pymatgen
data_AsS4N4F5
_symmetry_space_group_name_H-M   'P 1'
_cell_length_a   5.78593755
_cell_length_b   7.93279280
_cell_length_c   11.40164406
_cell_angle_alpha   90.00000000
_cell_angle_beta   90.00000000
_cell_angle_gamma   109.30150450
_symmetry_Int_Tables_number   1
_chemical_formula_structural   AsS4N4F5
_chemical_formula_sum   'As2 S8 N8 F10'
_cell_volume   493.90537079
_cell_formula_units_Z   2
loop_
 _symmetry_equiv_pos_site_id
 _symmetry_equiv_pos_as_xyz
  1  'x, y, z'
loop_
 _atom_site_type_symbol
 _atom_site_label
 _atom_site_symmetry_multiplicity
 _atom_site_fract_x
 _atom_site_fract_y
 _atom_site_fract_z
 _atom_site_occupancy
  As  As0  1  0.84746691  0.85166715  0.75000000  1
  As  As1  1  0.15253309  0.14833285  0.25000000  1
  S  S2  1  0.17280406  0.39497852  0.88038981  1
  S  S3  1  0.66036867  0.14664308  0.87286872  1
  S  S4  1  0.33963133  0.85335692  0.37286872  1
  S  S5  1  0.82719594  0.60502148  0.11961019  1
  S  S6  1  0.33963133  0.85335692  0.12713128  1
  S  S7  1  0.82719594  0.60502148  0.38038981  1
  S  S8  1  0.66036867  0.14664308  0.62713128  1
  S  S9  1  0.17280406  0.39497852  0.61961019  1
  N  N10  1  0.09761798  0.70379133  0.08188790  1
  N  N11  1  0.74525832  0.62576468  0.25000000  1
  N  N12  1  0.71324193  0.05130525  0.75000000  1
  N  N13  1  0.28675807  0.94869475  0.25000000  1
  N  N14  1  0.25474168  0.37423532  0.75000000  1
  N  N15  1  0.09761798  0.70379133  0.41811210  1
  N  N16  1  0.90238202  0.29620867  0.91811210  1
  N  N17  1  0.90238202  0.29620867  0.58188790  1
  F  F18  1  0.04271733  0.33111393  0.25000000  1
  F  F19  1  0.95728267  0.66888607  0.75000000  1
  F  F20  1  0.36847425  0.25191486  0.36187794  1
  F  F21  1  0.36847425  0.25191486  0.13812206  1
  F  F22  1  0.93692236  0.03780960  0.13965386  1
  F  F23  1  0.06307764  0.96219040  0.86034614  1
  F  F24  1  0.93692236  0.03780960  0.36034614  1
  F  F25  1  0.63152575  0.74808514  0.86187794  1
  F  F26  1  0.63152575  0.74808514  0.63812206  1
  F  F27  1  0.06307764  0.96219040  0.63965386  1
