# generated using pymatgen
data_CdCu2SiS4
_symmetry_space_group_name_H-M   'P 1'
_cell_length_a   6.28440301
_cell_length_b   6.49538191
_cell_length_c   7.66070201
_cell_angle_alpha   90.00000000
_cell_angle_beta   90.00000000
_cell_angle_gamma   90.00000000
_symmetry_Int_Tables_number   1
_chemical_formula_structural   CdCu2SiS4
_chemical_formula_sum   'Cd2 Si2 Cu4 S8'
_cell_volume   312.70677358
_cell_formula_units_Z   2
loop_
 _symmetry_equiv_pos_site_id
 _symmetry_equiv_pos_as_xyz
  1  'x, y, z'
loop_
 _atom_site_type_symbol
 _atom_site_label
 _atom_site_symmetry_multiplicity
 _atom_site_fract_x
 _atom_site_fract_y
 _atom_site_fract_z
 _atom_site_occupancy
  Si  Si0  1  0.12280304  0.68119325  0.50000000  1
  Si  Si1  1  0.62280304  0.31880675  0.00000000  1
  S  S2  1  0.03452442  0.35943368  0.50000000  1
  S  S3  1  0.46546340  0.70985973  0.50000000  1
  S  S4  1  0.96546340  0.29014027  0.00000000  1
  S  S5  1  0.49535367  0.15893558  0.77613536  1
  S  S6  1  0.49535367  0.15893558  0.22386464  1
  S  S7  1  0.99535367  0.84106442  0.27613536  1
  S  S8  1  0.53452442  0.64056632  0.00000000  1
  S  S9  1  0.99535367  0.84106442  0.72386464  1
  Cu  Cu10  1  0.12982892  0.17561928  0.25175080  1
  Cu  Cu11  1  0.62982892  0.82438072  0.24824920  1
  Cu  Cu12  1  0.12982892  0.17561928  0.74824920  1
  Cu  Cu13  1  0.62982892  0.82438072  0.75175080  1
  Cd  Cd14  1  0.12684394  0.65099445  0.00000000  1
  Cd  Cd15  1  0.62684394  0.34900555  0.50000000  1
