# generated using pymatgen
data_Cs2ZnO2
_symmetry_space_group_name_H-M   'P 1'
_cell_length_a   6.72713729
_cell_length_b   10.03086185
_cell_length_c   14.98516087
_cell_angle_alpha   99.34584791
_cell_angle_beta   90.00000000
_cell_angle_gamma   90.00000000
_symmetry_Int_Tables_number   1
_chemical_formula_structural   Cs2ZnO2
_chemical_formula_sum   'Cs16 Zn8 O16'
_cell_volume   997.76108005
_cell_formula_units_Z   8
loop_
 _symmetry_equiv_pos_site_id
 _symmetry_equiv_pos_as_xyz
  1  'x, y, z'
loop_
 _atom_site_type_symbol
 _atom_site_label
 _atom_site_symmetry_multiplicity
 _atom_site_fract_x
 _atom_site_fract_y
 _atom_site_fract_z
 _atom_site_occupancy
  Cs  Cs0  1  0.82505864  0.32991084  0.47645539  1
  Cs  Cs1  1  0.86232290  0.23586075  0.16135189  1
  Cs  Cs2  1  0.92297300  0.04938037  0.62092791  1
  Cs  Cs3  1  0.42297300  0.45061963  0.87907209  1
  Cs  Cs4  1  0.63767710  0.73586075  0.66135189  1
  Cs  Cs5  1  0.17494136  0.67008916  0.52354461  1
  Cs  Cs6  1  0.67494136  0.82991084  0.97645539  1
  Cs  Cs7  1  0.36232290  0.26413925  0.33864811  1
  Cs  Cs8  1  0.08955087  0.58189766  0.25822530  1
  Cs  Cs9  1  0.07702700  0.95061963  0.37907209  1
  Cs  Cs10  1  0.58955087  0.91810234  0.24177470  1
  Cs  Cs11  1  0.13767710  0.76413925  0.83864811  1
  Cs  Cs12  1  0.57702700  0.54938037  0.12092791  1
  Cs  Cs13  1  0.32505864  0.17008916  0.02354461  1
  Cs  Cs14  1  0.91044913  0.41810234  0.74177470  1
  Cs  Cs15  1  0.41044913  0.08189766  0.75822530  1
  Zn  Zn16  1  0.86532076  0.11734945  0.87231548  1
  Zn  Zn17  1  0.13467924  0.88265055  0.12768452  1
  Zn  Zn18  1  0.55544323  0.87442638  0.45985047  1
  Zn  Zn19  1  0.36532076  0.38265055  0.62768452  1
  Zn  Zn20  1  0.05544323  0.62557362  0.04014953  1
  Zn  Zn21  1  0.44455677  0.12557362  0.54014953  1
  Zn  Zn22  1  0.94455677  0.37442638  0.95985047  1
  Zn  Zn23  1  0.63467924  0.61734945  0.37231548  1
  O  O24  1  0.30562107  0.55259609  0.69378898  1
  O  O25  1  0.11957010  0.43873282  0.06885164  1
  O  O26  1  0.27769441  0.76066471  0.03145299  1
  O  O27  1  0.08644593  0.24138136  0.86013080  1
  O  O28  1  0.72230559  0.23933529  0.96854701  1
  O  O29  1  0.80562107  0.94740391  0.80621102  1
  O  O30  1  0.19437893  0.05259609  0.19378898  1
  O  O31  1  0.77769441  0.73933529  0.46854701  1
  O  O32  1  0.69437893  0.44740391  0.30621102  1
  O  O33  1  0.38042990  0.93873282  0.56885164  1
  O  O34  1  0.61957010  0.06126718  0.43114836  1
  O  O35  1  0.41355407  0.74138136  0.36013080  1
  O  O36  1  0.22230559  0.26066471  0.53145299  1
  O  O37  1  0.88042990  0.56126718  0.93114836  1
  O  O38  1  0.91355407  0.75861864  0.13986920  1
  O  O39  1  0.58644593  0.25861864  0.63986920  1
