# generated using pymatgen
data_LiYSn
_symmetry_space_group_name_H-M   'P 1'
_cell_length_a   9.37499586
_cell_length_b   9.37499573
_cell_length_c   7.35910589
_cell_angle_alpha   90.00000000
_cell_angle_beta   90.00000000
_cell_angle_gamma   120.00000047
_symmetry_Int_Tables_number   1
_chemical_formula_structural   LiYSn
_chemical_formula_sum   'Li8 Y8 Sn8'
_cell_volume   560.14162201
_cell_formula_units_Z   8
loop_
 _symmetry_equiv_pos_site_id
 _symmetry_equiv_pos_as_xyz
  1  'x, y, z'
loop_
 _atom_site_type_symbol
 _atom_site_label
 _atom_site_symmetry_multiplicity
 _atom_site_fract_x
 _atom_site_fract_y
 _atom_site_fract_z
 _atom_site_occupancy
  Li  Li0  1  0.16704553  0.83295447  0.18862058  1
  Li  Li1  1  0.33409106  0.16704553  0.68862058  1
  Li  Li2  1  0.83295447  0.66590894  0.68862058  1
  Li  Li3  1  0.16704553  0.33409106  0.18862058  1
  Li  Li4  1  0.66590894  0.83295447  0.18862058  1
  Li  Li5  1  0.83295447  0.16704553  0.68862058  1
  Li  Li6  1  0.33333300  0.66666700  0.81689782  1
  Li  Li7  1  0.66666700  0.33333300  0.31689782  1
  Y  Y8  1  0.51366201  0.48633799  0.99177405  1
  Y  Y9  1  0.02732403  0.51366201  0.49177405  1
  Y  Y10  1  0.48633799  0.97267597  0.49177405  1
  Y  Y11  1  0.51366201  0.02732403  0.99177405  1
  Y  Y12  1  0.97267597  0.48633799  0.99177405  1
  Y  Y13  1  0.48633799  0.51366201  0.49177405  1
  Y  Y14  1  0.00000000  0.00000000  0.98680370  1
  Y  Y15  1  0.00000000  0.00000000  0.48680370  1
  Sn  Sn16  1  0.16647872  0.83352128  0.75905188  1
  Sn  Sn17  1  0.33295745  0.16647872  0.25905188  1
  Sn  Sn18  1  0.83352128  0.66704255  0.25905188  1
  Sn  Sn19  1  0.16647872  0.33295745  0.75905188  1
  Sn  Sn20  1  0.66704255  0.83352128  0.75905188  1
  Sn  Sn21  1  0.83352128  0.16647872  0.25905188  1
  Sn  Sn22  1  0.33333300  0.66666700  0.22295893  1
  Sn  Sn23  1  0.66666700  0.33333300  0.72295893  1
