# generated using pymatgen
data_Nd4Se3O4
_symmetry_space_group_name_H-M   'P 1'
_cell_length_a   4.03270184
_cell_length_b   6.82543793
_cell_length_c   8.50241797
_cell_angle_alpha   89.99987895
_cell_angle_beta   90.00000000
_cell_angle_gamma   107.18254879
_symmetry_Int_Tables_number   1
_chemical_formula_structural   Nd4Se3O4
_chemical_formula_sum   'Nd4 Se3 O4'
_cell_volume   223.58360328
_cell_formula_units_Z   1
loop_
 _symmetry_equiv_pos_site_id
 _symmetry_equiv_pos_as_xyz
  1  'x, y, z'
loop_
 _atom_site_type_symbol
 _atom_site_label
 _atom_site_symmetry_multiplicity
 _atom_site_fract_x
 _atom_site_fract_y
 _atom_site_fract_z
 _atom_site_occupancy
  Nd  Nd0  1  0.68308962  0.36617923  0.23701517  1
  O  O1  1  0.08803366  0.17606732  0.75612092  1
  Se  Se2  1  0.35606482  0.71212964  0.35113081  1
  O  O3  1  0.58774709  0.17549419  0.99999977  1
  Se  Se4  1  0.31289014  0.62578028  0.99999989  1
  O  O5  1  0.61611810  0.23223619  0.49999959  1
  Nd  Nd6  1  0.68308961  0.36617922  0.76298379  1
  O  O7  1  0.08803351  0.17606703  0.24387870  1
  Nd  Nd8  1  0.00088442  0.00176883  -0.00000084  1
  Se  Se9  1  0.35606532  0.71213065  0.64887219  1
  Nd  Nd10  1  0.01780371  0.03560743  0.50000000  1
