# generated using pymatgen
data_Eu(Al4Fe)2
_symmetry_space_group_name_H-M   'P 1'
_cell_length_a   4.00113543
_cell_length_b   12.50420098
_cell_length_c   14.50118699
_cell_angle_alpha   90.00000000
_cell_angle_beta   90.00000000
_cell_angle_gamma   90.00000000
_symmetry_Int_Tables_number   1
_chemical_formula_structural   Eu(Al4Fe)2
_chemical_formula_sum   'Eu4 Al32 Fe8'
_cell_volume   725.50890899
_cell_formula_units_Z   4
loop_
 _symmetry_equiv_pos_site_id
 _symmetry_equiv_pos_as_xyz
  1  'x, y, z'
loop_
 _atom_site_type_symbol
 _atom_site_label
 _atom_site_symmetry_multiplicity
 _atom_site_fract_x
 _atom_site_fract_y
 _atom_site_fract_z
 _atom_site_occupancy
  Eu  Eu0  1  0.00000000  0.34000349  0.31816592  1
  Eu  Eu1  1  0.00000000  0.65999651  0.68183408  1
  Eu  Eu2  1  0.00000000  0.84000349  0.18183408  1
  Eu  Eu3  1  0.00000000  0.15999651  0.81816592  1
  Fe  Fe4  1  0.00000000  0.03562935  0.40986989  1
  Fe  Fe5  1  0.00000000  0.96437065  0.59013011  1
  Fe  Fe6  1  0.00000000  0.53562935  0.09013011  1
  Fe  Fe7  1  0.00000000  0.46437065  0.90986989  1
  Fe  Fe8  1  0.00000000  0.14889232  0.09895305  1
  Fe  Fe9  1  0.00000000  0.85110768  0.90104695  1
  Fe  Fe10  1  0.00000000  0.64889232  0.40104695  1
  Fe  Fe11  1  0.00000000  0.35110768  0.59895305  1
  Al  Al12  1  0.00000000  0.00000000  0.00000000  1
  Al  Al13  1  0.00000000  0.50000000  0.50000000  1
  Al  Al14  1  0.50000000  0.00000000  0.50000000  1
  Al  Al15  1  0.50000000  0.50000000  0.00000000  1
  Al  Al16  1  0.50000000  0.23497331  0.17102034  1
  Al  Al17  1  0.50000000  0.76502669  0.82897966  1
  Al  Al18  1  0.50000000  0.73497331  0.32897966  1
  Al  Al19  1  0.50000000  0.26502669  0.67102034  1
  Al  Al20  1  0.50000000  0.45293105  0.17851492  1
  Al  Al21  1  0.50000000  0.54706895  0.82148508  1
  Al  Al22  1  0.50000000  0.95293105  0.32148508  1
  Al  Al23  1  0.50000000  0.04706895  0.67851492  1
  Al  Al24  1  0.50000000  0.15885041  0.38046037  1
  Al  Al25  1  0.50000000  0.84114959  0.61953963  1
  Al  Al26  1  0.50000000  0.65885041  0.11953963  1
  Al  Al27  1  0.50000000  0.34114959  0.88046037  1
  Al  Al28  1  0.00000000  0.33690844  0.04662981  1
  Al  Al29  1  0.00000000  0.66309156  0.95337019  1
  Al  Al30  1  0.00000000  0.83690844  0.45337019  1
  Al  Al31  1  0.00000000  0.16309156  0.54662981  1
  Al  Al32  1  0.00000000  0.09404325  0.25449690  1
  Al  Al33  1  0.00000000  0.90595675  0.74550310  1
  Al  Al34  1  0.00000000  0.59404325  0.24550310  1
  Al  Al35  1  0.00000000  0.40595675  0.75449690  1
  Al  Al36  1  0.50000000  0.33342765  0.49318065  1
  Al  Al37  1  0.50000000  0.66657235  0.50681935  1
  Al  Al38  1  0.50000000  0.83342765  0.00681935  1
  Al  Al39  1  0.50000000  0.16657235  0.99318065  1
  Al  Al40  1  0.50000000  0.02593942  0.13269787  1
  Al  Al41  1  0.50000000  0.97406058  0.86730213  1
  Al  Al42  1  0.50000000  0.52593942  0.36730213  1
  Al  Al43  1  0.50000000  0.47406058  0.63269787  1
