# generated using pymatgen
data_Li2SiN2
_symmetry_space_group_name_H-M   'P 1'
_cell_length_a   9.97420233
_cell_length_b   9.98838249
_cell_length_c   15.10463508
_cell_angle_alpha   90.00000000
_cell_angle_beta   90.00000000
_cell_angle_gamma   90.00000000
_symmetry_Int_Tables_number   1
_chemical_formula_structural   Li2SiN2
_chemical_formula_sum   'Li64 Si32 N64'
_cell_volume   1504.81660853
_cell_formula_units_Z   32
loop_
 _symmetry_equiv_pos_site_id
 _symmetry_equiv_pos_as_xyz
  1  'x, y, z'
loop_
 _atom_site_type_symbol
 _atom_site_label
 _atom_site_symmetry_multiplicity
 _atom_site_fract_x
 _atom_site_fract_y
 _atom_site_fract_z
 _atom_site_occupancy
  Li  Li0  1  0.39941674  0.84750162  0.62252204  1
  Li  Li1  1  0.29169856  0.02760654  0.87544024  1
  Li  Li2  1  0.63789693  0.70398495  0.12157898  1
  Li  Li3  1  0.95720278  0.61947950  0.87379647  1
  Li  Li4  1  0.39677917  0.93893422  0.47893628  1
  Li  Li5  1  0.67176803  0.16203554  0.22803056  1
  Li  Li6  1  0.20830144  0.97239346  0.37544024  1
  Li  Li7  1  0.80857297  0.39408649  0.28400186  1
  Li  Li8  1  0.36397863  0.42215629  0.53727604  1
  Li  Li9  1  0.70830144  0.97239346  0.12455976  1
  Li  Li10  1  0.63602137  0.57784371  0.46272396  1
  Li  Li11  1  0.13789693  0.70398495  0.37842102  1
  Li  Li12  1  0.13789693  0.79601505  0.87842102  1
  Li  Li13  1  0.70830144  0.52760654  0.62455976  1
  Li  Li14  1  0.60322083  0.43893422  0.02106372  1
  Li  Li15  1  0.82823197  0.66203554  0.22803056  1
  Li  Li16  1  0.32823197  0.66203554  0.27196944  1
  Li  Li17  1  0.86397863  0.42215629  0.96272396  1
  Li  Li18  1  0.04279722  0.38052050  0.12620353  1
  Li  Li19  1  0.69142703  0.89408649  0.28400186  1
  Li  Li20  1  0.13602137  0.92215629  0.53727604  1
  Li  Li21  1  0.82823197  0.83796446  0.72803056  1
  Li  Li22  1  0.17176803  0.16203554  0.27196944  1
  Li  Li23  1  0.60322083  0.06106578  0.52106372  1
  Li  Li24  1  0.80857297  0.10591351  0.78400186  1
  Li  Li25  1  0.19142703  0.60591351  0.71599814  1
  Li  Li26  1  0.63789693  0.79601505  0.62157898  1
  Li  Li27  1  0.89941674  0.84750162  0.87747796  1
  Li  Li28  1  0.29169856  0.47239346  0.37544024  1
  Li  Li29  1  0.60058326  0.34750162  0.87747796  1
  Li  Li30  1  0.04279722  0.11947950  0.62620353  1
  Li  Li31  1  0.20830144  0.52760654  0.87544024  1
  Li  Li32  1  0.32823197  0.83796446  0.77196944  1
  Li  Li33  1  0.45720278  0.88052050  0.12620353  1
  Li  Li34  1  0.10058326  0.34750162  0.62252204  1
  Li  Li35  1  0.30857297  0.10591351  0.71599814  1
  Li  Li36  1  0.10322083  0.43893422  0.47893628  1
  Li  Li37  1  0.39941674  0.65249838  0.12252204  1
  Li  Li38  1  0.36397863  0.07784371  0.03727604  1
  Li  Li39  1  0.67176803  0.33796446  0.72803056  1
  Li  Li40  1  0.39677917  0.56106578  0.97893628  1
  Li  Li41  1  0.13602137  0.57784371  0.03727604  1
  Li  Li42  1  0.36210307  0.20398495  0.37842102  1
  Li  Li43  1  0.19142703  0.89408649  0.21599814  1
  Li  Li44  1  0.45720278  0.61947950  0.62620353  1
  Li  Li45  1  0.63602137  0.92215629  0.96272396  1
  Li  Li46  1  0.86210307  0.20398495  0.12157898  1
  Li  Li47  1  0.54279722  0.11947950  0.87379647  1
  Li  Li48  1  0.10058326  0.15249838  0.12252204  1
  Li  Li49  1  0.95720278  0.88052050  0.37379647  1
  Li  Li50  1  0.79169856  0.02760654  0.62455976  1
  Li  Li51  1  0.69142703  0.60591351  0.78400186  1
  Li  Li52  1  0.86210307  0.29601505  0.62157898  1
  Li  Li53  1  0.89677917  0.56106578  0.52106372  1
  Li  Li54  1  0.79169856  0.47239346  0.12455976  1
  Li  Li55  1  0.17176803  0.33796446  0.77196944  1
  Li  Li56  1  0.10322083  0.06106578  0.97893628  1
  Li  Li57  1  0.30857297  0.39408649  0.21599814  1
  Li  Li58  1  0.54279722  0.38052050  0.37379647  1
  Li  Li59  1  0.36210307  0.29601505  0.87842102  1
  Li  Li60  1  0.86397863  0.07784371  0.46272396  1
  Li  Li61  1  0.60058326  0.15249838  0.37747796  1
  Li  Li62  1  0.89677917  0.93893422  0.02106372  1
  Li  Li63  1  0.89941674  0.65249838  0.37747796  1
  Si  Si64  1  0.85847975  0.16730375  0.94334824  1
  Si  Si65  1  0.85847975  0.33269625  0.44334824  1
  Si  Si66  1  0.43375659  0.60490316  0.81340540  1
  Si  Si67  1  0.56624341  0.39509684  0.18659460  1
  Si  Si68  1  0.56624341  0.10490316  0.68659460  1
  Si  Si69  1  0.39123773  0.68088551  0.44259470  1
  Si  Si70  1  0.06624341  0.39509684  0.31340540  1
  Si  Si71  1  0.89123773  0.81911449  0.55740530  1
  Si  Si72  1  0.06624341  0.10490316  0.81340540  1
  Si  Si73  1  0.41388645  0.14404225  0.19950087  1
  Si  Si74  1  0.60876227  0.18088551  0.05740530  1
  Si  Si75  1  0.58611355  0.64404225  0.30049913  1
  Si  Si76  1  0.91388645  0.14404225  0.30049913  1
  Si  Si77  1  0.08611355  0.85595775  0.69950087  1
  Si  Si78  1  0.10876227  0.31911449  0.94259470  1
  Si  Si79  1  0.93375659  0.60490316  0.68659460  1
  Si  Si80  1  0.91388645  0.35595775  0.80049913  1
  Si  Si81  1  0.43375659  0.89509684  0.31340540  1
  Si  Si82  1  0.89123773  0.68088551  0.05740530  1
  Si  Si83  1  0.58611355  0.85595775  0.80049913  1
  Si  Si84  1  0.93375659  0.89509684  0.18659460  1
  Si  Si85  1  0.08611355  0.64404225  0.19950087  1
  Si  Si86  1  0.35847975  0.16730375  0.55665176  1
  Si  Si87  1  0.35847975  0.33269625  0.05665176  1
  Si  Si88  1  0.41388645  0.35595775  0.69950087  1
  Si  Si89  1  0.60876227  0.31911449  0.55740530  1
  Si  Si90  1  0.14152025  0.66730375  0.55665176  1
  Si  Si91  1  0.64152025  0.83269625  0.44334824  1
  Si  Si92  1  0.39123773  0.81911449  0.94259470  1
  Si  Si93  1  0.10876227  0.18088551  0.44259470  1
  Si  Si94  1  0.14152025  0.83269625  0.05665176  1
  Si  Si95  1  0.64152025  0.66730375  0.94334824  1
  N  N96  1  0.16153576  0.97503587  0.76747229  1
  N  N97  1  0.66153576  0.52496413  0.23252771  1
  N  N98  1  0.28973551  0.28130132  0.63253538  1
  N  N99  1  0.44299593  0.04135182  0.61507799  1
  N  N100  1  0.21026449  0.78130132  0.63253538  1
  N  N101  1  0.71026449  0.71869868  0.36746462  1
  N  N102  1  0.03134732  0.43294082  0.86995773  1
  N  N103  1  0.49321858  0.27475012  0.26165215  1
  N  N104  1  0.05700407  0.95864818  0.11507799  1
  N  N105  1  0.94299593  0.45864818  0.38492201  1
  N  N106  1  0.66153576  0.97503587  0.73252771  1
  N  N107  1  0.26330826  0.58943208  0.49248289  1
  N  N108  1  0.94299593  0.04135182  0.88492201  1
  N  N109  1  0.33846424  0.47503587  0.76747229  1
  N  N110  1  0.96865268  0.93294082  0.63004227  1
  N  N111  1  0.99321858  0.27475012  0.23834785  1
  N  N112  1  0.51629054  0.75008354  0.01251220  1
  N  N113  1  0.26330826  0.91056792  0.99248289  1
  N  N114  1  0.28973551  0.21869868  0.13253538  1
  N  N115  1  0.98370946  0.24991646  0.51251220  1
  N  N116  1  0.48370946  0.25008354  0.48748780  1
  N  N117  1  0.55700407  0.54135182  0.88492201  1
  N  N118  1  0.31634814  0.80658881  0.37799705  1
  N  N119  1  0.83846424  0.47503587  0.73252771  1
  N  N120  1  0.68365186  0.30658881  0.12200295  1
  N  N121  1  0.49321858  0.22524988  0.76165215  1
  N  N122  1  0.98370946  0.25008354  0.01251220  1
  N  N123  1  0.71026449  0.78130132  0.86746462  1
  N  N124  1  0.05700407  0.54135182  0.61507799  1
  N  N125  1  0.46865268  0.93294082  0.86995773  1
  N  N126  1  0.55700407  0.95864818  0.38492201  1
  N  N127  1  0.01629054  0.74991646  0.98748780  1
  N  N128  1  0.48370946  0.24991646  0.98748780  1
  N  N129  1  0.81634814  0.69341119  0.62200295  1
  N  N130  1  0.78973551  0.28130132  0.86746462  1
  N  N131  1  0.73669174  0.08943208  0.00751711  1
  N  N132  1  0.46865268  0.56705918  0.36995773  1
  N  N133  1  0.31634814  0.69341119  0.87799705  1
  N  N134  1  0.18365186  0.30658881  0.37799705  1
  N  N135  1  0.01629054  0.75008354  0.48748780  1
  N  N136  1  0.53134732  0.06705918  0.13004227  1
  N  N137  1  0.00678142  0.72524988  0.76165215  1
  N  N138  1  0.53134732  0.43294082  0.63004227  1
  N  N139  1  0.99321858  0.22524988  0.73834785  1
  N  N140  1  0.33846424  0.02496413  0.26747229  1
  N  N141  1  0.16153576  0.52496413  0.26747229  1
  N  N142  1  0.21026449  0.71869868  0.13253538  1
  N  N143  1  0.23669174  0.08943208  0.49248289  1
  N  N144  1  0.76330826  0.58943208  0.00751711  1
  N  N145  1  0.76330826  0.91056792  0.50751711  1
  N  N146  1  0.50678142  0.77475012  0.23834785  1
  N  N147  1  0.78973551  0.21869868  0.36746462  1
  N  N148  1  0.96865268  0.56705918  0.13004227  1
  N  N149  1  0.03134732  0.06705918  0.36995773  1
  N  N150  1  0.51629054  0.74991646  0.51251220  1
  N  N151  1  0.50678142  0.72524988  0.73834785  1
  N  N152  1  0.23669174  0.41056792  0.99248289  1
  N  N153  1  0.73669174  0.41056792  0.50751711  1
  N  N154  1  0.18365186  0.19341119  0.87799705  1
  N  N155  1  0.83846424  0.02496413  0.23252771  1
  N  N156  1  0.00678142  0.77475012  0.26165215  1
  N  N157  1  0.81634814  0.80658881  0.12200295  1
  N  N158  1  0.44299593  0.45864818  0.11507799  1
  N  N159  1  0.68365186  0.19341119  0.62200295  1
