# generated using pymatgen
data_Ca6Al7O16
_symmetry_space_group_name_H-M   'P 1'
_cell_length_a   10.47892072
_cell_length_b   10.47892072
_cell_length_c   10.47892072
_cell_angle_alpha   109.47122063
_cell_angle_beta   109.47122063
_cell_angle_gamma   109.47122063
_symmetry_Int_Tables_number   1
_chemical_formula_structural   Ca6Al7O16
_chemical_formula_sum   'Ca12 Al14 O32'
_cell_volume   885.78388208
_cell_formula_units_Z   2
loop_
 _symmetry_equiv_pos_site_id
 _symmetry_equiv_pos_as_xyz
  1  'x, y, z'
loop_
 _atom_site_type_symbol
 _atom_site_label
 _atom_site_symmetry_multiplicity
 _atom_site_fract_x
 _atom_site_fract_y
 _atom_site_fract_z
 _atom_site_occupancy
  Ca  Ca0  1  0.64049272  0.25000000  0.89049272  1
  Ca  Ca1  1  0.85950728  0.75000000  0.60950728  1
  Ca  Ca2  1  0.39049272  0.75000000  0.14049272  1
  Ca  Ca3  1  0.10950728  0.25000000  0.35950728  1
  Ca  Ca4  1  0.89049272  0.64049272  0.25000000  1
  Ca  Ca5  1  0.60950728  0.85950728  0.75000000  1
  Ca  Ca6  1  0.14049272  0.39049272  0.75000000  1
  Ca  Ca7  1  0.35950728  0.10950728  0.25000000  1
  Ca  Ca8  1  0.25000000  0.89049272  0.64049272  1
  Ca  Ca9  1  0.75000000  0.60950728  0.85950728  1
  Ca  Ca10  1  0.75000000  0.14049272  0.39049272  1
  Ca  Ca11  1  0.25000000  0.35950728  0.10950728  1
  Al  Al12  1  0.37500000  0.25000000  0.62500000  1
  Al  Al13  1  0.12500000  0.75000000  0.87500000  1
  Al  Al14  1  0.62500000  0.37500000  0.25000000  1
  Al  Al15  1  0.87500000  0.12500000  0.75000000  1
  Al  Al16  1  0.25000000  0.62500000  0.37500000  1
  Al  Al17  1  0.75000000  0.87500000  0.12500000  1
  Al  Al18  1  0.50000000  0.00000000  0.03649603  1
  Al  Al19  1  0.03649603  0.50000000  0.00000000  1
  Al  Al20  1  0.00000000  0.03649603  0.50000000  1
  Al  Al21  1  0.46350397  0.46350397  0.46350397  1
  Al  Al22  1  0.53649603  0.50000000  0.00000000  1
  Al  Al23  1  0.50000000  0.00000000  0.53649603  1
  Al  Al24  1  0.00000000  0.53649603  0.50000000  1
  Al  Al25  1  0.96350397  0.96350397  0.96350397  1
  O  O26  1  0.50000000  0.00000000  0.87068680  1
  O  O27  1  0.87068680  0.50000000  0.00000000  1
  O  O28  1  0.00000000  0.87068680  0.50000000  1
  O  O29  1  0.62931320  0.62931320  0.62931320  1
  O  O30  1  0.37068680  0.50000000  0.00000000  1
  O  O31  1  0.50000000  0.00000000  0.37068680  1
  O  O32  1  0.00000000  0.37068680  0.50000000  1
  O  O33  1  0.12931320  0.12931320  0.12931320  1
  O  O34  1  0.40805285  0.09379843  0.61689202  1
  O  O35  1  0.52309359  0.40620157  0.81425443  1
  O  O36  1  0.09194715  0.70883916  0.68574557  1
  O  O37  1  0.97690641  0.79116084  0.88310798  1
  O  O38  1  0.11689202  0.59379843  0.90805285  1
  O  O39  1  0.31425443  0.90620157  0.02309359  1
  O  O40  1  0.18574557  0.20883916  0.59194715  1
  O  O41  1  0.38310798  0.29116084  0.47690641  1
  O  O42  1  0.61689202  0.40805285  0.09379843  1
  O  O43  1  0.81425443  0.52309359  0.40620157  1
  O  O44  1  0.68574557  0.09194715  0.70883916  1
  O  O45  1  0.88310798  0.97690641  0.79116084  1
  O  O46  1  0.90805285  0.11689202  0.59379843  1
  O  O47  1  0.02309359  0.31425443  0.90620157  1
  O  O48  1  0.59194715  0.18574557  0.20883916  1
  O  O49  1  0.47690641  0.38310798  0.29116084  1
  O  O50  1  0.09379843  0.61689202  0.40805285  1
  O  O51  1  0.40620157  0.81425443  0.52309359  1
  O  O52  1  0.70883916  0.68574557  0.09194715  1
  O  O53  1  0.79116084  0.88310798  0.97690641  1
  O  O54  1  0.59379843  0.90805285  0.11689202  1
  O  O55  1  0.90620157  0.02309359  0.31425443  1
  O  O56  1  0.20883916  0.59194715  0.18574557  1
  O  O57  1  0.29116084  0.47690641  0.38310798  1
