# generated using pymatgen
data_PHN2
_symmetry_space_group_name_H-M   'P 1'
_cell_length_a   4.67225473
_cell_length_b   4.71372041
_cell_length_c   7.10841084
_cell_angle_alpha   90.00000000
_cell_angle_beta   90.00000000
_cell_angle_gamma   90.00000000
_symmetry_Int_Tables_number   1
_chemical_formula_structural   PHN2
_chemical_formula_sum   'P4 H4 N8'
_cell_volume   156.55352546
_cell_formula_units_Z   4
loop_
 _symmetry_equiv_pos_site_id
 _symmetry_equiv_pos_as_xyz
  1  'x, y, z'
loop_
 _atom_site_type_symbol
 _atom_site_label
 _atom_site_symmetry_multiplicity
 _atom_site_fract_x
 _atom_site_fract_y
 _atom_site_fract_z
 _atom_site_occupancy
  P  P0  1  0.98493657  0.76253306  0.38486151  1
  P  P1  1  0.51506343  0.23746694  0.88486151  1
  P  P2  1  0.48493657  0.73746694  0.61513849  1
  P  P3  1  0.01506343  0.26253306  0.11513849  1
  H  H4  1  0.64288609  0.55721744  0.19327194  1
  H  H5  1  0.85711391  0.44278256  0.69327194  1
  H  H6  1  0.14288609  0.94278256  0.80672806  1
  H  H7  1  0.35711391  0.05721744  0.30672806  1
  N  N8  1  0.84932083  0.52099264  0.23645640  1
  N  N9  1  0.65067917  0.47900736  0.73645640  1
  N  N10  1  0.34932083  0.97900736  0.76354360  1
  N  N11  1  0.15067917  0.02099264  0.26354360  1
  N  N12  1  0.72182133  0.90272001  0.49507937  1
  N  N13  1  0.77817867  0.09727999  0.99507937  1
  N  N14  1  0.22182133  0.59727999  0.50492063  1
  N  N15  1  0.27817867  0.40272001  0.00492063  1
