# generated using pymatgen
data_Li3VSiO5
_symmetry_space_group_name_H-M   'P 1'
_cell_length_a   6.26906744
_cell_length_b   5.81504207
_cell_length_c   5.11236963
_cell_angle_alpha   106.33319022
_cell_angle_beta   76.07641134
_cell_angle_gamma   103.97815058
_symmetry_Int_Tables_number   1
_chemical_formula_structural   Li3VSiO5
_chemical_formula_sum   'Li6 V2 Si2 O10'
_cell_volume   170.54273887
_cell_formula_units_Z   2
loop_
 _symmetry_equiv_pos_site_id
 _symmetry_equiv_pos_as_xyz
  1  'x, y, z'
loop_
 _atom_site_type_symbol
 _atom_site_label
 _atom_site_symmetry_multiplicity
 _atom_site_fract_x
 _atom_site_fract_y
 _atom_site_fract_z
 _atom_site_occupancy
  Li  Li0  1  0.99275975  0.76122987  0.51754251  1
  Li  Li1  1  0.39786182  0.55078689  0.30610932  1
  Li  Li2  1  0.39177255  0.05087701  0.32290013  1
  Li  Li3  1  0.60822745  0.94912299  0.67709987  1
  Li  Li4  1  0.60213818  0.44921311  0.69389068  1
  Li  Li5  1  0.00724025  0.23877013  0.48245749  1
  V  V6  1  0.21769544  0.65548539  0.90226691  1
  V  V7  1  0.78230456  0.34451461  0.09773309  1
  Si  Si8  1  0.21297499  0.14995504  0.89901391  1
  Si  Si9  1  0.78702501  0.85004496  0.10098609  1
  O  O10  1  0.28380022  0.88350718  0.64819560  1
  O  O11  1  0.28038450  0.32886196  0.64895562  1
  O  O12  1  0.09497549  0.95827908  0.15869804  1
  O  O13  1  0.47642115  0.24276594  0.00138242  1
  O  O14  1  0.10859015  0.41653722  0.15971424  1
  O  O15  1  0.89140985  0.58346278  0.84028576  1
  O  O16  1  0.52357885  0.75723406  0.99861758  1
  O  O17  1  0.90502451  0.04172092  0.84130196  1
  O  O18  1  0.71961550  0.67113804  0.35104438  1
  O  O19  1  0.71619978  0.11649282  0.35180440  1
