# generated using pymatgen
data_KTa(GeO3)3
_symmetry_space_group_name_H-M   'P 1'
_cell_length_a   7.08418753
_cell_length_b   7.08418742
_cell_length_c   10.29223233
_cell_angle_alpha   90.00000000
_cell_angle_beta   90.00000000
_cell_angle_gamma   120.00000048
_symmetry_Int_Tables_number   1
_chemical_formula_structural   KTa(GeO3)3
_chemical_formula_sum   'K2 Ta2 Ge6 O18'
_cell_volume   447.32204554
_cell_formula_units_Z   2
loop_
 _symmetry_equiv_pos_site_id
 _symmetry_equiv_pos_as_xyz
  1  'x, y, z'
loop_
 _atom_site_type_symbol
 _atom_site_label
 _atom_site_symmetry_multiplicity
 _atom_site_fract_x
 _atom_site_fract_y
 _atom_site_fract_z
 _atom_site_occupancy
  K  K0  1  0.66666700  0.33333300  0.00000000  1
  K  K1  1  0.66666700  0.33333300  0.50000000  1
  Ta  Ta2  1  0.33333300  0.66666700  0.00000000  1
  Ta  Ta3  1  0.33333300  0.66666700  0.50000000  1
  Ge  Ge4  1  0.07279801  0.28970300  0.25000000  1
  Ge  Ge5  1  0.21690499  0.92720199  0.25000000  1
  Ge  Ge6  1  0.71029700  0.78309501  0.25000000  1
  Ge  Ge7  1  0.71029700  0.92720199  0.75000000  1
  Ge  Ge8  1  0.21690499  0.28970300  0.75000000  1
  Ge  Ge9  1  0.07279801  0.78309501  0.75000000  1
  O  O10  1  0.26609181  0.19944699  0.25000000  1
  O  O11  1  0.93335518  0.73390819  0.25000000  1
  O  O12  1  0.80055301  0.06664482  0.25000000  1
  O  O13  1  0.80055301  0.73390819  0.75000000  1
  O  O14  1  0.93335518  0.19944699  0.75000000  1
  O  O15  1  0.26609181  0.06664482  0.75000000  1
  O  O16  1  0.09685434  0.43988039  0.10976060  1
  O  O17  1  0.34302605  0.90314566  0.39023940  1
  O  O18  1  0.56011961  0.65697395  0.39023940  1
  O  O19  1  0.56011961  0.65697395  0.10976060  1
  O  O20  1  0.34302605  0.90314566  0.10976060  1
  O  O21  1  0.56011961  0.90314566  0.89023940  1
  O  O22  1  0.34302605  0.43988039  0.89023940  1
  O  O23  1  0.09685434  0.65697395  0.89023940  1
  O  O24  1  0.34302605  0.43988039  0.60976060  1
  O  O25  1  0.09685434  0.65697395  0.60976060  1
  O  O26  1  0.09685434  0.43988039  0.39023940  1
  O  O27  1  0.56011961  0.90314566  0.60976060  1
