# generated using pymatgen
data_CsTiF4
_symmetry_space_group_name_H-M   'P 1'
_cell_length_a   6.64232888
_cell_length_b   8.03203803
_cell_length_c   8.03203803
_cell_angle_alpha   90.00000000
_cell_angle_beta   90.00000000
_cell_angle_gamma   90.00000000
_symmetry_Int_Tables_number   1
_chemical_formula_structural   CsTiF4
_chemical_formula_sum   'Cs4 Ti4 F16'
_cell_volume   428.52078035
_cell_formula_units_Z   4
loop_
 _symmetry_equiv_pos_site_id
 _symmetry_equiv_pos_as_xyz
  1  'x, y, z'
loop_
 _atom_site_type_symbol
 _atom_site_label
 _atom_site_symmetry_multiplicity
 _atom_site_fract_x
 _atom_site_fract_y
 _atom_site_fract_z
 _atom_site_occupancy
  Cs  Cs0  1  0.50000000  0.75000000  0.25000000  1
  Cs  Cs1  1  0.50000000  0.25000000  0.75000000  1
  Cs  Cs2  1  0.44839809  0.25000000  0.25000000  1
  Cs  Cs3  1  0.55160191  0.75000000  0.75000000  1
  Ti  Ti4  1  0.00000000  0.00000000  0.00000000  1
  Ti  Ti5  1  0.00000000  0.50000000  0.00000000  1
  Ti  Ti6  1  0.00000000  0.00000000  0.50000000  1
  Ti  Ti7  1  0.00000000  0.50000000  0.50000000  1
  F  F8  1  0.04612338  0.25000000  0.99778430  1
  F  F9  1  0.04612338  0.50221570  0.25000000  1
  F  F10  1  0.04612338  0.99778430  0.25000000  1
  F  F11  1  0.04612338  0.25000000  0.50221570  1
  F  F12  1  0.95387662  0.75000000  0.00221570  1
  F  F13  1  0.95387662  0.75000000  0.49778430  1
  F  F14  1  0.95387662  0.49778430  0.75000000  1
  F  F15  1  0.95387662  0.00221570  0.75000000  1
  F  F16  1  0.28542248  0.97011909  0.97011909  1
  F  F17  1  0.28542248  0.52988091  0.97011909  1
  F  F18  1  0.28542248  0.97011909  0.52988091  1
  F  F19  1  0.28542248  0.52988091  0.52988091  1
  F  F20  1  0.71457752  0.47011909  0.02988091  1
  F  F21  1  0.71457752  0.02988091  0.47011909  1
  F  F22  1  0.71457752  0.47011909  0.47011909  1
  F  F23  1  0.71457752  0.02988091  0.02988091  1
