# generated using pymatgen
data_LaCo8P5
_symmetry_space_group_name_H-M   'P 1'
_cell_length_a   3.57012679
_cell_length_b   9.28172259
_cell_length_c   10.45438799
_cell_angle_alpha   90.00000000
_cell_angle_beta   90.00000000
_cell_angle_gamma   90.00000000
_symmetry_Int_Tables_number   1
_chemical_formula_structural   LaCo8P5
_chemical_formula_sum   'La2 Co16 P10'
_cell_volume   346.42628618
_cell_formula_units_Z   2
loop_
 _symmetry_equiv_pos_site_id
 _symmetry_equiv_pos_as_xyz
  1  'x, y, z'
loop_
 _atom_site_type_symbol
 _atom_site_label
 _atom_site_symmetry_multiplicity
 _atom_site_fract_x
 _atom_site_fract_y
 _atom_site_fract_z
 _atom_site_occupancy
  La  La0  1  0.25000000  0.17734973  0.25000000  1
  La  La1  1  0.75000000  0.82265027  0.75000000  1
  Co  Co2  1  0.25000000  0.47918614  0.41706478  1
  Co  Co3  1  0.75000000  0.52081386  0.58293522  1
  Co  Co4  1  0.25000000  0.47918614  0.08293522  1
  Co  Co5  1  0.75000000  0.52081386  0.91706478  1
  Co  Co6  1  0.25000000  0.88923706  0.49577766  1
  Co  Co7  1  0.75000000  0.11076294  0.50422234  1
  Co  Co8  1  0.25000000  0.88923706  0.00422234  1
  Co  Co9  1  0.75000000  0.11076294  0.99577766  1
  Co  Co10  1  0.25000000  0.30374714  0.60931566  1
  Co  Co11  1  0.75000000  0.69625286  0.39068434  1
  Co  Co12  1  0.25000000  0.30374714  0.89068434  1
  Co  Co13  1  0.75000000  0.69625286  0.10931566  1
  Co  Co14  1  0.25000000  0.84890777  0.25000000  1
  Co  Co15  1  0.75000000  0.15109223  0.75000000  1
  Co  Co16  1  0.75000000  0.45400076  0.25000000  1
  Co  Co17  1  0.25000000  0.54599924  0.75000000  1
  P  P18  1  0.25000000  0.06846823  0.62941421  1
  P  P19  1  0.75000000  0.93153177  0.37058579  1
  P  P20  1  0.25000000  0.06846823  0.87058579  1
  P  P21  1  0.75000000  0.93153177  0.12941421  1
  P  P22  1  0.25000000  0.66018453  0.55678103  1
  P  P23  1  0.75000000  0.33981547  0.44321897  1
  P  P24  1  0.25000000  0.66018453  0.94321897  1
  P  P25  1  0.75000000  0.33981547  0.05678103  1
  P  P26  1  0.25000000  0.61468245  0.25000000  1
  P  P27  1  0.75000000  0.38531755  0.75000000  1
