# generated using pymatgen
data_Rb2NpO4
_symmetry_space_group_name_H-M   'P 1'
_cell_length_a   4.37157302
_cell_length_b   4.37157302
_cell_length_c   7.71556977
_cell_angle_alpha   106.45699175
_cell_angle_beta   106.45699175
_cell_angle_gamma   90.00000000
_symmetry_Int_Tables_number   1
_chemical_formula_structural   Rb2NpO4
_chemical_formula_sum   'Rb2 Np1 O4'
_cell_volume   135.09850253
_cell_formula_units_Z   1
loop_
 _symmetry_equiv_pos_site_id
 _symmetry_equiv_pos_as_xyz
  1  'x, y, z'
loop_
 _atom_site_type_symbol
 _atom_site_label
 _atom_site_symmetry_multiplicity
 _atom_site_fract_x
 _atom_site_fract_y
 _atom_site_fract_z
 _atom_site_occupancy
  Rb  Rb0  1  0.34860477  0.34860477  0.69720954  1
  Rb  Rb1  1  0.65139523  0.65139523  0.30279046  1
  Np  Np2  1  0.00000000  0.00000000  0.00000000  1
  O  O3  1  0.13634978  0.13634978  0.27269957  1
  O  O4  1  0.86365022  0.86365022  0.72730043  1
  O  O5  1  -0.00000000  0.50000000  -0.00000000  1
  O  O6  1  0.50000000  -0.00000000  -0.00000000  1
