# generated using pymatgen
data_LiCoPO4
_symmetry_space_group_name_H-M   'P 1'
_cell_length_a   8.45440103
_cell_length_b   7.53631971
_cell_length_c   15.00526267
_cell_angle_alpha   90.00000000
_cell_angle_beta   89.09634673
_cell_angle_gamma   90.00000000
_symmetry_Int_Tables_number   1
_chemical_formula_structural   LiCoPO4
_chemical_formula_sum   'Li12 Co12 P12 O48'
_cell_volume   955.94244149
_cell_formula_units_Z   12
loop_
 _symmetry_equiv_pos_site_id
 _symmetry_equiv_pos_as_xyz
  1  'x, y, z'
loop_
 _atom_site_type_symbol
 _atom_site_label
 _atom_site_symmetry_multiplicity
 _atom_site_fract_x
 _atom_site_fract_y
 _atom_site_fract_z
 _atom_site_occupancy
  Li  Li0  1  0.04778362  0.73926916  0.09333596  1
  Li  Li1  1  0.09295149  0.76898754  0.72978214  1
  Li  Li2  1  0.11236334  0.73235393  0.42416115  1
  Li  Li3  1  0.38763666  0.23235393  0.07583885  1
  Li  Li4  1  0.40704851  0.26898754  0.77021786  1
  Li  Li5  1  0.45221638  0.23926916  0.40666404  1
  Li  Li6  1  0.54778362  0.76073084  0.59333596  1
  Li  Li7  1  0.59295149  0.73101246  0.22978214  1
  Li  Li8  1  0.61236334  0.76764607  0.92416115  1
  Li  Li9  1  0.88763666  0.26764607  0.57583885  1
  Li  Li10  1  0.90704851  0.23101246  0.27021786  1
  Li  Li11  1  0.95221638  0.26073084  0.90666404  1
  Co  Co12  1  0.22724346  0.01831453  0.56469614  1
  Co  Co13  1  0.23714940  0.97661523  0.90946069  1
  Co  Co14  1  0.23725098  0.11362485  0.25294269  1
  Co  Co15  1  0.26274902  0.61362485  0.24705731  1
  Co  Co16  1  0.26285060  0.47661523  0.59053931  1
  Co  Co17  1  0.27275654  0.51831453  0.93530386  1
  Co  Co18  1  0.72724346  0.48168547  0.06469614  1
  Co  Co19  1  0.73714940  0.52338477  0.40946069  1
  Co  Co20  1  0.73725098  0.38637515  0.75294269  1
  Co  Co21  1  0.76274902  0.88637515  0.74705731  1
  Co  Co22  1  0.76285060  0.02338477  0.09053931  1
  Co  Co23  1  0.77275654  0.98168547  0.43530386  1
  P  P24  1  0.04823207  0.31618061  0.08828029  1
  P  P25  1  0.08649556  0.17957827  0.72764206  1
  P  P26  1  0.10285374  0.32346119  0.42824324  1
  P  P27  1  0.39714626  0.82346119  0.07175676  1
  P  P28  1  0.41350444  0.67957827  0.77235794  1
  P  P29  1  0.45176793  0.81618061  0.41171971  1
  P  P30  1  0.54823207  0.18381939  0.58828029  1
  P  P31  1  0.58649556  0.32042173  0.22764206  1
  P  P32  1  0.60285374  0.17653881  0.92824324  1
  P  P33  1  0.89714626  0.67653881  0.57175676  1
  P  P34  1  0.91350444  0.82042173  0.27235794  1
  P  P35  1  0.95176793  0.68381939  0.91171971  1
  O  O36  1  0.04696973  0.50997862  0.89418577  1
  O  O37  1  0.05215860  0.64036825  0.62159462  1
  O  O38  1  0.05367175  0.81392045  0.96656548  1
  O  O39  1  0.07195887  0.72484907  0.29359323  1
  O  O40  1  0.07762250  0.19488473  0.50889707  1
  O  O41  1  0.08474144  0.00141984  0.67444633  1
  O  O42  1  0.10121802  0.14098420  0.82867992  1
  O  O43  1  0.08365116  0.23350992  0.18129941  1
  O  O44  1  0.17573472  0.49789560  0.46408739  1
  O  O45  1  0.20712916  0.36222638  0.03998029  1
  O  O46  1  0.23091635  0.23929331  0.36418358  1
  O  O47  1  0.22615090  0.29348512  0.69212111  1
  O  O48  1  0.26908365  0.73929331  0.13581642  1
  O  O49  1  0.27384910  0.79348512  0.80787889  1
  O  O50  1  0.29287084  0.86222638  0.46001971  1
  O  O51  1  0.32426528  0.99789560  0.03591261  1
  O  O52  1  0.41634884  0.73350992  0.31870059  1
  O  O53  1  0.39878198  0.64098420  0.67132008  1
  O  O54  1  0.41525856  0.50141984  0.82555367  1
  O  O55  1  0.42804113  0.22484907  0.20640677  1
  O  O56  1  0.42237750  0.69488473  0.99110293  1
  O  O57  1  0.44632825  0.31392045  0.53343452  1
  O  O58  1  0.44784140  0.14036825  0.87840538  1
  O  O59  1  0.45303027  0.00997862  0.60581423  1
  O  O60  1  0.54696973  0.99002138  0.39418577  1
  O  O61  1  0.55215860  0.85963175  0.12159462  1
  O  O62  1  0.55367175  0.68607955  0.46656548  1
  O  O63  1  0.57762250  0.30511527  0.00889707  1
  O  O64  1  0.57195887  0.77515093  0.79359323  1
  O  O65  1  0.58474144  0.49858016  0.17444633  1
  O  O66  1  0.60121802  0.35901580  0.32867992  1
  O  O67  1  0.58365116  0.26649008  0.68129941  1
  O  O68  1  0.67573472  0.00210440  0.96408739  1
  O  O69  1  0.70712916  0.13777362  0.53998029  1
  O  O70  1  0.72615090  0.20651488  0.19212111  1
  O  O71  1  0.73091635  0.26070669  0.86418358  1
  O  O72  1  0.77384910  0.70651488  0.30787889  1
  O  O73  1  0.76908365  0.76070669  0.63581642  1
  O  O74  1  0.79287084  0.63777362  0.96001971  1
  O  O75  1  0.82426528  0.50210440  0.53591261  1
  O  O76  1  0.91634884  0.76649008  0.81870059  1
  O  O77  1  0.89878198  0.85901580  0.17132008  1
  O  O78  1  0.91525856  0.99858016  0.32555367  1
  O  O79  1  0.92237750  0.80511527  0.49110293  1
  O  O80  1  0.92804113  0.27515093  0.70640677  1
  O  O81  1  0.94632825  0.18607955  0.03343452  1
  O  O82  1  0.94784140  0.35963175  0.37840538  1
  O  O83  1  0.95303027  0.49002138  0.10581423  1
