# generated using pymatgen
data_RbCaSb
_symmetry_space_group_name_H-M   'P 1'
_cell_length_a   5.41158192
_cell_length_b   5.41158192
_cell_length_c   8.56640271
_cell_angle_alpha   90.00000000
_cell_angle_beta   90.00000000
_cell_angle_gamma   90.00000000
_symmetry_Int_Tables_number   1
_chemical_formula_structural   RbCaSb
_chemical_formula_sum   'Rb2 Ca2 Sb2'
_cell_volume   250.86897835
_cell_formula_units_Z   2
loop_
 _symmetry_equiv_pos_site_id
 _symmetry_equiv_pos_as_xyz
  1  'x, y, z'
loop_
 _atom_site_type_symbol
 _atom_site_label
 _atom_site_symmetry_multiplicity
 _atom_site_fract_x
 _atom_site_fract_y
 _atom_site_fract_z
 _atom_site_occupancy
  Ca  Ca0  1  0.25000000  0.75000000  0.00000000  1
  Ca  Ca1  1  0.75000000  0.25000000  0.00000000  1
  Rb  Rb2  1  0.25000000  0.25000000  0.63497560  1
  Rb  Rb3  1  0.75000000  0.75000000  0.36502440  1
  Sb  Sb4  1  0.75000000  0.75000000  0.80407904  1
  Sb  Sb5  1  0.25000000  0.25000000  0.19592096  1
