# generated using pymatgen
data_NpF5
_symmetry_space_group_name_H-M   'P 1'
_cell_length_a   4.49587713
_cell_length_b   5.36218766
_cell_length_c   5.36218766
_cell_angle_alpha   79.87794027
_cell_angle_beta   65.21462079
_cell_angle_gamma   65.21462079
_symmetry_Int_Tables_number   1
_chemical_formula_structural   NpF5
_chemical_formula_sum   'Np1 F5'
_cell_volume   106.55151783
_cell_formula_units_Z   1
loop_
 _symmetry_equiv_pos_site_id
 _symmetry_equiv_pos_as_xyz
  1  'x, y, z'
loop_
 _atom_site_type_symbol
 _atom_site_label
 _atom_site_symmetry_multiplicity
 _atom_site_fract_x
 _atom_site_fract_y
 _atom_site_fract_z
 _atom_site_occupancy
  Np  Np0  1  0.00000000  0.00000000  -0.00000000  1
  F  F1  1  0.10157309  0.17315126  0.62370257  1
  F  F2  1  0.89842691  0.82684874  0.37629743  1
  F  F3  1  0.72527566  0.37629743  0.17315126  1
  F  F4  1  0.27472434  0.62370257  0.82684874  1
  F  F5  1  0.50000000  0.00000000  -0.00000000  1
