# generated using pymatgen
data_Ca10Ge16(B2O17)3
_symmetry_space_group_name_H-M   'P 1'
_cell_length_a   15.28853444
_cell_length_b   26.68680363
_cell_length_c   4.78334072
_cell_angle_alpha   90.00000000
_cell_angle_beta   90.00000000
_cell_angle_gamma   90.00000000
_symmetry_Int_Tables_number   1
_chemical_formula_structural   Ca10Ge16(B2O17)3
_chemical_formula_sum   'Ca20 Ge32 B12 O102'
_cell_volume   1951.61313718
_cell_formula_units_Z   2
loop_
 _symmetry_equiv_pos_site_id
 _symmetry_equiv_pos_as_xyz
  1  'x, y, z'
loop_
 _atom_site_type_symbol
 _atom_site_label
 _atom_site_symmetry_multiplicity
 _atom_site_fract_x
 _atom_site_fract_y
 _atom_site_fract_z
 _atom_site_occupancy
  Ca  Ca0  1  0.86103911  0.35335783  0.50538831  1
  Ca  Ca1  1  0.13896089  0.64664217  0.50538831  1
  Ca  Ca2  1  0.63896089  0.85335783  0.50538831  1
  Ca  Ca3  1  0.36103911  0.14664217  0.50538831  1
  Ca  Ca4  1  0.25573945  0.42407047  0.53713394  1
  Ca  Ca5  1  0.74426055  0.57592953  0.53713394  1
  Ca  Ca6  1  0.24426055  0.92407047  0.53713394  1
  Ca  Ca7  1  0.75573945  0.07592953  0.53713394  1
  Ca  Ca8  1  0.38430972  0.29560831  0.51764709  1
  Ca  Ca9  1  0.61569028  0.70439169  0.51764709  1
  Ca  Ca10  1  0.11569028  0.79560831  0.51764709  1
  Ca  Ca11  1  0.88430972  0.20439169  0.51764709  1
  Ca  Ca12  1  0.14628134  0.22332873  0.51949136  1
  Ca  Ca13  1  0.85371866  0.77667127  0.51949136  1
  Ca  Ca14  1  0.35371866  0.72332873  0.51949136  1
  Ca  Ca15  1  0.64628134  0.27667127  0.51949136  1
  Ca  Ca16  1  0.50697588  0.40042663  0.50681617  1
  Ca  Ca17  1  0.49302412  0.59957337  0.50681617  1
  Ca  Ca18  1  0.99302412  0.90042663  0.50681617  1
  Ca  Ca19  1  0.00697588  0.09957337  0.50681617  1
  Ge  Ge20  1  0.04110840  0.42244218  0.02668570  1
  Ge  Ge21  1  0.95889160  0.57755782  0.02668570  1
  Ge  Ge22  1  0.45889160  0.92244218  0.02668570  1
  Ge  Ge23  1  0.54110840  0.07755782  0.02668570  1
  Ge  Ge24  1  0.08058311  0.34627391  0.52662545  1
  Ge  Ge25  1  0.91941689  0.65372609  0.52662545  1
  Ge  Ge26  1  0.41941689  0.84627391  0.52662545  1
  Ge  Ge27  1  0.58058311  0.15372609  0.52662545  1
  Ge  Ge28  1  0.21493119  0.32302741  0.03090520  1
  Ge  Ge29  1  0.78506881  0.67697259  0.03090520  1
  Ge  Ge30  1  0.28506881  0.82302741  0.03090520  1
  Ge  Ge31  1  0.71493119  0.17697259  0.03090520  1
  Ge  Ge32  1  0.71534130  0.45075638  0.52520278  1
  Ge  Ge33  1  0.28465870  0.54924362  0.52520278  1
  Ge  Ge34  1  0.78465870  0.95075638  0.52520278  1
  Ge  Ge35  1  0.21534130  0.04924362  0.52520278  1
  Ge  Ge36  1  0.99079262  0.28446665  0.01866606  1
  Ge  Ge37  1  0.00920738  0.71553335  0.01866606  1
  Ge  Ge38  1  0.50920738  0.78446665  0.01866606  1
  Ge  Ge39  1  0.49079262  0.21553335  0.01866606  1
  Ge  Ge40  1  0.85321004  0.47482904  0.02311801  1
  Ge  Ge41  1  0.14678996  0.52517096  0.02311801  1
  Ge  Ge42  1  0.64678996  0.97482904  0.02311801  1
  Ge  Ge43  1  0.35321004  0.02517096  0.02311801  1
  Ge  Ge44  1  0.68850211  0.37039053  0.02557769  1
  Ge  Ge45  1  0.31149789  0.62960947  0.02557769  1
  Ge  Ge46  1  0.81149789  0.87039053  0.02557769  1
  Ge  Ge47  1  0.18850211  0.12960947  0.02557769  1
  Ge  Ge48  1  0.39271681  0.49394090  0.01770176  1
  Ge  Ge49  1  0.60728319  0.50605910  0.01770176  1
  Ge  Ge50  1  0.10728319  0.99394090  0.01770176  1
  Ge  Ge51  1  0.89271681  0.00605910  0.01770176  1
  B  B52  1  0.79926215  0.27721887  0.05501626  1
  B  B53  1  0.20073785  0.72278113  0.05501626  1
  B  B54  1  0.70073785  0.77721887  0.05501626  1
  B  B55  1  0.29926215  0.22278113  0.05501626  1
  B  B56  1  0.01932003  0.17809096  0.98878337  1
  B  B57  1  0.98067997  0.82190904  0.98878337  1
  B  B58  1  0.48067997  0.67809096  0.98878337  1
  B  B59  1  0.51932003  0.32190904  0.98878337  1
  B  B60  1  0.37664970  0.38100026  0.99813984  1
  B  B61  1  0.62335030  0.61899974  0.99813984  1
  B  B62  1  0.12335030  0.88100026  0.99813984  1
  B  B63  1  0.87664970  0.11899974  0.99813984  1
  O  O64  1  0.98190949  0.33177289  0.76016696  1
  O  O65  1  0.01809051  0.66822711  0.76016696  1
  O  O66  1  0.51809051  0.83177289  0.76016696  1
  O  O67  1  0.48190949  0.16822711  0.76016696  1
  O  O68  1  0.17717184  0.36391711  0.29634816  1
  O  O69  1  0.82282816  0.63608289  0.29634816  1
  O  O70  1  0.32282816  0.86391711  0.29634816  1
  O  O71  1  0.67717184  0.13608289  0.29634816  1
  O  O72  1  0.14699655  0.30125225  0.75789814  1
  O  O73  1  0.85300345  0.69874775  0.75789814  1
  O  O74  1  0.35300345  0.80125225  0.75789814  1
  O  O75  1  0.64699655  0.19874775  0.75789814  1
  O  O76  1  0.10647979  0.46990407  0.19116608  1
  O  O77  1  0.89352021  0.53009593  0.19116608  1
  O  O78  1  0.39352021  0.96990407  0.19116608  1
  O  O79  1  0.60647979  0.03009593  0.19116608  1
  O  O80  1  0.31552916  0.49336466  0.29607942  1
  O  O81  1  0.68447084  0.50663534  0.29607942  1
  O  O82  1  0.18447084  0.99336466  0.29607942  1
  O  O83  1  0.81552916  0.00663534  0.29607942  1
  O  O84  1  0.75468434  0.39629922  0.75747004  1
  O  O85  1  0.24531566  0.60370078  0.75747004  1
  O  O86  1  0.74531566  0.89629922  0.75747004  1
  O  O87  1  0.25468434  0.10370078  0.75747004  1
  O  O88  1  0.06771328  0.28854844  0.29332980  1
  O  O89  1  0.93228672  0.71145156  0.29332980  1
  O  O90  1  0.43228672  0.78854844  0.29332980  1
  O  O91  1  0.56771328  0.21145156  0.29332980  1
  O  O92  1  0.00525665  0.22807734  0.83232550  1
  O  O93  1  0.99474335  0.77192266  0.83232550  1
  O  O94  1  0.49474335  0.72807734  0.83232550  1
  O  O95  1  0.50525665  0.27192266  0.83232550  1
  O  O96  1  0.26128192  0.26966844  0.20222076  1
  O  O97  1  0.73871808  0.73033156  0.20222076  1
  O  O98  1  0.23871808  0.76966844  0.20222076  1
  O  O99  1  0.76128192  0.23033156  0.20222076  1
  O  O100  1  0.50000000  0.50000000  0.18276051  1
  O  O101  1  -0.00000000  0.00000000  0.18276051  1
  O  O102  1  0.11153897  0.40090100  0.75609745  1
  O  O103  1  0.88846103  0.59909900  0.75609745  1
  O  O104  1  0.38846103  0.90090100  0.75609745  1
  O  O105  1  0.61153897  0.09909900  0.75609745  1
  O  O106  1  0.00171343  0.38226701  0.29583307  1
  O  O107  1  0.99828657  0.61773299  0.29583307  1
  O  O108  1  0.49828657  0.88226701  0.29583307  1
  O  O109  1  0.50171343  0.11773299  0.29583307  1
  O  O110  1  0.81313430  0.43455666  0.29156541  1
  O  O111  1  0.18686570  0.56544334  0.29156541  1
  O  O112  1  0.68686570  0.93455666  0.29156541  1
  O  O113  1  0.31313430  0.06544334  0.29156541  1
  O  O114  1  0.77924173  0.49580248  0.75756460  1
  O  O115  1  0.22075827  0.50419752  0.75756460  1
  O  O116  1  0.72075827  0.99580248  0.75756460  1
  O  O117  1  0.27924173  0.00419752  0.75756460  1
  O  O118  1  0.38370673  0.43441099  0.85149704  1
  O  O119  1  0.61629327  0.56558901  0.85149704  1
  O  O120  1  0.11629327  0.93441099  0.85149704  1
  O  O121  1  0.88370673  0.06558901  0.85149704  1
  O  O122  1  0.64429718  0.40845461  0.29463395  1
  O  O123  1  0.35570282  0.59154539  0.29463395  1
  O  O124  1  0.85570282  0.90845461  0.29463395  1
  O  O125  1  0.14429718  0.09154539  0.29463395  1
  O  O126  1  0.74758522  0.32144305  0.20021823  1
  O  O127  1  0.25241478  0.67855695  0.20021823  1
  O  O128  1  0.75241478  0.82144305  0.20021823  1
  O  O129  1  0.24758522  0.17855695  0.20021823  1
  O  O130  1  0.88866238  0.28172717  0.20181810  1
  O  O131  1  0.11133762  0.71827283  0.20181810  1
  O  O132  1  0.61133762  0.78172717  0.20181810  1
  O  O133  1  0.38866238  0.21827283  0.20181810  1
  O  O134  1  0.94331736  0.44416590  0.86002380  1
  O  O135  1  0.05668264  0.55583410  0.86002380  1
  O  O136  1  0.55668264  0.94416590  0.86002380  1
  O  O137  1  0.44331736  0.05583410  0.86002380  1
  O  O138  1  0.60266259  0.34140062  0.83895942  1
  O  O139  1  0.39733741  0.65859938  0.83895942  1
  O  O140  1  0.89733741  0.84140062  0.83895942  1
  O  O141  1  0.10266259  0.15859938  0.83895942  1
  O  O142  1  0.29695302  0.35752767  0.84880555  1
  O  O143  1  0.70304698  0.64247233  0.84880555  1
  O  O144  1  0.20304698  0.85752767  0.84880555  1
  O  O145  1  0.79695302  0.14247233  0.84880555  1
  O  O146  1  0.38880425  0.54104423  0.75435290  1
  O  O147  1  0.61119575  0.45895577  0.75435290  1
  O  O148  1  0.11119575  0.04104423  0.75435290  1
  O  O149  1  0.88880425  0.95895577  0.75435290  1
  O  O150  1  0.79908376  0.27758653  0.76552826  1
  O  O151  1  0.20091624  0.72241347  0.76552826  1
  O  O152  1  0.70091624  0.77758653  0.76552826  1
  O  O153  1  0.29908376  0.22241347  0.76552826  1
  O  O154  1  0.02463744  0.18114773  0.28034918  1
  O  O155  1  0.97536256  0.81885227  0.28034918  1
  O  O156  1  0.47536256  0.68114773  0.28034918  1
  O  O157  1  0.52463744  0.31885227  0.28034918  1
  O  O158  1  0.95011887  0.14595535  0.86838911  1
  O  O159  1  0.04988113  0.85404465  0.86838911  1
  O  O160  1  0.54988113  0.64595535  0.86838911  1
  O  O161  1  0.45011887  0.35404465  0.86838911  1
  O  O162  1  0.37162367  0.38202429  0.28967984  1
  O  O163  1  0.62837633  0.61797571  0.28967984  1
  O  O164  1  0.12837633  0.88202429  0.28967984  1
  O  O165  1  0.87162367  0.11797571  0.28967984  1
