# generated using pymatgen
data_MnMoN2
_symmetry_space_group_name_H-M   'P 1'
_cell_length_a   2.86448858
_cell_length_b   2.86448858
_cell_length_c   10.68461738
_cell_angle_alpha   90.00000000
_cell_angle_beta   90.00000000
_cell_angle_gamma   119.99999999
_symmetry_Int_Tables_number   1
_chemical_formula_structural   MnMoN2
_chemical_formula_sum   'Mn2 Mo2 N4'
_cell_volume   75.92482450
_cell_formula_units_Z   2
loop_
 _symmetry_equiv_pos_site_id
 _symmetry_equiv_pos_as_xyz
  1  'x, y, z'
loop_
 _atom_site_type_symbol
 _atom_site_label
 _atom_site_symmetry_multiplicity
 _atom_site_fract_x
 _atom_site_fract_y
 _atom_site_fract_z
 _atom_site_occupancy
  N  N0  1  0.33333333  0.66666667  0.37858779  1
  N  N1  1  0.66666667  0.33333333  0.87858779  1
  N  N2  1  0.33333333  0.66666667  0.12141221  1
  N  N3  1  0.66666667  0.33333333  0.62141221  1
  Mn  Mn4  1  0.00000000  0.00000000  0.50000000  1
  Mn  Mn5  1  0.00000000  0.00000000  0.00000000  1
  Mo  Mo6  1  0.00000000  0.00000000  0.25000000  1
  Mo  Mo7  1  0.00000000  0.00000000  0.75000000  1
