# generated using pymatgen
data_PbS2
_symmetry_space_group_name_H-M   'P 1'
_cell_length_a   5.80127206
_cell_length_b   5.80127206
_cell_length_c   5.80127206
_cell_angle_alpha   97.66271104
_cell_angle_beta   115.67903823
_cell_angle_gamma   115.67903823
_symmetry_Int_Tables_number   1
_chemical_formula_structural   PbS2
_chemical_formula_sum   'Pb2 S4'
_cell_volume   145.65971434
_cell_formula_units_Z   2
loop_
 _symmetry_equiv_pos_site_id
 _symmetry_equiv_pos_as_xyz
  1  'x, y, z'
loop_
 _atom_site_type_symbol
 _atom_site_label
 _atom_site_symmetry_multiplicity
 _atom_site_fract_x
 _atom_site_fract_y
 _atom_site_fract_z
 _atom_site_occupancy
  Pb  Pb0  1  0.00000000  0.75000000  0.75000000  1
  Pb  Pb1  1  0.00000000  0.25000000  0.25000000  1
  S  S2  1  0.26127662  0.88063831  0.38063831  1
  S  S3  1  0.73872338  0.11936169  0.61936169  1
  S  S4  1  0.50000000  0.61936169  0.88063831  1
  S  S5  1  0.50000000  0.38063831  0.11936169  1
