# generated using pymatgen
data_WSF4
_symmetry_space_group_name_H-M   'P 1'
_cell_length_a   5.77388998
_cell_length_b   9.83452862
_cell_length_c   17.68128601
_cell_angle_alpha   90.00000000
_cell_angle_beta   90.00000000
_cell_angle_gamma   90.00000000
_symmetry_Int_Tables_number   1
_chemical_formula_structural   WSF4
_chemical_formula_sum   'W8 S8 F32'
_cell_volume   1004.00506116
_cell_formula_units_Z   8
loop_
 _symmetry_equiv_pos_site_id
 _symmetry_equiv_pos_as_xyz
  1  'x, y, z'
loop_
 _atom_site_type_symbol
 _atom_site_label
 _atom_site_symmetry_multiplicity
 _atom_site_fract_x
 _atom_site_fract_y
 _atom_site_fract_z
 _atom_site_occupancy
  F  F0  1  0.30865888  0.76491684  0.32666672  1
  F  F1  1  0.69134112  0.26491684  0.67333328  1
  F  F2  1  0.69134112  0.76491684  0.82666672  1
  F  F3  1  0.30865888  0.26491684  0.17333328  1
  F  F4  1  0.32605062  0.51102789  0.25386700  1
  F  F5  1  0.67394938  0.01102789  0.74613300  1
  F  F6  1  0.67394938  0.51102789  0.75386700  1
  F  F7  1  0.32605062  0.01102789  0.24613300  1
  F  F8  1  0.55181816  0.91080790  0.43868192  1
  F  F9  1  0.44818184  0.41080790  0.56131808  1
  F  F10  1  0.44818184  0.91080790  0.93868192  1
  F  F11  1  0.55181816  0.41080790  0.06131808  1
  F  F12  1  0.15697835  0.00870790  0.38449284  1
  F  F13  1  0.84302165  0.50870790  0.61550716  1
  F  F14  1  0.84302165  0.00870790  0.88449284  1
  F  F15  1  0.15697835  0.50870790  0.11550716  1
  F  F16  1  0.06806242  0.91976062  0.12057456  1
  F  F17  1  0.93193758  0.41976062  0.87942544  1
  F  F18  1  0.93193758  0.91976062  0.62057456  1
  F  F19  1  0.06806242  0.41976062  0.37942544  1
  F  F20  1  0.46066819  0.05419304  0.09778849  1
  F  F21  1  0.53933181  0.55419304  0.90221151  1
  F  F22  1  0.53933181  0.05419304  0.59778849  1
  F  F23  1  0.46066819  0.55419304  0.40221151  1
  F  F24  1  0.92239046  0.13183514  0.20154632  1
  F  F25  1  0.07760954  0.63183514  0.79845368  1
  F  F26  1  0.07760954  0.13183514  0.70154632  1
  F  F27  1  0.92239046  0.63183514  0.29845368  1
  F  F28  1  0.71258335  0.40735355  0.20201204  1
  F  F29  1  0.28741665  0.90735355  0.79798796  1
  F  F30  1  0.28741665  0.40735355  0.70201204  1
  F  F31  1  0.71258335  0.90735355  0.29798796  1
  S  S32  1  0.59152433  0.19579418  0.36329543  1
  S  S33  1  0.40847567  0.69579418  0.63670457  1
  S  S34  1  0.40847567  0.19579418  0.86329543  1
  S  S35  1  0.59152433  0.69579418  0.13670457  1
  S  S36  1  0.01364316  0.68973968  0.46993105  1
  S  S37  1  0.98635684  0.18973968  0.53006895  1
  S  S38  1  0.98635684  0.68973968  0.96993105  1
  S  S39  1  0.01364316  0.18973968  0.03006895  1
  W  W40  1  0.46429070  0.99566476  0.34713247  1
  W  W41  1  0.53570930  0.49566476  0.65286753  1
  W  W42  1  0.53570930  0.99566476  0.84713247  1
  W  W43  1  0.46429070  0.49566476  0.15286753  1
  W  W44  1  0.15846125  0.60369851  0.37067391  1
  W  W45  1  0.84153875  0.10369851  0.62932609  1
  W  W46  1  0.84153875  0.60369851  0.87067391  1
  W  W47  1  0.15846125  0.10369851  0.12932609  1
