# generated using pymatgen
data_InSnBr3
_symmetry_space_group_name_H-M   'P 1'
_cell_length_a   8.17832345
_cell_length_b   8.17832398
_cell_length_c   8.25950637
_cell_angle_alpha   60.32461016
_cell_angle_beta   60.32461127
_cell_angle_gamma   59.99999771
_symmetry_Int_Tables_number   1
_chemical_formula_structural   InSnBr3
_chemical_formula_sum   'In2 Sn2 Br6'
_cell_volume   392.53754955
_cell_formula_units_Z   2
loop_
 _symmetry_equiv_pos_site_id
 _symmetry_equiv_pos_as_xyz
  1  'x, y, z'
loop_
 _atom_site_type_symbol
 _atom_site_label
 _atom_site_symmetry_multiplicity
 _atom_site_fract_x
 _atom_site_fract_y
 _atom_site_fract_z
 _atom_site_occupancy
  In  In0  1  0.29416781  0.29416781  0.11749457  1
  In  In1  1  0.79416781  0.79416881  0.61749457  1
  Sn  Sn2  1  0.99729361  0.99729361  0.00811916  1
  Sn  Sn3  1  0.49729361  0.49729361  0.50811916  1
  Br  Br4  1  0.66223056  0.85856921  0.26296143  1
  Br  Br5  1  0.21623881  0.66222856  0.26296243  1
  Br  Br6  1  0.85856821  0.21623981  0.26296243  1
  Br  Br7  1  0.71623981  0.35856921  0.76296243  1
  Br  Br8  1  0.35856821  0.16223056  0.76296243  1
  Br  Br9  1  0.16222956  0.71623781  0.76296343  1
