# generated using pymatgen
data_Li4Ti4Cr5O18
_symmetry_space_group_name_H-M   'P 1'
_cell_length_a   9.12013178
_cell_length_b   25.13047326
_cell_length_c   2.96953835
_cell_angle_alpha   90.00000000
_cell_angle_beta   90.00000000
_cell_angle_gamma   90.00000000
_symmetry_Int_Tables_number   1
_chemical_formula_structural   Li4Ti4Cr5O18
_chemical_formula_sum   'Li8 Ti8 Cr10 O36'
_cell_volume   680.59807959
_cell_formula_units_Z   2
loop_
 _symmetry_equiv_pos_site_id
 _symmetry_equiv_pos_as_xyz
  1  'x, y, z'
loop_
 _atom_site_type_symbol
 _atom_site_label
 _atom_site_symmetry_multiplicity
 _atom_site_fract_x
 _atom_site_fract_y
 _atom_site_fract_z
 _atom_site_occupancy
  Li  Li0  1  0.19562942  0.99483666  0.00000000  1
  Li  Li1  1  0.20343985  0.19652238  0.00000000  1
  Li  Li2  1  0.29656015  0.69652238  0.00000000  1
  Li  Li3  1  0.30437058  0.49483666  0.00000000  1
  Li  Li4  1  0.69562942  0.50516334  0.00000000  1
  Li  Li5  1  0.70343985  0.30347762  0.00000000  1
  Li  Li6  1  0.79656015  0.80347762  0.00000000  1
  Li  Li7  1  0.80437058  0.00516334  0.00000000  1
  Ti  Ti8  1  0.00437821  0.10257768  0.00000000  1
  Ti  Ti9  1  0.14929598  0.80492563  0.50000000  1
  Ti  Ti10  1  0.35070402  0.30492563  0.50000000  1
  Ti  Ti11  1  0.49562179  0.60257768  0.00000000  1
  Ti  Ti12  1  0.50437821  0.39742232  0.00000000  1
  Ti  Ti13  1  0.64929598  0.69507437  0.50000000  1
  Ti  Ti14  1  0.85070402  0.19507437  0.50000000  1
  Ti  Ti15  1  0.99562179  0.89742232  0.00000000  1
  Cr  Cr16  1  0.00000000  0.50000000  0.00000000  1
  Cr  Cr17  1  0.01295189  0.31030129  0.00000000  1
  Cr  Cr18  1  0.14362214  0.58737598  0.50000000  1
  Cr  Cr19  1  0.35637786  0.08737598  0.50000000  1
  Cr  Cr20  1  0.48704811  0.81030129  0.00000000  1
  Cr  Cr21  1  0.50000000  0.00000000  0.00000000  1
  Cr  Cr22  1  0.51295189  0.18969871  0.00000000  1
  Cr  Cr23  1  0.64362214  0.91262402  0.50000000  1
  Cr  Cr24  1  0.85637786  0.41262402  0.50000000  1
  Cr  Cr25  1  0.98704811  0.68969871  0.00000000  1
  O  O26  1  0.99409718  0.42088171  0.00000000  1
  O  O27  1  0.00590282  0.57911829  0.00000000  1
  O  O28  1  0.05288642  0.94120161  0.50000000  1
  O  O29  1  0.04892407  0.15944883  0.50000000  1
  O  O30  1  0.11607655  0.66478463  0.50000000  1
  O  O31  1  0.09920968  0.75568617  0.00000000  1
  O  O32  1  0.14800820  0.50694850  0.50000000  1
  O  O33  1  0.14566745  0.28600650  0.50000000  1
  O  O34  1  0.18446424  0.85427313  0.00000000  1
  O  O35  1  0.20631970  0.08538535  0.00000000  1
  O  O36  1  0.29368030  0.58538535  0.00000000  1
  O  O37  1  0.31553576  0.35427313  0.00000000  1
  O  O38  1  0.35433255  0.78600650  0.50000000  1
  O  O39  1  0.35199180  0.00694850  0.50000000  1
  O  O40  1  0.40079032  0.25568617  0.00000000  1
  O  O41  1  0.38392345  0.16478463  0.50000000  1
  O  O42  1  0.45107593  0.65944883  0.50000000  1
  O  O43  1  0.44711358  0.44120161  0.50000000  1
  O  O44  1  0.49409718  0.07911829  0.00000000  1
  O  O45  1  0.50590282  0.92088171  0.00000000  1
  O  O46  1  0.55288642  0.55879839  0.50000000  1
  O  O47  1  0.54892407  0.34055117  0.50000000  1
  O  O48  1  0.61607655  0.83521537  0.50000000  1
  O  O49  1  0.59920968  0.74431383  0.00000000  1
  O  O50  1  0.64800820  0.99305150  0.50000000  1
  O  O51  1  0.64566745  0.21399350  0.50000000  1
  O  O52  1  0.68446424  0.64572687  0.00000000  1
  O  O53  1  0.70631970  0.41461465  0.00000000  1
  O  O54  1  0.79368030  0.91461465  0.00000000  1
  O  O55  1  0.81553576  0.14572687  0.00000000  1
  O  O56  1  0.85433255  0.71399350  0.50000000  1
  O  O57  1  0.85199180  0.49305150  0.50000000  1
  O  O58  1  0.90079032  0.24431383  0.00000000  1
  O  O59  1  0.88392345  0.33521537  0.50000000  1
  O  O60  1  0.95107593  0.84055117  0.50000000  1
  O  O61  1  0.94711358  0.05879839  0.50000000  1
