# generated using pymatgen
data_Mg(InSe2)2
_symmetry_space_group_name_H-M   'P 1'
_cell_length_a   13.69373458
_cell_length_b   27.34668679
_cell_length_c   40.61441555
_cell_angle_alpha   11.60005918
_cell_angle_beta   15.46802202
_cell_angle_gamma   17.44226711
_symmetry_Int_Tables_number   1
_chemical_formula_structural   Mg(InSe2)2
_chemical_formula_sum   'Mg4 In8 Se16'
_cell_volume   801.54701943
_cell_formula_units_Z   4
loop_
 _symmetry_equiv_pos_site_id
 _symmetry_equiv_pos_as_xyz
  1  'x, y, z'
loop_
 _atom_site_type_symbol
 _atom_site_label
 _atom_site_symmetry_multiplicity
 _atom_site_fract_x
 _atom_site_fract_y
 _atom_site_fract_z
 _atom_site_occupancy
  Mg  Mg0  1  0.99597115  0.99841726  0.00204547  1
  Mg  Mg1  1  0.23358116  0.05878506  0.11694338  1
  Mg  Mg2  1  0.00402885  0.25158274  0.49795453  1
  Mg  Mg3  1  0.76641884  0.19121494  0.38305662  1
  In  In4  1  0.99327155  0.49092401  0.00819348  1
  In  In5  1  0.23984455  0.56348121  0.11197460  1
  In  In6  1  0.22490696  0.30988007  0.61943355  1
  In  In7  1  0.00672845  0.75907599  0.49180652  1
  In  In8  1  0.76015545  0.68651879  0.38802540  1
  In  In9  1  0.23756047  0.80214634  0.61976561  1
  In  In10  1  0.76243953  0.44785366  0.88023439  1
  In  In11  1  0.77509304  0.94011993  0.88056645  1
  Se  Se12  1  0.12683520  0.03098053  0.06419280  1
  Se  Se13  1  0.30650961  0.07399197  0.14629768  1
  Se  Se14  1  0.12432247  0.52838136  0.06636119  1
  Se  Se15  1  0.29043450  0.57649827  0.15068036  1
  Se  Se16  1  0.69349039  0.17600803  0.35370232  1
  Se  Se17  1  0.13213584  0.28142411  0.56169209  1
  Se  Se18  1  0.87316480  0.21901947  0.43580720  1
  Se  Se19  1  0.30347614  0.32125292  0.65019721  1
  Se  Se20  1  0.70956550  0.67350173  0.34931964  1
  Se  Se21  1  0.12530790  0.78611024  0.56093412  1
  Se  Se22  1  0.87567753  0.72161864  0.43363881  1
  Se  Se23  1  0.29203178  0.82834463  0.64885240  1
  Se  Se24  1  0.70796822  0.42165537  0.85114760  1
  Se  Se25  1  0.87469210  0.46388976  0.93906588  1
  Se  Se26  1  0.69652386  0.92874708  0.84980279  1
  Se  Se27  1  0.86786416  0.96857589  0.93830791  1
