# generated using pymatgen
data_Li9V5(Si5O16)2
_symmetry_space_group_name_H-M   'P 1'
_cell_length_a   8.11086230
_cell_length_b   8.05859882
_cell_length_c   8.06096759
_cell_angle_alpha   89.04765662
_cell_angle_beta   88.74257448
_cell_angle_gamma   88.74783240
_symmetry_Int_Tables_number   1
_chemical_formula_structural   Li9V5(Si5O16)2
_chemical_formula_sum   'Li9 V5 Si10 O32'
_cell_volume   526.56111729
_cell_formula_units_Z   1
loop_
 _symmetry_equiv_pos_site_id
 _symmetry_equiv_pos_as_xyz
  1  'x, y, z'
loop_
 _atom_site_type_symbol
 _atom_site_label
 _atom_site_symmetry_multiplicity
 _atom_site_fract_x
 _atom_site_fract_y
 _atom_site_fract_z
 _atom_site_occupancy
  Li  Li0  1  0.99134779  0.50670781  0.50375877  1
  Li  Li1  1  0.25862250  0.74624563  0.74336498  1
  Li  Li2  1  0.24829851  0.24608798  0.24627884  1
  Li  Li3  1  0.50775759  0.50185503  0.99492426  1
  Li  Li4  1  0.50267772  0.99336215  0.50824377  1
  Li  Li5  1  0.62498545  0.62442977  0.62557304  1
  Li  Li6  1  0.74739277  0.74185261  0.25660453  1
  Li  Li7  1  0.74223292  0.25508659  0.74808324  1
  Li  Li8  1  0.00177548  0.00366034  0.00393644  1
  V  V9  1  0.11477595  0.13413960  0.62211066  1
  V  V10  1  0.12492909  0.87195795  0.37832352  1
  V  V11  1  0.13513979  0.62774426  0.11602380  1
  V  V12  1  0.37727576  0.12956385  0.87371246  1
  V  V13  1  0.87275285  0.37634790  0.12045908  1
  Si  Si14  1  0.12501424  0.38845319  0.86165762  1
  Si  Si15  1  0.37575831  0.38456300  0.61914466  1
  Si  Si16  1  0.38814248  0.61972909  0.37274495  1
  Si  Si17  1  0.39201470  0.86717535  0.13112454  1
  Si  Si18  1  0.61613328  0.36963105  0.38182589  1
  Si  Si19  1  0.62497966  0.11598322  0.13402474  1
  Si  Si20  1  0.63385358  0.86820331  0.88037739  1
  Si  Si21  1  0.85808227  0.11882085  0.38271797  1
  Si  Si22  1  0.86207422  0.87718305  0.63031624  1
  Si  Si23  1  0.87415918  0.63079399  0.86563401  1
  O  O24  1  0.07851109  0.12126221  0.37573433  1
  O  O25  1  0.10377824  0.61243015  0.86944884  1
  O  O26  1  0.11919195  0.38059754  0.08563808  1
  O  O27  1  0.16114860  0.62638393  0.36029173  1
  O  O28  1  0.08888439  0.88943621  0.62336012  1
  O  O29  1  0.13083888  0.16442574  0.86930875  1
  O  O30  1  0.14623302  0.38087931  0.63773499  1
  O  O31  1  0.17152710  0.87390521  0.12858065  1
  O  O32  1  0.36566004  0.15754494  0.63015898  1
  O  O33  1  0.38680740  0.64449671  0.14464665  1
  O  O34  1  0.38536174  0.84527351  0.35727225  1
  O  O35  1  0.40281164  0.09365698  0.13156513  1
  O  O36  1  0.35195942  0.38742223  0.84414664  1
  O  O37  1  0.37585776  0.60267676  0.58947426  1
  O  O38  1  0.38769315  0.38497736  0.38467551  1
  O  O39  1  0.41287352  0.87091421  0.90417807  1
  O  O40  1  0.59184173  0.36627181  0.59892280  1
  O  O41  1  0.61778053  0.88769693  0.11781031  1
  O  O42  1  0.62810252  0.10375700  0.91133631  1
  O  O43  1  0.64510139  0.88599466  0.66504124  1
  O  O44  1  0.60498178  0.58501960  0.36417490  1
  O  O45  1  0.62185459  0.33869966  0.14636032  1
  O  O46  1  0.63218427  0.13213931  0.36233371  1
  O  O47  1  0.65802717  0.65103383  0.88361932  1
  O  O48  1  0.83714137  0.34581516  0.37905058  1
  O  O49  1  0.86226950  0.86536050  0.86502933  1
  O  O50  1  0.87411027  0.66032660  0.64755561  1
  O  O51  1  0.89807719  0.40576568  0.86266752  1
  O  O52  1  0.84710838  0.11838245  0.15634511  1
  O  O53  1  0.86466865  0.89265263  0.40484694  1
  O  O54  1  0.86349540  0.10546555  0.60540252  1
  O  O55  1  0.88394023  0.61985003  0.09241206  1
