# generated using pymatgen
data_Eu(ZnAs)2
_symmetry_space_group_name_H-M   'P 1'
_cell_length_a   4.24754337
_cell_length_b   4.24871570
_cell_length_c   7.10495551
_cell_angle_alpha   89.99999997
_cell_angle_beta   90.01276304
_cell_angle_gamma   120.00913023
_symmetry_Int_Tables_number   1
_chemical_formula_structural   Eu(ZnAs)2
_chemical_formula_sum   'Eu1 Zn2 As2'
_cell_volume   111.03183305
_cell_formula_units_Z   1
loop_
 _symmetry_equiv_pos_site_id
 _symmetry_equiv_pos_as_xyz
  1  'x, y, z'
loop_
 _atom_site_type_symbol
 _atom_site_label
 _atom_site_symmetry_multiplicity
 _atom_site_fract_x
 _atom_site_fract_y
 _atom_site_fract_z
 _atom_site_occupancy
  Eu  Eu0  1  0.00000000  0.00000000  0.00000000  1
  Zn  Zn1  1  0.66668860  0.33334430  0.36766037  1
  Zn  Zn2  1  0.33331140  0.66665570  0.63233963  1
  As  As3  1  0.66658387  0.33329193  0.73596147  1
  As  As4  1  0.33341613  0.66670807  0.26403853  1
