# generated using pymatgen
data_NbCl2O
_symmetry_space_group_name_H-M   'P 1'
_cell_length_a   3.96527476
_cell_length_b   7.32490356
_cell_length_c   6.76833105
_cell_angle_alpha   103.74573920
_cell_angle_beta   90.00000000
_cell_angle_gamma   105.70418621
_symmetry_Int_Tables_number   1
_chemical_formula_structural   NbCl2O
_chemical_formula_sum   'Nb2 Cl4 O2'
_cell_volume   183.39418524
_cell_formula_units_Z   2
loop_
 _symmetry_equiv_pos_site_id
 _symmetry_equiv_pos_as_xyz
  1  'x, y, z'
loop_
 _atom_site_type_symbol
 _atom_site_label
 _atom_site_symmetry_multiplicity
 _atom_site_fract_x
 _atom_site_fract_y
 _atom_site_fract_z
 _atom_site_occupancy
  Nb  Nb0  1  0.95711966  0.99982191  0.71988291  1
  Nb  Nb1  1  0.95729776  0.00017809  0.28011709  1
  Cl  Cl2  1  0.88572492  0.75311324  0.93697977  1
  Cl  Cl3  1  0.13261168  0.24688676  0.06302023  1
  Cl  Cl4  1  0.85731626  0.71365454  0.42618310  1
  Cl  Cl5  1  0.14366173  0.28634546  0.57381690  1
  O  O6  1  0.49680152  0.99933505  0.72717270  1
  O  O7  1  0.49746647  0.00066495  0.27282730  1
