# generated using pymatgen
data_NaMnO2
_symmetry_space_group_name_H-M   'P 1'
_cell_length_a   3.09719055
_cell_length_b   3.10003132
_cell_length_c   10.89813195
_cell_angle_alpha   90.00000000
_cell_angle_beta   90.00000000
_cell_angle_gamma   119.96967862
_symmetry_Int_Tables_number   1
_chemical_formula_structural   NaMnO2
_chemical_formula_sum   'Na2 Mn2 O4'
_cell_volume   90.64613957
_cell_formula_units_Z   2
loop_
 _symmetry_equiv_pos_site_id
 _symmetry_equiv_pos_as_xyz
  1  'x, y, z'
loop_
 _atom_site_type_symbol
 _atom_site_label
 _atom_site_symmetry_multiplicity
 _atom_site_fract_x
 _atom_site_fract_y
 _atom_site_fract_z
 _atom_site_occupancy
  Na  Na0  1  0.66668238  0.33336376  0.25000000  1
  Na  Na1  1  0.33331762  0.66663624  0.75000000  1
  Mn  Mn2  1  -0.00000000  0.00000000  0.50000000  1
  Mn  Mn3  1  0.00000000  0.00000000  0.00000000  1
  O  O4  1  0.33360819  0.66721538  0.40169615  1
  O  O5  1  0.66639181  0.33278462  0.59830385  1
  O  O6  1  0.66639181  0.33278462  0.90169615  1
  O  O7  1  0.33360819  0.66721538  0.09830385  1
