# generated using pymatgen
data_Bi2H18C3(IN)9
_symmetry_space_group_name_H-M   'P 1'
_cell_length_a   9.13563045
_cell_length_b   9.13563009
_cell_length_c   21.71810643
_cell_angle_alpha   90.00000000
_cell_angle_beta   90.00000000
_cell_angle_gamma   107.47795416
_symmetry_Int_Tables_number   1
_chemical_formula_structural   Bi2H18C3(IN)9
_chemical_formula_sum   'Bi4 H36 C6 I18 N18'
_cell_volume   1728.90504241
_cell_formula_units_Z   2
loop_
 _symmetry_equiv_pos_site_id
 _symmetry_equiv_pos_as_xyz
  1  'x, y, z'
loop_
 _atom_site_type_symbol
 _atom_site_label
 _atom_site_symmetry_multiplicity
 _atom_site_fract_x
 _atom_site_fract_y
 _atom_site_fract_z
 _atom_site_occupancy
  Bi  Bi0  1  0.72656762  0.27343238  0.65037796  1
  Bi  Bi1  1  0.27343238  0.72656762  0.34962204  1
  Bi  Bi2  1  0.72656762  0.27343238  0.84962204  1
  Bi  Bi3  1  0.27343238  0.72656762  0.15037796  1
  H  H4  1  0.15193498  0.68586908  0.75000000  1
  H  H5  1  0.68586908  0.15193498  0.25000000  1
  H  H6  1  0.84806502  0.31413092  0.25000000  1
  H  H7  1  0.31413092  0.84806502  0.75000000  1
  H  H8  1  0.16963444  0.45272279  0.58968953  1
  H  H9  1  0.45272279  0.16963444  0.41031047  1
  H  H10  1  0.16963444  0.45272279  0.91031047  1
  H  H11  1  0.45272279  0.16963444  0.08968953  1
  H  H12  1  0.83036556  0.54727721  0.41031047  1
  H  H13  1  0.54727721  0.83036556  0.58968953  1
  H  H14  1  0.83036556  0.54727721  0.08968953  1
  H  H15  1  0.54727721  0.83036556  0.91031047  1
  H  H16  1  0.33891088  0.44189862  0.62183021  1
  H  H17  1  0.44189862  0.33891088  0.37816979  1
  H  H18  1  0.33891088  0.44189862  0.87816979  1
  H  H19  1  0.44189862  0.33891088  0.12183021  1
  H  H20  1  0.66108912  0.55810138  0.37816979  1
  H  H21  1  0.55810138  0.66108912  0.62183021  1
  H  H22  1  0.66108912  0.55810138  0.12183021  1
  H  H23  1  0.55810138  0.66108912  0.87816979  1
  H  H24  1  0.31383193  0.84732236  0.54971184  1
  H  H25  1  0.84732236  0.31383193  0.45028816  1
  H  H26  1  0.31383193  0.84732236  0.95028816  1
  H  H27  1  0.84732236  0.31383193  0.04971184  1
  H  H28  1  0.68616807  0.15267764  0.45028816  1
  H  H29  1  0.15267764  0.68616807  0.54971184  1
  H  H30  1  0.68616807  0.15267764  0.04971184  1
  H  H31  1  0.15267764  0.68616807  0.95028816  1
  H  H32  1  0.28424375  0.09451880  0.75000000  1
  H  H33  1  0.09451880  0.28424375  0.25000000  1
  H  H34  1  0.71575625  0.90548120  0.25000000  1
  H  H35  1  0.90548120  0.71575625  0.75000000  1
  H  H36  1  0.10287751  0.11779059  0.75000000  1
  H  H37  1  0.11779059  0.10287751  0.25000000  1
  H  H38  1  0.89712249  0.88220941  0.25000000  1
  H  H39  1  0.88220941  0.89712249  0.75000000  1
  C  C40  1  0.34493866  0.65506134  0.58937081  1
  C  C41  1  0.65506134  0.34493866  0.41062919  1
  C  C42  1  0.34493866  0.65506134  0.91062919  1
  C  C43  1  0.65506134  0.34493866  0.08937081  1
  C  C44  1  0.10693262  0.89306738  0.75000000  1
  C  C45  1  0.89306738  0.10693262  0.25000000  1
  I  I46  1  0.61862161  0.99236029  0.75000000  1
  I  I47  1  0.99236029  0.61862161  0.25000000  1
  I  I48  1  0.38137839  0.00763971  0.25000000  1
  I  I49  1  0.00763971  0.38137839  0.75000000  1
  I  I50  1  0.55545086  0.44454914  0.75000000  1
  I  I51  1  0.44454914  0.55545086  0.25000000  1
  I  I52  1  0.83931594  0.56782553  0.57947201  1
  I  I53  1  0.56782553  0.83931594  0.42052799  1
  I  I54  1  0.83931594  0.56782553  0.92052799  1
  I  I55  1  0.56782553  0.83931594  0.07947201  1
  I  I56  1  0.16068406  0.43217447  0.42052799  1
  I  I57  1  0.43217447  0.16068406  0.57947201  1
  I  I58  1  0.16068406  0.43217447  0.07947201  1
  I  I59  1  0.43217447  0.16068406  0.92052799  1
  I  I60  1  0.89795118  0.10204882  0.57850147  1
  I  I61  1  0.10204882  0.89795118  0.42149853  1
  I  I62  1  0.89795118  0.10204882  0.92149853  1
  I  I63  1  0.10204882  0.89795118  0.07850147  1
  N  N64  1  0.19771674  0.80228326  0.75000000  1
  N  N65  1  0.80228326  0.19771674  0.25000000  1
  N  N66  1  0.27666244  0.50855746  0.60523477  1
  N  N67  1  0.50855746  0.27666244  0.39476523  1
  N  N68  1  0.27666244  0.50855746  0.89476523  1
  N  N69  1  0.50855746  0.27666244  0.10523477  1
  N  N70  1  0.72333756  0.49144254  0.39476523  1
  N  N71  1  0.49144254  0.72333756  0.60523477  1
  N  N72  1  0.72333756  0.49144254  0.10523477  1
  N  N73  1  0.49144254  0.72333756  0.89476523  1
  N  N74  1  0.26596082  0.73403918  0.55948094  1
  N  N75  1  0.73403918  0.26596082  0.44051906  1
  N  N76  1  0.26596082  0.73403918  0.94051906  1
  N  N77  1  0.73403918  0.26596082  0.05948094  1
  N  N78  1  0.16881060  0.04556407  0.75000000  1
  N  N79  1  0.04556407  0.16881060  0.25000000  1
  N  N80  1  0.83118940  0.95443593  0.25000000  1
  N  N81  1  0.95443593  0.83118940  0.75000000  1
