# generated using pymatgen
data_ThSiPt
_symmetry_space_group_name_H-M   'P 1'
_cell_length_a   4.16945173
_cell_length_b   4.16945173
_cell_length_c   7.96847476
_cell_angle_alpha   105.16630947
_cell_angle_beta   105.16630947
_cell_angle_gamma   90.00000000
_symmetry_Int_Tables_number   1
_chemical_formula_structural   ThSiPt
_chemical_formula_sum   'Th2 Si2 Pt2'
_cell_volume   128.69619834
_cell_formula_units_Z   2
loop_
 _symmetry_equiv_pos_site_id
 _symmetry_equiv_pos_as_xyz
  1  'x, y, z'
loop_
 _atom_site_type_symbol
 _atom_site_label
 _atom_site_symmetry_multiplicity
 _atom_site_fract_x
 _atom_site_fract_y
 _atom_site_fract_z
 _atom_site_occupancy
  Th  Th0  1  0.58074493  0.58074493  0.16148987  1
  Th  Th1  1  0.83074493  0.33074493  0.66148987  1
  Si  Si2  1  0.99988083  0.99988083  0.99976166  1
  Si  Si3  1  0.24988083  0.74988083  0.49976166  1
  Pt  Pt4  1  0.16637424  0.16637424  0.33274848  1
  Pt  Pt5  1  0.41637424  0.91637424  0.83274848  1
