# generated using pymatgen
data_Rb2ZnF4
_symmetry_space_group_name_H-M   'P 1'
_cell_length_a   4.22117496
_cell_length_b   4.22117496
_cell_length_c   7.54148992
_cell_angle_alpha   106.25205589
_cell_angle_beta   106.25205589
_cell_angle_gamma   90.00000000
_symmetry_Int_Tables_number   1
_chemical_formula_structural   Rb2ZnF4
_chemical_formula_sum   'Rb2 Zn1 F4'
_cell_volume   123.40379874
_cell_formula_units_Z   1
loop_
 _symmetry_equiv_pos_site_id
 _symmetry_equiv_pos_as_xyz
  1  'x, y, z'
loop_
 _atom_site_type_symbol
 _atom_site_label
 _atom_site_symmetry_multiplicity
 _atom_site_fract_x
 _atom_site_fract_y
 _atom_site_fract_z
 _atom_site_occupancy
  Rb  Rb0  1  0.35480283  0.35480283  0.70960565  1
  Rb  Rb1  1  0.64519717  0.64519717  0.29039435  1
  Zn  Zn2  1  0.00000000  0.00000000  0.00000000  1
  F  F3  1  0.14717811  0.14717811  0.29435622  1
  F  F4  1  0.85282189  0.85282189  0.70564378  1
  F  F5  1  0.00000000  0.50000000  0.00000000  1
  F  F6  1  0.50000000  0.00000000  0.00000000  1
