# generated using pymatgen
data_Er2B4C
_symmetry_space_group_name_H-M   'P 1'
_cell_length_a   3.25906539
_cell_length_b   5.21362504
_cell_length_c   5.21362504
_cell_angle_alpha   77.96720608
_cell_angle_beta   71.78686306
_cell_angle_gamma   71.78686306
_symmetry_Int_Tables_number   1
_chemical_formula_structural   Er2B4C
_chemical_formula_sum   'Er2 B4 C1'
_cell_volume   79.32875090
_cell_formula_units_Z   1
loop_
 _symmetry_equiv_pos_site_id
 _symmetry_equiv_pos_as_xyz
  1  'x, y, z'
loop_
 _atom_site_type_symbol
 _atom_site_label
 _atom_site_symmetry_multiplicity
 _atom_site_fract_x
 _atom_site_fract_y
 _atom_site_fract_z
 _atom_site_occupancy
  Er  Er0  1  0.26624817  0.23375183  0.23375183  1
  Er  Er1  1  0.73375183  0.76624817  0.76624817  1
  B  B2  1  0.50000000  0.36563440  0.63436560  1
  B  B3  1  0.50000000  0.63436560  0.36563440  1
  B  B4  1  0.00000000  0.77177589  0.22822411  1
  B  B5  1  0.00000000  0.22822411  0.77177589  1
  C  C6  1  0.00000000  0.00000000  0.00000000  1
