# generated using pymatgen
data_Y2Fe2O7
_symmetry_space_group_name_H-M   'P 1'
_cell_length_a   7.18194440
_cell_length_b   7.18192485
_cell_length_c   7.18207620
_cell_angle_alpha   59.99394835
_cell_angle_beta   59.99388942
_cell_angle_gamma   59.99333143
_symmetry_Int_Tables_number   1
_chemical_formula_structural   Y2Fe2O7
_chemical_formula_sum   'Y4 Fe4 O14'
_cell_volume   261.91241994
_cell_formula_units_Z   2
loop_
 _symmetry_equiv_pos_site_id
 _symmetry_equiv_pos_as_xyz
  1  'x, y, z'
loop_
 _atom_site_type_symbol
 _atom_site_label
 _atom_site_symmetry_multiplicity
 _atom_site_fract_x
 _atom_site_fract_y
 _atom_site_fract_z
 _atom_site_occupancy
  Y  Y0  1  0.50000179  -0.00000027  0.50000031  1
  Y  Y1  1  -0.00000174  0.50000092  0.49999998  1
  Y  Y2  1  0.49999948  0.50000194  -0.00000129  1
  Y  Y3  1  0.50000167  0.49999976  0.49999908  1
  Fe  Fe4  1  -0.00000116  0.49999987  0.00000260  1
  Fe  Fe5  1  0.49999777  0.00000137  -0.00000062  1
  Fe  Fe6  1  -0.00000054  0.00000063  0.49999888  1
  Fe  Fe7  1  0.00000002  0.00000002  0.00000148  1
  O  O8  1  0.62497386  0.62500654  0.62494609  1
  O  O9  1  0.37502281  0.37499435  0.37505455  1
  O  O10  1  0.33330649  0.91670250  0.91667645  1
  O  O11  1  0.08333254  0.66664736  0.66667347  1
  O  O12  1  0.91668261  0.33331688  0.91668160  1
  O  O13  1  0.91667510  0.91669850  0.33330191  1
  O  O14  1  0.33333447  0.33333964  0.91667040  1
  O  O15  1  0.33334010  0.91669158  0.33332138  1
  O  O16  1  0.91666873  0.33334723  0.33332958  1
  O  O17  1  0.66666470  0.66666092  0.08332916  1
  O  O18  1  0.08332974  0.08329992  0.66669643  1
  O  O19  1  0.66669268  0.08329852  0.08332397  1
  O  O20  1  0.66666227  0.08330958  0.66667773  1
  O  O21  1  0.08331660  0.66668225  0.08331687  1
