# generated using pymatgen
data_Na2Ti2As2O
_symmetry_space_group_name_H-M   'P 1'
_cell_length_a   4.06976930
_cell_length_b   4.06976930
_cell_length_c   8.25643762
_cell_angle_alpha   104.26815334
_cell_angle_beta   104.26815334
_cell_angle_gamma   90.00000000
_symmetry_Int_Tables_number   1
_chemical_formula_structural   Na2Ti2As2O
_chemical_formula_sum   'Na2 Ti2 As2 O1'
_cell_volume   128.17601707
_cell_formula_units_Z   1
loop_
 _symmetry_equiv_pos_site_id
 _symmetry_equiv_pos_as_xyz
  1  'x, y, z'
loop_
 _atom_site_type_symbol
 _atom_site_label
 _atom_site_symmetry_multiplicity
 _atom_site_fract_x
 _atom_site_fract_y
 _atom_site_fract_z
 _atom_site_occupancy
  Na  Na0  1  0.18196511  0.18196511  0.36393021  1
  Na  Na1  1  0.81803489  0.81803489  0.63606979  1
  Ti  Ti2  1  0.00000000  0.50000000  0.00000000  1
  Ti  Ti3  1  0.50000000  0.00000000  0.00000000  1
  As  As4  1  0.38253786  0.38253786  0.76507571  1
  As  As5  1  0.61746214  0.61746214  0.23492429  1
  O  O6  1  0.00000000  0.00000000  0.00000000  1
