# generated using pymatgen
data_CsEu(PO3)4
_symmetry_space_group_name_H-M   'P 1'
_cell_length_a   10.64252213
_cell_length_b   9.13806441
_cell_length_c   11.44874832
_cell_angle_alpha   90.00000000
_cell_angle_beta   106.92793672
_cell_angle_gamma   90.00000000
_symmetry_Int_Tables_number   1
_chemical_formula_structural   CsEu(PO3)4
_chemical_formula_sum   'Cs4 Eu4 P16 O48'
_cell_volume   1065.17195777
_cell_formula_units_Z   4
loop_
 _symmetry_equiv_pos_site_id
 _symmetry_equiv_pos_as_xyz
  1  'x, y, z'
loop_
 _atom_site_type_symbol
 _atom_site_label
 _atom_site_symmetry_multiplicity
 _atom_site_fract_x
 _atom_site_fract_y
 _atom_site_fract_z
 _atom_site_occupancy
  Eu  Eu0  1  0.00181279  0.72569324  0.31932555  1
  Eu  Eu1  1  0.50181279  0.77430676  0.81932555  1
  Eu  Eu2  1  0.99818721  0.27430676  0.68067445  1
  Eu  Eu3  1  0.49818721  0.22569324  0.18067445  1
  Cs  Cs4  1  0.81369064  0.43579032  0.03890350  1
  Cs  Cs5  1  0.31369064  0.06420968  0.53890350  1
  Cs  Cs6  1  0.18630936  0.56420968  0.96109650  1
  Cs  Cs7  1  0.68630936  0.93579032  0.46109650  1
  P  P8  1  0.03987471  0.32484700  0.36489313  1
  P  P9  1  0.53987471  0.17515300  0.86489313  1
  P  P10  1  0.96012529  0.67515300  0.63510687  1
  P  P11  1  0.46012529  0.82484700  0.13510687  1
  P  P12  1  0.74768361  0.53088025  0.71318451  1
  P  P13  1  0.24768361  0.96911975  0.21318451  1
  P  P14  1  0.25231639  0.46911975  0.28681549  1
  P  P15  1  0.75231639  0.03088025  0.78681549  1
  P  P16  1  0.82563603  0.89673479  0.02644640  1
  P  P17  1  0.32563603  0.60326521  0.52644640  1
  P  P18  1  0.17436397  0.10326521  0.97355360  1
  P  P19  1  0.67436397  0.39673479  0.47355360  1
  P  P20  1  0.85593136  0.09233034  0.24196693  1
  P  P21  1  0.35593136  0.40766966  0.74196693  1
  P  P22  1  0.14406864  0.90766966  0.75803307  1
  P  P23  1  0.64406864  0.59233034  0.25803307  1
  O  O24  1  0.67174434  0.59721329  0.79128689  1
  O  O25  1  0.17174434  0.90278671  0.29128689  1
  O  O26  1  0.32825566  0.40278671  0.20871311  1
  O  O27  1  0.82825566  0.09721329  0.70871311  1
  O  O28  1  0.64147590  0.46210943  0.59310873  1
  O  O29  1  0.14147590  0.03789057  0.09310873  1
  O  O30  1  0.35852410  0.53789057  0.40689127  1
  O  O31  1  0.85852410  0.96210943  0.90689127  1
  O  O32  1  0.85084599  0.41961199  0.77314164  1
  O  O33  1  0.35084599  0.08038801  0.27314164  1
  O  O34  1  0.14915401  0.58038801  0.22685836  1
  O  O35  1  0.64915401  0.91961199  0.72685836  1
  O  O36  1  0.96504867  0.46539872  0.33167709  1
  O  O37  1  0.46504867  0.03460128  0.83167709  1
  O  O38  1  0.03495133  0.53460128  0.66832291  1
  O  O39  1  0.53495133  0.96539872  0.16832291  1
  O  O40  1  0.18743410  0.66079170  0.48747873  1
  O  O41  1  0.68743410  0.83920830  0.98747873  1
  O  O42  1  0.81256590  0.33920830  0.51252127  1
  O  O43  1  0.31256590  0.16079170  0.01252127  1
  O  O44  1  0.93102550  0.79263351  0.09442693  1
  O  O45  1  0.43102550  0.70736649  0.59442693  1
  O  O46  1  0.06897450  0.20736649  0.90557307  1
  O  O47  1  0.56897450  0.29263351  0.40557307  1
  O  O48  1  0.94048258  0.74439131  0.51274506  1
  O  O49  1  0.44048258  0.75560869  0.01274506  1
  O  O50  1  0.05951742  0.25560869  0.48725494  1
  O  O51  1  0.55951742  0.24439131  0.98725494  1
  O  O52  1  0.97683993  0.20672074  0.25672911  1
  O  O53  1  0.47683993  0.29327926  0.75672911  1
  O  O54  1  0.02316007  0.79327926  0.74327089  1
  O  O55  1  0.52316007  0.70672074  0.24327089  1
  O  O56  1  0.83417205  0.04949224  0.10071481  1
  O  O57  1  0.33417205  0.45050776  0.60071481  1
  O  O58  1  0.16582795  0.95050776  0.89928519  1
  O  O59  1  0.66582795  0.54949224  0.39928519  1
  O  O60  1  0.76195606  0.67455894  0.24745791  1
  O  O61  1  0.26195606  0.82544106  0.74745791  1
  O  O62  1  0.23804394  0.32544106  0.75254209  1
  O  O63  1  0.73804394  0.17455894  0.25254209  1
  O  O64  1  0.90220825  0.96206683  0.32289643  1
  O  O65  1  0.40220825  0.53793317  0.82289643  1
  O  O66  1  0.09779175  0.03793317  0.67710357  1
  O  O67  1  0.59779175  0.46206683  0.17710357  1
  O  O68  1  0.81506368  0.66110575  0.65488071  1
  O  O69  1  0.31506368  0.83889425  0.15488071  1
  O  O70  1  0.18493632  0.33889425  0.34511929  1
  O  O71  1  0.68493632  0.16110575  0.84511929  1
