# generated using pymatgen
data_Sr2Ge(S2O7)4
_symmetry_space_group_name_H-M   'P 1'
_cell_length_a   7.09495119
_cell_length_b   13.24635671
_cell_length_c   12.50230827
_cell_angle_alpha   90.00000000
_cell_angle_beta   97.05391576
_cell_angle_gamma   90.00000000
_symmetry_Int_Tables_number   1
_chemical_formula_structural   Sr2Ge(S2O7)4
_chemical_formula_sum   'Sr4 Ge2 S16 O56'
_cell_volume   1166.10161452
_cell_formula_units_Z   2
loop_
 _symmetry_equiv_pos_site_id
 _symmetry_equiv_pos_as_xyz
  1  'x, y, z'
loop_
 _atom_site_type_symbol
 _atom_site_label
 _atom_site_symmetry_multiplicity
 _atom_site_fract_x
 _atom_site_fract_y
 _atom_site_fract_z
 _atom_site_occupancy
  Sr  Sr0  1  0.30078726  0.86497276  0.15902387  1
  Sr  Sr1  1  0.80078726  0.63502724  0.65902387  1
  Sr  Sr2  1  0.69921274  0.13502724  0.84097613  1
  Sr  Sr3  1  0.19921274  0.36497276  0.34097613  1
  Ge  Ge4  1  0.50000000  0.50000000  0.00000000  1
  Ge  Ge5  1  0.00000000  -0.00000000  0.50000000  1
  S  S6  1  0.15706375  0.64907016  0.94097131  1
  S  S7  1  0.65706375  0.85092984  0.44097131  1
  S  S8  1  0.84293625  0.35092984  0.05902869  1
  S  S9  1  0.34293625  0.14907016  0.55902869  1
  S  S10  1  0.78822491  0.97138771  0.10521089  1
  S  S11  1  0.28822491  0.52861229  0.60521089  1
  S  S12  1  0.21177509  0.02861229  0.89478911  1
  S  S13  1  0.71177509  0.47138771  0.39478911  1
  S  S14  1  0.53227788  0.72006474  0.91102185  1
  S  S15  1  0.03227788  0.77993526  0.41102185  1
  S  S16  1  0.46772212  0.27993526  0.08897815  1
  S  S17  1  0.96772212  0.22006474  0.58897815  1
  S  S18  1  0.46565298  0.58478539  0.22965832  1
  S  S19  1  0.96565298  0.91521461  0.72965832  1
  S  S20  1  0.53434702  0.41521461  0.77034168  1
  S  S21  1  0.03434702  0.08478539  0.27034168  1
  O  O22  1  0.99970757  0.61836305  0.86555148  1
  O  O23  1  0.49970757  0.88163695  0.36555148  1
  O  O24  1  0.00029243  0.38163695  0.13444852  1
  O  O25  1  0.50029243  0.11836305  0.63444852  1
  O  O26  1  0.61806199  0.58330691  0.33251820  1
  O  O27  1  0.11806199  0.91669309  0.83251820  1
  O  O28  1  0.38193801  0.41669309  0.66748180  1
  O  O29  1  0.88193801  0.08330691  0.16748180  1
  O  O30  1  0.29446178  0.53357686  0.25041795  1
  O  O31  1  0.79446178  0.96642314  0.75041795  1
  O  O32  1  0.70553822  0.46642314  0.74958205  1
  O  O33  1  0.20553822  0.03357686  0.24958205  1
  O  O34  1  0.25319866  0.55913565  0.00147930  1
  O  O35  1  0.75319866  0.94086435  0.50147930  1
  O  O36  1  0.74680134  0.44086435  0.99852070  1
  O  O37  1  0.24680134  0.05913565  0.49852070  1
  O  O38  1  0.93633677  0.89683648  0.12970129  1
  O  O39  1  0.43633677  0.60316352  0.62970129  1
  O  O40  1  0.06366323  0.10316352  0.87029871  1
  O  O41  1  0.56366323  0.39683648  0.37029871  1
  O  O42  1  0.31380211  0.68595593  0.86207621  1
  O  O43  1  0.81380211  0.81404407  0.36207621  1
  O  O44  1  0.68619789  0.31404407  0.13792379  1
  O  O45  1  0.18619789  0.18595593  0.63792379  1
  O  O46  1  0.56922382  0.52485168  0.14894553  1
  O  O47  1  0.06922382  0.97514832  0.64894553  1
  O  O48  1  0.43077618  0.47514832  0.85105447  1
  O  O49  1  0.93077618  0.02485168  0.35105447  1
  O  O50  1  0.12881182  0.72890834  0.01527145  1
  O  O51  1  0.62881182  0.77109166  0.51527145  1
  O  O52  1  0.87118818  0.27109166  0.98472855  1
  O  O53  1  0.37118818  0.22890834  0.48472855  1
  O  O54  1  0.61327692  0.62612286  0.97032425  1
  O  O55  1  0.11327692  0.87387714  0.47032425  1
  O  O56  1  0.38672308  0.37387714  0.02967575  1
  O  O57  1  0.88672308  0.12612286  0.52967575  1
  O  O58  1  0.62032191  0.73699476  0.81551243  1
  O  O59  1  0.12032191  0.76300524  0.31551243  1
  O  O60  1  0.37967809  0.26300524  0.18448757  1
  O  O61  1  0.87967809  0.23699476  0.68448757  1
  O  O62  1  0.51780971  0.80179548  0.98477335  1
  O  O63  1  0.01780971  0.69820452  0.48477335  1
  O  O64  1  0.48219029  0.19820452  0.01522665  1
  O  O65  1  0.98219029  0.30179548  0.51522665  1
  O  O66  1  0.62006559  0.95599063  0.15770921  1
  O  O67  1  0.12006559  0.54400937  0.65770921  1
  O  O68  1  0.37993441  0.04400937  0.84229079  1
  O  O69  1  0.87993441  0.45599063  0.34229079  1
  O  O70  1  0.75806751  0.00708292  0.99546752  1
  O  O71  1  0.25806751  0.49291708  0.49546752  1
  O  O72  1  0.24193249  0.99291708  0.00453248  1
  O  O73  1  0.74193249  0.50708292  0.50453248  1
  O  O74  1  0.44977524  0.68984668  0.20014950  1
  O  O75  1  0.94977524  0.81015332  0.70014950  1
  O  O76  1  0.55022476  0.31015332  0.79985050  1
  O  O77  1  0.05022476  0.18984668  0.29985050  1
