# generated using pymatgen
data_Cu2SnHgS4
_symmetry_space_group_name_H-M   'P 1'
_cell_length_a   5.61813269
_cell_length_b   5.61813269
_cell_length_c   6.81721713
_cell_angle_alpha   114.33397326
_cell_angle_beta   114.33397326
_cell_angle_gamma   90.00000000
_symmetry_Int_Tables_number   1
_chemical_formula_structural   Cu2SnHgS4
_chemical_formula_sum   'Cu2 Sn1 Hg1 S4'
_cell_volume   174.86457160
_cell_formula_units_Z   1
loop_
 _symmetry_equiv_pos_site_id
 _symmetry_equiv_pos_as_xyz
  1  'x, y, z'
loop_
 _atom_site_type_symbol
 _atom_site_label
 _atom_site_symmetry_multiplicity
 _atom_site_fract_x
 _atom_site_fract_y
 _atom_site_fract_z
 _atom_site_occupancy
  Cu  Cu0  1  0.25000000  0.75000000  0.50000000  1
  Cu  Cu1  1  0.75000000  0.25000000  0.50000000  1
  Sn  Sn2  1  0.50000000  0.50000000  -0.00000000  1
  Hg  Hg3  1  0.00000000  0.00000000  0.00000000  1
  S  S4  1  0.40079289  0.40079289  0.28288382  1
  S  S5  1  0.88209093  0.88209093  0.28288382  1
  S  S6  1  0.11790907  0.59920711  0.71711618  1
  S  S7  1  0.59920711  0.11790907  0.71711618  1
