# generated using pymatgen
data_Li4V7O9F7
_symmetry_space_group_name_H-M   'P 1'
_cell_length_a   6.02532325
_cell_length_b   6.02532325
_cell_length_c   10.59464533
_cell_angle_alpha   89.69686809
_cell_angle_beta   73.81932516
_cell_angle_gamma   120.04644113
_symmetry_Int_Tables_number   1
_chemical_formula_structural   Li4V7O9F7
_chemical_formula_sum   'Li4 V7 O9 F7'
_cell_volume   314.86850580
_cell_formula_units_Z   1
loop_
 _symmetry_equiv_pos_site_id
 _symmetry_equiv_pos_as_xyz
  1  'x, y, z'
loop_
 _atom_site_type_symbol
 _atom_site_label
 _atom_site_symmetry_multiplicity
 _atom_site_fract_x
 _atom_site_fract_y
 _atom_site_fract_z
 _atom_site_occupancy
  Li  Li0  1  0.98448001  0.00588542  0.00963557  1
  Li  Li1  1  0.26627995  0.61546351  0.11825753  1
  Li  Li2  1  0.25511178  0.12307466  0.62181356  1
  Li  Li3  1  0.98182772  0.50957192  0.50859936  1
  V  V4  1  0.63114958  0.29597055  0.07287987  1
  V  V5  1  0.10747160  0.05921586  0.30766474  1
  V  V6  1  0.63301657  0.05661621  0.80689205  1
  V  V7  1  0.63311840  0.58486266  0.30766474  1
  V  V8  1  0.62752732  0.57141097  0.80106172  1
  V  V9  1  0.62255305  0.81333678  0.56411018  1
  V  V10  1  0.13649274  0.56009138  0.80689205  1
  O  O11  1  0.85671554  0.42838142  0.71490304  1
  O  O12  1  0.85399983  0.21050189  0.93549828  1
  O  O13  1  0.85426151  0.71396187  0.43177662  1
  O  O14  1  0.40118480  0.41029716  0.18851804  1
  O  O15  1  0.88572721  0.91656355  0.19770924  1
  O  O16  1  0.84484234  0.91925888  0.68887227  1
  O  O17  1  0.39186885  0.46628639  0.68887227  1
  O  O18  1  0.38869487  0.91891060  0.69239353  1
  O  O19  1  0.39372707  0.68978193  0.91649100  1
  F  F20  1  0.87949496  0.17712884  0.44086540  1
  F  F21  1  0.86639955  0.44202626  0.18693099  1
  F  F22  1  0.36683182  0.21071894  0.42244924  1
  F  F23  1  0.86167613  0.66302655  0.93947715  1
  F  F24  1  0.39749630  0.19884672  0.93947715  1
  F  F25  1  0.38200575  0.67963963  0.44086540  1
  F  F26  1  0.37104274  0.94666846  0.18693099  1
