# generated using pymatgen
data_UTl2O4
_symmetry_space_group_name_H-M   'P 1'
_cell_length_a   4.38209938
_cell_length_b   4.38209938
_cell_length_c   7.73613558
_cell_angle_alpha   106.45264380
_cell_angle_beta   106.45264380
_cell_angle_gamma   90.00000000
_symmetry_Int_Tables_number   1
_chemical_formula_structural   UTl2O4
_chemical_formula_sum   'U1 Tl2 O4'
_cell_volume   136.11842151
_cell_formula_units_Z   1
loop_
 _symmetry_equiv_pos_site_id
 _symmetry_equiv_pos_as_xyz
  1  'x, y, z'
loop_
 _atom_site_type_symbol
 _atom_site_label
 _atom_site_symmetry_multiplicity
 _atom_site_fract_x
 _atom_site_fract_y
 _atom_site_fract_z
 _atom_site_occupancy
  U  U0  1  -0.00000000  -0.00000000  0.00000000  1
  Tl  Tl1  1  0.34643573  0.34643573  0.69287146  1
  Tl  Tl2  1  0.65356427  0.65356427  0.30712854  1
  O  O3  1  0.13728444  0.13728444  0.27456887  1
  O  O4  1  0.86271556  0.86271556  0.72543113  1
  O  O5  1  0.00000000  0.50000000  0.00000000  1
  O  O6  1  0.50000000  0.00000000  0.00000000  1
