# generated using pymatgen
data_LaCuPb
_symmetry_space_group_name_H-M   'P 1'
_cell_length_a   4.74676395
_cell_length_b   4.74676395
_cell_length_c   7.91277157
_cell_angle_alpha   90.00000000
_cell_angle_beta   90.00000000
_cell_angle_gamma   120.00000036
_symmetry_Int_Tables_number   1
_chemical_formula_structural   LaCuPb
_chemical_formula_sum   'La2 Cu2 Pb2'
_cell_volume   154.40257134
_cell_formula_units_Z   2
loop_
 _symmetry_equiv_pos_site_id
 _symmetry_equiv_pos_as_xyz
  1  'x, y, z'
loop_
 _atom_site_type_symbol
 _atom_site_label
 _atom_site_symmetry_multiplicity
 _atom_site_fract_x
 _atom_site_fract_y
 _atom_site_fract_z
 _atom_site_occupancy
  La  La0  1  -0.00000000  -0.00000000  0.00943923  1
  La  La1  1  0.00000000  -0.00000000  0.50943923  1
  Cu  Cu2  1  0.66666700  0.33333300  0.30988541  1
  Cu  Cu3  1  0.33333300  0.66666700  0.80988541  1
  Pb  Pb4  1  0.66666700  0.33333300  0.73857536  1
  Pb  Pb5  1  0.33333300  0.66666700  0.23857536  1
