# generated using pymatgen
data_Rb4Ge3B6O17
_symmetry_space_group_name_H-M   'P 1'
_cell_length_a   6.98883357
_cell_length_b   6.98883357
_cell_length_c   20.40546454
_cell_angle_alpha   97.45488552
_cell_angle_beta   92.62240838
_cell_angle_gamma   119.18235868
_symmetry_Int_Tables_number   1
_chemical_formula_structural   Rb4Ge3B6O17
_chemical_formula_sum   'Rb8 Ge6 B12 O34'
_cell_volume   855.94987931
_cell_formula_units_Z   2
loop_
 _symmetry_equiv_pos_site_id
 _symmetry_equiv_pos_as_xyz
  1  'x, y, z'
loop_
 _atom_site_type_symbol
 _atom_site_label
 _atom_site_symmetry_multiplicity
 _atom_site_fract_x
 _atom_site_fract_y
 _atom_site_fract_z
 _atom_site_occupancy
  Rb  Rb0  1  0.34785669  0.73492884  0.92143673  1
  Rb  Rb1  1  0.68650789  0.57358104  0.42143673  1
  Rb  Rb2  1  0.06409033  0.10553264  0.15872026  1
  Rb  Rb3  1  0.55318762  0.09462992  0.65872026  1
  Rb  Rb4  1  0.87723529  0.76707837  0.60710132  1
  Rb  Rb5  1  0.34002295  0.72986602  0.10710132  1
  Rb  Rb6  1  0.57807915  0.28407205  0.84390357  1
  Rb  Rb7  1  0.05983051  0.26582442  0.34390357  1
  Ge  Ge8  1  0.04234599  0.10508686  0.96290474  1
  Ge  Ge9  1  0.35781788  0.92055875  0.46290474  1
  Ge  Ge10  1  0.91139456  0.93596418  0.80400811  1
  Ge  Ge11  1  0.36804393  0.89261454  0.30400811  1
  Ge  Ge12  1  0.71038335  0.37285967  0.13449516  1
  Ge  Ge13  1  0.26163549  0.42411181  0.63449516  1
  B  B14  1  0.91658066  0.69273808  0.24961435  1
  B  B15  1  0.05687527  0.33303369  0.74961435  1
  B  B16  1  0.63741254  0.31529890  0.26312073  1
  B  B17  1  0.44782183  0.62570719  0.76312073  1
  B  B18  1  0.48927482  0.39561860  0.02139442  1
  B  B19  1  0.12577682  0.53211960  0.52139442  1
  B  B20  1  0.77031603  0.28597260  0.00338805  1
  B  B21  1  0.21741546  0.23307202  0.50338805  1
  B  B22  1  0.14428480  0.72159254  0.75667668  1
  B  B23  1  0.53508414  0.61239188  0.25667668  1
  B  B24  1  0.86530979  0.68318078  0.00679087  1
  B  B25  1  0.82361009  0.14148109  0.50679087  1
  O  O26  1  0.81403913  0.25526403  0.07321305  1
  O  O27  1  0.31794902  0.25917292  0.57321305  1
  O  O28  1  0.59444421  0.16306862  0.31174613  1
  O  O29  1  0.64867651  0.71730092  0.81174513  1
  O  O30  1  0.08139129  0.88176637  0.75030885  1
  O  O31  1  0.36854247  0.66891756  0.25030885  1
  O  O32  1  0.48638689  0.38793792  0.09506158  1
  O  O33  1  0.20712366  0.60867469  0.59506158  1
  O  O34  1  0.61145708  0.19281575  0.19408434  1
  O  O35  1  0.50126960  0.58262826  0.69408434  1
  O  O36  1  0.92982849  0.63562786  0.17615226  1
  O  O37  1  0.04052440  0.24632477  0.67615326  1
  O  O38  1  0.12654889  0.89375070  0.27911520  1
  O  O39  1  0.88536550  0.15256731  0.77911520  1
  O  O40  1  0.07491685  0.99793552  0.88221767  1
  O  O41  1  0.38428215  0.80730082  0.38221767  1
  O  O42  1  0.27834647  0.42659618  0.78407855  1
  O  O43  1  0.85748236  0.50573208  0.28407855  1
  O  O44  1  0.54537096  0.23855240  0.98649850  1
  O  O45  1  0.24794610  0.44112754  0.48649850  1
  O  O46  1  0.93181717  0.52755878  0.99802011  1
  O  O47  1  0.97046133  0.06620293  0.49802011  1
  O  O48  1  0.65362030  0.63277443  0.01426094  1
  O  O49  1  0.88148651  0.36064064  0.51426094  1
  O  O50  1  0.36715787  0.79479316  0.76358830  1
  O  O51  1  0.46879514  0.39643042  0.26358830  1
  O  O52  1  0.74822370  0.76880102  0.25387848  1
  O  O53  1  0.98507847  0.50565478  0.75387848  1
  O  O54  1  0.03241652  0.90661276  0.01181772  1
  O  O55  1  0.60520496  0.97940120  0.51181772  1
  O  O56  1  0.27423008  0.36327947  0.99438854  1
  O  O57  1  0.13110806  0.72015746  0.49438854  1
  O  O58  1  0.80679868  0.13340751  0.95478380  1
  O  O59  1  0.32137629  0.14798512  0.45478380  1
