# generated using pymatgen
data_YbB2Rh3
_symmetry_space_group_name_H-M   'P 1'
_cell_length_a   2.93068435
_cell_length_b   5.57198900
_cell_length_c   5.57018212
_cell_angle_alpha   59.98926220
_cell_angle_beta   90.01916371
_cell_angle_gamma   90.03830428
_symmetry_Int_Tables_number   1
_chemical_formula_structural   YbB2Rh3
_chemical_formula_sum   'Yb1 B2 Rh3'
_cell_volume   78.76480906
_cell_formula_units_Z   1
loop_
 _symmetry_equiv_pos_site_id
 _symmetry_equiv_pos_as_xyz
  1  'x, y, z'
loop_
 _atom_site_type_symbol
 _atom_site_label
 _atom_site_symmetry_multiplicity
 _atom_site_fract_x
 _atom_site_fract_y
 _atom_site_fract_z
 _atom_site_occupancy
  Yb  Yb0  1  0.50000000  0.50000000  0.00000000  1
  B  B1  1  0.50000000  0.16677245  0.66645510  1
  B  B2  1  0.50000000  0.83322755  0.33354490  1
  Rh  Rh3  1  0.00000000  0.00000000  0.50000000  1
  Rh  Rh4  1  0.00000000  0.50000000  0.50000000  1
  Rh  Rh5  1  0.00000000  0.00000000  0.00000000  1
