# generated using pymatgen
data_ThCd3
_symmetry_space_group_name_H-M   'P 1'
_cell_length_a   5.02122880
_cell_length_b   6.85571661
_cell_length_c   6.85490253
_cell_angle_alpha   120.01348436
_cell_angle_beta   90.00000000
_cell_angle_gamma   90.00000000
_symmetry_Int_Tables_number   1
_chemical_formula_structural   ThCd3
_chemical_formula_sum   'Th2 Cd6'
_cell_volume   204.33170412
_cell_formula_units_Z   2
loop_
 _symmetry_equiv_pos_site_id
 _symmetry_equiv_pos_as_xyz
  1  'x, y, z'
loop_
 _atom_site_type_symbol
 _atom_site_label
 _atom_site_symmetry_multiplicity
 _atom_site_fract_x
 _atom_site_fract_y
 _atom_site_fract_z
 _atom_site_occupancy
  Th  Th0  1  0.25000000  0.66662653  0.33332534  1
  Th  Th1  1  0.75000000  0.33337507  0.66667250  1
  Cd  Cd2  1  0.75000000  0.84296113  0.15702285  1
  Cd  Cd3  1  0.25000000  0.15704825  0.84297558  1
  Cd  Cd4  1  0.75000000  0.31404256  0.15700603  1
  Cd  Cd5  1  0.25000000  0.68596268  0.84301331  1
  Cd  Cd6  1  0.75000000  0.84298959  0.68595597  1
  Cd  Cd7  1  0.25000000  0.15699419  0.31403841  1
