# generated using pymatgen
data_Cs2CuF4
_symmetry_space_group_name_H-M   'P 1'
_cell_length_a   4.36708338
_cell_length_b   4.36708338
_cell_length_c   7.80701202
_cell_angle_alpha   73.78418359
_cell_angle_beta   73.78418359
_cell_angle_gamma   90.08883026
_symmetry_Int_Tables_number   1
_chemical_formula_structural   Cs2CuF4
_chemical_formula_sum   'Cs2 Cu1 F4'
_cell_volume   136.76797778
_cell_formula_units_Z   1
loop_
 _symmetry_equiv_pos_site_id
 _symmetry_equiv_pos_as_xyz
  1  'x, y, z'
loop_
 _atom_site_type_symbol
 _atom_site_label
 _atom_site_symmetry_multiplicity
 _atom_site_fract_x
 _atom_site_fract_y
 _atom_site_fract_z
 _atom_site_occupancy
  Cs  Cs0  1  0.36196885  0.34820502  0.28982613  1
  Cs  Cs1  1  0.65179498  0.63803115  0.71017387  1
  Cu  Cu2  1  0.00850246  0.99149754  0.00000000  1
  F  F3  1  0.14536165  0.12582547  0.72881287  1
  F  F4  1  0.87417453  0.85463835  0.27118713  1
  F  F5  1  0.00907321  0.48967568  0.00000000  1
  F  F6  1  0.51032432  0.99092679  0.00000000  1
