# generated using pymatgen
data_CsZr2Al(PO4)4
_symmetry_space_group_name_H-M   'P 1'
_cell_length_a   8.86450120
_cell_length_b   9.55197000
_cell_length_c   18.27578340
_cell_angle_alpha   90.00000000
_cell_angle_beta   90.00000000
_cell_angle_gamma   90.00000000
_symmetry_Int_Tables_number   1
_chemical_formula_structural   CsZr2Al(PO4)4
_chemical_formula_sum   'Cs4 Zr8 Al4 P16 O64'
_cell_volume   1547.47362329
_cell_formula_units_Z   4
loop_
 _symmetry_equiv_pos_site_id
 _symmetry_equiv_pos_as_xyz
  1  'x, y, z'
loop_
 _atom_site_type_symbol
 _atom_site_label
 _atom_site_symmetry_multiplicity
 _atom_site_fract_x
 _atom_site_fract_y
 _atom_site_fract_z
 _atom_site_occupancy
  Cs  Cs0  1  0.34734086  0.75015137  0.25000000  1
  Cs  Cs1  1  0.65265914  0.24984863  0.75000000  1
  Cs  Cs2  1  0.34734086  0.74984863  0.75000000  1
  Cs  Cs3  1  0.65265914  0.25015137  0.25000000  1
  Zr  Zr4  1  0.24870013  0.03110244  0.42859714  1
  Zr  Zr5  1  0.75129987  0.96889756  0.92859714  1
  Zr  Zr6  1  0.24870013  0.46889756  0.57140286  1
  Zr  Zr7  1  0.75129987  0.53110244  0.07140286  1
  Zr  Zr8  1  0.75129987  0.96889756  0.57140286  1
  Zr  Zr9  1  0.24870013  0.03110244  0.07140286  1
  Zr  Zr10  1  0.75129987  0.53110244  0.42859714  1
  Zr  Zr11  1  0.24870013  0.46889756  0.92859714  1
  Al  Al12  1  0.80049725  0.89737379  0.25000000  1
  Al  Al13  1  0.19950275  0.10262621  0.75000000  1
  Al  Al14  1  0.80049725  0.60262621  0.75000000  1
  Al  Al15  1  0.19950275  0.39737379  0.25000000  1
  P  P16  1  0.09876948  0.07687873  0.25000000  1
  P  P17  1  0.90123052  0.92312127  0.75000000  1
  P  P18  1  0.09876948  0.42312127  0.75000000  1
  P  P19  1  0.90123052  0.57687873  0.25000000  1
  P  P20  1  0.03498009  0.75000000  0.50000000  1
  P  P21  1  0.96501991  0.25000000  0.00000000  1
  P  P22  1  0.96501991  0.25000000  0.50000000  1
  P  P23  1  0.03498009  0.75000000  0.00000000  1
  P  P24  1  0.60866676  0.87348693  0.39831510  1
  P  P25  1  0.39133324  0.12651307  0.89831510  1
  P  P26  1  0.60866676  0.62651307  0.60168490  1
  P  P27  1  0.39133324  0.37348693  0.10168490  1
  P  P28  1  0.39133324  0.12651307  0.60168490  1
  P  P29  1  0.60866676  0.87348693  0.10168490  1
  P  P30  1  0.39133324  0.37348693  0.39831510  1
  P  P31  1  0.60866676  0.62651307  0.89831510  1
  O  O32  1  0.10343212  0.23846284  0.25000000  1
  O  O33  1  0.89656788  0.76153716  0.75000000  1
  O  O34  1  0.10343212  0.26153716  0.75000000  1
  O  O35  1  0.89656788  0.73846284  0.25000000  1
  O  O36  1  0.92952391  0.03677811  0.25000000  1
  O  O37  1  0.07047609  0.96322189  0.75000000  1
  O  O38  1  0.92952391  0.46322189  0.75000000  1
  O  O39  1  0.07047609  0.53677811  0.25000000  1
  O  O40  1  0.17742163  0.01737558  0.31798635  1
  O  O41  1  0.82257837  0.98262442  0.81798635  1
  O  O42  1  0.17742163  0.48262442  0.68201365  1
  O  O43  1  0.82257837  0.51737558  0.18201365  1
  O  O44  1  0.82257837  0.98262442  0.68201365  1
  O  O45  1  0.17742163  0.01737558  0.18201365  1
  O  O46  1  0.82257837  0.51737558  0.31798635  1
  O  O47  1  0.17742163  0.48262442  0.81798635  1
  O  O48  1  0.06411649  0.16016828  0.44880446  1
  O  O49  1  0.93588351  0.83983172  0.94880446  1
  O  O50  1  0.06411649  0.33983172  0.55119554  1
  O  O51  1  0.93588351  0.66016828  0.05119554  1
  O  O52  1  0.93588351  0.83983172  0.55119554  1
  O  O53  1  0.06411649  0.16016828  0.05119554  1
  O  O54  1  0.93588351  0.66016828  0.44880446  1
  O  O55  1  0.06411649  0.33983172  0.94880446  1
  O  O56  1  0.13509749  0.84749139  0.45315536  1
  O  O57  1  0.86490251  0.15250861  0.95315536  1
  O  O58  1  0.13509749  0.65250861  0.54684464  1
  O  O59  1  0.86490251  0.34749139  0.04684464  1
  O  O60  1  0.86490251  0.15250861  0.54684464  1
  O  O61  1  0.13509749  0.84749139  0.04684464  1
  O  O62  1  0.86490251  0.34749139  0.45315536  1
  O  O63  1  0.13509749  0.65250861  0.95315536  1
  O  O64  1  0.44020676  0.91356947  0.39596099  1
  O  O65  1  0.55979324  0.08643053  0.89596099  1
  O  O66  1  0.44020676  0.58643053  0.60403901  1
  O  O67  1  0.55979324  0.41356947  0.10403901  1
  O  O68  1  0.55979324  0.08643053  0.60403901  1
  O  O69  1  0.44020676  0.91356947  0.10403901  1
  O  O70  1  0.55979324  0.41356947  0.39596099  1
  O  O71  1  0.44020676  0.58643053  0.89596099  1
  O  O72  1  0.68584066  0.94744893  0.46275412  1
  O  O73  1  0.31415934  0.05255107  0.96275412  1
  O  O74  1  0.68584066  0.55255107  0.53724588  1
  O  O75  1  0.31415934  0.44744893  0.03724588  1
  O  O76  1  0.31415934  0.05255107  0.53724588  1
  O  O77  1  0.68584066  0.94744893  0.03724588  1
  O  O78  1  0.31415934  0.44744893  0.46275412  1
  O  O79  1  0.68584066  0.55255107  0.96275412  1
  O  O80  1  0.62458473  0.71357755  0.40193706  1
  O  O81  1  0.37541527  0.28642245  0.90193706  1
  O  O82  1  0.62458473  0.78642245  0.59806294  1
  O  O83  1  0.37541527  0.21357755  0.09806294  1
  O  O84  1  0.37541527  0.28642245  0.59806294  1
  O  O85  1  0.62458473  0.71357755  0.09806294  1
  O  O86  1  0.37541527  0.21357755  0.40193706  1
  O  O87  1  0.62458473  0.78642245  0.90193706  1
  O  O88  1  0.68132524  0.92508292  0.32529096  1
  O  O89  1  0.31867476  0.07491708  0.82529096  1
  O  O90  1  0.68132524  0.57491708  0.67470904  1
  O  O91  1  0.31867476  0.42508292  0.17470904  1
  O  O92  1  0.31867476  0.07491708  0.67470904  1
  O  O93  1  0.68132524  0.92508292  0.17470904  1
  O  O94  1  0.31867476  0.42508292  0.32529096  1
  O  O95  1  0.68132524  0.57491708  0.82529096  1
