# generated using pymatgen
data_ThCoSi
_symmetry_space_group_name_H-M   'P 1'
_cell_length_a   4.09136460
_cell_length_b   4.09136460
_cell_length_c   7.42939281
_cell_angle_alpha   105.98286485
_cell_angle_beta   105.98286485
_cell_angle_gamma   90.00000000
_symmetry_Int_Tables_number   1
_chemical_formula_structural   ThCoSi
_chemical_formula_sum   'Th2 Co2 Si2'
_cell_volume   114.54629190
_cell_formula_units_Z   2
loop_
 _symmetry_equiv_pos_site_id
 _symmetry_equiv_pos_as_xyz
  1  'x, y, z'
loop_
 _atom_site_type_symbol
 _atom_site_label
 _atom_site_symmetry_multiplicity
 _atom_site_fract_x
 _atom_site_fract_y
 _atom_site_fract_z
 _atom_site_occupancy
  Th  Th0  1  0.57720903  0.57720903  0.15441807  1
  Th  Th1  1  0.82720903  0.32720903  0.65441807  1
  Co  Co2  1  0.17023576  0.17023576  0.34047153  1
  Co  Co3  1  0.42023576  0.92023576  0.84047153  1
  Si  Si4  1  0.99955520  0.99955520  0.99911040  1
  Si  Si5  1  0.24955520  0.74955520  0.49911040  1
