# generated using pymatgen
data_SrHBrO
_symmetry_space_group_name_H-M   'P 1'
_cell_length_a   4.33857751
_cell_length_b   5.95057685
_cell_length_c   7.43683795
_cell_angle_alpha   105.60346591
_cell_angle_beta   90.00000000
_cell_angle_gamma   111.37995330
_symmetry_Int_Tables_number   1
_chemical_formula_structural   SrHBrO
_chemical_formula_sum   'Sr2 H2 Br2 O2'
_cell_volume   171.16341097
_cell_formula_units_Z   2
loop_
 _symmetry_equiv_pos_site_id
 _symmetry_equiv_pos_as_xyz
  1  'x, y, z'
loop_
 _atom_site_type_symbol
 _atom_site_label
 _atom_site_symmetry_multiplicity
 _atom_site_fract_x
 _atom_site_fract_y
 _atom_site_fract_z
 _atom_site_occupancy
  Sr  Sr0  1  0.30165702  0.60331405  0.72379588  1
  Sr  Sr1  1  0.69834298  0.39668595  0.27620412  1
  H  H2  1  0.05604962  0.11209924  0.38103092  1
  H  H3  1  0.94395038  0.88790076  0.61896908  1
  Br  Br4  1  0.38809911  0.77619821  0.17342484  1
  Br  Br5  1  0.61190089  0.22380179  0.82657516  1
  O  O6  1  0.14699952  0.29399905  0.40401743  1
  O  O7  1  0.85300048  0.70600095  0.59598257  1
