# generated using pymatgen
data_K2CS2(O3F)2
_symmetry_space_group_name_H-M   'P 1'
_cell_length_a   6.15339779
_cell_length_b   10.09605026
_cell_length_c   14.80187320
_cell_angle_alpha   110.01110664
_cell_angle_beta   90.00000000
_cell_angle_gamma   90.00000000
_symmetry_Int_Tables_number   1
_chemical_formula_structural   K2CS2(O3F)2
_chemical_formula_sum   'K8 C4 S8 O24 F8'
_cell_volume   864.04893747
_cell_formula_units_Z   4
loop_
 _symmetry_equiv_pos_site_id
 _symmetry_equiv_pos_as_xyz
  1  'x, y, z'
loop_
 _atom_site_type_symbol
 _atom_site_label
 _atom_site_symmetry_multiplicity
 _atom_site_fract_x
 _atom_site_fract_y
 _atom_site_fract_z
 _atom_site_occupancy
  K  K0  1  0.27559188  0.95956607  0.66503360  1
  K  K1  1  0.26889152  0.72247046  0.34578679  1
  K  K2  1  0.73110848  0.27752954  0.65421321  1
  K  K3  1  0.76889152  0.27752954  0.15421321  1
  K  K4  1  0.22440812  0.95956607  0.16503360  1
  K  K5  1  0.23110848  0.72247046  0.84578679  1
  K  K6  1  0.72440812  0.04043393  0.33496640  1
  K  K7  1  0.77559188  0.04043393  0.83496640  1
  C  C8  1  0.30047553  0.30834504  0.44823771  1
  C  C9  1  0.69952447  0.69165496  0.55176229  1
  C  C10  1  0.19952447  0.30834504  0.94823771  1
  C  C11  1  0.80047553  0.69165496  0.05176229  1
  S  S12  1  0.21249469  0.14568434  0.47293998  1
  S  S13  1  0.74133823  0.69860638  0.67929657  1
  S  S14  1  0.25866177  0.30139362  0.32070343  1
  S  S15  1  0.24133823  0.30139362  0.82070343  1
  S  S16  1  0.78750531  0.85431566  0.52706002  1
  S  S17  1  0.75866177  0.69860638  0.17929657  1
  S  S18  1  0.28750531  0.14568434  0.97293998  1
  S  S19  1  0.71249469  0.85431566  0.02706002  1
  O  O20  1  0.95435248  0.76624234  0.70665582  1
  O  O21  1  0.15968449  0.15036869  0.05722126  1
  O  O22  1  0.94066115  0.78698294  0.23106150  1
  O  O23  1  0.97846121  0.16416202  0.49045938  1
  O  O24  1  0.76935503  0.97052034  0.11549688  1
  O  O25  1  0.04564752  0.23375766  0.29334418  1
  O  O26  1  0.84031551  0.84963131  0.94277874  1
  O  O27  1  0.34031551  0.15036869  0.55722126  1
  O  O28  1  0.45435248  0.23375766  0.79334418  1
  O  O29  1  0.65968449  0.84963131  0.44277874  1
  O  O30  1  0.73064497  0.97052034  0.61549688  1
  O  O31  1  0.23064662  0.44706507  0.82452355  1
  O  O32  1  0.54564752  0.76624234  0.20665582  1
  O  O33  1  0.52153879  0.16416202  0.99045938  1
  O  O34  1  0.47846121  0.83583798  0.00954062  1
  O  O35  1  0.26935338  0.44706507  0.32452355  1
  O  O36  1  0.76935338  0.55293493  0.17547645  1
  O  O37  1  0.73064662  0.55293493  0.67547645  1
  O  O38  1  0.05933885  0.21301706  0.76893850  1
  O  O39  1  0.23064497  0.02947966  0.88450312  1
  O  O40  1  0.26935503  0.02947966  0.38450312  1
  O  O41  1  0.55933885  0.78698294  0.73106150  1
  O  O42  1  0.44066115  0.21301706  0.26893850  1
  O  O43  1  0.02153879  0.83583798  0.50954062  1
  F  F44  1  0.97958155  0.32562507  0.96728643  1
  F  F45  1  0.52041845  0.32562507  0.46728643  1
  F  F46  1  0.80383345  0.57828175  0.48980622  1
  F  F47  1  0.02041845  0.67437493  0.03271357  1
  F  F48  1  0.19616655  0.42171825  0.51019378  1
  F  F49  1  0.30383345  0.42171825  0.01019378  1
  F  F50  1  0.69616655  0.57828175  0.98980622  1
  F  F51  1  0.47958155  0.67437493  0.53271357  1
