# generated using pymatgen
data_Y3TaO7
_symmetry_space_group_name_H-M   'P 1'
_cell_length_a   6.52080081
_cell_length_b   6.52080081
_cell_length_c   7.48653683
_cell_angle_alpha   90.00000000
_cell_angle_beta   90.00000000
_cell_angle_gamma   108.54361858
_symmetry_Int_Tables_number   1
_chemical_formula_structural   Y3TaO7
_chemical_formula_sum   'Y6 Ta2 O14'
_cell_volume   301.80654448
_cell_formula_units_Z   2
loop_
 _symmetry_equiv_pos_site_id
 _symmetry_equiv_pos_as_xyz
  1  'x, y, z'
loop_
 _atom_site_type_symbol
 _atom_site_label
 _atom_site_symmetry_multiplicity
 _atom_site_fract_x
 _atom_site_fract_y
 _atom_site_fract_z
 _atom_site_occupancy
  O  O0  1  0.93287811  0.06712189  0.50000000  1
  O  O1  1  0.06712189  0.93287811  0.00000000  1
  O  O2  1  0.35979730  0.64020270  0.00000000  1
  O  O3  1  0.64020270  0.35979730  0.50000000  1
  O  O4  1  0.37143737  0.62856263  0.50000000  1
  O  O5  1  0.62856263  0.37143737  0.00000000  1
  O  O6  1  0.32780999  0.08225785  0.72661517  1
  O  O7  1  0.67219001  0.91774215  0.22661517  1
  O  O8  1  0.30562171  0.04735719  0.29500048  1
  O  O9  1  0.69437829  0.95264281  0.79500048  1
  O  O10  1  0.04735719  0.30562171  0.20499952  1
  O  O11  1  0.95264281  0.69437829  0.70499952  1
  O  O12  1  0.91774215  0.67219001  0.27338483  1
  O  O13  1  0.08225785  0.32780999  0.77338483  1
  Y  Y14  1  0.99969269  0.53498695  0.99062830  1
  Y  Y15  1  0.00030731  0.46501305  0.49062830  1
  Y  Y16  1  0.53498695  0.99969269  0.50937170  1
  Y  Y17  1  0.46501305  0.00030731  0.00937170  1
  Y  Y18  1  0.46144004  0.46144004  0.75000000  1
  Y  Y19  1  0.53855996  0.53855996  0.25000000  1
  Ta  Ta20  1  0.99786417  0.99786417  0.75000000  1
  Ta  Ta21  1  0.00213583  0.00213583  0.25000000  1
