# generated using pymatgen
data_AgBrO3
_symmetry_space_group_name_H-M   'P 1'
_cell_length_a   4.46487689
_cell_length_b   4.46487755
_cell_length_c   4.46487701
_cell_angle_alpha   80.35370086
_cell_angle_beta   80.35369517
_cell_angle_gamma   80.35369181
_symmetry_Int_Tables_number   1
_chemical_formula_structural   AgBrO3
_chemical_formula_sum   'Ag1 Br1 O3'
_cell_volume   85.61316371
_cell_formula_units_Z   1
loop_
 _symmetry_equiv_pos_site_id
 _symmetry_equiv_pos_as_xyz
  1  'x, y, z'
loop_
 _atom_site_type_symbol
 _atom_site_label
 _atom_site_symmetry_multiplicity
 _atom_site_fract_x
 _atom_site_fract_y
 _atom_site_fract_z
 _atom_site_occupancy
  Ag  Ag0  1  0.94409825  0.94409825  0.94409825  1
  Br  Br1  1  0.49358195  0.49358195  0.49358195  1
  O  O2  1  0.10573781  0.57067450  0.57067450  1
  O  O3  1  0.57067450  0.10573781  0.57067450  1
  O  O4  1  0.57067450  0.57067450  0.10573781  1
