# generated using pymatgen
data_Rb2Be3Cd2F12
_symmetry_space_group_name_H-M   'P 1'
_cell_length_a   10.61965038
_cell_length_b   10.61965038
_cell_length_c   10.61965038
_cell_angle_alpha   90.00000000
_cell_angle_beta   90.00000000
_cell_angle_gamma   90.00000000
_symmetry_Int_Tables_number   1
_chemical_formula_structural   Rb2Be3Cd2F12
_chemical_formula_sum   'Rb8 Be12 Cd8 F48'
_cell_volume   1197.65203685
_cell_formula_units_Z   4
loop_
 _symmetry_equiv_pos_site_id
 _symmetry_equiv_pos_as_xyz
  1  'x, y, z'
loop_
 _atom_site_type_symbol
 _atom_site_label
 _atom_site_symmetry_multiplicity
 _atom_site_fract_x
 _atom_site_fract_y
 _atom_site_fract_z
 _atom_site_occupancy
  Be  Be0  1  0.62459704  0.47435185  0.26193010  1
  Be  Be1  1  0.87540296  0.52564815  0.76193010  1
  Be  Be2  1  0.37540296  0.97435185  0.23806990  1
  Be  Be3  1  0.12459704  0.02564815  0.73806990  1
  Be  Be4  1  0.97435185  0.23806990  0.37540296  1
  Be  Be5  1  0.73806990  0.12459704  0.02564815  1
  Be  Be6  1  0.23806990  0.37540296  0.97435185  1
  Be  Be7  1  0.52564815  0.76193010  0.87540296  1
  Be  Be8  1  0.76193010  0.87540296  0.52564815  1
  Be  Be9  1  0.02564815  0.73806990  0.12459704  1
  Be  Be10  1  0.47435185  0.26193010  0.62459704  1
  Be  Be11  1  0.26193010  0.62459704  0.47435185  1
  F  F12  1  0.39759225  0.66686465  0.51147374  1
  F  F13  1  0.42973494  0.83724843  0.24054660  1
  F  F14  1  0.07026506  0.16275157  0.74054660  1
  F  F15  1  0.83724843  0.24054660  0.42973494  1
  F  F16  1  0.97556853  0.43102967  0.70995391  1
  F  F17  1  0.52443147  0.56897033  0.20995391  1
  F  F18  1  0.20995391  0.52443147  0.56897033  1
  F  F19  1  0.56897033  0.20995391  0.52443147  1
  F  F20  1  0.93102967  0.79004609  0.02443147  1
  F  F21  1  0.70995391  0.97556853  0.43102967  1
  F  F22  1  0.43102967  0.70995391  0.97556853  1
  F  F23  1  0.29004609  0.47556853  0.06897033  1
  F  F24  1  0.79004609  0.02443147  0.93102967  1
  F  F25  1  0.06897033  0.29004609  0.47556853  1
  F  F26  1  0.02443147  0.93102967  0.79004609  1
  F  F27  1  0.47556853  0.06897033  0.29004609  1
  F  F28  1  0.66686465  0.51147374  0.39759225  1
  F  F29  1  0.92973494  0.66275157  0.75945340  1
  F  F30  1  0.51147374  0.39759225  0.66686465  1
  F  F31  1  0.98852626  0.60240775  0.16686465  1
  F  F32  1  0.89759225  0.83313535  0.48852626  1
  F  F33  1  0.48852626  0.89759225  0.83313535  1
  F  F34  1  0.10240775  0.33313535  0.01147374  1
  F  F35  1  0.60240775  0.16686465  0.98852626  1
  F  F36  1  0.01147374  0.10240775  0.33313535  1
  F  F37  1  0.16686465  0.98852626  0.60240775  1
  F  F38  1  0.33313535  0.01147374  0.10240775  1
  F  F39  1  0.83313535  0.48852626  0.89759225  1
  F  F40  1  0.73919343  0.48506875  0.17011138  1
  F  F41  1  0.17011138  0.73919343  0.48506875  1
  F  F42  1  0.48506875  0.17011138  0.73919343  1
  F  F43  1  0.01493125  0.82988862  0.23919343  1
  F  F44  1  0.67011138  0.76080657  0.51493125  1
  F  F45  1  0.51493125  0.67011138  0.76080657  1
  F  F46  1  0.32988862  0.26080657  0.98506875  1
  F  F47  1  0.82988862  0.23919343  0.01493125  1
  F  F48  1  0.98506875  0.32988862  0.26080657  1
  F  F49  1  0.23919343  0.01493125  0.82988862  1
  F  F50  1  0.26080657  0.98506875  0.32988862  1
  F  F51  1  0.76080657  0.51493125  0.67011138  1
  F  F52  1  0.57026506  0.33724843  0.25945340  1
  F  F53  1  0.25945340  0.57026506  0.33724843  1
  F  F54  1  0.33724843  0.25945340  0.57026506  1
  F  F55  1  0.16275157  0.74054660  0.07026506  1
  F  F56  1  0.75945340  0.92973494  0.66275157  1
  F  F57  1  0.74054660  0.07026506  0.16275157  1
  F  F58  1  0.24054660  0.42973494  0.83724843  1
  F  F59  1  0.66275157  0.75945340  0.92973494  1
  Rb  Rb60  1  0.05698847  0.05698847  0.05698847  1
  Rb  Rb61  1  0.44301153  0.94301153  0.55698847  1
  Rb  Rb62  1  0.55698847  0.44301153  0.94301153  1
  Rb  Rb63  1  0.94301153  0.55698847  0.44301153  1
  Rb  Rb64  1  0.29654578  0.29654578  0.29654578  1
  Rb  Rb65  1  0.20345422  0.70345422  0.79654578  1
  Rb  Rb66  1  0.79654578  0.20345422  0.70345422  1
  Rb  Rb67  1  0.70345422  0.79654578  0.20345422  1
  Cd  Cd68  1  0.57906006  0.57906006  0.57906006  1
  Cd  Cd69  1  0.92093994  0.42093994  0.07906006  1
  Cd  Cd70  1  0.07906006  0.92093994  0.42093994  1
  Cd  Cd71  1  0.42093994  0.07906006  0.92093994  1
  Cd  Cd72  1  0.83765053  0.83765053  0.83765053  1
  Cd  Cd73  1  0.66234947  0.16234947  0.33765053  1
  Cd  Cd74  1  0.33765053  0.66234947  0.16234947  1
  Cd  Cd75  1  0.16234947  0.33765053  0.66234947  1
