# generated using pymatgen
data_Ba4TiP4
_symmetry_space_group_name_H-M   'P 1'
_cell_length_a   13.27730352
_cell_length_b   13.27730352
_cell_length_c   13.27730352
_cell_angle_alpha   90.00000000
_cell_angle_beta   90.00000000
_cell_angle_gamma   90.00000000
_symmetry_Int_Tables_number   1
_chemical_formula_structural   Ba4TiP4
_chemical_formula_sum   'Ba32 Ti8 P32'
_cell_volume   2340.61320096
_cell_formula_units_Z   8
loop_
 _symmetry_equiv_pos_site_id
 _symmetry_equiv_pos_as_xyz
  1  'x, y, z'
loop_
 _atom_site_type_symbol
 _atom_site_label
 _atom_site_symmetry_multiplicity
 _atom_site_fract_x
 _atom_site_fract_y
 _atom_site_fract_z
 _atom_site_occupancy
  P  P0  1  0.89540413  0.89540413  0.89540413  1
  P  P1  1  0.60459587  0.39540413  0.60459587  1
  P  P2  1  0.39540413  0.60459587  0.60459587  1
  P  P3  1  0.60459587  0.60459587  0.39540413  1
  P  P4  1  0.89540413  0.10459587  0.10459587  1
  P  P5  1  0.10459587  0.10459587  0.89540413  1
  P  P6  1  0.10459587  0.89540413  0.10459587  1
  P  P7  1  0.39540413  0.39540413  0.39540413  1
  P  P8  1  0.64998353  0.89634263  0.61050054  1
  P  P9  1  0.64998353  0.10365737  0.38949946  1
  P  P10  1  0.89634263  0.61050054  0.64998353  1
  P  P11  1  0.10365737  0.61050054  0.35001647  1
  P  P12  1  0.61050054  0.64998353  0.89634263  1
  P  P13  1  0.38949946  0.35001647  0.89634263  1
  P  P14  1  0.85001647  0.88949946  0.39634263  1
  P  P15  1  0.85001647  0.11050054  0.60365737  1
  P  P16  1  0.14998353  0.88949946  0.60365737  1
  P  P17  1  0.11050054  0.60365737  0.85001647  1
  P  P18  1  0.60365737  0.14998353  0.88949946  1
  P  P19  1  0.60365737  0.85001647  0.11050054  1
  P  P20  1  0.88949946  0.39634263  0.85001647  1
  P  P21  1  0.39634263  0.85001647  0.88949946  1
  P  P22  1  0.88949946  0.60365737  0.14998353  1
  P  P23  1  0.11050054  0.39634263  0.14998353  1
  P  P24  1  0.39634263  0.14998353  0.11050054  1
  P  P25  1  0.38949946  0.64998353  0.10365737  1
  P  P26  1  0.61050054  0.35001647  0.10365737  1
  P  P27  1  0.89634263  0.38949946  0.35001647  1
  P  P28  1  0.10365737  0.38949946  0.64998353  1
  P  P29  1  0.35001647  0.10365737  0.61050054  1
  P  P30  1  0.35001647  0.89634263  0.38949946  1
  P  P31  1  0.14998353  0.11050054  0.39634263  1
  Ti  Ti32  1  0.50000000  0.50000000  0.50000000  1
  Ti  Ti33  1  0.00000000  0.00000000  0.00000000  1
  Ti  Ti34  1  0.75000000  0.00000000  0.50000000  1
  Ti  Ti35  1  0.50000000  0.75000000  0.00000000  1
  Ti  Ti36  1  0.50000000  0.25000000  0.00000000  1
  Ti  Ti37  1  0.00000000  0.50000000  0.25000000  1
  Ti  Ti38  1  0.00000000  0.50000000  0.75000000  1
  Ti  Ti39  1  0.25000000  0.00000000  0.50000000  1
  Ba  Ba40  1  0.14928026  0.14928026  0.14928026  1
  Ba  Ba41  1  0.35071974  0.64928026  0.35071974  1
  Ba  Ba42  1  0.64928026  0.35071974  0.35071974  1
  Ba  Ba43  1  0.35071974  0.35071974  0.64928026  1
  Ba  Ba44  1  0.14928026  0.85071974  0.85071974  1
  Ba  Ba45  1  0.85071974  0.85071974  0.14928026  1
  Ba  Ba46  1  0.85071974  0.14928026  0.85071974  1
  Ba  Ba47  1  0.64928026  0.64928026  0.64928026  1
  Ba  Ba48  1  0.90878309  0.86351569  0.64908968  1
  Ba  Ba49  1  0.90878309  0.13648431  0.35091032  1
  Ba  Ba50  1  0.86351569  0.64908968  0.90878309  1
  Ba  Ba51  1  0.13648431  0.64908968  0.09121691  1
  Ba  Ba52  1  0.64908968  0.90878309  0.86351569  1
  Ba  Ba53  1  0.35091032  0.09121691  0.86351569  1
  Ba  Ba54  1  0.59121691  0.85091032  0.36351569  1
  Ba  Ba55  1  0.59121691  0.14908968  0.63648431  1
  Ba  Ba56  1  0.40878309  0.85091032  0.63648431  1
  Ba  Ba57  1  0.14908968  0.63648431  0.59121691  1
  Ba  Ba58  1  0.63648431  0.40878309  0.85091032  1
  Ba  Ba59  1  0.63648431  0.59121691  0.14908968  1
  Ba  Ba60  1  0.85091032  0.36351569  0.59121691  1
  Ba  Ba61  1  0.36351569  0.59121691  0.85091032  1
  Ba  Ba62  1  0.85091032  0.63648431  0.40878309  1
  Ba  Ba63  1  0.14908968  0.36351569  0.40878309  1
  Ba  Ba64  1  0.36351569  0.40878309  0.14908968  1
  Ba  Ba65  1  0.35091032  0.90878309  0.13648431  1
  Ba  Ba66  1  0.64908968  0.09121691  0.13648431  1
  Ba  Ba67  1  0.86351569  0.35091032  0.09121691  1
  Ba  Ba68  1  0.13648431  0.35091032  0.90878309  1
  Ba  Ba69  1  0.09121691  0.13648431  0.64908968  1
  Ba  Ba70  1  0.09121691  0.86351569  0.35091032  1
  Ba  Ba71  1  0.40878309  0.14908968  0.36351569  1
