# generated using pymatgen
data_CdCu2SiTe4
_symmetry_space_group_name_H-M   'P 1'
_cell_length_a   6.16885145
_cell_length_b   6.16885145
_cell_length_c   7.43453560
_cell_angle_alpha   114.51163768
_cell_angle_beta   114.51163768
_cell_angle_gamma   90.00000000
_symmetry_Int_Tables_number   1
_chemical_formula_structural   CdCu2SiTe4
_chemical_formula_sum   'Cd1 Cu2 Si1 Te4'
_cell_volume   229.10386222
_cell_formula_units_Z   1
loop_
 _symmetry_equiv_pos_site_id
 _symmetry_equiv_pos_as_xyz
  1  'x, y, z'
loop_
 _atom_site_type_symbol
 _atom_site_label
 _atom_site_symmetry_multiplicity
 _atom_site_fract_x
 _atom_site_fract_y
 _atom_site_fract_z
 _atom_site_occupancy
  Cd  Cd0  1  0.00000000  0.00000000  0.00000000  1
  Cu  Cu1  1  0.75000000  0.25000000  0.50000000  1
  Cu  Cu2  1  0.25000000  0.75000000  0.50000000  1
  Si  Si3  1  0.50000000  0.50000000  -0.00000000  1
  Te  Te4  1  0.86478510  0.86478510  0.26875890  1
  Te  Te5  1  0.40397380  0.40397380  0.26875890  1
  Te  Te6  1  0.13521490  0.59602620  0.73124110  1
  Te  Te7  1  0.59602620  0.13521490  0.73124110  1
