# generated using pymatgen
data_CsK2Yb(PO4)2
_symmetry_space_group_name_H-M   'P 1'
_cell_length_a   5.82578795
_cell_length_b   5.82578795
_cell_length_c   7.81361326
_cell_angle_alpha   90.00000000
_cell_angle_beta   90.00000000
_cell_angle_gamma   120.00000005
_symmetry_Int_Tables_number   1
_chemical_formula_structural   CsK2Yb(PO4)2
_chemical_formula_sum   'Cs1 K2 Yb1 P2 O8'
_cell_volume   229.66345242
_cell_formula_units_Z   1
loop_
 _symmetry_equiv_pos_site_id
 _symmetry_equiv_pos_as_xyz
  1  'x, y, z'
loop_
 _atom_site_type_symbol
 _atom_site_label
 _atom_site_symmetry_multiplicity
 _atom_site_fract_x
 _atom_site_fract_y
 _atom_site_fract_z
 _atom_site_occupancy
  O  O0  1  0.66666667  0.33333333  0.43344189  1
  O  O1  1  0.33333333  0.66666667  0.56655811  1
  O  O2  1  0.81198094  0.18801906  0.16832369  1
  O  O3  1  0.81198094  0.62396188  0.16832369  1
  O  O4  1  0.37603812  0.18801906  0.16832369  1
  O  O5  1  0.62396188  0.81198094  0.83167631  1
  O  O6  1  0.18801906  0.81198094  0.83167631  1
  O  O7  1  0.18801906  0.37603812  0.83167631  1
  P  P8  1  0.33333333  0.66666667  0.76474067  1
  P  P9  1  0.66666667  0.33333333  0.23525933  1
  K  K10  1  0.66666667  0.33333333  0.79047964  1
  K  K11  1  0.33333333  0.66666667  0.20952036  1
  Cs  Cs12  1  0.00000000  0.00000000  0.50000000  1
  Yb  Yb13  1  0.00000000  0.00000000  0.00000000  1
