# generated using pymatgen
data_KAg2
_symmetry_space_group_name_H-M   'P 1'
_cell_length_a   5.91216028
_cell_length_b   5.91216029
_cell_length_c   10.06626001
_cell_angle_alpha   90.00000000
_cell_angle_beta   90.00000000
_cell_angle_gamma   119.99999997
_symmetry_Int_Tables_number   1
_chemical_formula_structural   KAg2
_chemical_formula_sum   'K4 Ag8'
_cell_volume   304.71313469
_cell_formula_units_Z   4
loop_
 _symmetry_equiv_pos_site_id
 _symmetry_equiv_pos_as_xyz
  1  'x, y, z'
loop_
 _atom_site_type_symbol
 _atom_site_label
 _atom_site_symmetry_multiplicity
 _atom_site_fract_x
 _atom_site_fract_y
 _atom_site_fract_z
 _atom_site_occupancy
  K  K0  1  0.33333333  0.66666667  0.06135646  1
  K  K1  1  0.66666667  0.33333333  0.56135646  1
  K  K2  1  0.66666667  0.33333333  0.93864354  1
  K  K3  1  0.33333333  0.66666667  0.43864354  1
  Ag  Ag4  1  0.00000000  0.00000000  0.00000000  1
  Ag  Ag5  1  0.00000000  0.00000000  0.50000000  1
  Ag  Ag6  1  0.83488306  0.66976613  0.25000000  1
  Ag  Ag7  1  0.16511694  0.83488306  0.75000000  1
  Ag  Ag8  1  0.66976613  0.83488306  0.75000000  1
  Ag  Ag9  1  0.33023387  0.16511694  0.25000000  1
  Ag  Ag10  1  0.83488306  0.16511694  0.25000000  1
  Ag  Ag11  1  0.16511694  0.33023387  0.75000000  1
