# generated using pymatgen
data_Rb2Mn2(SO4)3
_symmetry_space_group_name_H-M   'P 1'
_cell_length_a   10.38532474
_cell_length_b   10.38532474
_cell_length_c   10.38532474
_cell_angle_alpha   90.00000000
_cell_angle_beta   90.00000000
_cell_angle_gamma   90.00000000
_symmetry_Int_Tables_number   1
_chemical_formula_structural   Rb2Mn2(SO4)3
_chemical_formula_sum   'Rb8 Mn8 S12 O48'
_cell_volume   1120.10888781
_cell_formula_units_Z   4
loop_
 _symmetry_equiv_pos_site_id
 _symmetry_equiv_pos_as_xyz
  1  'x, y, z'
loop_
 _atom_site_type_symbol
 _atom_site_label
 _atom_site_symmetry_multiplicity
 _atom_site_fract_x
 _atom_site_fract_y
 _atom_site_fract_z
 _atom_site_occupancy
  O  O0  1  0.65158951  0.00208327  0.59549337  1
  O  O1  1  0.15158978  0.49791647  0.40450706  1
  O  O2  1  0.34841092  0.50208397  0.90450680  1
  O  O3  1  0.49791647  0.40450706  0.15158978  1
  O  O4  1  0.90450680  0.34841092  0.50208397  1
  O  O5  1  0.40450706  0.15158978  0.49791647  1
  O  O6  1  0.00208327  0.59549337  0.65158951  1
  O  O7  1  0.59549337  0.65158951  0.00208327  1
  O  O8  1  0.50208397  0.90450680  0.34841092  1
  O  O9  1  0.99791620  0.09549364  0.84841066  1
  O  O10  1  0.09549364  0.84841066  0.99791620  1
  O  O11  1  0.84841066  0.99791620  0.09549364  1
  O  O12  1  0.58192875  0.83161210  0.74257028  1
  O  O13  1  0.08192901  0.66838807  0.25742920  1
  O  O14  1  0.41807169  0.33161140  0.75742990  1
  O  O15  1  0.66838807  0.25742920  0.08192901  1
  O  O16  1  0.75742990  0.41807169  0.33161140  1
  O  O17  1  0.25742920  0.08192901  0.66838807  1
  O  O18  1  0.71156963  0.47442334  0.55321560  1
  O  O19  1  0.74257028  0.58192875  0.83161210  1
  O  O20  1  0.33161140  0.75742990  0.41807169  1
  O  O21  1  0.16838833  0.24257054  0.91807143  1
  O  O22  1  0.24257054  0.91807143  0.16838833  1
  O  O23  1  0.91807143  0.16838833  0.24257054  1
  O  O24  1  0.52557613  0.05321586  0.78843054  1
  O  O25  1  0.02557640  0.44678484  0.21156990  1
  O  O26  1  0.47442334  0.55321560  0.71156963  1
  O  O27  1  0.44678484  0.21156990  0.02557640  1
  O  O28  1  0.75300126  0.01197779  0.30679505  1
  O  O29  1  0.30679505  0.75300126  0.01197779  1
  O  O30  1  0.01197779  0.30679505  0.75300126  1
  O  O31  1  0.48802195  0.69320539  0.25300153  1
  O  O32  1  0.80679478  0.74699891  0.98802168  1
  O  O33  1  0.98802168  0.80679478  0.74699891  1
  O  O34  1  0.19320469  0.24699821  0.51197849  1
  O  O35  1  0.69320539  0.25300153  0.48802195  1
  O  O36  1  0.51197849  0.19320469  0.24699821  1
  O  O37  1  0.25300153  0.48802195  0.69320539  1
  O  O38  1  0.24699821  0.51197849  0.19320469  1
  O  O39  1  0.74699891  0.98802168  0.80679478  1
  O  O40  1  0.97442404  0.94678458  0.28842984  1
  O  O41  1  0.28842984  0.97442404  0.94678458  1
  O  O42  1  0.94678458  0.28842984  0.97442404  1
  O  O43  1  0.55321560  0.71156963  0.47442334  1
  O  O44  1  0.78843054  0.52557613  0.05321586  1
  O  O45  1  0.05321586  0.78843054  0.52557613  1
  O  O46  1  0.21156990  0.02557640  0.44678484  1
  O  O47  1  0.83161210  0.74257028  0.58192875  1
  S  S48  1  0.62599510  0.96809591  0.73177841  1
  S  S49  1  0.12599537  0.53190426  0.26822203  1
  S  S50  1  0.37400534  0.46809617  0.76822176  1
  S  S51  1  0.53190426  0.26822203  0.12599537  1
  S  S52  1  0.76822176  0.37400534  0.46809617  1
  S  S53  1  0.26822203  0.12599537  0.53190426  1
  S  S54  1  0.96809591  0.73177841  0.62599510  1
  S  S55  1  0.73177841  0.62599510  0.96809591  1
  S  S56  1  0.46809617  0.76822176  0.37400534  1
  S  S57  1  0.03190453  0.23177867  0.87400507  1
  S  S58  1  0.23177867  0.87400507  0.03190453  1
  S  S59  1  0.87400507  0.03190453  0.23177867  1
  Mn  Mn60  1  0.91471105  0.91471105  0.91471105  1
  Mn  Mn61  1  0.58528912  0.08528939  0.41471131  1
  Mn  Mn62  1  0.08528939  0.41471131  0.58528912  1
  Mn  Mn63  1  0.41471131  0.58528912  0.08528939  1
  Mn  Mn64  1  0.65404663  0.65404663  0.65404663  1
  Mn  Mn65  1  0.15404593  0.84595354  0.34595380  1
  Mn  Mn66  1  0.84595354  0.34595380  0.15404593  1
  Mn  Mn67  1  0.34595380  0.15404593  0.84595354  1
  Rb  Rb68  1  0.79913763  0.70086254  0.29913790  1
  Rb  Rb69  1  0.70086254  0.29913790  0.79913763  1
  Rb  Rb70  1  0.29913790  0.79913763  0.70086254  1
  Rb  Rb71  1  0.20086280  0.20086280  0.20086280  1
  Rb  Rb72  1  0.43390822  0.43390822  0.43390822  1
  Rb  Rb73  1  0.93390796  0.06609152  0.56609222  1
  Rb  Rb74  1  0.06609152  0.56609222  0.93390796  1
  Rb  Rb75  1  0.56609222  0.93390796  0.06609152  1
