# generated using pymatgen
data_K2SnS3
_symmetry_space_group_name_H-M   'P 1'
_cell_length_a   6.89591137
_cell_length_b   7.62231394
_cell_length_c   8.37682325
_cell_angle_alpha   75.57520516
_cell_angle_beta   72.62060068
_cell_angle_gamma   66.58775000
_symmetry_Int_Tables_number   1
_chemical_formula_structural   K2SnS3
_chemical_formula_sum   'K4 Sn2 S6'
_cell_volume   381.31228624
_cell_formula_units_Z   2
loop_
 _symmetry_equiv_pos_site_id
 _symmetry_equiv_pos_as_xyz
  1  'x, y, z'
loop_
 _atom_site_type_symbol
 _atom_site_label
 _atom_site_symmetry_multiplicity
 _atom_site_fract_x
 _atom_site_fract_y
 _atom_site_fract_z
 _atom_site_occupancy
  K  K0  1  0.15014066  0.46053936  0.19324643  1
  K  K1  1  0.84985934  0.53946064  0.80675357  1
  K  K2  1  0.58664088  0.20893799  0.62625058  1
  K  K3  1  0.41335912  0.79106201  0.37374942  1
  Sn  Sn4  1  0.85542098  0.06405518  0.19295554  1
  Sn  Sn5  1  0.14457902  0.93594482  0.80704446  1
  S  S6  1  0.13414076  0.18065982  0.56919202  1
  S  S7  1  0.86585924  0.81934018  0.43080798  1
  S  S8  1  0.65646061  0.39313765  0.21978910  1
  S  S9  1  0.34353939  0.60686235  0.78021090  1
  S  S10  1  0.22656548  0.04513855  0.03011026  1
  S  S11  1  0.77343452  0.95486145  0.96988974  1
