# generated using pymatgen
data_RbSi
_symmetry_space_group_name_H-M   'P 1'
_cell_length_a   13.18716013
_cell_length_b   13.18716013
_cell_length_c   13.18716013
_cell_angle_alpha   90.00000000
_cell_angle_beta   90.00000000
_cell_angle_gamma   90.00000000
_symmetry_Int_Tables_number   1
_chemical_formula_structural   RbSi
_chemical_formula_sum   'Rb32 Si32'
_cell_volume   2293.26286958
_cell_formula_units_Z   32
loop_
 _symmetry_equiv_pos_site_id
 _symmetry_equiv_pos_as_xyz
  1  'x, y, z'
loop_
 _atom_site_type_symbol
 _atom_site_label
 _atom_site_symmetry_multiplicity
 _atom_site_fract_x
 _atom_site_fract_y
 _atom_site_fract_z
 _atom_site_occupancy
  Si  Si0  1  0.56019970  0.92920155  0.81454072  1
  Si  Si1  1  0.56019970  0.07079845  0.18545928  1
  Si  Si2  1  0.92920155  0.81454072  0.56019970  1
  Si  Si3  1  0.07079845  0.81454072  0.43980030  1
  Si  Si4  1  0.81454072  0.56019970  0.92920155  1
  Si  Si5  1  0.18545928  0.43980030  0.92920155  1
  Si  Si6  1  0.93980030  0.68545928  0.42920155  1
  Si  Si7  1  0.93980030  0.31454072  0.57079845  1
  Si  Si8  1  0.06019970  0.68545928  0.57079845  1
  Si  Si9  1  0.31454072  0.57079845  0.93980030  1
  Si  Si10  1  0.57079845  0.06019970  0.68545928  1
  Si  Si11  1  0.57079845  0.93980030  0.31454072  1
  Si  Si12  1  0.68545928  0.42920155  0.93980030  1
  Si  Si13  1  0.42920155  0.93980030  0.68545928  1
  Si  Si14  1  0.68545928  0.57079845  0.06019970  1
  Si  Si15  1  0.06532541  0.06532541  0.06532541  1
  Si  Si16  1  0.42920155  0.06019970  0.31454072  1
  Si  Si17  1  0.18545928  0.56019970  0.07079845  1
  Si  Si18  1  0.81454072  0.43980030  0.07079845  1
  Si  Si19  1  0.92920155  0.18545928  0.43980030  1
  Si  Si20  1  0.07079845  0.18545928  0.56019970  1
  Si  Si21  1  0.43980030  0.07079845  0.81454072  1
  Si  Si22  1  0.43980030  0.92920155  0.18545928  1
  Si  Si23  1  0.06019970  0.31454072  0.42920155  1
  Si  Si24  1  0.56532541  0.56532541  0.56532541  1
  Si  Si25  1  0.93467459  0.06532541  0.93467459  1
  Si  Si26  1  0.06532541  0.93467459  0.93467459  1
  Si  Si27  1  0.93467459  0.93467459  0.06532541  1
  Si  Si28  1  0.56532541  0.43467459  0.43467459  1
  Si  Si29  1  0.43467459  0.43467459  0.56532541  1
  Si  Si30  1  0.43467459  0.56532541  0.43467459  1
  Si  Si31  1  0.31454072  0.42920155  0.06019970  1
  Rb  Rb32  1  0.06607780  0.33730613  0.13984259  1
  Rb  Rb33  1  0.83730613  0.43392220  0.36015741  1
  Rb  Rb34  1  0.56607780  0.63984259  0.83730613  1
  Rb  Rb35  1  0.43392220  0.63984259  0.16269387  1
  Rb  Rb36  1  0.63984259  0.83730613  0.56607780  1
  Rb  Rb37  1  0.36015741  0.16269387  0.56607780  1
  Rb  Rb38  1  0.66269387  0.86015741  0.06607780  1
  Rb  Rb39  1  0.66269387  0.13984259  0.93392220  1
  Rb  Rb40  1  0.33730613  0.86015741  0.93392220  1
  Rb  Rb41  1  0.13984259  0.93392220  0.66269387  1
  Rb  Rb42  1  0.93392220  0.33730613  0.86015741  1
  Rb  Rb43  1  0.93392220  0.66269387  0.13984259  1
  Rb  Rb44  1  0.86015741  0.06607780  0.66269387  1
  Rb  Rb45  1  0.06607780  0.66269387  0.86015741  1
  Rb  Rb46  1  0.86015741  0.93392220  0.33730613  1
  Rb  Rb47  1  0.13984259  0.06607780  0.33730613  1
  Rb  Rb48  1  0.83730613  0.56607780  0.63984259  1
  Rb  Rb49  1  0.36015741  0.83730613  0.43392220  1
  Rb  Rb50  1  0.63984259  0.16269387  0.43392220  1
  Rb  Rb51  1  0.56607780  0.36015741  0.16269387  1
  Rb  Rb52  1  0.43392220  0.36015741  0.83730613  1
  Rb  Rb53  1  0.16269387  0.43392220  0.63984259  1
  Rb  Rb54  1  0.16269387  0.56607780  0.36015741  1
  Rb  Rb55  1  0.33730613  0.13984259  0.06607780  1
  Rb  Rb56  1  0.83387678  0.83387678  0.83387678  1
  Rb  Rb57  1  0.66612322  0.33387678  0.66612322  1
  Rb  Rb58  1  0.33387678  0.66612322  0.66612322  1
  Rb  Rb59  1  0.66612322  0.66612322  0.33387678  1
  Rb  Rb60  1  0.83387678  0.16612322  0.16612322  1
  Rb  Rb61  1  0.16612322  0.16612322  0.83387678  1
  Rb  Rb62  1  0.16612322  0.83387678  0.16612322  1
  Rb  Rb63  1  0.33387678  0.33387678  0.33387678  1
