# generated using pymatgen
data_CrPdO2
_symmetry_space_group_name_H-M   'P 1'
_cell_length_a   3.00990403
_cell_length_b   3.00990403
_cell_length_c   6.31809800
_cell_angle_alpha   76.21984697
_cell_angle_beta   76.21984697
_cell_angle_gamma   60.00000022
_symmetry_Int_Tables_number   1
_chemical_formula_structural   CrPdO2
_chemical_formula_sum   'Cr1 Pd1 O2'
_cell_volume   47.65850403
_cell_formula_units_Z   1
loop_
 _symmetry_equiv_pos_site_id
 _symmetry_equiv_pos_as_xyz
  1  'x, y, z'
loop_
 _atom_site_type_symbol
 _atom_site_label
 _atom_site_symmetry_multiplicity
 _atom_site_fract_x
 _atom_site_fract_y
 _atom_site_fract_z
 _atom_site_occupancy
  Cr  Cr0  1  0.50000000  0.50000000  0.50000000  1
  Pd  Pd1  1  0.00000000  0.00000000  0.00000000  1
  O  O2  1  0.11121441  0.11121441  0.66635677  1
  O  O3  1  0.88878559  0.88878559  0.33364323  1
