# generated using pymatgen
data_AlCr4CuS8
_symmetry_space_group_name_H-M   'P 1'
_cell_length_a   7.05739392
_cell_length_b   7.05739392
_cell_length_c   7.05739392
_cell_angle_alpha   90.00000000
_cell_angle_beta   60.00000000
_cell_angle_gamma   120.00000000
_symmetry_Int_Tables_number   1
_chemical_formula_structural   AlCr4CuS8
_chemical_formula_sum   'Al1 Cr4 Cu1 S8'
_cell_volume   248.55246782
_cell_formula_units_Z   1
loop_
 _symmetry_equiv_pos_site_id
 _symmetry_equiv_pos_as_xyz
  1  'x, y, z'
loop_
 _atom_site_type_symbol
 _atom_site_label
 _atom_site_symmetry_multiplicity
 _atom_site_fract_x
 _atom_site_fract_y
 _atom_site_fract_z
 _atom_site_occupancy
  Al  Al0  1  0.25000000  0.62500000  0.62500000  1
  Cr  Cr1  1  0.49279663  0.48919494  0.00360169  1
  Cr  Cr2  1  0.49279663  0.00360169  0.00360169  1
  Cr  Cr3  1  0.00720337  0.00360169  0.48919494  1
  Cr  Cr4  1  0.00720337  0.00360169  0.00360169  1
  Cu  Cu5  1  0.75000000  0.37500000  0.37500000  1
  S  S6  1  0.01742684  0.77614027  0.24128658  1
  S  S7  1  0.01742684  0.24128658  0.24128658  1
  S  S8  1  0.48257316  0.24128658  0.77614027  1
  S  S9  1  0.48257316  0.24128658  0.24128658  1
  S  S10  1  0.98421622  0.22632433  0.75789189  1
  S  S11  1  0.98421622  0.75789189  0.75789189  1
  S  S12  1  0.51578378  0.75789189  0.22632433  1
  S  S13  1  0.51578378  0.75789189  0.75789189  1
