# generated using pymatgen
data_Ca4ErB3O10
_symmetry_space_group_name_H-M   'P 1'
_cell_length_a   3.54499372
_cell_length_b   8.13096412
_cell_length_c   9.01849778
_cell_angle_alpha   63.20538473
_cell_angle_beta   84.99084876
_cell_angle_gamma   78.83171254
_symmetry_Int_Tables_number   1
_chemical_formula_structural   Ca4ErB3O10
_chemical_formula_sum   'Ca4 Er1 B3 O10'
_cell_volume   227.64546098
_cell_formula_units_Z   1
loop_
 _symmetry_equiv_pos_site_id
 _symmetry_equiv_pos_as_xyz
  1  'x, y, z'
loop_
 _atom_site_type_symbol
 _atom_site_label
 _atom_site_symmetry_multiplicity
 _atom_site_fract_x
 _atom_site_fract_y
 _atom_site_fract_z
 _atom_site_occupancy
  Ca  Ca0  1  0.72271473  0.67159309  0.77602890  1
  Ca  Ca1  1  0.72271473  0.44762199  0.22397110  1
  Ca  Ca2  1  0.05089617  0.12194618  0.63562995  1
  Ca  Ca3  1  0.05089617  0.75757613  0.36437005  1
  Er  Er4  1  0.39728554  0.19790662  0.00000000  1
  B  B5  1  0.09504140  0.82961074  1.00000000  1
  B  B6  1  0.47565958  0.05975564  0.38742726  1
  B  B7  1  0.47565958  0.44718290  0.61257274  1
  O  O8  1  0.47398975  0.97750952  0.28029361  1
  O  O9  1  0.47398975  0.25780313  0.71970639  1
  O  O10  1  0.81960784  0.36650760  0.00000000  1
  O  O11  1  0.14231424  0.81766265  0.85108447  1
  O  O12  1  0.14231424  0.66874712  0.14891553  1
  O  O13  1  0.00065123  0.00437669  1.00000000  1
  O  O14  1  0.66994865  0.96397282  0.53714713  1
  O  O15  1  0.66994865  0.50111995  0.46285287  1
  O  O16  1  0.27863388  0.23883692  0.34493337  1
  O  O17  1  0.27863388  0.58377029  0.65506663  1
