# generated using pymatgen
data_ErHfF7
_symmetry_space_group_name_H-M   'P 1'
_cell_length_a   5.65784009
_cell_length_b   6.05178019
_cell_length_c   8.20801513
_cell_angle_alpha   102.21148344
_cell_angle_beta   90.00000000
_cell_angle_gamma   90.00000000
_symmetry_Int_Tables_number   1
_chemical_formula_structural   ErHfF7
_chemical_formula_sum   'Er2 Hf2 F14'
_cell_volume   274.68347384
_cell_formula_units_Z   2
loop_
 _symmetry_equiv_pos_site_id
 _symmetry_equiv_pos_as_xyz
  1  'x, y, z'
loop_
 _atom_site_type_symbol
 _atom_site_label
 _atom_site_symmetry_multiplicity
 _atom_site_fract_x
 _atom_site_fract_y
 _atom_site_fract_z
 _atom_site_occupancy
  Er  Er0  1  0.69794405  0.65529496  0.68488262  1
  Er  Er1  1  0.19794405  0.34470504  0.31511738  1
  Hf  Hf2  1  0.70821960  0.81147972  0.22378288  1
  Hf  Hf3  1  0.20821960  0.18852028  0.77621712  1
  F  F4  1  0.88802695  0.45176194  0.47658775  1
  F  F5  1  0.38802695  0.54823806  0.52341225  1
  F  F6  1  0.42640148  0.92404316  0.76843574  1
  F  F7  1  0.92640148  0.07595684  0.23156426  1
  F  F8  1  0.94335027  0.96127455  0.76248386  1
  F  F9  1  0.44335027  0.03872545  0.23751614  1
  F  F10  1  0.99455151  0.45661635  0.78855519  1
  F  F11  1  0.49455151  0.54338365  0.21144481  1
  F  F12  1  0.70335959  0.75540496  0.97474828  1
  F  F13  1  0.20335959  0.24459504  0.02525172  1
  F  F14  1  0.71123092  0.86082430  0.47397015  1
  F  F15  1  0.21123092  0.13917570  0.52602985  1
  F  F16  1  0.50327563  0.37989572  0.78314159  1
  F  F17  1  0.00327563  0.62010428  0.21685841  1
