# generated using pymatgen
data_Lu3Ga
_symmetry_space_group_name_H-M   'P 1'
_cell_length_a   6.60652183
_cell_length_b   6.60652247
_cell_length_c   5.23462482
_cell_angle_alpha   90.00000000
_cell_angle_beta   90.00000000
_cell_angle_gamma   120.00000187
_symmetry_Int_Tables_number   1
_chemical_formula_structural   Lu3Ga
_chemical_formula_sum   'Lu6 Ga2'
_cell_volume   197.86180847
_cell_formula_units_Z   2
loop_
 _symmetry_equiv_pos_site_id
 _symmetry_equiv_pos_as_xyz
  1  'x, y, z'
loop_
 _atom_site_type_symbol
 _atom_site_label
 _atom_site_symmetry_multiplicity
 _atom_site_fract_x
 _atom_site_fract_y
 _atom_site_fract_z
 _atom_site_occupancy
  Lu  Lu0  1  0.17183216  0.34366533  0.24999800  1
  Lu  Lu1  1  0.65633367  0.82816684  0.24999800  1
  Lu  Lu2  1  0.17183316  0.82816684  0.24999800  1
  Lu  Lu3  1  0.82816784  0.65633367  0.75000000  1
  Lu  Lu4  1  0.34366633  0.17183116  0.75000000  1
  Lu  Lu5  1  0.82816584  0.17183116  0.75000000  1
  Ga  Ga6  1  0.33333400  0.66666700  0.75000000  1
  Ga  Ga7  1  0.66666700  0.33333300  0.24999800  1
