# generated using pymatgen
data_Pr3Si6N11
_symmetry_space_group_name_H-M   'P 1'
_cell_length_a   4.89904120
_cell_length_b   10.17970713
_cell_length_c   10.17970713
_cell_angle_alpha   90.00000000
_cell_angle_beta   90.00000000
_cell_angle_gamma   90.00000000
_symmetry_Int_Tables_number   1
_chemical_formula_structural   Pr3Si6N11
_chemical_formula_sum   'Pr6 Si12 N22'
_cell_volume   507.67018551
_cell_formula_units_Z   2
loop_
 _symmetry_equiv_pos_site_id
 _symmetry_equiv_pos_as_xyz
  1  'x, y, z'
loop_
 _atom_site_type_symbol
 _atom_site_label
 _atom_site_symmetry_multiplicity
 _atom_site_fract_x
 _atom_site_fract_y
 _atom_site_fract_z
 _atom_site_occupancy
  N  N0  1  0.43112813  0.00000000  0.50000000  1
  N  N1  1  0.43112813  0.50000000  0.00000000  1
  N  N2  1  0.00536594  0.67923242  0.42083062  1
  N  N3  1  0.00536594  0.32076758  0.57916938  1
  N  N4  1  0.00536594  0.42083062  0.32076758  1
  N  N5  1  0.00536594  0.57916938  0.67923242  1
  N  N6  1  0.00536594  0.07916938  0.82076758  1
  N  N7  1  0.00536594  0.17923242  0.07916938  1
  N  N8  1  0.00536594  0.82076758  0.92083062  1
  N  N9  1  0.00536594  0.92083062  0.17923242  1
  N  N10  1  0.06030303  0.34562514  0.84562514  1
  N  N11  1  0.06030303  0.15437486  0.34562514  1
  N  N12  1  0.06030303  0.84562514  0.65437486  1
  N  N13  1  0.06030303  0.65437486  0.15437486  1
  N  N14  1  0.54248848  0.07604410  0.23016083  1
  N  N15  1  0.54248848  0.76983917  0.07604410  1
  N  N16  1  0.54248848  0.23016083  0.92395590  1
  N  N17  1  0.54248848  0.92395590  0.76983917  1
  N  N18  1  0.54248848  0.42395590  0.73016083  1
  N  N19  1  0.54248848  0.57604410  0.26983917  1
  N  N20  1  0.54248848  0.26983917  0.42395590  1
  N  N21  1  0.54248848  0.73016083  0.57604410  1
  Si  Si22  1  0.40566058  0.61727432  0.11727432  1
  Si  Si23  1  0.40566058  0.88272568  0.61727432  1
  Si  Si24  1  0.40566058  0.11727432  0.38272568  1
  Si  Si25  1  0.40566058  0.38272568  0.88272568  1
  Si  Si26  1  0.89487232  0.70873750  0.57935014  1
  Si  Si27  1  0.89487232  0.29126250  0.42064986  1
  Si  Si28  1  0.89487232  0.57935014  0.29126250  1
  Si  Si29  1  0.89487232  0.42064986  0.70873750  1
  Si  Si30  1  0.89487232  0.92064986  0.79126250  1
  Si  Si31  1  0.89487232  0.20873750  0.92064986  1
  Si  Si32  1  0.89487232  0.79126250  0.07935014  1
  Si  Si33  1  0.89487232  0.07935014  0.20873750  1
  Pr  Pr34  1  0.35220913  0.50000000  0.50000000  1
  Pr  Pr35  1  0.35220913  0.00000000  0.00000000  1
  Pr  Pr36  1  0.36660426  0.18203373  0.68203373  1
  Pr  Pr37  1  0.36660426  0.31796627  0.18203373  1
  Pr  Pr38  1  0.36660426  0.68203373  0.81796627  1
  Pr  Pr39  1  0.36660426  0.81796627  0.31796627  1
