# generated using pymatgen
data_Na2VF5
_symmetry_space_group_name_H-M   'P 1'
_cell_length_a   5.39546671
_cell_length_b   7.56961760
_cell_length_c   11.10104611
_cell_angle_alpha   107.72823281
_cell_angle_beta   90.00000000
_cell_angle_gamma   90.00000000
_symmetry_Int_Tables_number   1
_chemical_formula_structural   Na2VF5
_chemical_formula_sum   'Na8 V4 F20'
_cell_volume   431.85416820
_cell_formula_units_Z   4
loop_
 _symmetry_equiv_pos_site_id
 _symmetry_equiv_pos_as_xyz
  1  'x, y, z'
loop_
 _atom_site_type_symbol
 _atom_site_label
 _atom_site_symmetry_multiplicity
 _atom_site_fract_x
 _atom_site_fract_y
 _atom_site_fract_z
 _atom_site_occupancy
  Na  Na0  1  0.94043397  0.65325308  0.31720617  1
  Na  Na1  1  0.44043397  0.34674692  0.18279383  1
  Na  Na2  1  0.05956603  0.34674692  0.68279283  1
  Na  Na3  1  0.55956603  0.65325308  0.81720717  1
  Na  Na4  1  0.49103083  0.85224645  0.13285363  1
  Na  Na5  1  0.99103083  0.14775355  0.36714637  1
  Na  Na6  1  0.50896917  0.14775355  0.86714637  1
  Na  Na7  1  0.00896917  0.85224645  0.63285363  1
  V  V8  1  0.50000000  0.50000000  0.50000000  1
  V  V9  1  0.00000000  0.50000000  -0.00000000  1
  V  V10  1  0.50000000  -0.00000000  0.50000000  1
  V  V11  1  0.00000000  -0.00000000  -0.00000000  1
  F  F12  1  0.74961984  0.51046268  0.62843684  1
  F  F13  1  0.24961984  0.48953732  0.87156316  1
  F  F14  1  0.25038016  0.48953732  0.37156316  1
  F  F15  1  0.75038016  0.51046268  0.12843684  1
  F  F16  1  0.72355089  0.37877583  0.36235916  1
  F  F17  1  0.22355089  0.62122417  0.13764084  1
  F  F18  1  0.27644911  0.62122417  0.63764084  1
  F  F19  1  0.77644911  0.37877583  0.86235916  1
  F  F20  1  0.65202541  0.74915476  0.49727676  1
  F  F21  1  0.15202541  0.25084524  0.00272324  1
  F  F22  1  0.34797459  0.25084524  0.50272324  1
  F  F23  1  0.84797459  0.74915476  0.99727676  1
  F  F24  1  0.84822590  0.95058807  0.83206119  1
  F  F25  1  0.34822590  0.04941193  0.66793881  1
  F  F26  1  0.15177410  0.04941193  0.16793881  1
  F  F27  1  0.65177410  0.95058807  0.33206119  1
  F  F28  1  0.68939379  0.10905994  0.07420135  1
  F  F29  1  0.18939379  0.89094006  0.42579865  1
  F  F30  1  0.31060621  0.89094006  0.92579865  1
  F  F31  1  0.81060621  0.10905994  0.57420135  1
