# generated using pymatgen
data_Yb(CuS)2
_symmetry_space_group_name_H-M   'P 1'
_cell_length_a   3.88975426
_cell_length_b   3.88975311
_cell_length_c   6.42283565
_cell_angle_alpha   90.00103649
_cell_angle_beta   89.99890541
_cell_angle_gamma   120.00030283
_symmetry_Int_Tables_number   1
_chemical_formula_structural   Yb(CuS)2
_chemical_formula_sum   'Yb1 Cu2 S2'
_cell_volume   84.15895167
_cell_formula_units_Z   1
loop_
 _symmetry_equiv_pos_site_id
 _symmetry_equiv_pos_as_xyz
  1  'x, y, z'
loop_
 _atom_site_type_symbol
 _atom_site_label
 _atom_site_symmetry_multiplicity
 _atom_site_fract_x
 _atom_site_fract_y
 _atom_site_fract_z
 _atom_site_occupancy
  Yb  Yb0  1  -0.00000000  -0.00000000  0.00000000  1
  Cu  Cu1  1  0.66668168  0.33331609  0.63214264  1
  Cu  Cu2  1  0.33331832  0.66668391  0.36785736  1
  S  S3  1  0.66666294  0.33333640  0.25557950  1
  S  S4  1  0.33333706  0.66666360  0.74442050  1
