# generated using pymatgen
data_TmCuS2
_symmetry_space_group_name_H-M   'P 1'
_cell_length_a   3.91673765
_cell_length_b   6.22133993
_cell_length_c   13.26269183
_cell_angle_alpha   90.00000000
_cell_angle_beta   90.00000000
_cell_angle_gamma   90.00000000
_symmetry_Int_Tables_number   1
_chemical_formula_structural   TmCuS2
_chemical_formula_sum   'Tm4 Cu4 S8'
_cell_volume   323.17673781
_cell_formula_units_Z   4
loop_
 _symmetry_equiv_pos_site_id
 _symmetry_equiv_pos_as_xyz
  1  'x, y, z'
loop_
 _atom_site_type_symbol
 _atom_site_label
 _atom_site_symmetry_multiplicity
 _atom_site_fract_x
 _atom_site_fract_y
 _atom_site_fract_z
 _atom_site_occupancy
  S  S0  1  0.25000000  0.26240633  0.79389228  1
  S  S1  1  0.75000000  0.73759367  0.20610772  1
  S  S2  1  0.75000000  0.76240633  0.70610772  1
  S  S3  1  0.25000000  0.23759367  0.29389228  1
  S  S4  1  0.25000000  0.74325394  0.95959696  1
  S  S5  1  0.25000000  0.75674606  0.45959696  1
  S  S6  1  0.75000000  0.24325394  0.54040304  1
  S  S7  1  0.75000000  0.25674606  0.04040304  1
  Cu  Cu8  1  0.25000000  0.12317975  0.95446773  1
  Cu  Cu9  1  0.75000000  0.62317975  0.54553227  1
  Cu  Cu10  1  0.75000000  0.87682025  0.04553227  1
  Cu  Cu11  1  0.25000000  0.37682025  0.45446773  1
  Tm  Tm12  1  0.25000000  0.50206669  0.13344191  1
  Tm  Tm13  1  0.75000000  0.49793331  0.86655809  1
  Tm  Tm14  1  0.75000000  0.00206669  0.36655809  1
  Tm  Tm15  1  0.25000000  0.99793331  0.63344191  1
