# generated using pymatgen
data_Al2Ga2Bi2O9
_symmetry_space_group_name_H-M   'P 1'
_cell_length_a   5.84656956
_cell_length_b   7.94406129
_cell_length_c   8.31215494
_cell_angle_alpha   90.00000000
_cell_angle_beta   90.00000000
_cell_angle_gamma   90.00000000
_symmetry_Int_Tables_number   1
_chemical_formula_structural   Al2Ga2Bi2O9
_chemical_formula_sum   'Al4 Ga4 Bi4 O18'
_cell_volume   386.06224979
_cell_formula_units_Z   2
loop_
 _symmetry_equiv_pos_site_id
 _symmetry_equiv_pos_as_xyz
  1  'x, y, z'
loop_
 _atom_site_type_symbol
 _atom_site_label
 _atom_site_symmetry_multiplicity
 _atom_site_fract_x
 _atom_site_fract_y
 _atom_site_fract_z
 _atom_site_occupancy
  Al  Al0  1  0.24155276  0.00000000  0.50000000  1
  Al  Al1  1  0.75844724  -0.00000000  0.50000000  1
  Al  Al2  1  0.75844724  0.50000000  -0.00000000  1
  Al  Al3  1  0.24155276  0.50000000  -0.00000000  1
  Ga  Ga4  1  -0.00000000  0.15271034  0.16370123  1
  Ga  Ga5  1  -0.00000000  0.84728966  0.83629877  1
  Ga  Ga6  1  -0.00000000  0.34728966  0.66370123  1
  Ga  Ga7  1  -0.00000000  0.65271034  0.33629877  1
  Bi  Bi8  1  0.50000000  0.32884241  0.33290476  1
  Bi  Bi9  1  0.50000000  0.67115759  0.66709524  1
  Bi  Bi10  1  0.50000000  0.17115759  0.83290476  1
  Bi  Bi11  1  0.50000000  0.82884241  0.16709524  1
  O  O12  1  0.50000000  0.35900161  0.06900016  1
  O  O13  1  0.50000000  0.64099839  0.93099984  1
  O  O14  1  0.50000000  0.14099839  0.56900016  1
  O  O15  1  0.50000000  0.85900161  0.43099984  1
  O  O16  1  0.25501319  0.12714424  0.29906192  1
  O  O17  1  0.74498681  0.87285576  0.70093808  1
  O  O18  1  0.25501319  0.87285576  0.70093808  1
  O  O19  1  0.74498681  0.37285576  0.79906192  1
  O  O20  1  0.74498681  0.12714424  0.29906192  1
  O  O21  1  0.25501319  0.62714424  0.20093808  1
  O  O22  1  0.74498681  0.62714424  0.20093808  1
  O  O23  1  0.25501319  0.37285576  0.79906192  1
  O  O24  1  -0.00000000  0.37129299  0.08738241  1
  O  O25  1  -0.00000000  0.62870701  0.91261759  1
  O  O26  1  -0.00000000  0.12870701  0.58738241  1
  O  O27  1  -0.00000000  0.87129299  0.41261759  1
  O  O28  1  -0.00000000  -0.00000000  -0.00000000  1
  O  O29  1  -0.00000000  0.50000000  0.50000000  1
