# generated using pymatgen
data_CaMn2Be3(SiO4)3
_symmetry_space_group_name_H-M   'P 1'
_cell_length_a   7.69123274
_cell_length_b   8.17530762
_cell_length_c   14.19211209
_cell_angle_alpha   89.97377490
_cell_angle_beta   90.00000000
_cell_angle_gamma   90.00000000
_symmetry_Int_Tables_number   1
_chemical_formula_structural   CaMn2Be3(SiO4)3
_chemical_formula_sum   'Ca4 Mn8 Be12 Si12 O48'
_cell_volume   892.37427904
_cell_formula_units_Z   4
loop_
 _symmetry_equiv_pos_site_id
 _symmetry_equiv_pos_as_xyz
  1  'x, y, z'
loop_
 _atom_site_type_symbol
 _atom_site_label
 _atom_site_symmetry_multiplicity
 _atom_site_fract_x
 _atom_site_fract_y
 _atom_site_fract_z
 _atom_site_occupancy
  Be  Be0  1  0.83649518  0.91975219  0.76419312  1
  Be  Be1  1  0.66373930  0.93684916  0.40850860  1
  Be  Be2  1  0.16373981  0.56315077  0.09149124  1
  Be  Be3  1  0.33625967  0.06315050  0.59149140  1
  Be  Be4  1  0.83626045  0.43684889  0.90850876  1
  Be  Be5  1  0.16249919  0.60262417  0.42112286  1
  Be  Be6  1  0.66249867  0.89737576  0.07887698  1
  Be  Be7  1  0.83750108  0.39737549  0.57887714  1
  Be  Be8  1  0.33750029  0.10262390  0.92112302  1
  Be  Be9  1  0.66350457  0.41975174  0.26419312  1
  Be  Be10  1  0.16350509  0.08024747  0.23580688  1
  Be  Be11  1  0.33649570  0.58024791  0.73580688  1
  O  O12  1  0.13648387  0.74707328  0.04527170  1
  O  O13  1  0.03119938  0.92279267  0.81431598  1
  O  O14  1  0.53119887  0.57720743  0.68568401  1
  O  O15  1  0.96880089  0.07720699  0.18568401  1
  O  O16  1  0.46880010  0.42279223  0.31431598  1
  O  O17  1  0.52957335  0.17652270  0.94911354  1
  O  O18  1  0.02957256  0.32347669  0.55088661  1
  O  O19  1  0.47042692  0.82347696  0.05088645  1
  O  O20  1  0.97042640  0.67652297  0.44911338  1
  O  O21  1  0.03176312  0.51142013  0.88677906  1
  O  O22  1  0.53176260  0.98857997  0.61322093  1
  O  O23  1  0.96823715  0.48858076  0.11322093  1
  O  O24  1  0.13439264  0.05889562  0.35054692  1
  O  O25  1  0.63439212  0.44110483  0.14945308  1
  O  O26  1  0.86560763  0.94110404  0.64945307  1
  O  O27  1  0.36560814  0.55889606  0.85054692  1
  O  O28  1  0.63648466  0.75292665  0.45472814  1
  O  O29  1  0.46823766  0.01141969  0.38677907  1
  O  O30  1  0.36351561  0.24707301  0.54527186  1
  O  O31  1  0.86351640  0.25292638  0.95472830  1
  O  O32  1  0.76246135  0.06943480  0.47781346  1
  O  O33  1  0.63327493  0.05987607  0.14721736  1
  O  O34  1  0.86672482  0.55987528  0.64721736  1
  O  O35  1  0.36672403  0.94012359  0.85278264  1
  O  O36  1  0.74080934  0.42381200  0.80635493  1
  O  O37  1  0.24080855  0.07618739  0.69364453  1
  O  O38  1  0.25919093  0.57618766  0.19364507  1
  O  O39  1  0.75919041  0.92381227  0.30635547  1
  O  O40  1  0.73800479  0.07806171  0.80927492  1
  O  O41  1  0.23800531  0.42193890  0.69072453  1
  O  O42  1  0.26199417  0.92193795  0.19072508  1
  O  O43  1  0.76199496  0.57806198  0.30927546  1
  O  O44  1  0.24146461  0.25251743  0.86488960  1
  O  O45  1  0.74146409  0.24748318  0.63511056  1
  O  O46  1  0.75853566  0.74748222  0.13511040  1
  O  O47  1  0.25853618  0.75251771  0.36488944  1
  O  O48  1  0.74714784  0.74819938  0.79725505  1
  O  O49  1  0.24714705  0.75180072  0.70274495  1
  O  O50  1  0.25285243  0.25180027  0.20274495  1
  O  O51  1  0.75285322  0.24820017  0.29725505  1
  O  O52  1  0.76339091  0.93536679  0.97886914  1
  O  O53  1  0.26339012  0.56463331  0.52113085  1
  O  O54  1  0.23660936  0.06463287  0.02113085  1
  O  O55  1  0.73661015  0.43536635  0.47886914  1
  O  O56  1  0.73753971  0.56943401  0.97781346  1
  O  O57  1  0.23753892  0.93056486  0.52218653  1
  O  O58  1  0.26246056  0.43056564  0.02218653  1
  O  O59  1  0.13327545  0.44012438  0.35278264  1
  Si  Si60  1  0.22600521  0.91962518  0.76625028  1
  Si  Si61  1  0.72600469  0.58037492  0.73374972  1
  Si  Si62  1  0.77399506  0.08037448  0.23374972  1
  Si  Si63  1  0.27399558  0.41962474  0.26625028  1
  Si  Si64  1  0.72484240  0.10928067  0.92348571  1
  Si  Si65  1  0.22484161  0.39071994  0.57651445  1
  Si  Si66  1  0.27515787  0.89071899  0.07651428  1
  Si  Si67  1  0.77515735  0.60928094  0.42348555  1
  Si  Si68  1  0.22799716  0.43964706  0.90726316  1
  Si  Si69  1  0.72799794  0.06035233  0.59273699  1
  Si  Si70  1  0.77200311  0.56035260  0.09273683  1
  Si  Si71  1  0.27200233  0.93964733  0.40726300  1
  Ca  Ca72  1  0.50023338  0.74913557  0.25157644  1
  Ca  Ca73  1  0.00023260  0.75086436  0.24842340  1
  Ca  Ca74  1  0.49976689  0.25086531  0.74842356  1
  Ca  Ca75  1  0.99976637  0.24913530  0.75157660  1
  Mn  Mn76  1  0.46413156  0.25876415  0.09061053  1
  Mn  Mn77  1  0.03586792  0.75876459  0.59061053  1
  Mn  Mn78  1  0.53586871  0.74123551  0.90938947  1
  Mn  Mn79  1  0.96413235  0.24123507  0.40938947  1
  Mn  Mn80  1  0.53947729  0.26175107  0.42829783  1
  Mn  Mn81  1  0.03947781  0.23824814  0.07170217  1
  Mn  Mn82  1  0.46052297  0.73824858  0.57170216  1
  Mn  Mn83  1  0.96052246  0.76175152  0.92829783  1
