# generated using pymatgen
data_Ba3WN4
_symmetry_space_group_name_H-M   'P 1'
_cell_length_a   10.56264865
_cell_length_b   10.98306868
_cell_length_c   12.42217710
_cell_angle_alpha   90.00000000
_cell_angle_beta   90.00000000
_cell_angle_gamma   90.00000000
_symmetry_Int_Tables_number   1
_chemical_formula_structural   Ba3WN4
_chemical_formula_sum   'Ba24 W8 N32'
_cell_volume   1441.10043694
_cell_formula_units_Z   8
loop_
 _symmetry_equiv_pos_site_id
 _symmetry_equiv_pos_as_xyz
  1  'x, y, z'
loop_
 _atom_site_type_symbol
 _atom_site_label
 _atom_site_symmetry_multiplicity
 _atom_site_fract_x
 _atom_site_fract_y
 _atom_site_fract_z
 _atom_site_occupancy
  N  N0  1  0.79355868  0.22549581  0.67904912  1
  N  N1  1  0.29355868  0.77450419  0.82095088  1
  N  N2  1  0.70644132  0.72549581  0.32095088  1
  N  N3  1  0.20644132  0.27450419  0.17904912  1
  N  N4  1  0.20644132  0.77450419  0.32095088  1
  N  N5  1  0.70644132  0.22549581  0.17904912  1
  N  N6  1  0.29355868  0.27450419  0.67904912  1
  N  N7  1  0.79355868  0.72549581  0.82095088  1
  N  N8  1  0.81391880  0.49286075  0.96288932  1
  N  N9  1  0.31391880  0.50713925  0.53711068  1
  N  N10  1  0.68608120  0.99286075  0.03711068  1
  N  N11  1  0.18608120  0.00713925  0.46288932  1
  N  N12  1  0.18608120  0.50713925  0.03711068  1
  N  N13  1  0.68608120  0.49286075  0.46288932  1
  N  N14  1  0.31391880  0.00713925  0.96288932  1
  N  N15  1  0.62357302  0.99411373  0.71768622  1
  N  N16  1  0.57680225  0.15244838  0.51820369  1
  N  N17  1  0.07680225  0.84755162  0.98179631  1
  N  N18  1  0.92319775  0.65244838  0.48179631  1
  N  N19  1  0.42319775  0.34755162  0.01820369  1
  N  N20  1  0.42319775  0.84755162  0.48179631  1
  N  N21  1  0.92319775  0.15244838  0.01820369  1
  N  N22  1  0.07680225  0.34755162  0.51820369  1
  N  N23  1  0.57680225  0.65244838  0.98179631  1
  N  N24  1  0.62357302  0.49411373  0.78231378  1
  N  N25  1  0.12357302  0.50588627  0.71768622  1
  N  N26  1  0.87642698  0.99411373  0.21768622  1
  N  N27  1  0.37642698  0.00588627  0.28231378  1
  N  N28  1  0.37642698  0.50588627  0.21768622  1
  N  N29  1  0.87642698  0.49411373  0.28231378  1
  N  N30  1  0.12357302  0.00588627  0.78231378  1
  N  N31  1  0.81391880  0.99286075  0.53711068  1
  Ba  Ba32  1  0.88014821  0.96884670  0.86090038  1
  Ba  Ba33  1  0.38014821  0.03115330  0.63909962  1
  Ba  Ba34  1  0.61985179  0.46884670  0.13909962  1
  Ba  Ba35  1  0.11985179  0.53115330  0.36090038  1
  Ba  Ba36  1  0.11985179  0.03115330  0.13909962  1
  Ba  Ba37  1  0.61985179  0.96884670  0.36090038  1
  Ba  Ba38  1  0.38014821  0.53115330  0.86090038  1
  Ba  Ba39  1  0.88014821  0.46884670  0.63909962  1
  Ba  Ba40  1  0.70707877  0.27784546  0.87824524  1
  Ba  Ba41  1  0.20707877  0.72215454  0.62175476  1
  Ba  Ba42  1  0.79292123  0.77784546  0.12175476  1
  Ba  Ba43  1  0.29292123  0.22215454  0.37824524  1
  Ba  Ba44  1  0.29292123  0.72215454  0.12175476  1
  Ba  Ba45  1  0.79292123  0.27784546  0.37824524  1
  Ba  Ba46  1  0.20707877  0.22215454  0.87824524  1
  Ba  Ba47  1  0.70707877  0.77784546  0.62175476  1
  Ba  Ba48  1  0.53353467  0.87510155  0.89356194  1
  Ba  Ba49  1  0.03353467  0.62489845  0.89356194  1
  Ba  Ba50  1  0.96646533  0.87510155  0.39356194  1
  Ba  Ba51  1  0.46646533  0.12489845  0.10643806  1
  Ba  Ba52  1  0.46646533  0.62489845  0.39356194  1
  Ba  Ba53  1  0.96646533  0.37510155  0.10643806  1
  Ba  Ba54  1  0.03353467  0.12489845  0.60643806  1
  Ba  Ba55  1  0.53353467  0.37510155  0.60643806  1
  W  W56  1  0.70228533  0.59488545  0.88512231  1
  W  W57  1  0.20228533  0.40511455  0.61487769  1
  W  W58  1  0.79771467  0.09488545  0.11487769  1
  W  W59  1  0.29771467  0.90511455  0.38512231  1
  W  W60  1  0.29771467  0.40511455  0.11487769  1
  W  W61  1  0.79771467  0.59488545  0.38512231  1
  W  W62  1  0.20228533  0.90511455  0.88512231  1
  W  W63  1  0.70228533  0.09488545  0.61487769  1
