# generated using pymatgen
data_Eu3IrO7
_symmetry_space_group_name_H-M   'P 1'
_cell_length_a   6.59374737
_cell_length_b   6.59374736
_cell_length_c   7.54248683
_cell_angle_alpha   90.00000000
_cell_angle_beta   90.00000000
_cell_angle_gamma   110.85993165
_symmetry_Int_Tables_number   1
_chemical_formula_structural   Eu3IrO7
_chemical_formula_sum   'Eu6 Ir2 O14'
_cell_volume   306.43401067
_cell_formula_units_Z   2
loop_
 _symmetry_equiv_pos_site_id
 _symmetry_equiv_pos_as_xyz
  1  'x, y, z'
loop_
 _atom_site_type_symbol
 _atom_site_label
 _atom_site_symmetry_multiplicity
 _atom_site_fract_x
 _atom_site_fract_y
 _atom_site_fract_z
 _atom_site_occupancy
  O  O0  1  0.58839191  0.58839191  0.75000000  1
  O  O1  1  0.41160809  0.41160809  0.25000000  1
  O  O2  1  0.10823105  0.84276055  0.75000000  1
  O  O3  1  0.89176895  0.15723945  0.25000000  1
  O  O4  1  0.84276055  0.10823105  0.75000000  1
  O  O5  1  0.15723945  0.89176895  0.25000000  1
  O  O6  1  0.19042688  0.44169234  0.96073110  1
  O  O7  1  0.80957312  0.55830766  0.46073110  1
  O  O8  1  0.44169234  0.19042688  0.96073110  1
  O  O9  1  0.55830766  0.80957312  0.46073110  1
  O  O10  1  0.19042688  0.44169234  0.53926890  1
  O  O11  1  0.80957312  0.55830766  0.03926890  1
  O  O12  1  0.55830766  0.80957312  0.03926890  1
  O  O13  1  0.44169234  0.19042688  0.53926890  1
  Eu  Eu14  1  0.00000000  0.00000000  0.00000000  1
  Eu  Eu15  1  0.00000000  0.00000000  0.50000000  1
  Eu  Eu16  1  0.93574853  0.47794630  0.75000000  1
  Eu  Eu17  1  0.06425147  0.52205370  0.25000000  1
  Eu  Eu18  1  0.47794630  0.93574853  0.75000000  1
  Eu  Eu19  1  0.52205370  0.06425147  0.25000000  1
  Ir  Ir20  1  0.50000000  0.50000000  0.00000000  1
  Ir  Ir21  1  0.50000000  0.50000000  0.50000000  1
