# generated using pymatgen
data_Nd3GaO6
_symmetry_space_group_name_H-M   'P 1'
_cell_length_a   5.63602960
_cell_length_b   7.44100002
_cell_length_c   7.44100002
_cell_angle_alpha   102.84611237
_cell_angle_beta   90.00000000
_cell_angle_gamma   90.00000000
_symmetry_Int_Tables_number   1
_chemical_formula_structural   Nd3GaO6
_chemical_formula_sum   'Nd6 Ga2 O12'
_cell_volume   304.24780648
_cell_formula_units_Z   2
loop_
 _symmetry_equiv_pos_site_id
 _symmetry_equiv_pos_as_xyz
  1  'x, y, z'
loop_
 _atom_site_type_symbol
 _atom_site_label
 _atom_site_symmetry_multiplicity
 _atom_site_fract_x
 _atom_site_fract_y
 _atom_site_fract_z
 _atom_site_occupancy
  O  O0  1  0.82498908  0.78533643  0.21466357  1
  O  O1  1  0.32498908  0.21466357  0.78533643  1
  O  O2  1  0.36564093  0.95808162  0.04191838  1
  O  O3  1  0.86564093  0.04191838  0.95808162  1
  O  O4  1  0.30143781  0.32751462  0.35381404  1
  O  O5  1  0.80143781  0.67248538  0.64618596  1
  O  O6  1  0.30143781  0.64618596  0.67248538  1
  O  O7  1  0.80143781  0.35381404  0.32751462  1
  O  O8  1  0.82935817  0.41529852  0.89332661  1
  O  O9  1  0.32935817  0.58470148  0.10667339  1
  O  O10  1  0.82935817  0.10667339  0.58470148  1
  O  O11  1  0.32935817  0.89332661  0.41529852  1
  Ga  Ga12  1  0.49741379  0.80805605  0.19194395  1
  Ga  Ga13  1  0.99741379  0.19194395  0.80805605  1
  Nd  Nd14  1  0.07552632  0.60348378  0.39651622  1
  Nd  Nd15  1  0.57552632  0.39651622  0.60348378  1
  Nd  Nd16  1  0.03149896  0.08714557  0.29962294  1
  Nd  Nd17  1  0.53149896  0.91285443  0.70037706  1
  Nd  Nd18  1  0.03149896  0.70037706  0.91285443  1
  Nd  Nd19  1  0.53149896  0.29962294  0.08714557  1
