# generated using pymatgen
data_SrCu2GeS4
_symmetry_space_group_name_H-M   'P 1'
_cell_length_a   6.18227759
_cell_length_b   6.18227758
_cell_length_c   15.30418061
_cell_angle_alpha   90.00000000
_cell_angle_beta   90.00000000
_cell_angle_gamma   120.00000002
_symmetry_Int_Tables_number   1
_chemical_formula_structural   SrCu2GeS4
_chemical_formula_sum   'Sr3 Cu6 Ge3 S12'
_cell_volume   506.56795851
_cell_formula_units_Z   3
loop_
 _symmetry_equiv_pos_site_id
 _symmetry_equiv_pos_as_xyz
  1  'x, y, z'
loop_
 _atom_site_type_symbol
 _atom_site_label
 _atom_site_symmetry_multiplicity
 _atom_site_fract_x
 _atom_site_fract_y
 _atom_site_fract_z
 _atom_site_occupancy
  S  S0  1  0.10015254  0.33031717  0.25123876  1
  S  S1  1  0.23016463  0.89984746  0.58457209  1
  S  S2  1  0.66968283  0.76983537  0.91790543  1
  S  S3  1  0.43607731  0.00227406  0.24782723  1
  S  S4  1  0.56619675  0.56392269  0.58116056  1
  S  S5  1  0.99772594  0.43380325  0.91449390  1
  S  S6  1  0.29672538  0.13761889  0.03133481  1
  S  S7  1  0.84089351  0.70327462  0.36466815  1
  S  S8  1  0.37043453  0.17485258  0.80102455  1
  S  S9  1  0.80441805  0.62956547  0.13435788  1
  S  S10  1  0.82514742  0.19558195  0.46769121  1
  S  S11  1  0.86238111  0.15910649  0.69800148  1
  Cu  Cu12  1  0.68254865  0.09240811  0.83824698  1
  Cu  Cu13  1  0.25709100  0.24169591  0.66085675  1
  Cu  Cu14  1  0.75830409  0.01539509  0.32752341  1
  Cu  Cu15  1  0.40985947  0.31745135  0.17158031  1
  Cu  Cu16  1  0.90759189  0.59014053  0.50491365  1
  Cu  Cu17  1  0.98460491  0.74290900  0.99419008  1
  Ge  Ge18  1  0.04710742  0.66630099  0.24956357  1
  Ge  Ge19  1  0.33369901  0.38080643  0.91623023  1
  Ge  Ge20  1  0.61919357  0.95289258  0.58289690  1
  Sr  Sr21  1  0.78042569  0.11338058  0.08287402  1
  Sr  Sr22  1  0.33295488  0.21957431  0.41620735  1
  Sr  Sr23  1  0.88661942  0.66704512  0.74954069  1
