# generated using pymatgen
data_Lu2SO2
_symmetry_space_group_name_H-M   'P 1'
_cell_length_a   3.70441301
_cell_length_b   3.70441301
_cell_length_c   6.48515335
_cell_angle_alpha   90.00000000
_cell_angle_beta   90.00000000
_cell_angle_gamma   119.99999995
_symmetry_Int_Tables_number   1
_chemical_formula_structural   Lu2SO2
_chemical_formula_sum   'Lu2 S1 O2'
_cell_volume   77.07076733
_cell_formula_units_Z   1
loop_
 _symmetry_equiv_pos_site_id
 _symmetry_equiv_pos_as_xyz
  1  'x, y, z'
loop_
 _atom_site_type_symbol
 _atom_site_label
 _atom_site_symmetry_multiplicity
 _atom_site_fract_x
 _atom_site_fract_y
 _atom_site_fract_z
 _atom_site_occupancy
  O  O0  1  0.66666667  0.33333333  0.37048714  1
  O  O1  1  0.33333333  0.66666667  0.62951286  1
  S  S2  1  0.00000000  0.00000000  0.00000000  1
  Lu  Lu3  1  0.66666667  0.33333333  0.71616379  1
  Lu  Lu4  1  0.33333333  0.66666667  0.28383621  1
