# generated using pymatgen
data_Sr4GeP4
_symmetry_space_group_name_H-M   'P 1'
_cell_length_a   12.57653468
_cell_length_b   12.57653468
_cell_length_c   12.57653468
_cell_angle_alpha   90.00000000
_cell_angle_beta   90.00000000
_cell_angle_gamma   90.00000000
_symmetry_Int_Tables_number   1
_chemical_formula_structural   Sr4GeP4
_chemical_formula_sum   'Sr32 Ge8 P32'
_cell_volume   1989.22073795
_cell_formula_units_Z   8
loop_
 _symmetry_equiv_pos_site_id
 _symmetry_equiv_pos_as_xyz
  1  'x, y, z'
loop_
 _atom_site_type_symbol
 _atom_site_label
 _atom_site_symmetry_multiplicity
 _atom_site_fract_x
 _atom_site_fract_y
 _atom_site_fract_z
 _atom_site_occupancy
  P  P0  1  0.64744093  0.89309371  0.61768363  1
  P  P1  1  0.64744093  0.10690629  0.38231637  1
  P  P2  1  0.89309371  0.61768363  0.64744093  1
  P  P3  1  0.10690629  0.61768363  0.35255907  1
  P  P4  1  0.61768363  0.64744093  0.89309371  1
  P  P5  1  0.38231637  0.35255907  0.89309371  1
  P  P6  1  0.85255907  0.88231637  0.39309371  1
  P  P7  1  0.85255907  0.11768363  0.60690629  1
  P  P8  1  0.14744093  0.88231637  0.60690629  1
  P  P9  1  0.11768363  0.60690629  0.85255907  1
  P  P10  1  0.60690629  0.14744093  0.88231637  1
  P  P11  1  0.60690629  0.85255907  0.11768363  1
  P  P12  1  0.88231637  0.39309371  0.85255907  1
  P  P13  1  0.39309371  0.85255907  0.88231637  1
  P  P14  1  0.88231637  0.60690629  0.14744093  1
  P  P15  1  0.11768363  0.39309371  0.14744093  1
  P  P16  1  0.39309371  0.14744093  0.11768363  1
  P  P17  1  0.38231637  0.64744093  0.10690629  1
  P  P18  1  0.61768363  0.35255907  0.10690629  1
  P  P19  1  0.89309371  0.38231637  0.35255907  1
  P  P20  1  0.10690629  0.38231637  0.64744093  1
  P  P21  1  0.35255907  0.10690629  0.61768363  1
  P  P22  1  0.35255907  0.89309371  0.38231637  1
  P  P23  1  0.14744093  0.11768363  0.39309371  1
  P  P24  1  0.89127705  0.89127705  0.89127705  1
  P  P25  1  0.60872295  0.39127705  0.60872295  1
  P  P26  1  0.39127705  0.60872295  0.60872295  1
  P  P27  1  0.60872295  0.60872295  0.39127705  1
  P  P28  1  0.89127705  0.10872295  0.10872295  1
  P  P29  1  0.10872295  0.10872295  0.89127705  1
  P  P30  1  0.10872295  0.89127705  0.10872295  1
  P  P31  1  0.39127705  0.39127705  0.39127705  1
  Ge  Ge32  1  0.75000000  0.00000000  0.50000000  1
  Ge  Ge33  1  0.50000000  0.75000000  0.00000000  1
  Ge  Ge34  1  0.50000000  0.25000000  0.00000000  1
  Ge  Ge35  1  0.00000000  0.50000000  0.25000000  1
  Ge  Ge36  1  0.00000000  0.50000000  0.75000000  1
  Ge  Ge37  1  0.25000000  0.00000000  0.50000000  1
  Ge  Ge38  1  0.50000000  0.50000000  0.50000000  1
  Ge  Ge39  1  0.00000000  0.00000000  0.00000000  1
  Sr  Sr40  1  0.90416324  0.86739362  0.64482222  1
  Sr  Sr41  1  0.90416324  0.13260638  0.35517778  1
  Sr  Sr42  1  0.86739362  0.64482222  0.90416324  1
  Sr  Sr43  1  0.13260638  0.64482222  0.09583676  1
  Sr  Sr44  1  0.64482222  0.90416324  0.86739362  1
  Sr  Sr45  1  0.35517778  0.09583676  0.86739362  1
  Sr  Sr46  1  0.59583676  0.85517778  0.36739362  1
  Sr  Sr47  1  0.59583676  0.14482222  0.63260638  1
  Sr  Sr48  1  0.40416324  0.85517778  0.63260638  1
  Sr  Sr49  1  0.14482222  0.63260638  0.59583676  1
  Sr  Sr50  1  0.63260638  0.40416324  0.85517778  1
  Sr  Sr51  1  0.63260638  0.59583676  0.14482222  1
  Sr  Sr52  1  0.85517778  0.36739362  0.59583676  1
  Sr  Sr53  1  0.36739362  0.59583676  0.85517778  1
  Sr  Sr54  1  0.85517778  0.63260638  0.40416324  1
  Sr  Sr55  1  0.14482222  0.36739362  0.40416324  1
  Sr  Sr56  1  0.36739362  0.40416324  0.14482222  1
  Sr  Sr57  1  0.35517778  0.90416324  0.13260638  1
  Sr  Sr58  1  0.64482222  0.09583676  0.13260638  1
  Sr  Sr59  1  0.86739362  0.35517778  0.09583676  1
  Sr  Sr60  1  0.13260638  0.35517778  0.90416324  1
  Sr  Sr61  1  0.09583676  0.13260638  0.64482222  1
  Sr  Sr62  1  0.09583676  0.86739362  0.35517778  1
  Sr  Sr63  1  0.40416324  0.14482222  0.36739362  1
  Sr  Sr64  1  0.14511591  0.14511591  0.14511591  1
  Sr  Sr65  1  0.35488409  0.64511591  0.35488409  1
  Sr  Sr66  1  0.64511591  0.35488409  0.35488409  1
  Sr  Sr67  1  0.35488409  0.35488409  0.64511591  1
  Sr  Sr68  1  0.14511591  0.85488409  0.85488409  1
  Sr  Sr69  1  0.85488409  0.85488409  0.14511591  1
  Sr  Sr70  1  0.85488409  0.14511591  0.85488409  1
  Sr  Sr71  1  0.64511591  0.64511591  0.64511591  1
