# generated using pymatgen
data_Eu2Mn2O5
_symmetry_space_group_name_H-M   'P 1'
_cell_length_a   5.48477813
_cell_length_b   5.65330396
_cell_length_c   8.88802331
_cell_angle_alpha   108.54378810
_cell_angle_beta   107.97179716
_cell_angle_gamma   90.00000000
_symmetry_Int_Tables_number   1
_chemical_formula_structural   Eu2Mn2O5
_chemical_formula_sum   'Eu4 Mn4 O10'
_cell_volume   247.05941370
_cell_formula_units_Z   2
loop_
 _symmetry_equiv_pos_site_id
 _symmetry_equiv_pos_as_xyz
  1  'x, y, z'
loop_
 _atom_site_type_symbol
 _atom_site_label
 _atom_site_symmetry_multiplicity
 _atom_site_fract_x
 _atom_site_fract_y
 _atom_site_fract_z
 _atom_site_occupancy
  Eu  Eu0  1  0.61312461  0.12849674  0.22133659  1
  Eu  Eu1  1  0.39178802  0.87150326  0.77866341  1
  Eu  Eu2  1  0.11312461  0.59283985  0.22133659  1
  Eu  Eu3  1  0.89178802  0.40716015  0.77866341  1
  Mn  Mn4  1  0.01100393  -0.00000000  -0.00000000  1
  Mn  Mn5  1  0.51100393  0.50000000  -0.00000000  1
  Mn  Mn6  1  0.22331526  0.19726495  0.50000000  1
  Mn  Mn7  1  0.72331526  0.80273505  0.50000000  1
  O  O8  1  0.24465270  0.24125103  0.97328822  1
  O  O9  1  0.27136448  0.75874897  0.02671178  1
  O  O10  1  0.74465270  0.23203719  0.97328822  1
  O  O11  1  0.77136448  0.76796281  0.02671178  1
  O  O12  1  0.16597645  0.19593944  0.26480209  1
  O  O13  1  0.90117437  0.80406056  0.73519791  1
  O  O14  1  0.66597645  0.56886265  0.26480209  1
  O  O15  1  0.40117437  0.43113735  0.73519791  1
  O  O16  1  0.84160017  0.15434979  0.50000000  1
  O  O17  1  0.34160017  0.84565021  0.50000000  1
