# generated using pymatgen
data_NaMg4(AsO4)3
_symmetry_space_group_name_H-M   'P 1'
_cell_length_a   6.90603556
_cell_length_b   6.90603556
_cell_length_c   10.90760918
_cell_angle_alpha   108.45559679
_cell_angle_beta   108.45559681
_cell_angle_gamma   90.00000003
_symmetry_Int_Tables_number   1
_chemical_formula_structural   NaMg4(AsO4)3
_chemical_formula_sum   'Na2 Mg8 As6 O24'
_cell_volume   465.17322901
_cell_formula_units_Z   2
loop_
 _symmetry_equiv_pos_site_id
 _symmetry_equiv_pos_as_xyz
  1  'x, y, z'
loop_
 _atom_site_type_symbol
 _atom_site_label
 _atom_site_symmetry_multiplicity
 _atom_site_fract_x
 _atom_site_fract_y
 _atom_site_fract_z
 _atom_site_occupancy
  O  O0  1  0.73463066  0.08626441  0.58801352  1
  O  O1  1  0.85338286  0.50174911  0.58801352  1
  O  O2  1  0.25174911  0.10338286  0.08801352  1
  O  O3  1  0.91373559  0.14661714  0.41198648  1
  O  O4  1  0.49825089  0.26536934  0.41198648  1
  O  O5  1  0.01536934  0.74825089  0.91198648  1
  O  O6  1  0.89661714  0.16373559  0.91198648  1
  O  O7  1  0.83626441  0.98463066  0.08801352  1
  O  O8  1  0.07119473  0.89379318  0.69696661  1
  O  O9  1  0.62577188  0.80317343  0.69696661  1
  O  O10  1  0.55317343  0.87577188  0.19696661  1
  O  O11  1  0.10620682  0.37422812  0.30303339  1
  O  O12  1  0.19682657  0.92880527  0.30303339  1
  O  O13  1  0.67880527  0.44682657  0.80303339  1
  O  O14  1  0.12422812  0.35620682  0.80303339  1
  O  O15  1  0.64379318  0.32119473  0.19696661  1
  O  O16  1  0.85633586  0.56780474  0.11927103  1
  O  O17  1  0.44853371  0.14366414  0.88072897  1
  O  O18  1  0.43219526  0.73706483  0.88072897  1
  O  O19  1  0.48706483  0.68219526  0.38072897  1
  O  O20  1  0.89366414  0.69853371  0.38072897  1
  O  O21  1  0.26293517  0.55146629  0.11927103  1
  O  O22  1  0.30146629  0.51293517  0.61927103  1
  O  O23  1  0.31780474  0.10633586  0.61927103  1
  Na  Na24  1  0.25000000  0.75000000  0.50000000  1
  Na  Na25  1  0.50000000  0.50000000  0.00000000  1
  Mg  Mg26  1  0.37500000  0.36808977  0.25000000  1
  Mg  Mg27  1  0.11808977  0.62500000  0.75000000  1
  Mg  Mg28  1  0.63191023  0.12500000  0.75000000  1
  Mg  Mg29  1  0.87500000  0.88191023  0.25000000  1
  Mg  Mg30  1  0.77003304  0.77003304  0.54006609  1
  Mg  Mg31  1  0.22996696  0.22996696  0.45993391  1
  Mg  Mg32  1  0.97996696  0.47996696  0.95993391  1
  Mg  Mg33  1  0.52003304  0.02003304  0.04006609  1
  As  As34  1  0.37500000  0.78116161  0.25000000  1
  As  As35  1  0.53116161  0.62500000  0.75000000  1
  As  As36  1  0.21883839  0.12500000  0.75000000  1
  As  As37  1  0.87500000  0.46883839  0.25000000  1
  As  As38  1  0.75000000  0.25000000  0.50000000  1
  As  As39  1  0.00000000  0.00000000  0.00000000  1
