# generated using pymatgen
data_BaGeO3
_symmetry_space_group_name_H-M   'P 1'
_cell_length_a   4.68198347
_cell_length_b   5.81614703
_cell_length_c   13.10337862
_cell_angle_alpha   90.00000000
_cell_angle_beta   90.00000000
_cell_angle_gamma   90.00000000
_symmetry_Int_Tables_number   1
_chemical_formula_structural   BaGeO3
_chemical_formula_sum   'Ba4 Ge4 O12'
_cell_volume   356.81946927
_cell_formula_units_Z   4
loop_
 _symmetry_equiv_pos_site_id
 _symmetry_equiv_pos_as_xyz
  1  'x, y, z'
loop_
 _atom_site_type_symbol
 _atom_site_label
 _atom_site_symmetry_multiplicity
 _atom_site_fract_x
 _atom_site_fract_y
 _atom_site_fract_z
 _atom_site_occupancy
  O  O0  1  0.76435873  0.60456461  0.91244730  1
  O  O1  1  0.26435873  0.89543539  0.08755270  1
  O  O2  1  0.23564127  0.10456461  0.58755270  1
  O  O3  1  0.73564127  0.39543539  0.41244730  1
  O  O4  1  0.75077546  0.12091058  0.82401372  1
  O  O5  1  0.25077546  0.37908942  0.17598628  1
  O  O6  1  0.24922454  0.62091058  0.67598628  1
  O  O7  1  0.74922454  0.87908942  0.32401372  1
  O  O8  1  0.29417012  0.71707263  0.44924757  1
  O  O9  1  0.79417012  0.78292737  0.55075243  1
  O  O10  1  0.70582988  0.21707263  0.05075243  1
  O  O11  1  0.20582988  0.28292737  0.94924757  1
  Ge  Ge12  1  0.82131181  0.30933531  0.92390764  1
  Ge  Ge13  1  0.32131181  0.19066469  0.07609236  1
  Ge  Ge14  1  0.17868819  0.80933531  0.57609236  1
  Ge  Ge15  1  0.67868819  0.69066469  0.42390764  1
  Ba  Ba16  1  0.27690849  0.81834826  0.86097144  1
  Ba  Ba17  1  0.77690849  0.68165174  0.13902856  1
  Ba  Ba18  1  0.72309151  0.31834826  0.63902856  1
  Ba  Ba19  1  0.22309151  0.18165174  0.36097144  1
