# generated using pymatgen
data_ZrNbC2
_symmetry_space_group_name_H-M   'P 1'
_cell_length_a   3.25161669
_cell_length_b   3.25161668
_cell_length_c   5.65523346
_cell_angle_alpha   73.29240147
_cell_angle_beta   90.00000000
_cell_angle_gamma   120.00000007
_symmetry_Int_Tables_number   1
_chemical_formula_structural   ZrNbC2
_chemical_formula_sum   'Zr1 Nb1 C2'
_cell_volume   48.84570185
_cell_formula_units_Z   1
loop_
 _symmetry_equiv_pos_site_id
 _symmetry_equiv_pos_as_xyz
  1  'x, y, z'
loop_
 _atom_site_type_symbol
 _atom_site_label
 _atom_site_symmetry_multiplicity
 _atom_site_fract_x
 _atom_site_fract_y
 _atom_site_fract_z
 _atom_site_occupancy
  Zr  Zr0  1  0.75000000  0.50000000  0.75000000  1
  Nb  Nb1  1  0.25000000  0.50000000  0.25000000  1
  C  C2  1  0.99620340  0.99240679  0.01138981  1
  C  C3  1  0.50379660  0.00759321  0.48861019  1
