# generated using pymatgen
data_Na3Mo2N5
_symmetry_space_group_name_H-M   'P 1'
_cell_length_a   9.62476194
_cell_length_b   12.14190595
_cell_length_c   8.70014053
_cell_angle_alpha   89.99976034
_cell_angle_beta   63.12982660
_cell_angle_gamma   129.10661504
_symmetry_Int_Tables_number   1
_chemical_formula_structural   Na3Mo2N5
_chemical_formula_sum   'Na12 Mo8 N20'
_cell_volume   641.30665303
_cell_formula_units_Z   4
loop_
 _symmetry_equiv_pos_site_id
 _symmetry_equiv_pos_as_xyz
  1  'x, y, z'
loop_
 _atom_site_type_symbol
 _atom_site_label
 _atom_site_symmetry_multiplicity
 _atom_site_fract_x
 _atom_site_fract_y
 _atom_site_fract_z
 _atom_site_occupancy
  Na  Na0  1  0.54731818  0.66678772  0.95237369  1
  Na  Na1  1  0.45266405  0.33320443  0.49969746  1
  Na  Na2  1  0.78626431  0.61947269  0.08290026  1
  Na  Na3  1  0.21371674  0.38052445  0.86920102  1
  Na  Na4  1  0.59508494  0.22526760  0.68872394  1
  Na  Na5  1  0.40492835  0.77473128  0.28380542  1
  Na  Na6  1  0.85545069  0.13019787  0.30853984  1
  Na  Na7  1  0.14456320  0.86982199  0.16398145  1
  Na  Na8  1  0.99999964  0.00000064  0.56227329  1
  Na  Na9  1  0.99998057  0.49998038  0.81228465  1
  Na  Na10  1  0.99999388  0.49999438  0.22559192  1
  Na  Na11  1  0.00000161  0.00000215  0.97563015  1
  Mo  Mo12  1  0.17711205  0.39993785  0.46120865  1
  Mo  Mo13  1  0.82290250  0.60006451  0.63829639  1
  Mo  Mo14  1  0.62276930  0.72284226  0.48837843  1
  Mo  Mo15  1  0.37723489  0.27716145  0.11113313  1
  Mo  Mo16  1  0.43069411  0.81342749  0.80145270  1
  Mo  Mo17  1  0.56929188  0.18656904  0.23215488  1
  Mo  Mo18  1  0.19615235  0.88273044  0.66872488  1
  Mo  Mo19  1  0.80385416  0.11727665  0.86486222  1
  N  N20  1  0.22617409  0.51851221  0.28808438  1
  N  N21  1  0.77383209  0.48148596  0.51424032  1
  N  N22  1  0.81084803  0.79233963  0.24574316  1
  N  N23  1  0.18914648  0.20765747  0.05658866  1
  N  N24  1  0.95290193  0.83944836  0.80391987  1
  N  N25  1  0.04709982  0.16055386  0.75682097  1
  N  N26  1  0.72598213  0.38653521  0.16738286  1
  N  N27  1  0.27401351  0.61346245  0.89336452  1
  N  N28  1  0.27682536  0.31100973  0.33341321  1
  N  N29  1  0.72318250  0.68898992  0.61023477  1
  N  N30  1  0.34521014  0.53419343  0.54922940  1
  N  N31  1  0.65480138  0.46580870  0.89442410  1
  N  N32  1  0.23273503  0.83503327  0.85061696  1
  N  N33  1  0.76725779  0.16496434  0.08335379  1
  N  N34  1  0.43733178  0.10229447  0.49832550  1
  N  N35  1  0.56267474  0.89770907  0.93564510  1
  N  N36  1  0.64123293  0.88874891  0.53768741  1
  N  N37  1  0.35877050  0.11125364  0.17891299  1
  N  N38  1  0.13625406  0.74751205  0.54017657  1
  N  N39  1  0.86374832  0.25249206  0.67642111  1
