# generated using pymatgen
data_SbAsO5
_symmetry_space_group_name_H-M   'P 1'
_cell_length_a   4.99108531
_cell_length_b   8.96461706
_cell_length_c   9.31589481
_cell_angle_alpha   90.00000000
_cell_angle_beta   90.00000000
_cell_angle_gamma   90.00000000
_symmetry_Int_Tables_number   1
_chemical_formula_structural   SbAsO5
_chemical_formula_sum   'Sb4 As4 O20'
_cell_volume   416.82265138
_cell_formula_units_Z   4
loop_
 _symmetry_equiv_pos_site_id
 _symmetry_equiv_pos_as_xyz
  1  'x, y, z'
loop_
 _atom_site_type_symbol
 _atom_site_label
 _atom_site_symmetry_multiplicity
 _atom_site_fract_x
 _atom_site_fract_y
 _atom_site_fract_z
 _atom_site_occupancy
  O  O0  1  0.30156332  0.75045112  0.21979786  1
  O  O1  1  0.80156332  0.24954888  0.28020214  1
  O  O2  1  0.19843668  0.25045112  0.78020214  1
  O  O3  1  0.69843668  0.74954888  0.71979786  1
  O  O4  1  0.47099198  0.95653568  0.99810664  1
  O  O5  1  0.97099198  0.04346432  0.50189336  1
  O  O6  1  0.02900802  0.45653568  0.00189336  1
  O  O7  1  0.52900802  0.54346432  0.49810664  1
  O  O8  1  0.17044685  0.57519999  0.71962063  1
  O  O9  1  0.67044685  0.42480001  0.78037937  1
  O  O10  1  0.32955315  0.07519999  0.28037937  1
  O  O11  1  0.82955315  0.92480001  0.21962063  1
  O  O12  1  0.42277397  0.86374251  0.49914400  1
  O  O13  1  0.92277397  0.13625749  0.00085600  1
  O  O14  1  0.07722603  0.36374251  0.50085600  1
  O  O15  1  0.57722603  0.63625749  0.99914400  1
  O  O16  1  0.93493211  0.73020730  0.44225495  1
  O  O17  1  0.43493211  0.26979270  0.05774505  1
  O  O18  1  0.56506789  0.23020730  0.55774505  1
  O  O19  1  0.06506789  0.76979270  0.94225495  1
  As  As20  1  0.14033952  0.27863740  0.96152227  1
  As  As21  1  0.64033952  0.72136260  0.53847773  1
  As  As22  1  0.35966048  0.77863740  0.03847773  1
  As  As23  1  0.85966048  0.22136260  0.46152227  1
  Sb  Sb24  1  0.13147637  0.90291916  0.35267211  1
  Sb  Sb25  1  0.63147637  0.09708084  0.14732789  1
  Sb  Sb26  1  0.36852363  0.40291916  0.64732789  1
  Sb  Sb27  1  0.86852363  0.59708084  0.85267211  1
