# generated using pymatgen
data_AlRe
_symmetry_space_group_name_H-M   'P 1'
_cell_length_a   3.10151189
_cell_length_b   3.10151189
_cell_length_c   5.99554283
_cell_angle_alpha   90.00000000
_cell_angle_beta   90.00000000
_cell_angle_gamma   90.00000000
_symmetry_Int_Tables_number   1
_chemical_formula_structural   AlRe
_chemical_formula_sum   'Al2 Re2'
_cell_volume   57.67338083
_cell_formula_units_Z   2
loop_
 _symmetry_equiv_pos_site_id
 _symmetry_equiv_pos_as_xyz
  1  'x, y, z'
loop_
 _atom_site_type_symbol
 _atom_site_label
 _atom_site_symmetry_multiplicity
 _atom_site_fract_x
 _atom_site_fract_y
 _atom_site_fract_z
 _atom_site_occupancy
  Al  Al0  1  -0.00000000  0.00000000  0.49697919  1
  Al  Al1  1  0.50000000  0.50000000  0.75302081  1
  Re  Re2  1  0.00000000  -0.00000000  0.99016815  1
  Re  Re3  1  0.50000000  0.50000000  0.25983185  1
