# generated using pymatgen
data_Sr3B3N5
_symmetry_space_group_name_H-M   'P 1'
_cell_length_a   6.93051960
_cell_length_b   6.37933515
_cell_length_c   11.21629307
_cell_angle_alpha   98.17667524
_cell_angle_beta   138.75912306
_cell_angle_gamma   87.38702634
_symmetry_Int_Tables_number   1
_chemical_formula_structural   Sr3B3N5
_chemical_formula_sum   'Sr6 B6 N10'
_cell_volume   322.15059328
_cell_formula_units_Z   2
loop_
 _symmetry_equiv_pos_site_id
 _symmetry_equiv_pos_as_xyz
  1  'x, y, z'
loop_
 _atom_site_type_symbol
 _atom_site_label
 _atom_site_symmetry_multiplicity
 _atom_site_fract_x
 _atom_site_fract_y
 _atom_site_fract_z
 _atom_site_occupancy
  Sr  Sr0  1  0.66811557  0.27307003  0.62010842  1
  Sr  Sr1  1  0.33188443  0.72692997  0.37989158  1
  Sr  Sr2  1  0.57540394  0.88553748  0.86260643  1
  Sr  Sr3  1  0.42459606  0.11446252  0.13739357  1
  Sr  Sr4  1  0.73986343  0.66301023  0.29684162  1
  Sr  Sr5  1  0.26013657  0.33698977  0.70315838  1
  B  B6  1  0.92433741  0.41062026  0.02104214  1
  B  B7  1  0.07566259  0.58937974  0.97895786  1
  B  B8  1  0.89311051  0.91450544  0.59015005  1
  B  B9  1  0.10688949  0.08549456  0.40984995  1
  B  B10  1  0.09117538  0.79829145  0.80224238  1
  B  B11  1  0.90882462  0.20170855  0.19775762  1
  N  N12  1  0.11149138  0.02690589  0.78698612  1
  N  N13  1  0.88850862  0.97309411  0.21301388  1
  N  N14  1  0.94321870  0.67771914  0.62245229  1
  N  N15  1  0.05678130  0.32228086  0.37754771  1
  N  N16  1  0.76041048  0.52778432  0.86293856  1
  N  N17  1  0.23958952  0.47221568  0.13706144  1
  N  N18  1  0.33685527  0.00708685  0.57603610  1
  N  N19  1  0.66314473  0.99291315  0.42396390  1
  N  N20  1  0.20206309  0.72464932  0.95791174  1
  N  N21  1  0.79793691  0.27535068  0.04208826  1
