# generated using pymatgen
data_Li14Be6(BO3)9
_symmetry_space_group_name_H-M   'P 1'
_cell_length_a   7.82895824
_cell_length_b   7.82895824
_cell_length_c   19.13956597
_cell_angle_alpha   90.00000000
_cell_angle_beta   90.00000000
_cell_angle_gamma   119.99999731
_symmetry_Int_Tables_number   1
_chemical_formula_structural   Li14Be6(BO3)9
_chemical_formula_sum   'Li28 Be12 B18 O54'
_cell_volume   1015.94613316
_cell_formula_units_Z   2
loop_
 _symmetry_equiv_pos_site_id
 _symmetry_equiv_pos_as_xyz
  1  'x, y, z'
loop_
 _atom_site_type_symbol
 _atom_site_label
 _atom_site_symmetry_multiplicity
 _atom_site_fract_x
 _atom_site_fract_y
 _atom_site_fract_z
 _atom_site_occupancy
  Li  Li0  1  0.69764354  0.02351370  0.83051040  1
  Li  Li1  1  0.30235646  0.97648630  0.16948960  1
  Li  Li2  1  0.32587016  0.30235646  0.83051040  1
  Li  Li3  1  0.30235646  0.97648630  0.33051040  1
  Li  Li4  1  0.67412984  0.69764354  0.16948960  1
  Li  Li5  1  0.69764354  0.02351370  0.66948960  1
  Li  Li6  1  0.97648630  0.67412984  0.83051040  1
  Li  Li7  1  0.67412984  0.69764354  0.33051040  1
  Li  Li8  1  0.02351370  0.32587016  0.16948960  1
  Li  Li9  1  0.32587016  0.30235646  0.66948960  1
  Li  Li10  1  0.02351370  0.32587016  0.33051040  1
  Li  Li11  1  0.97648630  0.67412984  0.66948960  1
  Li  Li12  1  0.66666700  0.33333300  0.75000000  1
  Li  Li13  1  0.33333300  0.66666700  0.25000000  1
  Li  Li14  1  0.33333300  0.66666700  0.75000000  1
  Li  Li15  1  0.66666700  0.33333300  0.25000000  1
  Li  Li16  1  0.67642419  0.02764426  0.96401756  1
  Li  Li17  1  0.32357581  0.97235574  0.03598244  1
  Li  Li18  1  0.35122007  0.32357581  0.96401756  1
  Li  Li19  1  0.32357581  0.97235574  0.46401756  1
  Li  Li20  1  0.64877993  0.67642419  0.03598244  1
  Li  Li21  1  0.67642419  0.02764426  0.53598244  1
  Li  Li22  1  0.97235574  0.64877993  0.96401756  1
  Li  Li23  1  0.64877993  0.67642419  0.46401756  1
  Li  Li24  1  0.02764426  0.35122007  0.03598244  1
  Li  Li25  1  0.35122007  0.32357581  0.53598244  1
  Li  Li26  1  0.02764426  0.35122007  0.46401756  1
  Li  Li27  1  0.97235574  0.64877993  0.53598244  1
  Be  Be28  1  0.65015626  0.67540193  0.88940750  1
  Be  Be29  1  0.34984374  0.32459807  0.11059250  1
  Be  Be30  1  0.02524568  0.34984374  0.88940750  1
  Be  Be31  1  0.34984374  0.32459807  0.38940750  1
  Be  Be32  1  0.97475432  0.65015626  0.11059250  1
  Be  Be33  1  0.65015626  0.67540193  0.61059250  1
  Be  Be34  1  0.32459807  0.97475432  0.88940750  1
  Be  Be35  1  0.97475432  0.65015626  0.38940750  1
  Be  Be36  1  0.67540193  0.02524568  0.11059250  1
  Be  Be37  1  0.02524568  0.34984374  0.61059250  1
  Be  Be38  1  0.67540193  0.02524568  0.38940750  1
  Be  Be39  1  0.32459807  0.97475432  0.61059250  1
  B  B40  1  0.66666700  0.33333300  0.89283167  1
  B  B41  1  0.33333300  0.66666700  0.10716833  1
  B  B42  1  0.33333300  0.66666700  0.39283167  1
  B  B43  1  0.66666700  0.33333300  0.60716833  1
  B  B44  1  0.00000000  -0.00000000  0.90707884  1
  B  B45  1  0.00000000  -0.00000000  0.09292116  1
  B  B46  1  0.00000000  -0.00000000  0.40707884  1
  B  B47  1  0.00000000  -0.00000000  0.59292116  1
  B  B48  1  0.67758432  0.69918497  0.75000000  1
  B  B49  1  0.32241568  0.30081503  0.25000000  1
  B  B50  1  0.02160064  0.32241568  0.75000000  1
  B  B51  1  0.97839936  0.67758432  0.25000000  1
  B  B52  1  0.30081503  0.97839936  0.75000000  1
  B  B53  1  0.69918497  0.02160064  0.25000000  1
  B  B54  1  0.66666700  0.33333300  0.44862535  1
  B  B55  1  0.33333300  0.66666700  0.55137465  1
  B  B56  1  0.33333300  0.66666700  0.94862535  1
  B  B57  1  0.66666700  0.33333300  0.05137465  1
  O  O58  1  0.82104688  0.20030321  0.75000000  1
  O  O59  1  0.17895312  0.79969679  0.25000000  1
  O  O60  1  0.37925634  0.17895312  0.75000000  1
  O  O61  1  0.62074366  0.82104688  0.25000000  1
  O  O62  1  0.79969679  0.62074366  0.75000000  1
  O  O63  1  0.20030321  0.37925634  0.25000000  1
  O  O64  1  0.91058126  0.11369485  0.90665029  1
  O  O65  1  0.08941874  0.88630515  0.09334971  1
  O  O66  1  0.20311360  0.08941874  0.90665029  1
  O  O67  1  0.08941874  0.88630515  0.40665029  1
  O  O68  1  0.79688640  0.91058126  0.09334971  1
  O  O69  1  0.91058126  0.11369485  0.59334971  1
  O  O70  1  0.88630515  0.79688640  0.90665029  1
  O  O71  1  0.79688640  0.91058126  0.40665029  1
  O  O72  1  0.11369485  0.20311360  0.09334971  1
  O  O73  1  0.20311360  0.08941874  0.59334971  1
  O  O74  1  0.11369485  0.20311360  0.40665029  1
  O  O75  1  0.88630515  0.79688640  0.59334971  1
  O  O76  1  0.60797617  0.73865736  0.81151686  1
  O  O77  1  0.39202383  0.26134264  0.18848314  1
  O  O78  1  0.13068119  0.39202383  0.81151686  1
  O  O79  1  0.39202383  0.26134264  0.31151686  1
  O  O80  1  0.86931881  0.60797617  0.18848314  1
  O  O81  1  0.60797617  0.73865736  0.68848314  1
  O  O82  1  0.26134264  0.86931881  0.81151686  1
  O  O83  1  0.86931881  0.60797617  0.31151686  1
  O  O84  1  0.73865736  0.13068119  0.18848314  1
  O  O85  1  0.13068119  0.39202383  0.68848314  1
  O  O86  1  0.73865736  0.13068119  0.31151686  1
  O  O87  1  0.26134264  0.86931881  0.68848314  1
  O  O88  1  0.87113012  0.43244889  0.89230531  1
  O  O89  1  0.12886988  0.56755111  0.10769469  1
  O  O90  1  0.56131876  0.12886988  0.89230531  1
  O  O91  1  0.12886988  0.56755111  0.39230531  1
  O  O92  1  0.43868124  0.87113012  0.10769469  1
  O  O93  1  0.87113012  0.43244889  0.60769469  1
  O  O94  1  0.56755111  0.43868124  0.89230531  1
  O  O95  1  0.43868124  0.87113012  0.39230531  1
  O  O96  1  0.43244889  0.56131876  0.10769469  1
  O  O97  1  0.56131876  0.12886988  0.60769469  1
  O  O98  1  0.43244889  0.56131876  0.39230531  1
  O  O99  1  0.56755111  0.43868124  0.60769469  1
  O  O100  1  0.53441137  0.73323126  0.94977876  1
  O  O101  1  0.46558863  0.26676874  0.05022124  1
  O  O102  1  0.19881990  0.46558863  0.94977876  1
  O  O103  1  0.46558863  0.26676874  0.44977876  1
  O  O104  1  0.80118010  0.53441137  0.05022124  1
  O  O105  1  0.53441137  0.73323126  0.55022124  1
  O  O106  1  0.26676874  0.80118010  0.94977876  1
  O  O107  1  0.80118010  0.53441137  0.44977876  1
  O  O108  1  0.73323126  0.19881990  0.05022124  1
  O  O109  1  0.19881990  0.46558863  0.55022124  1
  O  O110  1  0.73323126  0.19881990  0.44977876  1
  O  O111  1  0.26676874  0.80118010  0.55022124  1
