# generated using pymatgen
data_Sm10S19
_symmetry_space_group_name_H-M   'P 1'
_cell_length_a   8.84848352
_cell_length_b   8.84848352
_cell_length_c   16.07612035
_cell_angle_alpha   90.00000000
_cell_angle_beta   90.00000000
_cell_angle_gamma   90.00000000
_symmetry_Int_Tables_number   1
_chemical_formula_structural   Sm10S19
_chemical_formula_sum   'Sm20 S38'
_cell_volume   1258.69046275
_cell_formula_units_Z   2
loop_
 _symmetry_equiv_pos_site_id
 _symmetry_equiv_pos_as_xyz
  1  'x, y, z'
loop_
 _atom_site_type_symbol
 _atom_site_label
 _atom_site_symmetry_multiplicity
 _atom_site_fract_x
 _atom_site_fract_y
 _atom_site_fract_z
 _atom_site_occupancy
  S  S0  1  0.75000000  0.75000000  0.25000000  1
  S  S1  1  0.25000000  0.25000000  0.75000000  1
  S  S2  1  0.80566582  0.46965206  0.75077241  1
  S  S3  1  0.53034794  0.30566582  0.25077241  1
  S  S4  1  0.96965206  0.19433418  0.25077241  1
  S  S5  1  0.69433418  0.03034794  0.75077241  1
  S  S6  1  0.19433418  0.53034794  0.24922759  1
  S  S7  1  0.46965206  0.69433418  0.74922759  1
  S  S8  1  0.03034794  0.80566582  0.74922759  1
  S  S9  1  0.30566582  0.96965206  0.24922759  1
  S  S10  1  0.88788104  0.42535077  0.24984753  1
  S  S11  1  0.57464923  0.38788104  0.74984753  1
  S  S12  1  0.92535077  0.11211896  0.74984753  1
  S  S13  1  0.61211896  0.07464923  0.24984753  1
  S  S14  1  0.11211896  0.57464923  0.75015247  1
  S  S15  1  0.42535077  0.61211896  0.25015247  1
  S  S16  1  0.07464923  0.88788104  0.25015247  1
  S  S17  1  0.38788104  0.92535077  0.75015247  1
  S  S18  1  0.25000000  0.75000000  0.43487322  1
  S  S19  1  0.25000000  0.75000000  0.93487322  1
  S  S20  1  0.55319603  0.85162130  0.56218356  1
  S  S21  1  0.14837870  0.05319603  0.06218356  1
  S  S22  1  0.35162130  0.44680397  0.06218356  1
  S  S23  1  0.94680397  0.64837870  0.56218356  1
  S  S24  1  0.44680397  0.14837870  0.43781644  1
  S  S25  1  0.85162130  0.94680397  0.93781644  1
  S  S26  1  0.64837870  0.55319603  0.93781644  1
  S  S27  1  0.05319603  0.35162130  0.43781644  1
  S  S28  1  0.54892520  0.84808797  0.07298280  1
  S  S29  1  0.15191203  0.04892520  0.57298280  1
  S  S30  1  0.34808797  0.45107480  0.57298280  1
  S  S31  1  0.95107480  0.65191203  0.07298280  1
  S  S32  1  0.45107480  0.15191203  0.92701720  1
  S  S33  1  0.84808797  0.95107480  0.42701720  1
  S  S34  1  0.65191203  0.54892520  0.42701720  1
  S  S35  1  0.04892520  0.34808797  0.92701720  1
  S  S36  1  0.75000000  0.25000000  0.06512678  1
  S  S37  1  0.75000000  0.25000000  0.56512678  1
  Sm  Sm38  1  0.05492755  0.35426361  0.10332977  1
  Sm  Sm39  1  0.64573639  0.55492755  0.60332977  1
  Sm  Sm40  1  0.85426361  0.94507245  0.60332977  1
  Sm  Sm41  1  0.44507245  0.14573639  0.10332977  1
  Sm  Sm42  1  0.94507245  0.64573639  0.89667023  1
  Sm  Sm43  1  0.35426361  0.44507245  0.39667023  1
  Sm  Sm44  1  0.14573639  0.05492755  0.39667023  1
  Sm  Sm45  1  0.55492755  0.85426361  0.89667023  1
  Sm  Sm46  1  0.04109283  0.34798569  0.62178129  1
  Sm  Sm47  1  0.65201431  0.54109283  0.12178129  1
  Sm  Sm48  1  0.84798569  0.95890717  0.12178129  1
  Sm  Sm49  1  0.45890717  0.15201431  0.62178129  1
  Sm  Sm50  1  0.95890717  0.65201431  0.37821871  1
  Sm  Sm51  1  0.34798569  0.45890717  0.87821871  1
  Sm  Sm52  1  0.15201431  0.04109283  0.87821871  1
  Sm  Sm53  1  0.54109283  0.84798569  0.37821871  1
  Sm  Sm54  1  0.75000000  0.25000000  0.38491304  1
  Sm  Sm55  1  0.75000000  0.25000000  0.88491304  1
  Sm  Sm56  1  0.25000000  0.75000000  0.61508696  1
  Sm  Sm57  1  0.25000000  0.75000000  0.11508696  1
