# generated using pymatgen
data_CaSn3P3O13
_symmetry_space_group_name_H-M   'P 1'
_cell_length_a   6.88281961
_cell_length_b   7.72538446
_cell_length_c   11.13359570
_cell_angle_alpha   98.09386199
_cell_angle_beta   90.00000000
_cell_angle_gamma   90.00000000
_symmetry_Int_Tables_number   1
_chemical_formula_structural   CaSn3P3O13
_chemical_formula_sum   'Ca2 Sn6 P6 O26'
_cell_volume   586.10324700
_cell_formula_units_Z   2
loop_
 _symmetry_equiv_pos_site_id
 _symmetry_equiv_pos_as_xyz
  1  'x, y, z'
loop_
 _atom_site_type_symbol
 _atom_site_label
 _atom_site_symmetry_multiplicity
 _atom_site_fract_x
 _atom_site_fract_y
 _atom_site_fract_z
 _atom_site_occupancy
  Ca  Ca0  1  0.75000000  0.64340989  0.20285678  1
  Ca  Ca1  1  0.25000000  0.35659011  0.79714322  1
  Sn  Sn2  1  0.25000000  0.32445093  0.24288532  1
  Sn  Sn3  1  0.75000000  0.67554907  0.75711468  1
  Sn  Sn4  1  0.25000000  0.76032368  0.45608511  1
  Sn  Sn5  1  0.50000000  -0.00000000  -0.00000000  1
  Sn  Sn6  1  0.75000000  0.23967632  0.54391489  1
  Sn  Sn7  1  -0.00000000  -0.00000000  -0.00000000  1
  P  P8  1  0.25000000  0.21359570  0.51850070  1
  P  P9  1  0.75000000  0.78640430  0.48149930  1
  P  P10  1  0.25000000  0.76795284  0.75963588  1
  P  P11  1  0.75000000  0.23204716  0.24036412  1
  P  P12  1  0.75000000  0.33984223  0.90632617  1
  P  P13  1  0.25000000  0.66015777  0.09367383  1
  O  O14  1  0.75000000  0.42176751  0.78234626  1
  O  O15  1  0.57562983  0.75058605  0.39444368  1
  O  O16  1  0.25000000  0.87574410  0.65652495  1
  O  O17  1  0.56086903  0.22349857  0.89644848  1
  O  O18  1  0.75000000  0.64404303  0.57426878  1
  O  O19  1  0.75000000  0.86765126  0.90321577  1
  O  O20  1  0.25000000  0.35595697  0.42573122  1
  O  O21  1  0.06086903  0.77650143  0.10355152  1
  O  O22  1  0.25000000  0.03791293  0.43441400  1
  O  O23  1  0.75000000  0.96208707  0.56558600  1
  O  O24  1  0.06961144  0.64672847  0.76425219  1
  O  O25  1  0.25000000  0.13234874  0.09678423  1
  O  O26  1  0.56961144  0.35327153  0.23574781  1
  O  O27  1  0.75000000  0.48262974  0.01327591  1
  O  O28  1  0.75000000  0.12425590  0.34347505  1
  O  O29  1  0.43913097  0.77650143  0.10355152  1
  O  O30  1  0.92437017  0.75058605  0.39444368  1
  O  O31  1  0.42437017  0.24941395  0.60555632  1
  O  O32  1  0.43038856  0.64672847  0.76425219  1
  O  O33  1  0.25000000  0.57823249  0.21765374  1
  O  O34  1  0.75000000  0.09345315  0.11785651  1
  O  O35  1  0.25000000  0.90654685  0.88214349  1
  O  O36  1  0.93038856  0.35327153  0.23574781  1
  O  O37  1  0.93913097  0.22349857  0.89644848  1
  O  O38  1  0.07562983  0.24941395  0.60555632  1
  O  O39  1  0.25000000  0.51737026  -0.01327591  1
