# generated using pymatgen
data_Mn2CdO4
_symmetry_space_group_name_H-M   'P 1'
_cell_length_a   5.94626963
_cell_length_b   5.94626948
_cell_length_c   6.52406323
_cell_angle_alpha   117.11116675
_cell_angle_beta   117.11116611
_cell_angle_gamma   89.99999283
_symmetry_Int_Tables_number   1
_chemical_formula_structural   Mn2CdO4
_chemical_formula_sum   'Mn4 Cd2 O8'
_cell_volume   176.38115517
_cell_formula_units_Z   2
loop_
 _symmetry_equiv_pos_site_id
 _symmetry_equiv_pos_as_xyz
  1  'x, y, z'
loop_
 _atom_site_type_symbol
 _atom_site_label
 _atom_site_symmetry_multiplicity
 _atom_site_fract_x
 _atom_site_fract_y
 _atom_site_fract_z
 _atom_site_occupancy
  Mn  Mn0  1  0.00000000  -0.00000000  0.50000000  1
  Mn  Mn1  1  0.00000000  -0.00000000  -0.00000000  1
  Mn  Mn2  1  0.00000000  0.50000000  -0.00000000  1
  Mn  Mn3  1  0.50000000  -0.00000000  0.50000000  1
  Cd  Cd4  1  0.62500000  0.37500000  0.25000000  1
  Cd  Cd5  1  0.37500000  0.62500000  0.75000000  1
  O  O6  1  0.79863918  0.76646969  0.03293937  1
  O  O7  1  0.76646969  0.23430019  0.53293937  1
  O  O8  1  0.23430019  0.76646969  0.03293937  1
  O  O9  1  0.20136082  0.23353031  0.96706063  1
  O  O10  1  0.23353031  0.76569981  0.46706063  1
  O  O11  1  0.23353031  0.20136082  0.46706063  1
  O  O12  1  0.76646969  0.79863918  0.53293937  1
  O  O13  1  0.76569981  0.23353031  0.96706063  1
