# generated using pymatgen
data_K3P6N11
_symmetry_space_group_name_H-M   'P 1'
_cell_length_a   10.49469726
_cell_length_b   10.49469726
_cell_length_c   10.49469726
_cell_angle_alpha   90.00000000
_cell_angle_beta   90.00000000
_cell_angle_gamma   90.00000000
_symmetry_Int_Tables_number   1
_chemical_formula_structural   K3P6N11
_chemical_formula_sum   'K12 P24 N44'
_cell_volume   1155.87200435
_cell_formula_units_Z   4
loop_
 _symmetry_equiv_pos_site_id
 _symmetry_equiv_pos_as_xyz
  1  'x, y, z'
loop_
 _atom_site_type_symbol
 _atom_site_label
 _atom_site_symmetry_multiplicity
 _atom_site_fract_x
 _atom_site_fract_y
 _atom_site_fract_z
 _atom_site_occupancy
  N  N0  1  0.54744957  0.54744957  0.54744957  1
  N  N1  1  0.79744957  0.70255043  0.29744957  1
  N  N2  1  0.70255043  0.29744957  0.79744957  1
  N  N3  1  0.29744957  0.79744957  0.70255043  1
  N  N4  1  0.04744957  0.95255043  0.45255043  1
  N  N5  1  0.95255043  0.45255043  0.04744957  1
  N  N6  1  0.45255043  0.04744957  0.95255043  1
  N  N7  1  0.20255043  0.20255043  0.20255043  1
  N  N8  1  0.62500000  0.30321795  0.55321795  1
  N  N9  1  0.69678205  0.05321795  0.87500000  1
  N  N10  1  0.55321795  0.62500000  0.30321795  1
  N  N11  1  0.94678205  0.37500000  0.80321795  1
  N  N12  1  0.30321795  0.55321795  0.62500000  1
  N  N13  1  0.44678205  0.12500000  0.19678205  1
  N  N14  1  0.05321795  0.87500000  0.69678205  1
  N  N15  1  0.80321795  0.94678205  0.37500000  1
  N  N16  1  0.19678205  0.44678205  0.12500000  1
  N  N17  1  0.87500000  0.69678205  0.05321795  1
  N  N18  1  0.37500000  0.80321795  0.94678205  1
  N  N19  1  0.27941877  0.01375638  0.35420093  1
  N  N20  1  0.12500000  0.19678205  0.44678205  1
  N  N21  1  0.23624362  0.02941877  0.60420093  1
  N  N22  1  0.47058123  0.39579907  0.73624362  1
  N  N23  1  0.52941877  0.89579907  0.76375638  1
  N  N24  1  0.39579907  0.73624362  0.47058123  1
  N  N25  1  0.10420093  0.26375638  0.97058123  1
  N  N26  1  0.48624362  0.64579907  0.77941877  1
  N  N27  1  0.98624362  0.85420093  0.22058123  1
  N  N28  1  0.51375638  0.14579907  0.72058123  1
  N  N29  1  0.85420093  0.22058123  0.98624362  1
  N  N30  1  0.72058123  0.51375638  0.14579907  1
  N  N31  1  0.22058123  0.98624362  0.85420093  1
  N  N32  1  0.64579907  0.77941877  0.48624362  1
  N  N33  1  0.77941877  0.48624362  0.64579907  1
  N  N34  1  0.14579907  0.72058123  0.51375638  1
  N  N35  1  0.35420093  0.27941877  0.01375638  1
  N  N36  1  0.01375638  0.35420093  0.27941877  1
  N  N37  1  0.26375638  0.97058123  0.10420093  1
  N  N38  1  0.76375638  0.52941877  0.89579907  1
  N  N39  1  0.02941877  0.60420093  0.23624362  1
  N  N40  1  0.97058123  0.10420093  0.26375638  1
  N  N41  1  0.89579907  0.76375638  0.52941877  1
  N  N42  1  0.60420093  0.23624362  0.02941877  1
  N  N43  1  0.73624362  0.47058123  0.39579907  1
  P  P44  1  0.67810156  0.44888448  0.53488556  1
  P  P45  1  0.17810156  0.05111552  0.46511444  1
  P  P46  1  0.44888448  0.53488556  0.67810156  1
  P  P47  1  0.55111552  0.03488556  0.82189844  1
  P  P48  1  0.53488556  0.67810156  0.44888448  1
  P  P49  1  0.96511444  0.32189844  0.94888448  1
  P  P50  1  0.42810156  0.78488556  0.80111552  1
  P  P51  1  0.92810156  0.71511444  0.19888448  1
  P  P52  1  0.57189844  0.28488556  0.69888448  1
  P  P53  1  0.71511444  0.19888448  0.92810156  1
  P  P54  1  0.69888448  0.57189844  0.28488556  1
  P  P55  1  0.19888448  0.92810156  0.71511444  1
  P  P56  1  0.78488556  0.80111552  0.42810156  1
  P  P57  1  0.80111552  0.42810156  0.78488556  1
  P  P58  1  0.28488556  0.69888448  0.57189844  1
  P  P59  1  0.21511444  0.30111552  0.07189844  1
  P  P60  1  0.30111552  0.07189844  0.21511444  1
  P  P61  1  0.46511444  0.17810156  0.05111552  1
  P  P62  1  0.03488556  0.82189844  0.55111552  1
  P  P63  1  0.94888448  0.96511444  0.32189844  1
  P  P64  1  0.05111552  0.46511444  0.17810156  1
  P  P65  1  0.82189844  0.55111552  0.03488556  1
  P  P66  1  0.32189844  0.94888448  0.96511444  1
  P  P67  1  0.07189844  0.21511444  0.30111552  1
  K  K68  1  0.99943837  0.99943837  0.99943837  1
  K  K69  1  0.24943837  0.25056163  0.74943837  1
  K  K70  1  0.25056163  0.74943837  0.24943837  1
  K  K71  1  0.74943837  0.24943837  0.25056163  1
  K  K72  1  0.49943837  0.50056163  0.00056163  1
  K  K73  1  0.50056163  0.00056163  0.49943837  1
  K  K74  1  0.00056163  0.49943837  0.50056163  1
  K  K75  1  0.75056163  0.75056163  0.75056163  1
  K  K76  1  0.87500000  0.12500000  0.62500000  1
  K  K77  1  0.12500000  0.62500000  0.87500000  1
  K  K78  1  0.62500000  0.87500000  0.12500000  1
  K  K79  1  0.37500000  0.37500000  0.37500000  1
