# generated using pymatgen
data_Bi6P2O15
_symmetry_space_group_name_H-M   'P 1'
_cell_length_a   5.55133656
_cell_length_b   7.88855770
_cell_length_c   17.29873774
_cell_angle_alpha   102.17251918
_cell_angle_beta   90.12312123
_cell_angle_gamma   110.37847625
_symmetry_Int_Tables_number   1
_chemical_formula_structural   Bi6P2O15
_chemical_formula_sum   'Bi12 P4 O30'
_cell_volume   691.80362327
_cell_formula_units_Z   2
loop_
 _symmetry_equiv_pos_site_id
 _symmetry_equiv_pos_as_xyz
  1  'x, y, z'
loop_
 _atom_site_type_symbol
 _atom_site_label
 _atom_site_symmetry_multiplicity
 _atom_site_fract_x
 _atom_site_fract_y
 _atom_site_fract_z
 _atom_site_occupancy
  Bi  Bi0  1  0.89183972  0.43070730  0.38169749  1
  Bi  Bi1  1  0.26835020  0.14631893  0.91737577  1
  Bi  Bi2  1  0.17013766  0.95276814  0.59626798  1
  Bi  Bi3  1  0.78631935  0.07929282  0.74605566  1
  Bi  Bi4  1  0.07505797  0.70706389  0.76198161  1
  Bi  Bi5  1  0.36243854  0.29510436  0.23849164  1
  Bi  Bi6  1  0.46553081  0.57196435  0.61989214  1
  Bi  Bi7  1  0.21605361  0.04871197  0.40327761  1
  Bi  Bi8  1  0.59512502  0.79932037  0.91415789  1
  Bi  Bi9  1  0.70709665  0.92131923  0.25458447  1
  Bi  Bi10  1  0.79166645  0.20260540  0.08719258  1
  Bi  Bi11  1  0.12249820  0.85418197  0.08428815  1
  P  P12  1  0.89383081  0.42679212  0.90579625  1
  P  P13  1  0.46925354  0.57267021  0.09469344  1
  P  P14  1  0.49585461  0.71762536  0.42546478  1
  P  P15  1  0.78352625  0.28432934  0.57505323  1
  O  O16  1  0.40556384  0.93873114  0.83806210  1
  O  O17  1  0.03864329  0.85517665  0.29512417  1
  O  O18  1  0.79431251  0.44271292  0.64870405  1
  O  O19  1  0.32105209  0.69003442  0.49560040  1
  O  O20  1  0.63934651  0.31297162  0.50470781  1
  O  O21  1  0.93976885  0.00110128  0.00034432  1
  O  O22  1  0.92028052  0.94859043  0.83441186  1
  O  O23  1  0.72629624  0.67048420  0.15031345  1
  O  O24  1  0.50223389  0.19973212  0.33566172  1
  O  O25  1  0.76544175  0.71158395  0.44435748  1
  O  O26  1  0.05925102  0.28893684  0.55686665  1
  O  O27  1  0.82394991  0.81679964  0.66517751  1
  O  O28  1  0.80573821  0.41872909  0.25649346  1
  O  O29  1  0.53291043  0.90714829  0.40377602  1
  O  O30  1  0.38500257  0.57831685  0.74390868  1
  O  O31  1  0.62854333  0.09498892  0.59651183  1
  O  O32  1  0.00573358  0.18623244  0.33529556  1
  O  O33  1  0.46469226  0.06207182  0.16275801  1
  O  O34  1  0.18360657  0.14413494  0.70532737  1
  O  O35  1  0.96735610  0.05181735  0.16612630  1
  O  O36  1  0.51787070  0.62706830  0.01464189  1
  O  O37  1  0.45343238  0.00073798  0.00034253  1
  O  O38  1  0.02170825  0.64042239  0.91193383  1
  O  O39  1  0.25938517  0.63976720  0.13644037  1
  O  O40  1  0.38691932  0.35902839  0.08652008  1
  O  O41  1  0.88927433  0.37605411  0.98639523  1
  O  O42  1  0.34869071  0.55931978  0.35208284  1
  O  O43  1  0.61755213  0.35659191  0.86362067  1
  O  O44  1  0.05542117  0.32857026  0.85109494  1
  O  O45  1  0.30735097  0.80340003  0.66465218  1
