# generated using pymatgen
data_BaReH9
_symmetry_space_group_name_H-M   'P 1'
_cell_length_a   5.25412070
_cell_length_b   5.25412070
_cell_length_c   9.68532482
_cell_angle_alpha   90.00000000
_cell_angle_beta   90.00000000
_cell_angle_gamma   120.00000000
_symmetry_Int_Tables_number   1
_chemical_formula_structural   BaReH9
_chemical_formula_sum   'Ba2 Re2 H18'
_cell_volume   231.55006793
_cell_formula_units_Z   2
loop_
 _symmetry_equiv_pos_site_id
 _symmetry_equiv_pos_as_xyz
  1  'x, y, z'
loop_
 _atom_site_type_symbol
 _atom_site_label
 _atom_site_symmetry_multiplicity
 _atom_site_fract_x
 _atom_site_fract_y
 _atom_site_fract_z
 _atom_site_occupancy
  H  H0  1  0.46682408  0.53317592  0.37461585  1
  H  H1  1  0.46682408  0.93364815  0.37461585  1
  H  H2  1  0.06635185  0.53317592  0.37461585  1
  H  H3  1  0.93364815  0.46682408  0.87461585  1
  H  H4  1  0.14923596  0.29847192  0.25000000  1
  H  H5  1  0.85076404  0.14923596  0.75000000  1
  H  H6  1  0.29847192  0.14923596  0.75000000  1
  H  H7  1  0.70152808  0.85076404  0.25000000  1
  H  H8  1  0.14923596  0.85076404  0.25000000  1
  H  H9  1  0.85076404  0.70152808  0.75000000  1
  H  H10  1  0.46682408  0.93364815  0.12538415  1
  H  H11  1  0.53317592  0.46682408  0.62538415  1
  H  H12  1  0.93364815  0.46682408  0.62538415  1
  H  H13  1  0.06635185  0.53317592  0.12538415  1
  H  H14  1  0.46682408  0.53317592  0.12538415  1
  H  H15  1  0.53317592  0.06635185  0.87461585  1
  H  H16  1  0.53317592  0.46682408  0.87461585  1
  H  H17  1  0.53317592  0.06635185  0.62538415  1
  Ba  Ba18  1  0.00000000  0.00000000  0.00000000  1
  Ba  Ba19  1  0.00000000  0.00000000  0.50000000  1
  Re  Re20  1  0.33333333  0.66666667  0.25000000  1
  Re  Re21  1  0.66666667  0.33333333  0.75000000  1
