# generated using pymatgen
data_CoS2
_symmetry_space_group_name_H-M   'P 1'
_cell_length_a   6.58194988
_cell_length_b   6.59016628
_cell_length_c   6.58471727
_cell_angle_alpha   59.97235166
_cell_angle_beta   59.92476082
_cell_angle_gamma   59.95061315
_symmetry_Int_Tables_number   1
_chemical_formula_structural   CoS2
_chemical_formula_sum   'Co4 S8'
_cell_volume   201.73102186
_cell_formula_units_Z   4
loop_
 _symmetry_equiv_pos_site_id
 _symmetry_equiv_pos_as_xyz
  1  'x, y, z'
loop_
 _atom_site_type_symbol
 _atom_site_label
 _atom_site_symmetry_multiplicity
 _atom_site_fract_x
 _atom_site_fract_y
 _atom_site_fract_z
 _atom_site_occupancy
  Co  Co0  1  0.49999988  0.00000031  0.49999986  1
  Co  Co1  1  0.00000034  0.49999985  0.49999998  1
  Co  Co2  1  0.49999990  0.49999987  0.00000048  1
  Co  Co3  1  0.49999986  0.49999990  0.49999971  1
  S  S4  1  0.73983592  0.74008224  0.74014453  1
  S  S5  1  0.26012093  0.25984617  0.72016019  1
  S  S6  1  0.26015695  0.72010777  0.25983210  1
  S  S7  1  0.72023900  0.25995911  0.25987109  1
  S  S8  1  0.26016447  0.25991797  0.25985542  1
  S  S9  1  0.73987902  0.74015396  0.27983966  1
  S  S10  1  0.27976089  0.74004100  0.74012868  1
  S  S11  1  0.73984284  0.27989185  0.74016830  1
