# generated using pymatgen
data_SmAlGe
_symmetry_space_group_name_H-M   'P 1'
_cell_length_a   4.22589071
_cell_length_b   4.22589071
_cell_length_c   7.93963774
_cell_angle_alpha   105.43388051
_cell_angle_beta   105.43388054
_cell_angle_gamma   90.00000004
_symmetry_Int_Tables_number   1
_chemical_formula_structural   SmAlGe
_chemical_formula_sum   'Sm2 Al2 Ge2'
_cell_volume   131.36218331
_cell_formula_units_Z   2
loop_
 _symmetry_equiv_pos_site_id
 _symmetry_equiv_pos_as_xyz
  1  'x, y, z'
loop_
 _atom_site_type_symbol
 _atom_site_label
 _atom_site_symmetry_multiplicity
 _atom_site_fract_x
 _atom_site_fract_y
 _atom_site_fract_z
 _atom_site_occupancy
  Al  Al0  1  0.91908808  0.41908808  0.83817617  1
  Al  Al1  1  0.16908808  0.16908808  0.33817617  1
  Ge  Ge2  1  0.00353225  0.00353225  0.00706450  1
  Ge  Ge3  1  0.75353225  0.25353225  0.50706450  1
  Sm  Sm4  1  0.33497967  0.83497967  0.66995933  1
  Sm  Sm5  1  0.58497967  0.58497967  0.16995933  1
