# generated using pymatgen
data_SrIn4Ni
_symmetry_space_group_name_H-M   'P 1'
_cell_length_a   4.55934164
_cell_length_b   7.43161745
_cell_length_c   8.90241663
_cell_angle_alpha   90.00000000
_cell_angle_beta   104.83718609
_cell_angle_gamma   90.00000000
_symmetry_Int_Tables_number   1
_chemical_formula_structural   SrIn4Ni
_chemical_formula_sum   'Sr2 In8 Ni2'
_cell_volume   291.58553413
_cell_formula_units_Z   2
loop_
 _symmetry_equiv_pos_site_id
 _symmetry_equiv_pos_as_xyz
  1  'x, y, z'
loop_
 _atom_site_type_symbol
 _atom_site_label
 _atom_site_symmetry_multiplicity
 _atom_site_fract_x
 _atom_site_fract_y
 _atom_site_fract_z
 _atom_site_occupancy
  Sr  Sr0  1  0.87861710  0.25000000  0.75723420  1
  Sr  Sr1  1  0.12138290  0.75000000  0.24276580  1
  In  In2  1  0.31030512  0.94976279  0.62061023  1
  In  In3  1  0.68969488  0.05023721  0.37938977  1
  In  In4  1  0.31030512  0.55023721  0.62061023  1
  In  In5  1  0.92451237  0.75000000  0.84902474  1
  In  In6  1  0.50000000  -0.00000000  0.00000000  1
  In  In7  1  0.68969488  0.44976279  0.37938977  1
  In  In8  1  0.50000000  0.50000000  0.00000000  1
  In  In9  1  0.07548763  0.25000000  0.15097526  1
  Ni  Ni10  1  0.77409880  0.75000000  0.54819761  1
  Ni  Ni11  1  0.22590120  0.25000000  0.45180239  1
