# generated using pymatgen
data_Sr2In3Rh2
_symmetry_space_group_name_H-M   'P 1'
_cell_length_a   4.32980417
_cell_length_b   5.98336084
_cell_length_c   7.86689851
_cell_angle_alpha   69.18757184
_cell_angle_beta   74.02658482
_cell_angle_gamma   68.78796412
_symmetry_Int_Tables_number   1
_chemical_formula_structural   Sr2In3Rh2
_chemical_formula_sum   'Sr2 In3 Rh2'
_cell_volume   175.06770455
_cell_formula_units_Z   1
loop_
 _symmetry_equiv_pos_site_id
 _symmetry_equiv_pos_as_xyz
  1  'x, y, z'
loop_
 _atom_site_type_symbol
 _atom_site_label
 _atom_site_symmetry_multiplicity
 _atom_site_fract_x
 _atom_site_fract_y
 _atom_site_fract_z
 _atom_site_occupancy
  Sr  Sr0  1  0.85617705  0.51128257  0.77636333  1
  Sr  Sr1  1  0.14382295  0.48871743  0.22363667  1
  Rh  Rh2  1  0.87181309  0.04976111  0.20661271  1
  Rh  Rh3  1  0.12818691  0.95023889  0.79338729  1
  In  In4  1  0.50000000  0.00000000  0.00000000  1
  In  In5  1  0.64139780  0.16073444  0.55646996  1
  In  In6  1  0.35860220  0.83926556  0.44353004  1
