# generated using pymatgen
data_Sr(PO3)2
_symmetry_space_group_name_H-M   'P 1'
_cell_length_a   7.31251632
_cell_length_b   8.05507652
_cell_length_c   17.71561414
_cell_angle_alpha   90.00000000
_cell_angle_beta   90.55703989
_cell_angle_gamma   90.00000000
_symmetry_Int_Tables_number   1
_chemical_formula_structural   Sr(PO3)2
_chemical_formula_sum   'Sr8 P16 O48'
_cell_volume   1043.45135200
_cell_formula_units_Z   8
loop_
 _symmetry_equiv_pos_site_id
 _symmetry_equiv_pos_as_xyz
  1  'x, y, z'
loop_
 _atom_site_type_symbol
 _atom_site_label
 _atom_site_symmetry_multiplicity
 _atom_site_fract_x
 _atom_site_fract_y
 _atom_site_fract_z
 _atom_site_occupancy
  O  O0  1  0.73900858  0.65941073  0.11738334  1
  O  O1  1  0.26099142  0.15941073  0.38261666  1
  O  O2  1  0.26099142  0.34058927  0.88261666  1
  O  O3  1  0.73900858  0.84058927  0.61738334  1
  O  O4  1  0.91707235  0.43334091  0.18777605  1
  O  O5  1  0.08292765  0.93334091  0.31222395  1
  O  O6  1  0.08292765  0.56665909  0.81222395  1
  O  O7  1  0.91707235  0.06665909  0.68777605  1
  O  O8  1  0.57553552  0.43667458  0.19520872  1
  O  O9  1  0.42446448  0.93667458  0.30479128  1
  O  O10  1  0.42446448  0.56332542  0.80479128  1
  O  O11  1  0.57553552  0.06332542  0.69520872  1
  O  O12  1  0.90968372  0.66297945  0.46426645  1
  O  O13  1  0.09031628  0.16297945  0.03573355  1
  O  O14  1  0.09031628  0.33702055  0.53573355  1
  O  O15  1  0.90968372  0.83702055  0.96426645  1
  O  O16  1  0.26980405  0.08882691  0.15385724  1
  O  O17  1  0.67753008  0.05589303  0.09388218  1
  O  O18  1  0.73019595  0.58882691  0.34614276  1
  O  O19  1  0.26980405  0.41117309  0.65385724  1
  O  O20  1  0.73395581  0.36684422  0.07034804  1
  O  O21  1  0.26604419  0.86684422  0.42965196  1
  O  O22  1  0.26604419  0.63315578  0.92965196  1
  O  O23  1  0.73395581  0.13315578  0.57034804  1
  O  O24  1  0.15962294  0.83181487  0.67933798  1
  O  O25  1  0.84037706  0.33181487  0.82066202  1
  O  O26  1  0.84037706  0.16818513  0.32066202  1
  O  O27  1  0.15962294  0.66818513  0.17933798  1
  O  O28  1  0.19817443  0.08923368  0.76521675  1
  O  O29  1  0.80182557  0.58923368  0.73478325  1
  O  O30  1  0.80182557  0.91076632  0.23478325  1
  O  O31  1  0.19817443  0.41076632  0.26521675  1
  O  O32  1  0.21119573  0.10449356  0.61904400  1
  O  O33  1  0.78880427  0.60449356  0.88095600  1
  O  O34  1  0.78880427  0.89550644  0.38095600  1
  O  O35  1  0.21119573  0.39550644  0.11904400  1
  O  O36  1  0.69024141  0.31821675  0.45930705  1
  O  O37  1  0.30975859  0.81821675  0.04069295  1
  O  O38  1  0.30975859  0.68178325  0.54069295  1
  O  O39  1  0.69024141  0.18178325  0.95930705  1
  O  O40  1  0.42360247  0.25811645  0.54147568  1
  O  O41  1  0.57639753  0.75811645  0.95852432  1
  O  O42  1  0.57639753  0.74188355  0.45852432  1
  O  O43  1  0.42360247  0.24188355  0.04147568  1
  O  O44  1  0.67753008  0.44410697  0.59388218  1
  O  O45  1  0.32246992  0.94410697  0.90611782  1
  O  O46  1  0.32246992  0.55589303  0.40611782  1
  O  O47  1  0.73019595  0.91117309  0.84614276  1
  P  P48  1  0.24266180  0.20945612  0.08965658  1
  P  P49  1  0.75733820  0.70945612  0.41034342  1
  P  P50  1  0.75733820  0.79054388  0.91034342  1
  P  P51  1  0.24266180  0.29054388  0.58965658  1
  P  P52  1  0.63845758  0.19781495  0.04073219  1
  P  P53  1  0.36154242  0.69781495  0.45926781  1
  P  P54  1  0.36154242  0.80218505  0.95926781  1
  P  P55  1  0.63845758  0.30218505  0.54073219  1
  P  P56  1  0.13044215  0.48562592  0.19274305  1
  P  P57  1  0.86955785  0.98562592  0.30725695  1
  P  P58  1  0.86955785  0.51437408  0.80725695  1
  P  P59  1  0.13044215  0.01437408  0.69274305  1
  P  P60  1  0.73027902  0.48241511  0.14455975  1
  P  P61  1  0.26972098  0.98241511  0.35544025  1
  P  P62  1  0.26972098  0.51758489  0.85544025  1
  P  P63  1  0.73027902  0.01758489  0.64455975  1
  Sr  Sr64  1  0.51657363  0.34411838  0.32754260  1
  Sr  Sr65  1  0.48342637  0.84411838  0.17245740  1
  Sr  Sr66  1  0.48342637  0.65588162  0.67245740  1
  Sr  Sr67  1  0.51657363  0.15588162  0.82754260  1
  Sr  Sr68  1  0.98081088  0.88224524  0.10262811  1
  Sr  Sr69  1  0.01918912  0.38224524  0.39737189  1
  Sr  Sr70  1  0.01918912  0.11775476  0.89737189  1
  Sr  Sr71  1  0.98081088  0.61775476  0.60262811  1
