# generated using pymatgen
data_ErCoSi2
_symmetry_space_group_name_H-M   'P 1'
_cell_length_a   3.96655168
_cell_length_b   3.98626039
_cell_length_c   8.35042172
_cell_angle_alpha   103.80901013
_cell_angle_beta   90.00000000
_cell_angle_gamma   90.00000000
_symmetry_Int_Tables_number   1
_chemical_formula_structural   ErCoSi2
_chemical_formula_sum   'Er2 Co2 Si4'
_cell_volume   128.21820561
_cell_formula_units_Z   2
loop_
 _symmetry_equiv_pos_site_id
 _symmetry_equiv_pos_as_xyz
  1  'x, y, z'
loop_
 _atom_site_type_symbol
 _atom_site_label
 _atom_site_symmetry_multiplicity
 _atom_site_fract_x
 _atom_site_fract_y
 _atom_site_fract_z
 _atom_site_occupancy
  Si  Si0  1  0.25000000  0.24998784  0.49997568  1
  Si  Si1  1  0.75000000  0.75001216  0.50002432  1
  Si  Si2  1  0.75000000  0.45779960  0.91559919  1
  Si  Si3  1  0.25000000  0.54220040  0.08440081  1
  Co  Co4  1  0.75000000  0.32148320  0.64296640  1
  Co  Co5  1  0.25000000  0.67851680  0.35703360  1
  Er  Er6  1  0.25000000  0.89261426  0.78522852  1
  Er  Er7  1  0.75000000  0.10738574  0.21477148  1
