# generated using pymatgen
data_Sr4I6O
_symmetry_space_group_name_H-M   'P 1'
_cell_length_a   10.61946950
_cell_length_b   10.61946950
_cell_length_c   8.20692792
_cell_angle_alpha   90.00000000
_cell_angle_beta   90.00000000
_cell_angle_gamma   120.00000000
_symmetry_Int_Tables_number   1
_chemical_formula_structural   Sr4I6O
_chemical_formula_sum   'Sr8 I12 O2'
_cell_volume   801.52467111
_cell_formula_units_Z   2
loop_
 _symmetry_equiv_pos_site_id
 _symmetry_equiv_pos_as_xyz
  1  'x, y, z'
loop_
 _atom_site_type_symbol
 _atom_site_label
 _atom_site_symmetry_multiplicity
 _atom_site_fract_x
 _atom_site_fract_y
 _atom_site_fract_z
 _atom_site_occupancy
  O  O0  1  0.66666667  0.33333333  0.08221359  1
  O  O1  1  0.33333333  0.66666667  0.58221359  1
  Sr  Sr2  1  0.58616427  0.79308213  0.48909962  1
  Sr  Sr3  1  0.79308213  0.20691787  0.98909962  1
  Sr  Sr4  1  0.66666667  0.33333333  0.37621580  1
  Sr  Sr5  1  0.20691787  0.41383573  0.48909962  1
  Sr  Sr6  1  0.20691787  0.79308213  0.48909962  1
  Sr  Sr7  1  0.79308213  0.58616427  0.98909962  1
  Sr  Sr8  1  0.41383573  0.20691787  0.98909962  1
  Sr  Sr9  1  0.33333333  0.66666667  0.87621580  1
  I  I10  1  0.92773172  0.46386586  0.68219008  1
  I  I11  1  0.53613414  0.07226828  0.68219008  1
  I  I12  1  0.07226828  0.53613414  0.18219008  1
  I  I13  1  0.53613414  0.46386586  0.68219008  1
  I  I14  1  0.27261466  0.13630733  0.36367384  1
  I  I15  1  0.13630733  0.27261466  0.86367384  1
  I  I16  1  0.13630733  0.86369267  0.86367384  1
  I  I17  1  0.86369267  0.13630733  0.36367384  1
  I  I18  1  0.86369267  0.72738534  0.36367384  1
  I  I19  1  0.72738534  0.86369267  0.86367384  1
  I  I20  1  0.46386586  0.53613414  0.18219008  1
  I  I21  1  0.46386586  0.92773172  0.18219008  1
