# generated using pymatgen
data_Na3P6N11
_symmetry_space_group_name_H-M   'P 1'
_cell_length_a   10.19146407
_cell_length_b   10.19146407
_cell_length_c   10.19146407
_cell_angle_alpha   90.00000000
_cell_angle_beta   90.00000000
_cell_angle_gamma   90.00000000
_symmetry_Int_Tables_number   1
_chemical_formula_structural   Na3P6N11
_chemical_formula_sum   'Na12 P24 N44'
_cell_volume   1058.54599449
_cell_formula_units_Z   4
loop_
 _symmetry_equiv_pos_site_id
 _symmetry_equiv_pos_as_xyz
  1  'x, y, z'
loop_
 _atom_site_type_symbol
 _atom_site_label
 _atom_site_symmetry_multiplicity
 _atom_site_fract_x
 _atom_site_fract_y
 _atom_site_fract_z
 _atom_site_occupancy
  N  N0  1  0.71114318  0.71114318  0.71114318  1
  N  N1  1  0.87882680  0.78602331  0.52122093  1
  N  N2  1  0.97877907  0.12117320  0.28602331  1
  N  N3  1  0.12117320  0.28602331  0.97877907  1
  N  N4  1  0.47877907  0.37882680  0.71397669  1
  N  N5  1  0.02122093  0.62117320  0.21397669  1
  N  N6  1  0.62117320  0.21397669  0.02122093  1
  N  N7  1  0.21397669  0.02122093  0.62117320  1
  N  N8  1  0.46087195  0.87506970  0.28709549  1
  N  N9  1  0.96087195  0.62493030  0.71290451  1
  N  N10  1  0.53912805  0.37506970  0.21290451  1
  N  N11  1  0.62493030  0.71290451  0.96087195  1
  N  N12  1  0.96387941  0.53612059  0.46387941  1
  N  N13  1  0.53612059  0.46387941  0.96387941  1
  N  N14  1  0.46387941  0.96387941  0.53612059  1
  N  N15  1  0.03612059  0.03612059  0.03612059  1
  N  N16  1  0.28885682  0.21114318  0.78885682  1
  N  N17  1  0.21114318  0.78885682  0.28885682  1
  N  N18  1  0.78885682  0.28885682  0.21114318  1
  N  N19  1  0.37882680  0.71397669  0.47877907  1
  N  N20  1  0.46086726  0.62907550  0.77227651  1
  N  N21  1  0.78602331  0.52122093  0.87882680  1
  N  N22  1  0.71397669  0.47877907  0.37882680  1
  N  N23  1  0.52122093  0.87882680  0.78602331  1
  N  N24  1  0.27227651  0.03913274  0.37092450  1
  N  N25  1  0.37092450  0.27227651  0.03913274  1
  N  N26  1  0.03913274  0.37092450  0.27227651  1
  N  N27  1  0.21290451  0.53912805  0.37506970  1
  N  N28  1  0.87092450  0.22772349  0.96086726  1
  N  N29  1  0.96086726  0.87092450  0.22772349  1
  N  N30  1  0.12907550  0.72772349  0.53913274  1
  N  N31  1  0.62907550  0.77227651  0.46086726  1
  N  N32  1  0.53913274  0.12907550  0.72772349  1
  N  N33  1  0.77227651  0.46086726  0.62907550  1
  N  N34  1  0.72772349  0.53913274  0.12907550  1
  N  N35  1  0.22772349  0.96086726  0.87092450  1
  N  N36  1  0.03912805  0.12493030  0.78709549  1
  N  N37  1  0.78709549  0.03912805  0.12493030  1
  N  N38  1  0.12493030  0.78709549  0.03912805  1
  N  N39  1  0.37506970  0.21290451  0.53912805  1
  N  N40  1  0.28709549  0.46087195  0.87506970  1
  N  N41  1  0.87506970  0.28709549  0.46087195  1
  N  N42  1  0.71290451  0.96087195  0.62493030  1
  N  N43  1  0.28602331  0.97877907  0.12117320  1
  Na  Na44  1  0.52203012  0.52203012  0.52203012  1
  Na  Na45  1  0.97796988  0.47796988  0.02203012  1
  Na  Na46  1  0.02203012  0.97796988  0.47796988  1
  Na  Na47  1  0.47796988  0.02203012  0.97796988  1
  Na  Na48  1  0.87351896  0.87351896  0.87351896  1
  Na  Na49  1  0.62648104  0.12648104  0.37351896  1
  Na  Na50  1  0.37351896  0.62648104  0.12648104  1
  Na  Na51  1  0.12648104  0.37351896  0.62648104  1
  Na  Na52  1  0.21937419  0.21937419  0.21937419  1
  Na  Na53  1  0.28062581  0.78062581  0.71937419  1
  Na  Na54  1  0.71937419  0.28062581  0.78062581  1
  Na  Na55  1  0.78062581  0.71937419  0.28062581  1
  P  P56  1  0.93701448  0.01609078  0.17401397  1
  P  P57  1  0.67401397  0.56298552  0.98390922  1
  P  P58  1  0.82598603  0.43701448  0.48390922  1
  P  P59  1  0.56298552  0.98390922  0.67401397  1
  P  P60  1  0.48390922  0.82598603  0.43701448  1
  P  P61  1  0.98390922  0.67401397  0.56298552  1
  P  P62  1  0.17401397  0.93701448  0.01609078  1
  P  P63  1  0.01609078  0.17401397  0.93701448  1
  P  P64  1  0.43701448  0.48390922  0.82598603  1
  P  P65  1  0.06298552  0.51609078  0.32598603  1
  P  P66  1  0.51609078  0.32598603  0.06298552  1
  P  P67  1  0.32598603  0.06298552  0.51609078  1
  P  P68  1  0.31102640  0.92563730  0.26653988  1
  P  P69  1  0.81102640  0.57436270  0.73346012  1
  P  P70  1  0.68897360  0.42563730  0.23346012  1
  P  P71  1  0.57436270  0.73346012  0.81102640  1
  P  P72  1  0.23346012  0.68897360  0.42563730  1
  P  P73  1  0.73346012  0.81102640  0.57436270  1
  P  P74  1  0.92563730  0.26653988  0.31102640  1
  P  P75  1  0.26653988  0.31102640  0.92563730  1
  P  P76  1  0.42563730  0.23346012  0.68897360  1
  P  P77  1  0.07436270  0.76653988  0.18897360  1
  P  P78  1  0.76653988  0.18897360  0.07436270  1
  P  P79  1  0.18897360  0.07436270  0.76653988  1
