# generated using pymatgen
data_PuB4
_symmetry_space_group_name_H-M   'P 1'
_cell_length_a   4.01679239
_cell_length_b   7.10566734
_cell_length_c   7.10566734
_cell_angle_alpha   90.00000000
_cell_angle_beta   90.00000000
_cell_angle_gamma   90.00000000
_symmetry_Int_Tables_number   1
_chemical_formula_structural   PuB4
_chemical_formula_sum   'Pu4 B16'
_cell_volume   202.80988969
_cell_formula_units_Z   4
loop_
 _symmetry_equiv_pos_site_id
 _symmetry_equiv_pos_as_xyz
  1  'x, y, z'
loop_
 _atom_site_type_symbol
 _atom_site_label
 _atom_site_symmetry_multiplicity
 _atom_site_fract_x
 _atom_site_fract_y
 _atom_site_fract_z
 _atom_site_occupancy
  B  B0  1  0.50000000  0.46096060  0.32275539  1
  B  B1  1  0.50000000  0.53903940  0.67724461  1
  B  B2  1  0.50000000  0.32275539  0.53903940  1
  B  B3  1  0.50000000  0.67724461  0.46096060  1
  B  B4  1  0.20164927  0.00000000  0.00000000  1
  B  B5  1  0.79835073  0.50000000  0.50000000  1
  B  B6  1  0.79835073  0.00000000  0.00000000  1
  B  B7  1  0.20164927  0.50000000  0.50000000  1
  B  B8  1  0.50000000  0.08715498  0.58715498  1
  B  B9  1  0.50000000  0.41284502  0.08715498  1
  B  B10  1  0.50000000  0.58715498  0.91284502  1
  B  B11  1  0.50000000  0.91284502  0.41284502  1
  B  B12  1  0.50000000  0.17724461  0.03903940  1
  B  B13  1  0.50000000  0.96096060  0.17724461  1
  B  B14  1  0.50000000  0.03903940  0.82275539  1
  B  B15  1  0.50000000  0.82275539  0.96096060  1
  Pu  Pu16  1  0.00000000  0.68658359  0.18658359  1
  Pu  Pu17  1  0.00000000  0.81341641  0.68658359  1
  Pu  Pu18  1  0.00000000  0.18658359  0.31341641  1
  Pu  Pu19  1  0.00000000  0.31341641  0.81341641  1
