# generated using pymatgen
data_Zn2PtO4
_symmetry_space_group_name_H-M   'P 1'
_cell_length_a   6.16945376
_cell_length_b   6.22189219
_cell_length_c   6.16945320
_cell_angle_alpha   59.71843200
_cell_angle_beta   58.01124163
_cell_angle_gamma   59.71843154
_symmetry_Int_Tables_number   1
_chemical_formula_structural   Zn2PtO4
_chemical_formula_sum   'Zn4 Pt2 O8'
_cell_volume   164.11110749
_cell_formula_units_Z   2
loop_
 _symmetry_equiv_pos_site_id
 _symmetry_equiv_pos_as_xyz
  1  'x, y, z'
loop_
 _atom_site_type_symbol
 _atom_site_label
 _atom_site_symmetry_multiplicity
 _atom_site_fract_x
 _atom_site_fract_y
 _atom_site_fract_z
 _atom_site_occupancy
  O  O0  1  0.39264970  0.37652205  0.39264970  1
  O  O1  1  0.39264970  0.83817856  0.39264970  1
  O  O2  1  0.40013678  0.37396740  0.85192842  1
  O  O3  1  0.85192842  0.37396740  0.40013678  1
  O  O4  1  0.39807158  0.87603260  0.84986322  1
  O  O5  1  0.85735030  0.41182144  0.85735030  1
  O  O6  1  0.84986322  0.87603260  0.39807158  1
  O  O7  1  0.85735030  0.87347795  0.85735030  1
  Pt  Pt8  1  0.62500000  0.12500000  0.62500000  1
  Pt  Pt9  1  0.62500000  0.62500000  0.62500000  1
  Zn  Zn10  1  0.97469320  0.02530680  0.97469320  1
  Zn  Zn11  1  0.27530680  0.22469320  0.27530680  1
  Zn  Zn12  1  0.12500000  0.62500000  0.62500000  1
  Zn  Zn13  1  0.62500000  0.62500000  0.12500000  1
