# generated using pymatgen
data_MoN
_symmetry_space_group_name_H-M   'P 1'
_cell_length_a   5.77228020
_cell_length_b   5.77228020
_cell_length_c   5.67810225
_cell_angle_alpha   90.00000000
_cell_angle_beta   90.00000000
_cell_angle_gamma   119.99999363
_symmetry_Int_Tables_number   1
_chemical_formula_structural   MoN
_chemical_formula_sum   'Mo8 N8'
_cell_volume   163.84329659
_cell_formula_units_Z   8
loop_
 _symmetry_equiv_pos_site_id
 _symmetry_equiv_pos_as_xyz
  1  'x, y, z'
loop_
 _atom_site_type_symbol
 _atom_site_label
 _atom_site_symmetry_multiplicity
 _atom_site_fract_x
 _atom_site_fract_y
 _atom_site_fract_z
 _atom_site_occupancy
  Mo  Mo0  1  0.51224745  0.48775255  0.74763233  1
  Mo  Mo1  1  0.02449491  0.51224745  0.24763233  1
  Mo  Mo2  1  0.48775255  0.97550509  0.24763233  1
  Mo  Mo3  1  0.51224745  0.02449491  0.74763233  1
  Mo  Mo4  1  0.48775255  0.51224745  0.24763233  1
  Mo  Mo5  1  0.97550509  0.48775255  0.74763233  1
  Mo  Mo6  1  -0.00000000  -0.00000000  0.25812199  1
  Mo  Mo7  1  -0.00000000  -0.00000000  0.75812199  1
  N  N8  1  0.16631909  0.33263819  0.99228765  1
  N  N9  1  0.33263819  0.16631909  0.49228765  1
  N  N10  1  0.83368091  0.66736181  0.49228765  1
  N  N11  1  0.83368091  0.16631909  0.49228765  1
  N  N12  1  0.66666700  0.33333300  0.02211808  1
  N  N13  1  0.16631909  0.83368091  0.99228765  1
  N  N14  1  0.66736181  0.83368091  0.99228765  1
  N  N15  1  0.33333300  0.66666700  0.52211808  1
