# generated using pymatgen
data_Li8SnO6
_symmetry_space_group_name_H-M   'P 1'
_cell_length_a   6.06687705
_cell_length_b   6.06687705
_cell_length_c   6.06687705
_cell_angle_alpha   54.24312345
_cell_angle_beta   54.24312348
_cell_angle_gamma   54.24312354
_symmetry_Int_Tables_number   1
_chemical_formula_structural   Li8SnO6
_chemical_formula_sum   'Li8 Sn1 O6'
_cell_volume   136.68648795
_cell_formula_units_Z   1
loop_
 _symmetry_equiv_pos_site_id
 _symmetry_equiv_pos_as_xyz
  1  'x, y, z'
loop_
 _atom_site_type_symbol
 _atom_site_label
 _atom_site_symmetry_multiplicity
 _atom_site_fract_x
 _atom_site_fract_y
 _atom_site_fract_z
 _atom_site_occupancy
  Li  Li0  1  0.49488801  0.10044456  0.76541058  1
  Li  Li1  1  0.76541058  0.49488801  0.10044456  1
  Li  Li2  1  0.10044456  0.76541058  0.49488801  1
  Li  Li3  1  0.50511199  0.89955544  0.23458942  1
  Li  Li4  1  0.23458942  0.50511199  0.89955544  1
  Li  Li5  1  0.89955544  0.23458942  0.50511199  1
  Li  Li6  1  0.34466421  0.34466421  0.34466421  1
  Li  Li7  1  0.65533579  0.65533579  0.65533579  1
  O  O8  1  0.23509967  0.90621761  0.61538441  1
  O  O9  1  0.38461559  0.76490033  0.09378239  1
  O  O10  1  0.09378239  0.38461559  0.76490033  1
  O  O11  1  0.76490033  0.09378239  0.38461559  1
  O  O12  1  0.61538441  0.23509967  0.90621761  1
  O  O13  1  0.90621761  0.61538441  0.23509967  1
  Sn  Sn14  1  0.00000000  0.00000000  0.00000000  1
