# generated using pymatgen
data_Er(CuGe)2
_symmetry_space_group_name_H-M   'P 1'
_cell_length_a   4.02350725
_cell_length_b   4.02350724
_cell_length_c   5.91262275
_cell_angle_alpha   109.89193845
_cell_angle_beta   109.89193847
_cell_angle_gamma   89.99999999
_symmetry_Int_Tables_number   1
_chemical_formula_structural   Er(CuGe)2
_chemical_formula_sum   'Er1 Cu2 Ge2'
_cell_volume   83.90761983
_cell_formula_units_Z   1
loop_
 _symmetry_equiv_pos_site_id
 _symmetry_equiv_pos_as_xyz
  1  'x, y, z'
loop_
 _atom_site_type_symbol
 _atom_site_label
 _atom_site_symmetry_multiplicity
 _atom_site_fract_x
 _atom_site_fract_y
 _atom_site_fract_z
 _atom_site_occupancy
  Cu  Cu0  1  0.75000000  0.25000000  0.50000000  1
  Cu  Cu1  1  0.25000000  0.75000000  0.50000000  1
  Ge  Ge2  1  0.61818126  0.61818126  0.23636252  1
  Ge  Ge3  1  0.38181874  0.38181874  0.76363748  1
  Er  Er4  1  0.00000000  0.00000000  0.00000000  1
