# generated using pymatgen
data_U2Mn3Si5
_symmetry_space_group_name_H-M   'P 1'
_cell_length_a   5.39938491
_cell_length_b   10.42736751
_cell_length_c   10.42736751
_cell_angle_alpha   90.00000000
_cell_angle_beta   90.00000000
_cell_angle_gamma   90.00000000
_symmetry_Int_Tables_number   1
_chemical_formula_structural   U2Mn3Si5
_chemical_formula_sum   'U8 Mn12 Si20'
_cell_volume   587.07508449
_cell_formula_units_Z   4
loop_
 _symmetry_equiv_pos_site_id
 _symmetry_equiv_pos_as_xyz
  1  'x, y, z'
loop_
 _atom_site_type_symbol
 _atom_site_label
 _atom_site_symmetry_multiplicity
 _atom_site_fract_x
 _atom_site_fract_y
 _atom_site_fract_z
 _atom_site_occupancy
  Si  Si0  1  0.50000000  0.01948036  0.31711620  1
  Si  Si1  1  0.50000000  0.98051964  0.68288380  1
  Si  Si2  1  0.50000000  0.31711620  0.98051964  1
  Si  Si3  1  0.50000000  0.68288380  0.01948036  1
  Si  Si4  1  0.00000000  0.81711620  0.51948036  1
  Si  Si5  1  0.00000000  0.48051964  0.81711620  1
  Si  Si6  1  0.00000000  0.51948036  0.18288380  1
  Si  Si7  1  0.00000000  0.18288380  0.48051964  1
  Si  Si8  1  0.75049296  0.50000000  0.50000000  1
  Si  Si9  1  0.74950704  0.00000000  0.00000000  1
  Si  Si10  1  0.24950704  0.50000000  0.50000000  1
  Si  Si11  1  0.25049296  0.00000000  0.00000000  1
  Si  Si12  1  0.75000000  0.18052003  0.68052003  1
  Si  Si13  1  0.75000000  0.31947997  0.18052003  1
  Si  Si14  1  0.75000000  0.68052003  0.81947997  1
  Si  Si15  1  0.25000000  0.18052003  0.68052003  1
  Si  Si16  1  0.25000000  0.81947997  0.31947997  1
  Si  Si17  1  0.25000000  0.68052003  0.81947997  1
  Si  Si18  1  0.25000000  0.31947997  0.18052003  1
  Si  Si19  1  0.75000000  0.81947997  0.31947997  1
  Mn  Mn20  1  0.00000000  0.63979173  0.37400383  1
  Mn  Mn21  1  0.75000000  0.00000000  0.50000000  1
  Mn  Mn22  1  0.25000000  0.50000000  0.00000000  1
  Mn  Mn23  1  0.25000000  0.00000000  0.50000000  1
  Mn  Mn24  1  0.50000000  0.13979173  0.12599617  1
  Mn  Mn25  1  0.50000000  0.86020827  0.87400383  1
  Mn  Mn26  1  0.50000000  0.12599617  0.86020827  1
  Mn  Mn27  1  0.50000000  0.87400383  0.13979173  1
  Mn  Mn28  1  0.00000000  0.62599617  0.63979173  1
  Mn  Mn29  1  0.00000000  0.36020827  0.62599617  1
  Mn  Mn30  1  0.00000000  0.37400383  0.36020827  1
  Mn  Mn31  1  0.75000000  0.50000000  0.00000000  1
  U  U32  1  0.50000000  0.26157675  0.43287085  1
  U  U33  1  0.50000000  0.73842325  0.56712915  1
  U  U34  1  0.50000000  0.43287085  0.73842325  1
  U  U35  1  0.50000000  0.56712915  0.26157675  1
  U  U36  1  0.00000000  0.93287085  0.76157675  1
  U  U37  1  0.00000000  0.23842325  0.93287085  1
  U  U38  1  0.00000000  0.76157675  0.06712915  1
  U  U39  1  0.00000000  0.06712915  0.23842325  1
