# generated using pymatgen
data_CsBe2F5
_symmetry_space_group_name_H-M   'P 1'
_cell_length_a   8.06084124
_cell_length_b   8.06084124
_cell_length_c   8.06084124
_cell_angle_alpha   90.00000000
_cell_angle_beta   90.00000000
_cell_angle_gamma   90.00000000
_symmetry_Int_Tables_number   1
_chemical_formula_structural   CsBe2F5
_chemical_formula_sum   'Cs4 Be8 F20'
_cell_volume   523.77058305
_cell_formula_units_Z   4
loop_
 _symmetry_equiv_pos_site_id
 _symmetry_equiv_pos_as_xyz
  1  'x, y, z'
loop_
 _atom_site_type_symbol
 _atom_site_label
 _atom_site_symmetry_multiplicity
 _atom_site_fract_x
 _atom_site_fract_y
 _atom_site_fract_z
 _atom_site_occupancy
  Be  Be0  1  0.09972604  0.09972604  0.09972604  1
  Be  Be1  1  0.65027396  0.65027396  0.65027396  1
  Be  Be2  1  0.90027396  0.59972604  0.40027396  1
  Be  Be3  1  0.59972604  0.40027396  0.90027396  1
  Be  Be4  1  0.40027396  0.90027396  0.59972604  1
  Be  Be5  1  0.34972604  0.15027396  0.84972604  1
  Be  Be6  1  0.84972604  0.34972604  0.15027396  1
  Be  Be7  1  0.15027396  0.84972604  0.34972604  1
  F  F8  1  0.62500000  0.46669609  0.71669609  1
  F  F9  1  0.78330391  0.37500000  0.96669609  1
  F  F10  1  0.71669609  0.62500000  0.46669609  1
  F  F11  1  0.53330391  0.21669609  0.87500000  1
  F  F12  1  0.99256103  0.99256103  0.99256103  1
  F  F13  1  0.24256103  0.25743897  0.74256103  1
  F  F14  1  0.74256103  0.24256103  0.25743897  1
  F  F15  1  0.25743897  0.74256103  0.24256103  1
  F  F16  1  0.50743897  0.00743897  0.49256103  1
  F  F17  1  0.49256103  0.50743897  0.00743897  1
  F  F18  1  0.00743897  0.49256103  0.50743897  1
  F  F19  1  0.75743897  0.75743897  0.75743897  1
  F  F20  1  0.12500000  0.03330391  0.28330391  1
  F  F21  1  0.37500000  0.96669609  0.78330391  1
  F  F22  1  0.87500000  0.53330391  0.21669609  1
  F  F23  1  0.03330391  0.28330391  0.12500000  1
  F  F24  1  0.96669609  0.78330391  0.37500000  1
  F  F25  1  0.21669609  0.87500000  0.53330391  1
  F  F26  1  0.28330391  0.12500000  0.03330391  1
  F  F27  1  0.46669609  0.71669609  0.62500000  1
  Cs  Cs28  1  0.87500000  0.12500000  0.62500000  1
  Cs  Cs29  1  0.12500000  0.62500000  0.87500000  1
  Cs  Cs30  1  0.62500000  0.87500000  0.12500000  1
  Cs  Cs31  1  0.37500000  0.37500000  0.37500000  1
