# generated using pymatgen
data_Te3P2O11
_symmetry_space_group_name_H-M   'P 1'
_cell_length_a   7.49866687
_cell_length_b   10.14537442
_cell_length_c   12.66163053
_cell_angle_alpha   98.02635129
_cell_angle_beta   90.00000000
_cell_angle_gamma   90.00000000
_symmetry_Int_Tables_number   1
_chemical_formula_structural   Te3P2O11
_chemical_formula_sum   'Te12 P8 O44'
_cell_volume   953.82001945
_cell_formula_units_Z   4
loop_
 _symmetry_equiv_pos_site_id
 _symmetry_equiv_pos_as_xyz
  1  'x, y, z'
loop_
 _atom_site_type_symbol
 _atom_site_label
 _atom_site_symmetry_multiplicity
 _atom_site_fract_x
 _atom_site_fract_y
 _atom_site_fract_z
 _atom_site_occupancy
  O  O0  1  0.24777351  0.78810876  0.52991225  1
  O  O1  1  0.74777351  0.71189124  0.47008775  1
  O  O2  1  0.75222649  0.21189124  0.47008775  1
  O  O3  1  0.25222649  0.28810876  0.52991225  1
  O  O4  1  0.35661464  0.62243524  0.37469355  1
  O  O5  1  0.85661464  0.87756476  0.62530645  1
  O  O6  1  0.64338536  0.37756476  0.62530645  1
  O  O7  1  0.14338536  0.12243524  0.37469355  1
  O  O8  1  0.46739518  0.86813695  0.40476006  1
  O  O9  1  0.96739518  0.63186305  0.59523994  1
  O  O10  1  0.53260482  0.13186305  0.59523994  1
  O  O11  1  0.03260482  0.36813695  0.40476006  1
  O  O12  1  0.15675272  0.81715621  0.34048843  1
  O  O13  1  0.65675272  0.68284379  0.65951157  1
  O  O14  1  0.84324728  0.18284379  0.65951157  1
  O  O15  1  0.29112206  0.32686081  0.09625191  1
  O  O16  1  0.34324728  0.31715621  0.34048843  1
  O  O17  1  0.80967508  0.36322243  0.04938640  1
  O  O18  1  0.69032492  0.86322243  0.04938640  1
  O  O19  1  0.19032492  0.63677757  0.95061360  1
  O  O20  1  0.55814819  0.45098562  0.23008163  1
  O  O21  1  0.05814819  0.04901438  0.76991837  1
  O  O22  1  0.44185181  0.54901438  0.76991837  1
  O  O23  1  0.94185181  0.95098562  0.23008163  1
  O  O24  1  0.89366541  0.48013743  0.25577668  1
  O  O25  1  0.39366541  0.01986257  0.74422332  1
  O  O26  1  0.10633459  0.51986257  0.74422332  1
  O  O27  1  0.60633459  0.98013743  0.25577668  1
  O  O28  1  0.79914750  0.21922911  0.25516303  1
  O  O29  1  0.29914750  0.28077089  0.74483697  1
  O  O30  1  0.20085250  0.78077089  0.74483697  1
  O  O31  1  0.70085250  0.71922911  0.25516303  1
  O  O32  1  0.34556099  0.60491123  0.12545576  1
  O  O33  1  0.84556099  0.89508877  0.87454424  1
  O  O34  1  0.65443901  0.39508877  0.87454424  1
  O  O35  1  0.15443901  0.10491123  0.12545576  1
  O  O36  1  0.01220356  0.62823303  0.12216232  1
  O  O37  1  0.51220356  0.87176697  0.87783768  1
  O  O38  1  0.98779644  0.37176697  0.87783768  1
  O  O39  1  0.48779644  0.12823303  0.12216232  1
  O  O40  1  0.20887794  0.82686081  0.09625191  1
  O  O41  1  0.70887794  0.67313919  0.90374809  1
  O  O42  1  0.79112206  0.17313919  0.90374809  1
  O  O43  1  0.30967508  0.13677757  0.95061360  1
  P  P44  1  0.30522180  0.76842919  0.41259709  1
  P  P45  1  0.80522180  0.73157081  0.58740291  1
  P  P46  1  0.69477820  0.23157081  0.58740291  1
  P  P47  1  0.19477820  0.26842919  0.41259709  1
  P  P48  1  0.31426707  0.17316363  0.07275903  1
  P  P49  1  0.81426707  0.32683637  0.92724097  1
  P  P50  1  0.68573293  0.82683637  0.92724097  1
  P  P51  1  0.18573293  0.67316363  0.07275903  1
  Te  Te52  1  0.72154279  0.86727918  0.35890860  1
  Te  Te53  1  0.22154279  0.63272082  0.64109140  1
  Te  Te54  1  0.27845721  0.13272082  0.64109140  1
  Te  Te55  1  0.77845721  0.36727918  0.35890860  1
  Te  Te56  1  0.74408149  0.05366218  0.15054934  1
  Te  Te57  1  0.24408149  0.44633782  0.84945066  1
  Te  Te58  1  0.25591851  0.94633782  0.84945066  1
  Te  Te59  1  0.75591851  0.55366218  0.15054934  1
  Te  Te60  1  0.19525130  0.96939701  0.23649934  1
  Te  Te61  1  0.69525130  0.53060299  0.76350066  1
  Te  Te62  1  0.80474870  0.03060299  0.76350066  1
  Te  Te63  1  0.30474870  0.46939701  0.23649934  1
