# generated using pymatgen
data_BaGe4O9
_symmetry_space_group_name_H-M   'P 1'
_cell_length_a   11.79327927
_cell_length_b   11.79327927
_cell_length_c   4.82575922
_cell_angle_alpha   90.00000000
_cell_angle_beta   90.00000000
_cell_angle_gamma   119.99999998
_symmetry_Int_Tables_number   1
_chemical_formula_structural   BaGe4O9
_chemical_formula_sum   'Ba3 Ge12 O27'
_cell_volume   581.25332014
_cell_formula_units_Z   3
loop_
 _symmetry_equiv_pos_site_id
 _symmetry_equiv_pos_as_xyz
  1  'x, y, z'
loop_
 _atom_site_type_symbol
 _atom_site_label
 _atom_site_symmetry_multiplicity
 _atom_site_fract_x
 _atom_site_fract_y
 _atom_site_fract_z
 _atom_site_occupancy
  O  O0  1  0.51738797  0.51738797  0.50000000  1
  O  O1  1  0.00000000  0.48261203  0.50000000  1
  O  O2  1  0.48261203  0.00000000  0.50000000  1
  O  O3  1  0.59387409  0.18154911  0.87128215  1
  O  O4  1  0.81845089  0.41232498  0.87128215  1
  O  O5  1  0.58767502  0.40612591  0.87128215  1
  O  O6  1  0.41232498  0.81845089  0.12871785  1
  O  O7  1  0.40612591  0.58767502  0.12871785  1
  O  O8  1  0.18154911  0.59387409  0.12871785  1
  O  O9  1  0.51320038  0.26296038  0.32163682  1
  O  O10  1  0.73703962  0.25024000  0.32163682  1
  O  O11  1  0.74976000  0.48679962  0.32163682  1
  O  O12  1  0.25024000  0.73703962  0.67836318  1
  O  O13  1  0.48679962  0.74976000  0.67836318  1
  O  O14  1  0.26296038  0.51320038  0.67836318  1
  O  O15  1  0.08851934  0.15250918  0.76485082  1
  O  O16  1  0.84749082  0.93601015  0.76485082  1
  O  O17  1  0.06398985  0.91148066  0.76485082  1
  O  O18  1  0.93601015  0.84749082  0.23514918  1
  O  O19  1  0.91148066  0.06398985  0.23514918  1
  O  O20  1  0.15250918  0.08851934  0.23514918  1
  O  O21  1  0.11286076  0.32521919  0.31068018  1
  O  O22  1  0.67478081  0.78764156  0.31068018  1
  O  O23  1  0.21235844  0.88713924  0.31068018  1
  O  O24  1  0.78764156  0.67478081  0.68931982  1
  O  O25  1  0.88713924  0.21235844  0.68931982  1
  O  O26  1  0.32521919  0.11286076  0.68931982  1
  Ge  Ge27  1  0.00000000  0.00000000  0.00000000  1
  Ge  Ge28  1  0.66666667  0.33333333  0.09721242  1
  Ge  Ge29  1  0.33333333  0.66666667  0.90278758  1
  Ge  Ge30  1  0.82082247  0.82082247  0.50000000  1
  Ge  Ge31  1  0.00000000  0.17917753  0.50000000  1
  Ge  Ge32  1  0.17917753  0.00000000  0.50000000  1
  Ge  Ge33  1  0.48750881  0.15006132  0.58856474  1
  Ge  Ge34  1  0.84993868  0.33744749  0.58856474  1
  Ge  Ge35  1  0.66255251  0.51249119  0.58856474  1
  Ge  Ge36  1  0.33744749  0.84993868  0.41143526  1
  Ge  Ge37  1  0.51249119  0.66255251  0.41143526  1
  Ge  Ge38  1  0.15006132  0.48750881  0.41143526  1
  Ba  Ba39  1  0.33173131  0.33173131  0.00000000  1
  Ba  Ba40  1  0.00000000  0.66826869  0.00000000  1
  Ba  Ba41  1  0.66826869  0.00000000  0.00000000  1
