# generated using pymatgen
data_Zn2Mo3O8
_symmetry_space_group_name_H-M   'P 1'
_cell_length_a   5.45800971
_cell_length_b   6.27946988
_cell_length_c   6.74712792
_cell_angle_alpha   117.73248440
_cell_angle_beta   121.26658832
_cell_angle_gamma   89.99999647
_symmetry_Int_Tables_number   1
_chemical_formula_structural   Zn2Mo3O8
_chemical_formula_sum   'Zn2 Mo3 O8'
_cell_volume   165.80148390
_cell_formula_units_Z   1
loop_
 _symmetry_equiv_pos_site_id
 _symmetry_equiv_pos_as_xyz
  1  'x, y, z'
loop_
 _atom_site_type_symbol
 _atom_site_label
 _atom_site_symmetry_multiplicity
 _atom_site_fract_x
 _atom_site_fract_y
 _atom_site_fract_z
 _atom_site_occupancy
  Zn  Zn0  1  0.71933145  0.67683964  0.35367827  1
  Zn  Zn1  1  0.28066755  0.32316136  0.64632173  1
  Mo  Mo2  1  0.50000000  0.99999900  0.00000000  1
  Mo  Mo3  1  0.99999900  0.73934575  0.00000000  1
  Mo  Mo4  1  0.99999900  0.26065425  1.00000000  1
  O  O5  1  0.01241268  0.38720341  0.77440782  1
  O  O6  1  -0.01241268  0.61279559  0.22559218  1
  O  O7  1  0.01341447  0.88469409  0.76938818  1
  O  O8  1  0.98658553  0.11530491  0.23061082  1
  O  O9  1  0.45820972  0.34404614  0.21102090  1
  O  O10  1  0.45820972  0.86697476  0.21102090  1
  O  O11  1  0.54179128  0.13302424  0.78897910  1
  O  O12  1  0.54179128  0.65595386  0.78897910  1
