# generated using pymatgen
data_KLi6BiO6
_symmetry_space_group_name_H-M   'P 1'
_cell_length_a   5.52959414
_cell_length_b   5.52959414
_cell_length_c   5.52959414
_cell_angle_alpha   101.57625912
_cell_angle_beta   101.57625908
_cell_angle_gamma   101.57625918
_symmetry_Int_Tables_number   1
_chemical_formula_structural   KLi6BiO6
_chemical_formula_sum   'K1 Li6 Bi1 O6'
_cell_volume   157.06984574
_cell_formula_units_Z   1
loop_
 _symmetry_equiv_pos_site_id
 _symmetry_equiv_pos_as_xyz
  1  'x, y, z'
loop_
 _atom_site_type_symbol
 _atom_site_label
 _atom_site_symmetry_multiplicity
 _atom_site_fract_x
 _atom_site_fract_y
 _atom_site_fract_z
 _atom_site_occupancy
  Li  Li0  1  0.34353798  0.00000000  0.65646202  1
  Li  Li1  1  0.00000000  0.65646202  0.34353798  1
  Li  Li2  1  0.34353798  0.65646202  0.00000000  1
  Li  Li3  1  0.00000000  0.34353798  0.65646202  1
  Li  Li4  1  0.65646202  0.00000000  0.34353798  1
  Li  Li5  1  0.65646202  0.34353798  0.00000000  1
  O  O6  1  0.90860539  0.28008889  0.28008889  1
  O  O7  1  0.28008889  0.90860539  0.28008889  1
  O  O8  1  0.71991111  0.71991111  0.09139461  1
  O  O9  1  0.09139461  0.71991111  0.71991111  1
  O  O10  1  0.71991111  0.09139461  0.71991111  1
  O  O11  1  0.28008889  0.28008889  0.90860539  1
  K  K12  1  0.50000000  0.50000000  0.50000000  1
  Bi  Bi13  1  0.00000000  0.00000000  0.00000000  1
