# generated using pymatgen
data_InClO
_symmetry_space_group_name_H-M   'P 1'
_cell_length_a   3.57798377
_cell_length_b   4.15798326
_cell_length_c   8.66275323
_cell_angle_alpha   90.00000000
_cell_angle_beta   90.00000000
_cell_angle_gamma   90.00000000
_symmetry_Int_Tables_number   1
_chemical_formula_structural   InClO
_chemical_formula_sum   'In2 Cl2 O2'
_cell_volume   128.87748308
_cell_formula_units_Z   2
loop_
 _symmetry_equiv_pos_site_id
 _symmetry_equiv_pos_as_xyz
  1  'x, y, z'
loop_
 _atom_site_type_symbol
 _atom_site_label
 _atom_site_symmetry_multiplicity
 _atom_site_fract_x
 _atom_site_fract_y
 _atom_site_fract_z
 _atom_site_occupancy
  O  O0  1  0.75000000  0.25000000  0.95728860  1
  O  O1  1  0.25000000  0.75000000  0.04271140  1
  Cl  Cl2  1  0.25000000  0.75000000  0.67311209  1
  Cl  Cl3  1  0.75000000  0.25000000  0.32688791  1
  In  In4  1  0.25000000  0.25000000  0.11647744  1
  In  In5  1  0.75000000  0.75000000  0.88352256  1
