# generated using pymatgen
data_VZn2SbO6
_symmetry_space_group_name_H-M   'P 1'
_cell_length_a   5.28552106
_cell_length_b   5.31969927
_cell_length_c   7.74765585
_cell_angle_alpha   90.00000000
_cell_angle_beta   90.00000000
_cell_angle_gamma   90.96081020
_symmetry_Int_Tables_number   1
_chemical_formula_structural   VZn2SbO6
_chemical_formula_sum   'V2 Zn4 Sb2 O12'
_cell_volume   217.81317396
_cell_formula_units_Z   2
loop_
 _symmetry_equiv_pos_site_id
 _symmetry_equiv_pos_as_xyz
  1  'x, y, z'
loop_
 _atom_site_type_symbol
 _atom_site_label
 _atom_site_symmetry_multiplicity
 _atom_site_fract_x
 _atom_site_fract_y
 _atom_site_fract_z
 _atom_site_occupancy
  V  V0  1  0.50000000  0.00000000  0.50000000  1
  V  V1  1  0.50000000  0.00000000  0.00000000  1
  Zn  Zn2  1  0.51555871  0.55519030  0.75000000  1
  Zn  Zn3  1  0.48444129  0.44480970  0.25000000  1
  Zn  Zn4  1  0.02523168  0.01620957  0.75000000  1
  Zn  Zn5  1  0.97476832  0.98379043  0.25000000  1
  Sb  Sb6  1  0.00000000  0.50000000  0.50000000  1
  Sb  Sb7  1  0.00000000  0.50000000  0.00000000  1
  O  O8  1  0.32226210  0.67483933  0.43316292  1
  O  O9  1  0.16683332  0.18531042  0.06852653  1
  O  O10  1  0.67773790  0.32516067  0.93316292  1
  O  O11  1  0.83316668  0.81468958  0.56852653  1
  O  O12  1  0.16683332  0.18531042  0.43147347  1
  O  O13  1  0.83316668  0.81468958  0.93147347  1
  O  O14  1  0.86894270  0.57733095  0.25000000  1
  O  O15  1  0.32226210  0.67483933  0.06683708  1
  O  O16  1  0.38893347  0.92455058  0.75000000  1
  O  O17  1  0.67773790  0.32516067  0.56683708  1
  O  O18  1  0.13105730  0.42266905  0.75000000  1
  O  O19  1  0.61106653  0.07544942  0.25000000  1
