# generated using pymatgen
data_NaAlB14
_symmetry_space_group_name_H-M   'P 1'
_cell_length_a   5.84870882
_cell_length_b   7.26585292
_cell_length_c   7.26585362
_cell_angle_alpha   68.94564804
_cell_angle_beta   66.29034849
_cell_angle_gamma   66.29034680
_symmetry_Int_Tables_number   1
_chemical_formula_structural   NaAlB14
_chemical_formula_sum   'Na2 Al2 B28'
_cell_volume   251.55410109
_cell_formula_units_Z   2
loop_
 _symmetry_equiv_pos_site_id
 _symmetry_equiv_pos_as_xyz
  1  'x, y, z'
loop_
 _atom_site_type_symbol
 _atom_site_label
 _atom_site_symmetry_multiplicity
 _atom_site_fract_x
 _atom_site_fract_y
 _atom_site_fract_z
 _atom_site_occupancy
  Al  Al0  1  0.00000000  0.50000000  0.50000000  1
  Al  Al1  1  0.50000000  0.50000000  0.50000000  1
  B  B2  1  0.10073083  0.72272452  0.89699178  1
  B  B3  1  0.32935733  0.87666605  0.46532221  1
  B  B4  1  0.32853100  0.46473736  0.87692770  1
  B  B5  1  0.28058791  0.89668189  0.72313942  1
  B  B6  1  0.58554688  0.74667340  0.58236613  1
  B  B7  1  0.64725479  0.47711076  0.72819751  1
  B  B8  1  0.66561858  0.86594758  0.30219019  1
  B  B9  1  0.60073083  0.89699178  0.72272452  1
  B  B10  1  0.82935733  0.46532221  0.87666605  1
  B  B11  1  0.82853100  0.87692770  0.46473736  1
  B  B12  1  0.21941209  0.27686058  0.10331811  1
  B  B13  1  0.78058791  0.72313942  0.89668189  1
  B  B14  1  0.17146900  0.12307230  0.53526264  1
  B  B15  1  0.17064267  0.53467779  0.12333395  1
  B  B16  1  0.39926917  0.10300822  0.27727548  1
  B  B17  1  0.08554688  0.58236613  0.74667340  1
  B  B18  1  0.14725479  0.72819751  0.47711076  1
  B  B19  1  0.16561858  0.30219019  0.86594758  1
  B  B20  1  0.33438142  0.13405242  0.69780981  1
  B  B21  1  0.35274521  0.52288924  0.27180249  1
  B  B22  1  0.41445312  0.25332660  0.41763387  1
  B  B23  1  0.71941209  0.10331811  0.27686058  1
  B  B24  1  0.67146900  0.53526264  0.12307230  1
  B  B25  1  0.67064267  0.12333395  0.53467779  1
  B  B26  1  0.89926917  0.27727548  0.10300822  1
  B  B27  1  0.83438142  0.69780981  0.13405242  1
  B  B28  1  0.85274521  0.27180249  0.52288924  1
  B  B29  1  0.91445312  0.41763387  0.25332660  1
  Na  Na30  1  0.25000000  0.90345066  0.09654934  1
  Na  Na31  1  0.75000000  0.09654934  0.90345066  1
