# generated using pymatgen
data_DyAgTe2
_symmetry_space_group_name_H-M   'P 1'
_cell_length_a   4.73749148
_cell_length_b   7.11546788
_cell_length_c   7.11546788
_cell_angle_alpha   90.00000000
_cell_angle_beta   90.00000000
_cell_angle_gamma   90.00000000
_symmetry_Int_Tables_number   1
_chemical_formula_structural   DyAgTe2
_chemical_formula_sum   'Dy2 Ag2 Te4'
_cell_volume   239.85864006
_cell_formula_units_Z   2
loop_
 _symmetry_equiv_pos_site_id
 _symmetry_equiv_pos_as_xyz
  1  'x, y, z'
loop_
 _atom_site_type_symbol
 _atom_site_label
 _atom_site_symmetry_multiplicity
 _atom_site_fract_x
 _atom_site_fract_y
 _atom_site_fract_z
 _atom_site_occupancy
  Ag  Ag0  1  0.00000000  0.00000000  0.00000000  1
  Ag  Ag1  1  0.00000000  0.50000000  0.50000000  1
  Te  Te2  1  0.29063367  0.20181073  0.70181073  1
  Te  Te3  1  0.70936633  0.70181073  0.79818927  1
  Te  Te4  1  0.29063367  0.79818927  0.29818927  1
  Te  Te5  1  0.70936633  0.29818927  0.20181073  1
  Dy  Dy6  1  0.19099451  0.50000000  0.00000000  1
  Dy  Dy7  1  0.80900549  0.00000000  0.50000000  1
