# generated using pymatgen
data_Sr(In4Rh)2
_symmetry_space_group_name_H-M   'P 1'
_cell_length_a   4.44727610
_cell_length_b   14.12941116
_cell_length_c   16.43001388
_cell_angle_alpha   90.00000000
_cell_angle_beta   90.00000000
_cell_angle_gamma   90.00000000
_symmetry_Int_Tables_number   1
_chemical_formula_structural   Sr(In4Rh)2
_chemical_formula_sum   'Sr4 In32 Rh8'
_cell_volume   1032.41923193
_cell_formula_units_Z   4
loop_
 _symmetry_equiv_pos_site_id
 _symmetry_equiv_pos_as_xyz
  1  'x, y, z'
loop_
 _atom_site_type_symbol
 _atom_site_label
 _atom_site_symmetry_multiplicity
 _atom_site_fract_x
 _atom_site_fract_y
 _atom_site_fract_z
 _atom_site_occupancy
  Sr  Sr0  1  0.50000000  0.84242860  0.31932757  1
  Sr  Sr1  1  0.50000000  0.15757140  0.68067243  1
  Sr  Sr2  1  0.50000000  0.34242860  0.18067243  1
  Sr  Sr3  1  0.50000000  0.65757140  0.81932757  1
  Rh  Rh4  1  0.50000000  0.65391965  0.09651077  1
  Rh  Rh5  1  0.50000000  0.34608035  0.90348923  1
  Rh  Rh6  1  0.50000000  0.15391965  0.40348923  1
  Rh  Rh7  1  0.50000000  0.84608035  0.59651077  1
  Rh  Rh8  1  0.50000000  0.53450655  0.40494023  1
  Rh  Rh9  1  0.50000000  0.46549345  0.59505977  1
  Rh  Rh10  1  0.50000000  0.03450655  0.09505977  1
  Rh  Rh11  1  0.50000000  0.96549345  0.90494023  1
  In  In12  1  0.00000000  0.83399778  0.87795617  1
  In  In13  1  0.00000000  0.16600222  0.12204383  1
  In  In14  1  0.00000000  0.33399778  0.62204383  1
  In  In15  1  0.00000000  0.66600222  0.37795617  1
  In  In16  1  0.00000000  0.55033964  0.68282809  1
  In  In17  1  0.00000000  0.44966036  0.31717191  1
  In  In18  1  0.00000000  0.05033964  0.81717191  1
  In  In19  1  0.00000000  0.94966036  0.18282809  1
  In  In20  1  0.00000000  0.00000000  0.00000000  1
  In  In21  1  0.00000000  0.50000000  0.50000000  1
  In  In22  1  0.00000000  0.76011478  0.67678379  1
  In  In23  1  0.00000000  0.23988522  0.32321621  1
  In  In24  1  0.00000000  0.26011478  0.82321621  1
  In  In25  1  0.00000000  0.73988522  0.17678379  1
  In  In26  1  0.50000000  0.84010636  0.04443436  1
  In  In27  1  0.50000000  0.15989364  0.95556564  1
  In  In28  1  0.50000000  0.34010636  0.45556564  1
  In  In29  1  0.50000000  0.65989364  0.54443436  1
  In  In30  1  0.00000000  0.66998406  0.98904093  1
  In  In31  1  0.00000000  0.33001594  0.01095907  1
  In  In32  1  0.00000000  0.16998406  0.51095907  1
  In  In33  1  0.00000000  0.83001594  0.48904093  1
  In  In34  1  0.50000000  0.60006020  0.25358228  1
  In  In35  1  0.50000000  0.39993980  0.74641772  1
  In  In36  1  0.50000000  0.10006020  0.24641772  1
  In  In37  1  0.50000000  0.89993980  0.75358228  1
  In  In38  1  0.50000000  0.50000000  0.00000000  1
  In  In39  1  0.50000000  0.00000000  0.50000000  1
  In  In40  1  0.00000000  0.97943088  0.63343659  1
  In  In41  1  0.00000000  0.02056912  0.36656341  1
  In  In42  1  0.00000000  0.47943088  0.86656341  1
  In  In43  1  0.00000000  0.52056912  0.13343659  1
