# generated using pymatgen
data_Rb2V3O8
_symmetry_space_group_name_H-M   'P 1'
_cell_length_a   5.79995411
_cell_length_b   9.05429536
_cell_length_c   9.05429536
_cell_angle_alpha   90.00000000
_cell_angle_beta   90.00000000
_cell_angle_gamma   90.00000000
_symmetry_Int_Tables_number   1
_chemical_formula_structural   Rb2V3O8
_chemical_formula_sum   'Rb4 V6 O16'
_cell_volume   475.48177183
_cell_formula_units_Z   2
loop_
 _symmetry_equiv_pos_site_id
 _symmetry_equiv_pos_as_xyz
  1  'x, y, z'
loop_
 _atom_site_type_symbol
 _atom_site_label
 _atom_site_symmetry_multiplicity
 _atom_site_fract_x
 _atom_site_fract_y
 _atom_site_fract_z
 _atom_site_occupancy
  O  O0  1  0.24914251  0.50000000  0.50000000  1
  O  O1  1  0.24914251  0.00000000  0.00000000  1
  O  O2  1  0.63337927  0.08523676  0.80729750  1
  O  O3  1  0.63337927  0.91476324  0.19270250  1
  O  O4  1  0.63337927  0.80729750  0.91476324  1
  O  O5  1  0.63337927  0.19270250  0.08523676  1
  O  O6  1  0.63337927  0.69270250  0.41476324  1
  O  O7  1  0.63337927  0.58523676  0.69270250  1
  O  O8  1  0.63337927  0.41476324  0.30729750  1
  O  O9  1  0.63337927  0.30729750  0.58523676  1
  O  O10  1  0.63871928  0.00000000  0.50000000  1
  O  O11  1  0.63871928  0.50000000  0.00000000  1
  O  O12  1  0.23880649  0.13086841  0.63086841  1
  O  O13  1  0.23880649  0.36913159  0.13086841  1
  O  O14  1  0.23880649  0.63086841  0.86913159  1
  O  O15  1  0.23880649  0.86913159  0.36913159  1
  V  V16  1  0.52622341  0.86617186  0.36617186  1
  V  V17  1  0.52622341  0.63382814  0.86617186  1
  V  V18  1  0.52622341  0.36617186  0.13382814  1
  V  V19  1  0.52622341  0.13382814  0.63382814  1
  V  V20  1  0.53248262  0.50000000  0.50000000  1
  V  V21  1  0.53248262  0.00000000  0.00000000  1
  Rb  Rb22  1  0.99918936  0.67013298  0.17013298  1
  Rb  Rb23  1  0.99918936  0.82986702  0.67013298  1
  Rb  Rb24  1  0.99918936  0.17013298  0.32986702  1
  Rb  Rb25  1  0.99918936  0.32986702  0.82986702  1
