# generated using pymatgen
data_Ce3(Al3Ru)4
_symmetry_space_group_name_H-M   'P 1'
_cell_length_a   8.89440579
_cell_length_b   8.89440580
_cell_length_c   9.55046273
_cell_angle_alpha   90.00000000
_cell_angle_beta   90.00000000
_cell_angle_gamma   120.00000001
_symmetry_Int_Tables_number   1
_chemical_formula_structural   Ce3(Al3Ru)4
_chemical_formula_sum   'Ce6 Al24 Ru8'
_cell_volume   654.31808612
_cell_formula_units_Z   2
loop_
 _symmetry_equiv_pos_site_id
 _symmetry_equiv_pos_as_xyz
  1  'x, y, z'
loop_
 _atom_site_type_symbol
 _atom_site_label
 _atom_site_symmetry_multiplicity
 _atom_site_fract_x
 _atom_site_fract_y
 _atom_site_fract_z
 _atom_site_occupancy
  Al  Al0  1  0.33333333  0.66666667  0.48448974  1
  Al  Al1  1  0.66666667  0.33333333  0.98448974  1
  Al  Al2  1  0.66666667  0.33333333  0.51551026  1
  Al  Al3  1  0.33333333  0.66666667  0.01551026  1
  Al  Al4  1  0.16232192  0.32464385  0.57748045  1
  Al  Al5  1  0.67535615  0.83767808  0.57748045  1
  Al  Al6  1  0.16232192  0.83767808  0.57748045  1
  Al  Al7  1  0.83767808  0.16232192  0.07748045  1
  Al  Al8  1  0.83767808  0.16232192  0.42251955  1
  Al  Al9  1  0.83767808  0.67535615  0.07748045  1
  Al  Al10  1  0.32464385  0.16232192  0.07748045  1
  Al  Al11  1  0.67535615  0.83767808  0.92251955  1
  Al  Al12  1  0.16232192  0.32464385  0.92251955  1
  Al  Al13  1  0.83767808  0.67535615  0.42251955  1
  Al  Al14  1  0.00000000  0.00000000  0.25000000  1
  Al  Al15  1  0.00000000  0.00000000  0.75000000  1
  Al  Al16  1  0.56208109  0.12416219  0.25000000  1
  Al  Al17  1  0.43791891  0.56208109  0.75000000  1
  Al  Al18  1  0.12416219  0.56208109  0.75000000  1
  Al  Al19  1  0.87583781  0.43791891  0.25000000  1
  Al  Al20  1  0.56208109  0.43791891  0.25000000  1
  Al  Al21  1  0.43791891  0.87583781  0.75000000  1
  Al  Al22  1  0.16232192  0.83767808  0.92251955  1
  Al  Al23  1  0.32464385  0.16232192  0.42251955  1
  Ru  Ru24  1  0.00000000  0.00000000  0.50000000  1
  Ru  Ru25  1  0.00000000  0.00000000  0.00000000  1
  Ru  Ru26  1  0.50000000  0.00000000  0.50000000  1
  Ru  Ru27  1  0.50000000  0.50000000  0.00000000  1
  Ru  Ru28  1  0.00000000  0.50000000  0.00000000  1
  Ru  Ru29  1  0.00000000  0.50000000  0.50000000  1
  Ru  Ru30  1  0.50000000  0.50000000  0.50000000  1
  Ru  Ru31  1  0.50000000  0.00000000  0.00000000  1
  Ce  Ce32  1  0.80619802  0.61239604  0.75000000  1
  Ce  Ce33  1  0.19380198  0.80619802  0.25000000  1
  Ce  Ce34  1  0.61239604  0.80619802  0.25000000  1
  Ce  Ce35  1  0.38760396  0.19380198  0.75000000  1
  Ce  Ce36  1  0.80619802  0.19380198  0.75000000  1
  Ce  Ce37  1  0.19380198  0.38760396  0.25000000  1
