# generated using pymatgen
data_Sr11(CdSb2)6
_symmetry_space_group_name_H-M   'P 1'
_cell_length_a   4.83053374
_cell_length_b   12.76217449
_cell_length_c   16.85528946
_cell_angle_alpha   109.70933285
_cell_angle_beta   98.23851818
_cell_angle_gamma   90.00000001
_symmetry_Int_Tables_number   1
_chemical_formula_structural   Sr11(CdSb2)6
_chemical_formula_sum   'Sr11 Cd6 Sb12'
_cell_volume   966.82367535
_cell_formula_units_Z   1
loop_
 _symmetry_equiv_pos_site_id
 _symmetry_equiv_pos_as_xyz
  1  'x, y, z'
loop_
 _atom_site_type_symbol
 _atom_site_label
 _atom_site_symmetry_multiplicity
 _atom_site_fract_x
 _atom_site_fract_y
 _atom_site_fract_z
 _atom_site_occupancy
  Sr  Sr0  1  0.98102136  0.31888503  0.96204273  1
  Sr  Sr1  1  0.01897864  0.68111497  0.03795727  1
  Sr  Sr2  1  0.88641639  0.49393560  0.77283279  1
  Sr  Sr3  1  0.11358361  0.50606440  0.22716721  1
  Sr  Sr4  1  0.87379203  0.98446507  0.74758406  1
  Sr  Sr5  1  0.12620797  0.01553493  0.25241594  1
  Sr  Sr6  1  0.79941916  0.65686435  0.59883832  1
  Sr  Sr7  1  0.20058084  0.34313565  0.40116168  1
  Sr  Sr8  1  0.72187245  0.86675076  0.44374491  1
  Sr  Sr9  1  0.27812755  0.13324924  0.55625509  1
  Sr  Sr10  1  0.00000000  0.00000000  0.00000000  1
  Cd  Cd11  1  0.45247057  0.75519378  0.90494115  1
  Cd  Cd12  1  0.39962971  0.25486293  0.79925941  1
  Cd  Cd13  1  0.60037029  0.74513707  0.20074059  1
  Cd  Cd14  1  0.54752943  0.24480622  0.09505885  1
  Cd  Cd15  1  0.21906518  0.66664683  0.43813035  1
  Cd  Cd16  1  0.78093482  0.33335317  0.56186965  1
  Sb  Sb17  1  0.54655852  0.88441400  0.09311704  1
  Sb  Sb18  1  0.45344148  0.11558600  0.90688296  1
  Sb  Sb19  1  0.54300728  0.50035093  0.08601455  1
  Sb  Sb20  1  0.45699272  0.49964907  0.91398545  1
  Sb  Sb21  1  0.29515221  0.86520164  0.59030442  1
  Sb  Sb22  1  0.70484779  0.13479836  0.40969558  1
  Sb  Sb23  1  0.30921690  0.47044274  0.61843380  1
  Sb  Sb24  1  0.69078310  0.52955726  0.38156620  1
  Sb  Sb25  1  0.84997095  0.21640488  0.69994190  1
  Sb  Sb26  1  0.09005420  0.23268405  0.18010841  1
  Sb  Sb27  1  0.90994580  0.76731595  0.81989159  1
  Sb  Sb28  1  0.15002905  0.78359512  0.30005810  1
