# generated using pymatgen
data_Na3ReO5
_symmetry_space_group_name_H-M   'P 1'
_cell_length_a   5.60196603
_cell_length_b   5.60196603
_cell_length_c   13.81995220
_cell_angle_alpha   90.00000000
_cell_angle_beta   90.00000000
_cell_angle_gamma   120.00000008
_symmetry_Int_Tables_number   1
_chemical_formula_structural   Na3ReO5
_chemical_formula_sum   'Na9 Re3 O15'
_cell_volume   375.59354019
_cell_formula_units_Z   3
loop_
 _symmetry_equiv_pos_site_id
 _symmetry_equiv_pos_as_xyz
  1  'x, y, z'
loop_
 _atom_site_type_symbol
 _atom_site_label
 _atom_site_symmetry_multiplicity
 _atom_site_fract_x
 _atom_site_fract_y
 _atom_site_fract_z
 _atom_site_occupancy
  O  O0  1  0.50309485  0.17344097  0.40057522  1
  O  O1  1  0.67034612  0.49690515  0.06724189  1
  O  O2  1  0.82655903  0.32965388  0.73390856  1
  O  O3  1  0.32988244  0.96952929  0.00495348  1
  O  O4  1  0.63964685  0.67011756  0.67162015  1
  O  O5  1  0.03047071  0.36035315  0.33828681  1
  O  O6  1  0.99546940  0.16252784  0.94152733  1
  O  O7  1  0.16705845  0.00453060  0.60819400  1
  O  O8  1  0.83747216  0.83294155  0.27486067  1
  O  O9  1  0.65098095  0.82250037  0.44415381  1
  O  O10  1  0.17151942  0.34901905  0.11082048  1
  O  O11  1  0.17749963  0.82848058  0.77748714  1
  O  O12  1  0.49596769  0.50842936  0.89779980  1
  O  O13  1  0.49157064  0.98753834  0.23113314  1
  O  O14  1  0.01246166  0.50403231  0.56446647  1
  Na  Na15  1  0.95715084  0.59235589  0.91975734  1
  Na  Na16  1  0.63520505  0.04284916  0.58642400  1
  Na  Na17  1  0.40764411  0.36479495  0.25309067  1
  Na  Na18  1  0.02208900  0.73193041  0.42106731  1
  Na  Na19  1  0.70984141  0.97791100  0.08773398  1
  Na  Na20  1  0.26806959  0.29015859  0.75440064  1
  Na  Na21  1  0.32767515  0.38412640  0.50267738  1
  Na  Na22  1  0.05645126  0.67232485  0.16934404  1
  Na  Na23  1  0.61587360  0.94354874  0.83601071  1
  Re  Re24  1  0.33285095  0.29251284  0.00442166  1
  Re  Re25  1  0.95966189  0.66714905  0.67108833  1
  Re  Re26  1  0.70748716  0.04033811  0.33775499  1
