# generated using pymatgen
data_Ba5CrN5
_symmetry_space_group_name_H-M   'P 1'
_cell_length_a   7.98798077
_cell_length_b   7.98798077
_cell_length_c   9.51192386
_cell_angle_alpha   103.79479644
_cell_angle_beta   103.79479643
_cell_angle_gamma   96.18012719
_symmetry_Int_Tables_number   1
_chemical_formula_structural   Ba5CrN5
_chemical_formula_sum   'Ba10 Cr2 N10'
_cell_volume   563.65193866
_cell_formula_units_Z   2
loop_
 _symmetry_equiv_pos_site_id
 _symmetry_equiv_pos_as_xyz
  1  'x, y, z'
loop_
 _atom_site_type_symbol
 _atom_site_label
 _atom_site_symmetry_multiplicity
 _atom_site_fract_x
 _atom_site_fract_y
 _atom_site_fract_z
 _atom_site_occupancy
  N  N0  1  0.34813484  0.34813484  0.31186434  1
  N  N1  1  0.65186516  0.65186516  0.68813566  1
  N  N2  1  0.97607204  0.28336267  0.99221691  1
  N  N3  1  0.71663733  0.02392796  0.00778309  1
  N  N4  1  0.02392796  0.71663733  0.00778309  1
  N  N5  1  0.28336267  0.97607204  0.99221691  1
  N  N6  1  0.26969813  0.61351895  0.83864850  1
  N  N7  1  0.38648105  0.73030187  0.16135150  1
  N  N8  1  0.73030187  0.38648105  0.16135150  1
  N  N9  1  0.61351895  0.26969813  0.83864850  1
  Cr  Cr10  1  0.75740687  0.24259313  0.00000000  1
  Cr  Cr11  1  0.24259313  0.75740687  0.00000000  1
  Ba  Ba12  1  0.61133043  0.61133043  0.38337494  1
  Ba  Ba13  1  0.38866957  0.38866957  0.61662506  1
  Ba  Ba14  1  0.33582070  0.33582070  0.00726130  1
  Ba  Ba15  1  0.66417930  0.66417930  0.99273870  1
  Ba  Ba16  1  0.07483462  0.07483462  0.20085185  1
  Ba  Ba17  1  0.92516538  0.92516538  0.79914815  1
  Ba  Ba18  1  0.90753197  0.43671949  0.75829727  1
  Ba  Ba19  1  0.56328051  0.09246803  0.24170273  1
  Ba  Ba20  1  0.09246803  0.56328051  0.24170273  1
  Ba  Ba21  1  0.43671949  0.90753197  0.75829727  1
