# generated using pymatgen
data_Pr(GeRh)2
_symmetry_space_group_name_H-M   'P 1'
_cell_length_a   4.19481924
_cell_length_b   4.19481924
_cell_length_c   6.07972432
_cell_angle_alpha   110.18083920
_cell_angle_beta   110.18083912
_cell_angle_gamma   90.00000010
_symmetry_Int_Tables_number   1
_chemical_formula_structural   Pr(GeRh)2
_chemical_formula_sum   'Pr1 Ge2 Rh2'
_cell_volume   93.38557339
_cell_formula_units_Z   1
loop_
 _symmetry_equiv_pos_site_id
 _symmetry_equiv_pos_as_xyz
  1  'x, y, z'
loop_
 _atom_site_type_symbol
 _atom_site_label
 _atom_site_symmetry_multiplicity
 _atom_site_fract_x
 _atom_site_fract_y
 _atom_site_fract_z
 _atom_site_occupancy
  Ge  Ge0  1  0.62486608  0.62486608  0.24973215  1
  Ge  Ge1  1  0.37513392  0.37513392  0.75026785  1
  Rh  Rh2  1  0.25000000  0.75000000  0.50000000  1
  Rh  Rh3  1  0.75000000  0.25000000  0.50000000  1
  Pr  Pr4  1  0.00000000  0.00000000  0.00000000  1
