# generated using pymatgen
data_La5Sn3
_symmetry_space_group_name_H-M   'P 1'
_cell_length_a   6.36379768
_cell_length_b   9.62087356
_cell_length_c   9.62087438
_cell_angle_alpha   83.73042702
_cell_angle_beta   70.68438959
_cell_angle_gamma   70.68438444
_symmetry_Int_Tables_number   1
_chemical_formula_structural   La5Sn3
_chemical_formula_sum   'La10 Sn6'
_cell_volume   524.59397894
_cell_formula_units_Z   2
loop_
 _symmetry_equiv_pos_site_id
 _symmetry_equiv_pos_as_xyz
  1  'x, y, z'
loop_
 _atom_site_type_symbol
 _atom_site_label
 _atom_site_symmetry_multiplicity
 _atom_site_fract_x
 _atom_site_fract_y
 _atom_site_fract_z
 _atom_site_occupancy
  La  La0  1  0.25000000  0.50000292  0.49999708  1
  La  La1  1  0.75000000  0.49999708  0.50000292  1
  La  La2  1  0.08562797  0.13140253  0.69748515  1
  La  La3  1  0.78297599  0.30252311  0.13140711  1
  La  La4  1  0.21702401  0.69747689  0.86859289  1
  La  La5  1  0.91437203  0.86859747  0.30251485  1
  La  La6  1  0.28297599  0.13140711  0.30252311  1
  La  La7  1  0.71702401  0.86859289  0.69747689  1
  La  La8  1  0.41437203  0.30251485  0.86859747  1
  La  La9  1  0.58562797  0.69748515  0.13140253  1
  Sn  Sn10  1  0.25000000  -0.00003361  1.00003361  1
  Sn  Sn11  1  0.75000000  1.00003361  -0.00003361  1
  Sn  Sn12  1  0.16011111  0.49998910  0.17978952  1
  Sn  Sn13  1  0.33988889  0.82021048  0.50001090  1
  Sn  Sn14  1  0.66011111  0.17978952  0.49998910  1
  Sn  Sn15  1  0.83988889  0.50001090  0.82021048  1
