# generated using pymatgen
data_Ca(AuO2)2
_symmetry_space_group_name_H-M   'P 1'
_cell_length_a   6.10501340
_cell_length_b   6.10501339
_cell_length_c   6.69014669
_cell_angle_alpha   117.14661511
_cell_angle_beta   117.14661518
_cell_angle_gamma   90.00000008
_symmetry_Int_Tables_number   1
_chemical_formula_structural   Ca(AuO2)2
_chemical_formula_sum   'Ca2 Au4 O8'
_cell_volume   190.49358268
_cell_formula_units_Z   2
loop_
 _symmetry_equiv_pos_site_id
 _symmetry_equiv_pos_as_xyz
  1  'x, y, z'
loop_
 _atom_site_type_symbol
 _atom_site_label
 _atom_site_symmetry_multiplicity
 _atom_site_fract_x
 _atom_site_fract_y
 _atom_site_fract_z
 _atom_site_occupancy
  O  O0  1  0.83293461  0.21929401  0.34803915  1
  O  O1  1  0.12874513  0.33293461  0.84803915  1
  O  O2  1  0.71929401  0.01510454  0.84803915  1
  O  O3  1  0.51510454  0.62874513  0.34803915  1
  O  O4  1  0.16706539  0.78070599  0.65196085  1
  O  O5  1  0.87125487  0.66706539  0.15196085  1
  O  O6  1  0.48489546  0.37125487  0.65196085  1
  O  O7  1  0.28070599  0.98489546  0.15196085  1
  Ca  Ca8  1  0.12500000  0.37500000  0.25000000  1
  Ca  Ca9  1  0.87500000  0.62500000  0.75000000  1
  Au  Au10  1  0.50000000  0.00000000  0.50000000  1
  Au  Au11  1  0.50000000  0.50000000  0.00000000  1
  Au  Au12  1  0.00000000  0.00000000  0.50000000  1
  Au  Au13  1  0.50000000  0.00000000  0.00000000  1
