# generated using pymatgen
data_CoO2
_symmetry_space_group_name_H-M   'P 1'
_cell_length_a   5.65622898
_cell_length_b   5.64990261
_cell_length_c   17.09759156
_cell_angle_alpha   60.26338474
_cell_angle_beta   60.14979809
_cell_angle_gamma   60.28153125
_symmetry_Int_Tables_number   1
_chemical_formula_structural   CoO2
_chemical_formula_sum   'Co12 O24'
_cell_volume   388.38050597
_cell_formula_units_Z   12
loop_
 _symmetry_equiv_pos_site_id
 _symmetry_equiv_pos_as_xyz
  1  'x, y, z'
loop_
 _atom_site_type_symbol
 _atom_site_label
 _atom_site_symmetry_multiplicity
 _atom_site_fract_x
 _atom_site_fract_y
 _atom_site_fract_z
 _atom_site_occupancy
  Co  Co0  1  0.49490470  0.49419329  0.16669581  1
  Co  Co1  1  0.49469081  0.01115818  0.16672694  1
  Co  Co2  1  0.49419537  0.49410350  0.50039836  1
  Co  Co3  1  0.01158523  0.49398128  0.16682720  1
  Co  Co4  1  0.49660133  0.00833918  0.50003142  1
  Co  Co5  1  0.50298901  0.50327602  0.66334914  1
  Co  Co6  1  0.87794793  0.87811032  0.28850025  1
  Co  Co7  1  0.50178125  0.50211075  0.83056721  1
  Co  Co8  1  0.00859800  0.49659339  0.49997073  1
  Co  Co9  1  0.49962707  0.00467187  0.83150985  1
  Co  Co10  1  0.00286356  0.50239981  0.83181163  1
  Co  Co11  1  0.87576940  0.87788606  0.95687260  1
  O  O12  1  0.25313792  0.25196228  0.09896043  1
  O  O13  1  0.26035826  0.26081392  0.23880406  1
  O  O14  1  0.25410193  0.69866562  0.09871542  1
  O  O15  1  0.69925499  0.25346902  0.09853126  1
  O  O16  1  0.24697894  0.24598063  0.43454467  1
  O  O17  1  0.26860511  0.75810347  0.23811333  1
  O  O18  1  0.26397188  0.26481110  0.57086136  1
  O  O19  1  0.75782212  0.26868045  0.23810975  1
  O  O20  1  0.74229811  0.73978452  0.09302567  1
  O  O21  1  0.24498137  0.70705776  0.43490745  1
  O  O22  1  0.70707117  0.24472679  0.43479504  1
  O  O23  1  0.75802329  0.75855142  0.23789455  1
  O  O24  1  0.26563396  0.26764335  0.75420660  1
  O  O25  1  0.29538081  0.73155130  0.57837938  1
  O  O26  1  0.73195973  0.29533918  0.57809025  1
  O  O27  1  0.26770092  0.26676786  0.90041302  1
  O  O28  1  0.74156372  0.74083720  0.42510697  1
  O  O29  1  0.26600620  0.70688801  0.75475236  1
  O  O30  1  0.70770138  0.26631345  0.75411887  1
  O  O31  1  0.73146402  0.73218898  0.57837661  1
  O  O32  1  0.27557232  0.75807476  0.90166065  1
  O  O33  1  0.76191370  0.27513078  0.90023875  1
  O  O34  1  0.73343638  0.73720053  0.76417056  1
  O  O35  1  0.75975111  0.75888097  0.90037785  1
