# generated using pymatgen
data_Nb3Co4B7
_symmetry_space_group_name_H-M   'P 1'
_cell_length_a   3.20657733
_cell_length_b   8.89271778
_cell_length_c   9.34047268
_cell_angle_alpha   90.00000000
_cell_angle_beta   99.88374587
_cell_angle_gamma   90.00000000
_symmetry_Int_Tables_number   1
_chemical_formula_structural   Nb3Co4B7
_chemical_formula_sum   'Nb6 Co8 B14'
_cell_volume   262.39224647
_cell_formula_units_Z   2
loop_
 _symmetry_equiv_pos_site_id
 _symmetry_equiv_pos_as_xyz
  1  'x, y, z'
loop_
 _atom_site_type_symbol
 _atom_site_label
 _atom_site_symmetry_multiplicity
 _atom_site_fract_x
 _atom_site_fract_y
 _atom_site_fract_z
 _atom_site_occupancy
  B  B0  1  0.95539937  0.25000000  0.91079874  1
  B  B1  1  0.04460063  0.75000000  0.08920126  1
  B  B2  1  0.89025088  0.64773284  0.78050175  1
  B  B3  1  0.10974912  0.35226716  0.21949825  1
  B  B4  1  0.10974912  0.14773284  0.21949825  1
  B  B5  1  0.89025088  0.85226716  0.78050175  1
  B  B6  1  0.71013810  0.64476290  0.42027620  1
  B  B7  1  0.28986190  0.35523710  0.57972380  1
  B  B8  1  0.28986190  0.14476290  0.57972380  1
  B  B9  1  0.71013810  0.85523710  0.42027620  1
  B  B10  1  0.98458831  0.59336077  0.96917663  1
  B  B11  1  0.01541169  0.40663923  0.03082337  1
  B  B12  1  0.01541169  0.09336077  0.03082337  1
  B  B13  1  0.98458831  0.90663923  0.96917663  1
  Co  Co14  1  0.54216220  0.25000000  0.08432439  1
  Co  Co15  1  0.45783780  0.75000000  0.91567561  1
  Co  Co16  1  0.84375142  0.25000000  0.68750285  1
  Co  Co17  1  0.15624858  0.75000000  0.31249715  1
  Co  Co18  1  0.80097861  0.50511782  0.60195722  1
  Co  Co19  1  0.19902139  0.49488218  0.39804278  1
  Co  Co20  1  0.19902139  0.00511782  0.39804278  1
  Co  Co21  1  0.80097861  0.99488218  0.60195722  1
  Nb  Nb22  1  0.69797289  0.25000000  0.39594577  1
  Nb  Nb23  1  0.30202711  0.75000000  0.60405423  1
  Nb  Nb24  1  0.58084547  0.55505266  0.16169094  1
  Nb  Nb25  1  0.41915453  0.44494734  0.83830906  1
  Nb  Nb26  1  0.41915453  0.05505266  0.83830906  1
  Nb  Nb27  1  0.58084547  0.94494734  0.16169094  1
