# generated using pymatgen
data_Zn3S2O9
_symmetry_space_group_name_H-M   'P 1'
_cell_length_a   6.72015117
_cell_length_b   7.53965913
_cell_length_c   8.03491700
_cell_angle_alpha   117.52224764
_cell_angle_beta   90.00000000
_cell_angle_gamma   90.00000000
_symmetry_Int_Tables_number   1
_chemical_formula_structural   Zn3S2O9
_chemical_formula_sum   'Zn6 S4 O18'
_cell_volume   361.03827553
_cell_formula_units_Z   2
loop_
 _symmetry_equiv_pos_site_id
 _symmetry_equiv_pos_as_xyz
  1  'x, y, z'
loop_
 _atom_site_type_symbol
 _atom_site_label
 _atom_site_symmetry_multiplicity
 _atom_site_fract_x
 _atom_site_fract_y
 _atom_site_fract_z
 _atom_site_occupancy
  Zn  Zn0  1  0.50000000  0.00000000  0.00000000  1
  Zn  Zn1  1  0.00000000  0.00000000  0.00000000  1
  Zn  Zn2  1  0.25000000  0.62278735  0.74439377  1
  Zn  Zn3  1  0.75000000  0.37721265  0.25560623  1
  Zn  Zn4  1  0.25000000  0.83290811  0.22580217  1
  Zn  Zn5  1  0.75000000  0.16709189  0.77419783  1
  S  S6  1  0.25000000  0.44296274  0.28587649  1
  S  S7  1  0.75000000  0.55703726  0.71412351  1
  S  S8  1  0.25000000  0.15202712  0.69979173  1
  S  S9  1  0.75000000  0.84797288  0.30020827  1
  O  O10  1  0.25000000  0.86871944  0.99258934  1
  O  O11  1  0.75000000  0.13128056  0.00741066  1
  O  O12  1  0.92905944  0.68934641  0.75921571  1
  O  O13  1  0.42905944  0.31065359  0.24078429  1
  O  O14  1  0.07094056  0.31065359  0.24078429  1
  O  O15  1  0.57094056  0.68934641  0.75921571  1
  O  O16  1  0.92985660  0.89084726  0.21380142  1
  O  O17  1  0.42985660  0.10915274  0.78619858  1
  O  O18  1  0.07014340  0.10915274  0.78619858  1
  O  O19  1  0.57014340  0.89084726  0.21380142  1
  O  O20  1  0.75000000  0.45194515  0.83128754  1
  O  O21  1  0.25000000  0.54805485  0.16871246  1
  O  O22  1  0.75000000  0.40542292  0.51433833  1
  O  O23  1  0.25000000  0.59457708  0.48566167  1
  O  O24  1  0.75000000  0.97404646  0.50414074  1
  O  O25  1  0.25000000  0.02595354  0.49585926  1
  O  O26  1  0.25000000  0.36439434  0.74405398  1
  O  O27  1  0.75000000  0.63560566  0.25594602  1
