# generated using pymatgen
data_Sc2Ni12P7
_symmetry_space_group_name_H-M   'P 1'
_cell_length_a   8.97868187
_cell_length_b   8.97868187
_cell_length_c   3.59498409
_cell_angle_alpha   90.00000000
_cell_angle_beta   90.00000000
_cell_angle_gamma   119.99999996
_symmetry_Int_Tables_number   1
_chemical_formula_structural   Sc2Ni12P7
_chemical_formula_sum   'Sc2 Ni12 P7'
_cell_volume   250.98789294
_cell_formula_units_Z   1
loop_
 _symmetry_equiv_pos_site_id
 _symmetry_equiv_pos_as_xyz
  1  'x, y, z'
loop_
 _atom_site_type_symbol
 _atom_site_label
 _atom_site_symmetry_multiplicity
 _atom_site_fract_x
 _atom_site_fract_y
 _atom_site_fract_z
 _atom_site_occupancy
  P  P0  1  0.00000000  0.00000000  0.00000000  1
  P  P1  1  0.41246091  0.29388090  0.00000000  1
  P  P2  1  0.58823454  0.70638760  0.50000000  1
  P  P3  1  0.29361240  0.88184694  0.50000000  1
  P  P4  1  0.11815306  0.41176546  0.50000000  1
  P  P5  1  0.70611910  0.11858000  0.00000000  1
  P  P6  1  0.88142000  0.58753909  0.00000000  1
  Sc  Sc7  1  0.66666667  0.33333333  0.50000000  1
  Sc  Sc8  1  0.33333333  0.66666667  0.00000000  1
  Ni  Ni9  1  0.38326108  0.43385588  0.50000000  1
  Ni  Ni10  1  0.05059480  0.61673892  0.50000000  1
  Ni  Ni11  1  0.21985861  0.09384258  0.50000000  1
  Ni  Ni12  1  0.87398396  0.78014139  0.50000000  1
  Ni  Ni13  1  0.90615742  0.12601604  0.50000000  1
  Ni  Ni14  1  0.72362671  0.87852735  0.00000000  1
  Ni  Ni15  1  0.12147265  0.84509936  0.00000000  1
  Ni  Ni16  1  0.15490064  0.27637329  0.00000000  1
  Ni  Ni17  1  0.93719627  0.37301462  0.00000000  1
  Ni  Ni18  1  0.62698538  0.56418165  0.00000000  1
  Ni  Ni19  1  0.43581835  0.06280373  0.00000000  1
  Ni  Ni20  1  0.56614412  0.94940520  0.50000000  1
