# generated using pymatgen
data_Y2V3O9
_symmetry_space_group_name_H-M   'P 1'
_cell_length_a   5.28496128
_cell_length_b   16.37200369
_cell_length_c   7.63349433
_cell_angle_alpha   90.00036942
_cell_angle_beta   89.97404345
_cell_angle_gamma   89.97639448
_symmetry_Int_Tables_number   1
_chemical_formula_structural   Y2V3O9
_chemical_formula_sum   'Y8 V12 O36'
_cell_volume   660.49106898
_cell_formula_units_Z   4
loop_
 _symmetry_equiv_pos_site_id
 _symmetry_equiv_pos_as_xyz
  1  'x, y, z'
loop_
 _atom_site_type_symbol
 _atom_site_label
 _atom_site_symmetry_multiplicity
 _atom_site_fract_x
 _atom_site_fract_y
 _atom_site_fract_z
 _atom_site_occupancy
  Y  Y0  1  0.48300317  0.52137885  0.74858656  1
  Y  Y1  1  0.49129585  0.84963882  0.74983263  1
  Y  Y2  1  0.99165788  0.31705732  0.24913225  1
  Y  Y3  1  0.98348004  0.64520392  0.25140708  1
  Y  Y4  1  0.51636911  0.14517523  0.24767185  1
  Y  Y5  1  0.50867232  0.81696463  0.25042070  1
  Y  Y6  1  0.01683835  0.02142817  0.75231270  1
  Y  Y7  1  0.00876822  0.34984914  0.75048260  1
  V  V8  1  0.99480479  0.16584484  0.50376141  1
  V  V9  1  0.98592963  0.49796466  0.49067449  1
  V  V10  1  0.99643562  0.83394497  0.50213684  1
  V  V11  1  0.49527460  0.00032360  0.49655790  1
  V  V12  1  0.49659037  0.33268970  0.49742907  1
  V  V13  1  0.48553910  0.66886566  0.50957067  1
  V  V14  1  0.01373669  0.16899212  0.99072612  1
  V  V15  1  0.00436808  0.50025043  0.00368743  1
  V  V16  1  0.00337333  0.83265552  0.00219116  1
  V  V17  1  0.51407475  0.99787305  0.00927580  1
  V  V18  1  0.50332691  0.33383762  0.99745159  1
  V  V19  1  0.50419087  0.66609496  0.99651145  1
  O  O20  1  0.78892308  0.07691197  0.45878315  1
  O  O21  1  0.80859940  0.39435046  0.46923815  1
  O  O22  1  0.78377230  0.73564842  0.43615339  1
  O  O23  1  0.28860853  0.08995885  0.54098511  1
  O  O24  1  0.28453910  0.43080558  0.56298348  1
  O  O25  1  0.31082073  0.77221229  0.53097718  1
  O  O26  1  0.18978996  0.27015516  0.53138899  1
  O  O27  1  0.23048544  0.59489002  0.52814725  1
  O  O28  1  0.20667830  0.92932098  0.56586967  1
  O  O29  1  0.70666932  0.23758701  0.43478897  1
  O  O30  1  0.73031615  0.57144420  0.47219447  1
  O  O31  1  0.68603684  0.89715977  0.46852698  1
  O  O32  1  0.18799469  0.27215472  0.96901819  1
  O  O33  1  0.21124016  0.59001146  0.95985813  1
  O  O34  1  0.21567934  0.93064852  0.93639698  1
  O  O35  1  0.71640001  0.23540229  0.06375472  1
  O  O36  1  0.71149899  0.57696218  0.04114230  1
  O  O37  1  0.69039099  0.89435608  0.03081458  1
  O  O38  1  0.76978046  0.07148098  0.02754700  1
  O  O39  1  0.81428328  0.39715845  0.03126480  1
  O  O40  1  0.79357316  0.73756570  0.06529674  1
  O  O41  1  0.26962890  0.09502246  0.97204227  1
  O  O42  1  0.29262818  0.42928555  0.93396988  1
  O  O43  1  0.31262282  0.76990268  0.96867145  1
  O  O44  1  0.93781258  0.16448388  0.74932625  1
  O  O45  1  0.89291269  0.48680320  0.75307158  1
  O  O46  1  0.92301806  0.82447712  0.74849977  1
  O  O47  1  0.43719313  0.00251376  0.25036768  1
  O  O48  1  0.42320994  0.34198627  0.24783990  1
  O  O49  1  0.39215880  0.68016016  0.24720540  1
  O  O50  1  0.10759658  0.18016930  0.25335284  1
  O  O51  1  0.06286567  0.50227416  0.24979900  1
  O  O52  1  0.07674182  0.84197242  0.25038823  1
  O  O53  1  0.57769755  0.32469123  0.75272034  1
  O  O54  1  0.56230380  0.66429289  0.75060866  1
  O  O55  1  0.60779957  0.98641262  0.74718625  1
