# generated using pymatgen
data_CaTi4O8
_symmetry_space_group_name_H-M   'P 1'
_cell_length_a   3.02405010
_cell_length_b   7.36757089
_cell_length_c   7.45181482
_cell_angle_alpha   82.31459190
_cell_angle_beta   78.29512516
_cell_angle_gamma   78.16122340
_symmetry_Int_Tables_number   1
_chemical_formula_structural   CaTi4O8
_chemical_formula_sum   'Ca1 Ti4 O8'
_cell_volume   158.37852084
_cell_formula_units_Z   1
loop_
 _symmetry_equiv_pos_site_id
 _symmetry_equiv_pos_as_xyz
  1  'x, y, z'
loop_
 _atom_site_type_symbol
 _atom_site_label
 _atom_site_symmetry_multiplicity
 _atom_site_fract_x
 _atom_site_fract_y
 _atom_site_fract_z
 _atom_site_occupancy
  Ca  Ca0  1  0.37791325  0.09943336  0.14474799  1
  Ti  Ti1  1  0.63120481  0.17604001  0.56164682  1
  Ti  Ti2  1  0.14071018  0.50927371  0.20963930  1
  Ti  Ti3  1  0.83379895  0.49114643  0.84173649  1
  Ti  Ti4  1  0.34346511  0.80953188  0.50361137  1
  O  O5  1  0.85361509  0.66603251  0.62662503  1
  O  O6  1  0.45508022  0.32504081  0.76483064  1
  O  O7  1  0.52677520  0.65649009  0.29026748  1
  O  O8  1  0.14658600  0.29900878  0.40810796  1
  O  O9  1  0.16327858  0.01094473  0.66258246  1
  O  O10  1  0.78121850  0.34021819  0.09743589  1
  O  O11  1  0.83422957  0.97076644  0.36084464  1
  O  O12  1  0.20960553  0.62218206  0.95856995  1
