# generated using pymatgen
data_SnF3
_symmetry_space_group_name_H-M   'P 1'
_cell_length_a   4.19224629
_cell_length_b   7.50320356
_cell_length_c   9.29220061
_cell_angle_alpha   90.75819933
_cell_angle_beta   86.64429048
_cell_angle_gamma   94.20689154
_symmetry_Int_Tables_number   1
_chemical_formula_structural   SnF3
_chemical_formula_sum   'Sn4 F12'
_cell_volume   290.98967707
_cell_formula_units_Z   4
loop_
 _symmetry_equiv_pos_site_id
 _symmetry_equiv_pos_as_xyz
  1  'x, y, z'
loop_
 _atom_site_type_symbol
 _atom_site_label
 _atom_site_symmetry_multiplicity
 _atom_site_fract_x
 _atom_site_fract_y
 _atom_site_fract_z
 _atom_site_occupancy
  Sn  Sn0  1  0.22559516  0.74087646  0.16647498  1
  Sn  Sn1  1  0.77440484  0.25912354  0.83352502  1
  Sn  Sn2  1  0.96092744  0.72261792  0.69437412  1
  Sn  Sn3  1  0.03907256  0.27738208  0.30562588  1
  F  F4  1  0.86512614  0.35206171  0.63705106  1
  F  F5  1  0.13487386  0.64793829  0.36294894  1
  F  F6  1  0.23296569  0.80195799  0.96218129  1
  F  F7  1  0.76703431  0.19804201  0.03781871  1
  F  F8  1  0.72248247  0.75146294  0.16931079  1
  F  F9  1  0.27751753  0.24853706  0.83068921  1
  F  F10  1  0.73739539  0.00687361  0.76672087  1
  F  F11  1  0.26260461  0.99312639  0.23327913  1
  F  F12  1  0.48453532  0.30064824  0.39748936  1
  F  F13  1  0.51546468  0.69935176  0.60251064  1
  F  F14  1  0.76223248  0.52136554  0.88156329  1
  F  F15  1  0.23776752  0.47863446  0.11843571  1
