# generated using pymatgen
data_K2NaInP2
_symmetry_space_group_name_H-M   'P 1'
_cell_length_a   6.69292940
_cell_length_b   6.68226721
_cell_length_c   8.88468079
_cell_angle_alpha   112.08956788
_cell_angle_beta   112.12667560
_cell_angle_gamma   90.00000000
_symmetry_Int_Tables_number   1
_chemical_formula_structural   K2NaInP2
_chemical_formula_sum   'K4 Na2 In2 P4'
_cell_volume   336.39883720
_cell_formula_units_Z   2
loop_
 _symmetry_equiv_pos_site_id
 _symmetry_equiv_pos_as_xyz
  1  'x, y, z'
loop_
 _atom_site_type_symbol
 _atom_site_label
 _atom_site_symmetry_multiplicity
 _atom_site_fract_x
 _atom_site_fract_y
 _atom_site_fract_z
 _atom_site_occupancy
  Na  Na0  1  0.75000000  0.00000000  0.00000000  1
  Na  Na1  1  0.25000000  0.00000000  0.00000000  1
  P  P2  1  0.59922480  0.81442723  0.19844959  1
  P  P3  1  0.40077520  0.18557277  0.80155041  1
  P  P4  1  0.90077520  0.61597764  0.80155041  1
  P  P5  1  0.09922480  0.38402236  0.19844959  1
  K  K6  1  0.82269097  0.06093320  0.64538194  1
  K  K7  1  0.17730903  0.93906680  0.35461806  1
  K  K8  1  0.67730903  0.41555126  0.35461806  1
  K  K9  1  0.32269097  0.58444874  0.64538194  1
  In  In10  1  0.25000000  0.50000000  0.00000000  1
  In  In11  1  0.75000000  0.50000000  0.00000000  1
