# generated using pymatgen
data_FeS4N4Cl5
_symmetry_space_group_name_H-M   'P 1'
_cell_length_a   7.37062538
_cell_length_b   9.46344681
_cell_length_c   10.40090662
_cell_angle_alpha   76.77695924
_cell_angle_beta   83.66227835
_cell_angle_gamma   79.74802810
_symmetry_Int_Tables_number   1
_chemical_formula_structural   FeS4N4Cl5
_chemical_formula_sum   'Fe2 S8 N8 Cl10'
_cell_volume   693.12808923
_cell_formula_units_Z   2
loop_
 _symmetry_equiv_pos_site_id
 _symmetry_equiv_pos_as_xyz
  1  'x, y, z'
loop_
 _atom_site_type_symbol
 _atom_site_label
 _atom_site_symmetry_multiplicity
 _atom_site_fract_x
 _atom_site_fract_y
 _atom_site_fract_z
 _atom_site_occupancy
  Fe  Fe0  1  0.95074326  0.18960794  0.21660806  1
  Fe  Fe1  1  0.04925674  0.81039206  0.78339194  1
  S  S2  1  0.37820866  0.33525643  0.86643303  1
  S  S3  1  0.33173158  0.19861997  0.53108747  1
  S  S4  1  0.53040168  0.95958860  0.20169710  1
  S  S5  1  0.92342630  0.60155240  0.31567994  1
  S  S6  1  0.07657370  0.39844760  0.68432006  1
  S  S7  1  0.66826842  0.80138003  0.46891253  1
  S  S8  1  0.46959832  0.04041140  0.79830290  1
  S  S9  1  0.62179134  0.66474357  0.13356697  1
  N  N10  1  0.43338405  0.08629551  0.64899968  1
  N  N11  1  0.17832979  0.38938918  0.81241768  1
  N  N12  1  0.82167021  0.61061082  0.18758232  1
  N  N13  1  0.17731087  0.32376167  0.57155919  1
  N  N14  1  0.56516341  0.83930440  0.11432487  1
  N  N15  1  0.43483659  0.16069560  0.88567513  1
  N  N16  1  0.56661595  0.91370449  0.35100032  1
  N  N17  1  0.82268913  0.67623833  0.42844081  1
  Cl  Cl18  1  0.18352074  0.79738994  0.58531403  1
  Cl  Cl19  1  0.24327497  0.69742523  0.93496758  1
  Cl  Cl20  1  0.75672503  0.30257477  0.06503242  1
  Cl  Cl21  1  0.79762768  0.70650955  0.80752708  1
  Cl  Cl22  1  0.43992975  0.58444791  0.30670085  1
  Cl  Cl23  1  0.20237232  0.29349045  0.19247292  1
  Cl  Cl24  1  0.81647926  0.20261006  0.41468597  1
  Cl  Cl25  1  0.96637932  0.04243073  0.80091805  1
  Cl  Cl26  1  0.03362068  0.95756927  0.19908195  1
  Cl  Cl27  1  0.56007025  0.41555209  0.69329915  1
