# generated using pymatgen
data_Ba3(BN2)2
_symmetry_space_group_name_H-M   'P 1'
_cell_length_a   4.29993005
_cell_length_b   11.16357802
_cell_length_c   14.91346433
_cell_angle_alpha   90.00000000
_cell_angle_beta   90.00000000
_cell_angle_gamma   90.00000000
_symmetry_Int_Tables_number   1
_chemical_formula_structural   Ba3(BN2)2
_chemical_formula_sum   'Ba12 B8 N16'
_cell_volume   715.88513136
_cell_formula_units_Z   4
loop_
 _symmetry_equiv_pos_site_id
 _symmetry_equiv_pos_as_xyz
  1  'x, y, z'
loop_
 _atom_site_type_symbol
 _atom_site_label
 _atom_site_symmetry_multiplicity
 _atom_site_fract_x
 _atom_site_fract_y
 _atom_site_fract_z
 _atom_site_occupancy
  B  B0  1  0.59302054  0.50068408  0.52087371  1
  B  B1  1  0.09302054  0.99931592  0.47912629  1
  B  B2  1  0.90697946  0.49931592  0.02087371  1
  B  B3  1  0.40697946  0.00068408  0.97912629  1
  B  B4  1  0.23446697  0.85879562  0.73832512  1
  B  B5  1  0.73446697  0.64120438  0.26167488  1
  B  B6  1  0.76553303  0.35879562  0.76167488  1
  B  B7  1  0.26553303  0.14120438  0.23832512  1
  N  N8  1  0.35241002  0.96691489  0.71617647  1
  N  N9  1  0.85241002  0.53308511  0.28382353  1
  N  N10  1  0.64758998  0.46691489  0.78382353  1
  N  N11  1  0.14758998  0.03308511  0.21617647  1
  N  N12  1  0.93227924  0.10025450  0.49548329  1
  N  N13  1  0.43227924  0.39974550  0.50451671  1
  N  N14  1  0.06772076  0.60025450  0.00451671  1
  N  N15  1  0.56772076  0.89974550  0.99548329  1
  N  N16  1  0.78755399  0.38867494  0.03662911  1
  N  N17  1  0.28755399  0.11132506  0.96337089  1
  N  N18  1  0.71244601  0.61132506  0.53662911  1
  N  N19  1  0.21244601  0.88867494  0.46337089  1
  N  N20  1  0.59357818  0.74586252  0.24249930  1
  N  N21  1  0.09357818  0.75413748  0.75750070  1
  N  N22  1  0.40642182  0.24586252  0.25750070  1
  N  N23  1  0.90642182  0.25413748  0.74249930  1
  Ba  Ba24  1  0.85295917  0.03789625  0.82943023  1
  Ba  Ba25  1  0.35295917  0.46210375  0.17056977  1
  Ba  Ba26  1  0.14704083  0.53789625  0.67056977  1
  Ba  Ba27  1  0.64704083  0.96210375  0.32943023  1
  Ba  Ba28  1  0.72565231  0.84492124  0.59300085  1
  Ba  Ba29  1  0.22565231  0.65507876  0.40699915  1
  Ba  Ba30  1  0.27434769  0.34492124  0.90699915  1
  Ba  Ba31  1  0.77434769  0.15507876  0.09300085  1
  Ba  Ba32  1  0.60044900  0.68793844  0.88605934  1
  Ba  Ba33  1  0.10044900  0.81206156  0.11394066  1
  Ba  Ba34  1  0.39955100  0.18793844  0.61394066  1
  Ba  Ba35  1  0.89955100  0.31206156  0.38605934  1
