# generated using pymatgen
data_CaCu2(GeO3)4
_symmetry_space_group_name_H-M   'P 1'
_cell_length_a   5.47996723
_cell_length_b   6.75071121
_cell_length_c   6.75071127
_cell_angle_alpha   83.57652291
_cell_angle_beta   77.65025445
_cell_angle_gamma   77.65024893
_symmetry_Int_Tables_number   1
_chemical_formula_structural   CaCu2(GeO3)4
_chemical_formula_sum   'Ca1 Cu2 Ge4 O12'
_cell_volume   237.73682761
_cell_formula_units_Z   1
loop_
 _symmetry_equiv_pos_site_id
 _symmetry_equiv_pos_as_xyz
  1  'x, y, z'
loop_
 _atom_site_type_symbol
 _atom_site_label
 _atom_site_symmetry_multiplicity
 _atom_site_fract_x
 _atom_site_fract_y
 _atom_site_fract_z
 _atom_site_occupancy
  Ca  Ca0  1  0.75000000  0.30793577  0.69206423  1
  Cu  Cu1  1  0.75000000  0.90391012  0.09608988  1
  Cu  Cu2  1  0.25000000  0.08975742  0.91024258  1
  Ge  Ge3  1  0.77833918  0.38808238  0.19543325  1
  Ge  Ge4  1  0.72166082  0.80456675  0.61191762  1
  Ge  Ge5  1  0.21098457  0.61788987  0.81050363  1
  Ge  Ge6  1  0.28901543  0.18949637  0.38211013  1
  O  O7  1  0.53019735  0.32300702  0.39800857  1
  O  O8  1  0.96980265  0.60199143  0.67699298  1
  O  O9  1  0.48974028  0.65336332  0.62467045  1
  O  O10  1  0.01025972  0.37532955  0.34663668  1
  O  O11  1  0.17016386  0.09545833  0.63106674  1
  O  O12  1  0.32983614  0.36893426  0.90454167  1
  O  O13  1  0.80624637  0.92244395  0.37134826  1
  O  O14  1  0.69375363  0.62865274  0.07755605  1
  O  O15  1  0.87351686  0.19452895  0.01641381  1
  O  O16  1  0.62648314  0.98358619  0.80547105  1
  O  O17  1  0.11351898  0.82365854  0.97178697  1
  O  O18  1  0.38648102  0.02821303  0.17634146  1
