# generated using pymatgen
data_Ta9(FeS3)2
_symmetry_space_group_name_H-M   'P 1'
_cell_length_a   10.43576013
_cell_length_b   10.43576013
_cell_length_c   6.59228489
_cell_angle_alpha   90.00000000
_cell_angle_beta   90.00000000
_cell_angle_gamma   119.99999998
_symmetry_Int_Tables_number   1
_chemical_formula_structural   Ta9(FeS3)2
_chemical_formula_sum   'Ta18 Fe4 S12'
_cell_volume   621.74854172
_cell_formula_units_Z   2
loop_
 _symmetry_equiv_pos_site_id
 _symmetry_equiv_pos_as_xyz
  1  'x, y, z'
loop_
 _atom_site_type_symbol
 _atom_site_label
 _atom_site_symmetry_multiplicity
 _atom_site_fract_x
 _atom_site_fract_y
 _atom_site_fract_z
 _atom_site_occupancy
  S  S0  1  0.70115997  0.00000000  0.76645812  1
  S  S1  1  0.29884003  0.29884003  0.23354188  1
  S  S2  1  0.00000000  0.70115997  0.23354188  1
  S  S3  1  0.00000000  0.70115997  0.76645812  1
  S  S4  1  0.29884003  0.29884003  0.76645812  1
  S  S5  1  0.70115997  0.00000000  0.23354188  1
  S  S6  1  0.00000000  0.27910158  0.50000000  1
  S  S7  1  0.72089842  0.72089842  0.50000000  1
  S  S8  1  0.27910158  0.00000000  0.50000000  1
  S  S9  1  0.00000000  0.27673290  0.00000000  1
  S  S10  1  0.72326710  0.72326710  0.00000000  1
  S  S11  1  0.27673290  0.00000000  0.00000000  1
  Fe  Fe12  1  0.66666667  0.33333333  0.28316311  1
  Fe  Fe13  1  0.66666667  0.33333333  0.71683689  1
  Fe  Fe14  1  0.33333333  0.66666667  0.71683689  1
  Fe  Fe15  1  0.33333333  0.66666667  0.28316311  1
  Ta  Ta16  1  0.78306201  0.52706587  0.00000000  1
  Ta  Ta17  1  0.74400386  0.21693799  0.00000000  1
  Ta  Ta18  1  0.47293413  0.25599614  0.00000000  1
  Ta  Ta19  1  0.25599614  0.47293413  0.00000000  1
  Ta  Ta20  1  0.52706587  0.78306201  0.00000000  1
  Ta  Ta21  1  0.21693799  0.74400386  0.00000000  1
  Ta  Ta22  1  0.73531838  0.19074294  0.50000000  1
  Ta  Ta23  1  0.80925706  0.54457544  0.50000000  1
  Ta  Ta24  1  0.45542456  0.26468162  0.50000000  1
  Ta  Ta25  1  0.26468162  0.45542456  0.50000000  1
  Ta  Ta26  1  0.54457544  0.80925706  0.50000000  1
  Ta  Ta27  1  0.19074294  0.73531838  0.50000000  1
  Ta  Ta28  1  0.45988956  0.00000000  0.75398613  1
  Ta  Ta29  1  0.54011044  0.54011044  0.24601387  1
  Ta  Ta30  1  0.00000000  0.45988956  0.24601387  1
  Ta  Ta31  1  0.00000000  0.45988956  0.75398613  1
  Ta  Ta32  1  0.54011044  0.54011044  0.75398613  1
  Ta  Ta33  1  0.45988956  0.00000000  0.24601387  1
