# generated using pymatgen
data_CaFe2O5
_symmetry_space_group_name_H-M   'P 1'
_cell_length_a   3.59200221
_cell_length_b   5.29858893
_cell_length_c   11.43691124
_cell_angle_alpha   89.99411754
_cell_angle_beta   89.99990159
_cell_angle_gamma   90.00379251
_symmetry_Int_Tables_number   1
_chemical_formula_structural   CaFe2O5
_chemical_formula_sum   'Ca2 Fe4 O10'
_cell_volume   217.67350505
_cell_formula_units_Z   2
loop_
 _symmetry_equiv_pos_site_id
 _symmetry_equiv_pos_as_xyz
  1  'x, y, z'
loop_
 _atom_site_type_symbol
 _atom_site_label
 _atom_site_symmetry_multiplicity
 _atom_site_fract_x
 _atom_site_fract_y
 _atom_site_fract_z
 _atom_site_occupancy
  Ca  Ca0  1  0.75001212  0.87387513  0.25001027  1
  Ca  Ca1  1  0.24998843  0.12633756  0.74999187  1
  Fe  Fe2  1  0.24998554  0.41842432  0.10008436  1
  Fe  Fe3  1  0.75001324  0.58150211  0.89991800  1
  Fe  Fe4  1  0.75001409  0.58137210  0.60000214  1
  Fe  Fe5  1  0.24998284  0.41867633  0.40001554  1
  O  O6  1  0.75004493  0.43124430  0.75000416  1
  O  O7  1  0.24995374  0.56873677  0.24998924  1
  O  O8  1  0.75001054  0.57537582  0.07255356  1
  O  O9  1  0.24998828  0.42458684  0.92749173  1
  O  O10  1  0.75001228  0.57534282  0.42741159  1
  O  O11  1  0.24998980  0.42467253  0.57251918  1
  O  O12  1  0.25002231  0.08695135  0.34994462  1
  O  O13  1  0.74997585  0.91300957  0.65007475  1
  O  O14  1  0.74997450  0.91292330  0.84990042  1
  O  O15  1  0.25002251  0.08696813  0.15008856  1
