# generated using pymatgen
data_Na2Ta4O11
_symmetry_space_group_name_H-M   'P 1'
_cell_length_a   12.87125735
_cell_length_b   12.87125735
_cell_length_c   12.87125735
_cell_angle_alpha   28.21244902
_cell_angle_beta   28.21244902
_cell_angle_gamma   28.21244902
_symmetry_Int_Tables_number   1
_chemical_formula_structural   Na2Ta4O11
_chemical_formula_sum   'Na4 Ta8 O22'
_cell_volume   421.03674132
_cell_formula_units_Z   2
loop_
 _symmetry_equiv_pos_site_id
 _symmetry_equiv_pos_as_xyz
  1  'x, y, z'
loop_
 _atom_site_type_symbol
 _atom_site_label
 _atom_site_symmetry_multiplicity
 _atom_site_fract_x
 _atom_site_fract_y
 _atom_site_fract_z
 _atom_site_occupancy
  O  O0  1  0.74573161  0.43784395  0.22410478  1
  O  O1  1  0.43784395  0.22410478  0.74573161  1
  O  O2  1  0.22410478  0.74573161  0.43784395  1
  O  O3  1  0.27589522  0.06215605  0.75426839  1
  O  O4  1  0.06215605  0.75426839  0.27589522  1
  O  O5  1  0.75426839  0.27589522  0.06215605  1
  O  O6  1  0.25426839  0.56215605  0.77589522  1
  O  O7  1  0.56215605  0.77589522  0.25426839  1
  O  O8  1  0.77589522  0.25426839  0.56215605  1
  O  O9  1  0.72410478  0.93784395  0.24573161  1
  O  O10  1  0.93784395  0.24573161  0.72410478  1
  O  O11  1  0.24573161  0.72410478  0.93784395  1
  O  O12  1  0.00279376  0.49720624  0.25000000  1
  O  O13  1  0.25000000  0.00279376  0.49720624  1
  O  O14  1  0.49720624  0.25000000  0.00279376  1
  O  O15  1  0.99720624  0.50279376  0.75000000  1
  O  O16  1  0.75000000  0.99720624  0.50279376  1
  O  O17  1  0.50279376  0.75000000  0.99720624  1
  O  O18  1  0.09392960  0.09392960  0.09392960  1
  O  O19  1  0.40607040  0.40607040  0.40607040  1
  O  O20  1  0.90607040  0.90607040  0.90607040  1
  O  O21  1  0.59392960  0.59392960  0.59392960  1
  Na  Na22  1  0.16545860  0.16545860  0.16545860  1
  Na  Na23  1  0.33454140  0.33454140  0.33454140  1
  Na  Na24  1  0.83454140  0.83454140  0.83454140  1
  Na  Na25  1  0.66545860  0.66545860  0.66545860  1
  Ta  Ta26  1  0.25000000  0.61267121  0.88732879  1
  Ta  Ta27  1  0.61267121  0.88732879  0.25000000  1
  Ta  Ta28  1  0.50000000  0.50000000  0.50000000  1
  Ta  Ta29  1  0.00000000  0.00000000  0.00000000  1
  Ta  Ta30  1  0.88732879  0.25000000  0.61267121  1
  Ta  Ta31  1  0.38732879  0.11267121  0.75000000  1
  Ta  Ta32  1  0.75000000  0.38732879  0.11267121  1
  Ta  Ta33  1  0.11267121  0.75000000  0.38732879  1
