# generated using pymatgen
data_YNiBC
_symmetry_space_group_name_H-M   'P 1'
_cell_length_a   3.58995687
_cell_length_b   3.59014468
_cell_length_c   7.54355388
_cell_angle_alpha   90.04661431
_cell_angle_beta   89.96158301
_cell_angle_gamma   90.00000976
_symmetry_Int_Tables_number   1
_chemical_formula_structural   YNiBC
_chemical_formula_sum   'Y2 Ni2 B2 C2'
_cell_volume   97.22477277
_cell_formula_units_Z   2
loop_
 _symmetry_equiv_pos_site_id
 _symmetry_equiv_pos_as_xyz
  1  'x, y, z'
loop_
 _atom_site_type_symbol
 _atom_site_label
 _atom_site_symmetry_multiplicity
 _atom_site_fract_x
 _atom_site_fract_y
 _atom_site_fract_z
 _atom_site_occupancy
  Y  Y0  1  0.75061746  0.74907387  0.83484435  1
  Y  Y1  1  0.24937579  0.25076646  0.16508536  1
  Ni  Ni2  1  0.75006727  0.25026462  0.50029891  1
  Ni  Ni3  1  0.24988421  0.74997707  0.49965142  1
  B  B4  1  0.24996107  0.25005519  0.64371665  1
  B  B5  1  0.75013964  0.75000767  0.35632309  1
  C  C6  1  0.74935652  0.75075118  0.15809958  1
  C  C7  1  0.25059804  0.24910394  0.84198063  1
