# generated using pymatgen
data_Ba4LiMo2N7
_symmetry_space_group_name_H-M   'P 1'
_cell_length_a   6.55527708
_cell_length_b   10.46506774
_cell_length_c   15.71491889
_cell_angle_alpha   98.98577724
_cell_angle_beta   90.00000000
_cell_angle_gamma   90.00000000
_symmetry_Int_Tables_number   1
_chemical_formula_structural   Ba4LiMo2N7
_chemical_formula_sum   'Ba16 Li4 Mo8 N28'
_cell_volume   1064.83478362
_cell_formula_units_Z   4
loop_
 _symmetry_equiv_pos_site_id
 _symmetry_equiv_pos_as_xyz
  1  'x, y, z'
loop_
 _atom_site_type_symbol
 _atom_site_label
 _atom_site_symmetry_multiplicity
 _atom_site_fract_x
 _atom_site_fract_y
 _atom_site_fract_z
 _atom_site_occupancy
  Li  Li0  1  0.46006185  0.87426805  0.24007183  1
  Li  Li1  1  0.53993815  0.37426805  0.74007183  1
  Li  Li2  1  0.53993815  0.12573195  0.75992817  1
  Li  Li3  1  0.46006185  0.62573195  0.25992817  1
  N  N4  1  0.81738241  0.05134581  0.80483007  1
  N  N5  1  0.81738241  0.44865419  0.69516993  1
  N  N6  1  0.18261759  0.94865419  0.19516993  1
  N  N7  1  0.18261759  0.55134581  0.30483007  1
  N  N8  1  0.46777012  0.22216912  0.65259118  1
  N  N9  1  0.46777012  0.27783088  0.84740882  1
  N  N10  1  0.53222988  0.77783088  0.34740882  1
  N  N11  1  0.53222988  0.72216912  0.15259118  1
  N  N12  1  0.53560080  0.89216768  0.90818266  1
  N  N13  1  0.53560080  0.60783232  0.59181734  1
  N  N14  1  0.46439920  0.10783232  0.09181734  1
  N  N15  1  0.46439920  0.39216768  0.40818266  1
  N  N16  1  0.27786373  0.53555335  0.82757833  1
  N  N17  1  0.72213627  0.03555335  0.32757833  1
  N  N18  1  0.72213627  0.46444665  0.17242167  1
  N  N19  1  0.27786373  0.96444665  0.67242167  1
  N  N20  1  0.07690291  0.35964727  0.93508272  1
  N  N21  1  0.07690291  0.14035273  0.56491728  1
  N  N22  1  0.92309709  0.64035273  0.06491728  1
  N  N23  1  0.92309709  0.85964727  0.43508272  1
  N  N24  1  0.01159940  0.36093994  0.41646020  1
  N  N25  1  0.01159940  0.13906006  0.08353980  1
  N  N26  1  0.98840060  0.63906006  0.58353980  1
  N  N27  1  0.98840060  0.86093994  0.91646020  1
  N  N28  1  0.50000000  0.50000000  0.00000000  1
  N  N29  1  0.50000000  0.00000000  0.50000000  1
  N  N30  1  0.24189513  0.25000000  0.25000000  1
  N  N31  1  0.75810487  0.75000000  0.75000000  1
  Mo  Mo32  1  0.22509884  0.39432832  0.34514557  1
  Mo  Mo33  1  0.22509884  0.10567168  0.15485443  1
  Mo  Mo34  1  0.77490116  0.60567168  0.65485443  1
  Mo  Mo35  1  0.77490116  0.89432832  0.84514557  1
  Mo  Mo36  1  0.32873762  0.07933331  0.59711293  1
  Mo  Mo37  1  0.32873762  0.42066669  0.90288707  1
  Mo  Mo38  1  0.67126238  0.92066669  0.40288707  1
  Mo  Mo39  1  0.67126238  0.57933331  0.09711293  1
  Ba  Ba40  1  0.14456139  0.07703168  0.37889956  1
  Ba  Ba41  1  0.14456139  0.42296832  0.12110044  1
  Ba  Ba42  1  0.85543861  0.92296832  0.62110044  1
  Ba  Ba43  1  0.85543861  0.57703168  0.87889956  1
  Ba  Ba44  1  0.71895545  0.25421781  0.51559504  1
  Ba  Ba45  1  0.71895545  0.24578219  0.98440496  1
  Ba  Ba46  1  0.28104455  0.74578219  0.48440496  1
  Ba  Ba47  1  0.28104455  0.75421781  0.01559504  1
  Ba  Ba48  1  0.22754948  0.42078142  0.57220842  1
  Ba  Ba49  1  0.22754948  0.07921858  0.92779158  1
  Ba  Ba50  1  0.77245052  0.57921858  0.42779158  1
  Ba  Ba51  1  0.77245052  0.92078142  0.07220842  1
  Ba  Ba52  1  0.02183489  0.25000000  0.75000000  1
  Ba  Ba53  1  0.97816511  0.75000000  0.25000000  1
  Ba  Ba54  1  0.31826591  0.75000000  0.75000000  1
  Ba  Ba55  1  0.68173409  0.25000000  0.25000000  1
