# generated using pymatgen
data_BaUI6
_symmetry_space_group_name_H-M   'P 1'
_cell_length_a   8.40541669
_cell_length_b   8.40541659
_cell_length_c   15.35449345
_cell_angle_alpha   95.57602495
_cell_angle_beta   95.57602480
_cell_angle_gamma   120.36599654
_symmetry_Int_Tables_number   1
_chemical_formula_structural   BaUI6
_chemical_formula_sum   'Ba2 U2 I12'
_cell_volume   917.94446476
_cell_formula_units_Z   2
loop_
 _symmetry_equiv_pos_site_id
 _symmetry_equiv_pos_as_xyz
  1  'x, y, z'
loop_
 _atom_site_type_symbol
 _atom_site_label
 _atom_site_symmetry_multiplicity
 _atom_site_fract_x
 _atom_site_fract_y
 _atom_site_fract_z
 _atom_site_occupancy
  Ba  Ba0  1  0.16565394  0.83050555  0.99666969  1
  Ba  Ba1  1  0.33050555  0.66565394  0.49666969  1
  U  U2  1  0.65955026  0.33333530  0.49899077  1
  U  U3  1  0.83333530  0.15955026  0.99899077  1
  I  I4  1  0.78459777  0.40705533  0.88236436  1
  I  I5  1  0.90705533  0.28459777  0.38236436  1
  I  I6  1  0.07181933  0.11148057  0.87521734  1
  I  I7  1  0.42378969  0.38899971  0.62135677  1
  I  I8  1  0.61148057  0.57181933  0.37521734  1
  I  I9  1  0.31042077  -0.00050755  0.38705810  1
  I  I10  1  0.49949245  0.81042077  0.88705810  1
  I  I11  1  0.70045113  0.08470553  0.61768845  1
  I  I12  1  0.88899971  0.92378969  0.12135677  1
  I  I13  1  0.16877414  0.49936853  0.11525452  1
  I  I14  1  0.99936853  0.66877414  0.61525452  1
  I  I15  1  0.58470553  0.20045113  0.11768845  1
