# generated using pymatgen
data_CaMnF5
_symmetry_space_group_name_H-M   'P 1'
_cell_length_a   5.59986865
_cell_length_b   5.59986866
_cell_length_c   7.94374553
_cell_angle_alpha   97.39064603
_cell_angle_beta   110.06467372
_cell_angle_gamma   109.32008895
_symmetry_Int_Tables_number   1
_chemical_formula_structural   CaMnF5
_chemical_formula_sum   'Ca2 Mn2 F10'
_cell_volume   212.40990492
_cell_formula_units_Z   2
loop_
 _symmetry_equiv_pos_site_id
 _symmetry_equiv_pos_as_xyz
  1  'x, y, z'
loop_
 _atom_site_type_symbol
 _atom_site_label
 _atom_site_symmetry_multiplicity
 _atom_site_fract_x
 _atom_site_fract_y
 _atom_site_fract_z
 _atom_site_occupancy
  F  F0  1  0.34788890  0.09788890  0.25000000  1
  F  F1  1  0.65211110  0.90211110  0.75000000  1
  F  F2  1  0.59314184  0.75736565  0.38303031  1
  F  F3  1  0.87433535  0.21011153  0.11696969  1
  F  F4  1  0.74635678  0.69273569  0.03307011  1
  F  F5  1  0.15966558  0.71328667  0.46692989  1
  F  F6  1  0.25364322  0.30726431  0.96692989  1
  F  F7  1  0.84033442  0.28671333  0.53307011  1
  F  F8  1  0.12566465  0.78988847  0.88303031  1
  F  F9  1  0.40685816  0.24263435  0.61696969  1
  Ca  Ca10  1  0.29383100  0.54383100  0.75000000  1
  Ca  Ca11  1  0.70616900  0.45616900  0.25000000  1
  Mn  Mn12  1  0.00000000  0.00000000  0.00000000  1
  Mn  Mn13  1  0.50000000  0.00000000  0.50000000  1
