# generated using pymatgen
data_Mg2SiO4
_symmetry_space_group_name_H-M   'P 1'
_cell_length_a   4.80034779
_cell_length_b   6.08091094
_cell_length_c   10.48072831
_cell_angle_alpha   90.00000000
_cell_angle_beta   89.91906728
_cell_angle_gamma   90.00000000
_symmetry_Int_Tables_number   1
_chemical_formula_structural   Mg2SiO4
_chemical_formula_sum   'Mg8 Si4 O16'
_cell_volume   305.93726252
_cell_formula_units_Z   4
loop_
 _symmetry_equiv_pos_site_id
 _symmetry_equiv_pos_as_xyz
  1  'x, y, z'
loop_
 _atom_site_type_symbol
 _atom_site_label
 _atom_site_symmetry_multiplicity
 _atom_site_fract_x
 _atom_site_fract_y
 _atom_site_fract_z
 _atom_site_occupancy
  Mg  Mg0  1  0.50261855  0.74307894  0.25846456  1
  Mg  Mg1  1  0.49738145  0.25692106  0.74153544  1
  Mg  Mg2  1  0.50000000  0.00000000  0.50000000  1
  Mg  Mg3  1  0.50261855  0.25692106  0.25846456  1
  Mg  Mg4  1  0.49738145  0.74307894  0.74153544  1
  Mg  Mg5  1  0.00000000  0.50000000  0.50000000  1
  Mg  Mg6  1  0.50000000  0.00000000  0.00000000  1
  Mg  Mg7  1  0.50000000  0.50000000  0.00000000  1
  Si  Si8  1  0.90732190  0.50000000  0.83476820  1
  Si  Si9  1  0.09267810  0.50000000  0.16523180  1
  Si  Si10  1  0.08175218  0.00000000  0.66934478  1
  Si  Si11  1  0.91824782  0.00000000  0.33065522  1
  O  O12  1  0.25817014  0.28510444  0.09716807  1
  O  O13  1  0.24514119  0.50000000  0.83357160  1
  O  O14  1  0.25817014  0.71489556  0.09716807  1
  O  O15  1  0.25587943  0.00000000  0.80852335  1
  O  O16  1  0.74182986  0.71489556  0.90283193  1
  O  O17  1  0.22474237  0.78411619  0.59346741  1
  O  O18  1  0.74182986  0.28510444  0.90283193  1
  O  O19  1  0.22474237  0.21588381  0.59346741  1
  O  O20  1  0.77525763  0.78411619  0.40653259  1
  O  O21  1  0.74334046  0.00000000  0.66686491  1
  O  O22  1  0.22795666  0.50000000  0.31337599  1
  O  O23  1  0.25665954  0.00000000  0.33313509  1
  O  O24  1  0.75485881  0.50000000  0.16642840  1
  O  O25  1  0.77204334  0.50000000  0.68662401  1
  O  O26  1  0.74412057  0.00000000  0.19147665  1
  O  O27  1  0.77525763  0.21588381  0.40653259  1
