# generated using pymatgen
data_Na5SnAs3
_symmetry_space_group_name_H-M   'P 1'
_cell_length_a   7.69895772
_cell_length_b   8.63414354
_cell_length_c   13.75238012
_cell_angle_alpha   90.48385912
_cell_angle_beta   90.00000000
_cell_angle_gamma   90.00000000
_symmetry_Int_Tables_number   1
_chemical_formula_structural   Na5SnAs3
_chemical_formula_sum   'Na20 Sn4 As12'
_cell_volume   914.14182604
_cell_formula_units_Z   4
loop_
 _symmetry_equiv_pos_site_id
 _symmetry_equiv_pos_as_xyz
  1  'x, y, z'
loop_
 _atom_site_type_symbol
 _atom_site_label
 _atom_site_symmetry_multiplicity
 _atom_site_fract_x
 _atom_site_fract_y
 _atom_site_fract_z
 _atom_site_occupancy
  Na  Na0  1  0.84012864  0.42461209  0.41741213  1
  Na  Na1  1  0.50533068  0.33401205  0.24146523  1
  Na  Na2  1  0.00533068  0.16598795  0.25853477  1
  Na  Na3  1  0.49466932  0.66598795  0.75853477  1
  Na  Na4  1  0.99466932  0.83401205  0.74146523  1
  Na  Na5  1  0.95911255  0.82237443  0.41098881  1
  Na  Na6  1  0.45911255  0.67762557  0.08901119  1
  Na  Na7  1  0.04088745  0.17762557  0.58901119  1
  Na  Na8  1  0.54088745  0.32237443  0.91098881  1
  Na  Na9  1  0.47559506  0.66611253  0.41378172  1
  Na  Na10  1  0.97559506  0.83388747  0.08621828  1
  Na  Na11  1  0.52440494  0.33388747  0.58621828  1
  Na  Na12  1  0.14086655  0.57049015  0.25679518  1
  Na  Na13  1  0.64086655  0.92950985  0.24320482  1
  Na  Na14  1  0.85913345  0.42950985  0.74320482  1
  Na  Na15  1  0.35913345  0.07049015  0.75679518  1
  Na  Na16  1  0.15987136  0.57538791  0.58258787  1
  Na  Na17  1  0.65987136  0.92461209  0.91741213  1
  Na  Na18  1  0.34012864  0.07538791  0.08258787  1
  Na  Na19  1  0.02440494  0.16611253  0.91378172  1
  As  As20  1  0.24789191  0.39803373  0.76091405  1
  As  As21  1  0.29394915  0.90199701  0.57132278  1
  As  As22  1  0.79394915  0.59800299  0.92867722  1
  As  As23  1  0.70605085  0.09800299  0.42867722  1
  As  As24  1  0.20605085  0.40199701  0.07132278  1
  As  As25  1  0.23069158  0.35674845  0.41709776  1
  As  As26  1  0.73069158  0.14325155  0.08290224  1
  As  As27  1  0.76930842  0.64325155  0.58290224  1
  As  As28  1  0.26930842  0.85674845  0.91709776  1
  As  As29  1  0.25210809  0.89803373  0.26091405  1
  As  As30  1  0.75210809  0.60196627  0.23908595  1
  As  As31  1  0.74789191  0.10196627  0.73908595  1
  Sn  Sn32  1  0.14697568  0.57035335  0.90985513  1
  Sn  Sn33  1  0.64697568  0.92964665  0.59014487  1
  Sn  Sn34  1  0.85302432  0.42964665  0.09014487  1
  Sn  Sn35  1  0.35302432  0.07035335  0.40985513  1
