# generated using pymatgen
data_TaF5
_symmetry_space_group_name_H-M   'P 1'
_cell_length_a   5.25134689
_cell_length_b   8.88427780
_cell_length_c   8.88427775
_cell_angle_alpha   112.49509872
_cell_angle_beta   93.34336846
_cell_angle_gamma   93.34337609
_symmetry_Int_Tables_number   1
_chemical_formula_structural   TaF5
_chemical_formula_sum   'Ta4 F20'
_cell_volume   380.83768751
_cell_formula_units_Z   4
loop_
 _symmetry_equiv_pos_site_id
 _symmetry_equiv_pos_as_xyz
  1  'x, y, z'
loop_
 _atom_site_type_symbol
 _atom_site_label
 _atom_site_symmetry_multiplicity
 _atom_site_fract_x
 _atom_site_fract_y
 _atom_site_fract_z
 _atom_site_occupancy
  Ta  Ta0  1  0.50000000  0.79974304  0.20025696  1
  Ta  Ta1  1  0.75147716  0.74411038  0.74411038  1
  Ta  Ta2  1  0.24852284  0.25588962  0.25588962  1
  Ta  Ta3  1  0.50000000  0.20025696  0.79974304  1
  F  F4  1  0.15033101  0.26895043  0.45746387  1
  F  F5  1  0.59417091  0.33283661  0.33283661  1
  F  F6  1  0.15033101  0.45746387  0.26895043  1
  F  F7  1  0.37942196  0.02535445  0.21465080  1
  F  F8  1  0.40582909  0.66716339  0.66716339  1
  F  F9  1  0.84966899  0.54253613  0.73104957  1
  F  F10  1  0.04907879  0.86782185  0.86782185  1
  F  F11  1  0.62057804  0.97464555  0.78534920  1
  F  F12  1  0.62478342  0.16675547  0.59910413  1
  F  F13  1  0.81691455  0.92269694  0.28873882  1
  F  F14  1  0.62478342  0.59910413  0.16675547  1
  F  F15  1  0.37521658  0.83324453  0.40089587  1
  F  F16  1  0.62057804  0.78534920  0.97464555  1
  F  F17  1  0.18308545  0.71126118  0.07730306  1
  F  F18  1  0.37942196  0.21465080  0.02535445  1
  F  F19  1  0.37521658  0.40089587  0.83324453  1
  F  F20  1  0.95092121  0.13217815  0.13217815  1
  F  F21  1  0.84966899  0.73104957  0.54253613  1
  F  F22  1  0.81691455  0.28873882  0.92269694  1
  F  F23  1  0.18308545  0.07730306  0.71126118  1
