# generated using pymatgen
data_TlPF6
_symmetry_space_group_name_H-M   'P 1'
_cell_length_a   8.04620412
_cell_length_b   8.04620412
_cell_length_c   8.04620412
_cell_angle_alpha   90.00000000
_cell_angle_beta   90.00000000
_cell_angle_gamma   90.00000000
_symmetry_Int_Tables_number   1
_chemical_formula_structural   TlPF6
_chemical_formula_sum   'Tl4 P4 F24'
_cell_volume   520.92252537
_cell_formula_units_Z   4
loop_
 _symmetry_equiv_pos_site_id
 _symmetry_equiv_pos_as_xyz
  1  'x, y, z'
loop_
 _atom_site_type_symbol
 _atom_site_label
 _atom_site_symmetry_multiplicity
 _atom_site_fract_x
 _atom_site_fract_y
 _atom_site_fract_z
 _atom_site_occupancy
  P  P0  1  0.00000000  0.00000000  0.00000000  1
  P  P1  1  0.50000000  0.00000000  0.50000000  1
  P  P2  1  0.50000000  0.50000000  0.00000000  1
  P  P3  1  0.00000000  0.50000000  0.50000000  1
  Tl  Tl4  1  0.50000000  0.50000000  0.50000000  1
  Tl  Tl5  1  0.00000000  0.50000000  0.00000000  1
  Tl  Tl6  1  0.00000000  0.00000000  0.50000000  1
  Tl  Tl7  1  0.50000000  0.00000000  0.00000000  1
  F  F8  1  0.13576817  0.13620993  0.93203501  1
  F  F9  1  0.93203501  0.13576817  0.13620993  1
  F  F10  1  0.13620993  0.93203501  0.13576817  1
  F  F11  1  0.36379007  0.06796499  0.63576817  1
  F  F12  1  0.43203501  0.36423183  0.86379007  1
  F  F13  1  0.86379007  0.43203501  0.36423183  1
  F  F14  1  0.56796499  0.86423183  0.63620993  1
  F  F15  1  0.06796499  0.63576817  0.36379007  1
  F  F16  1  0.63620993  0.56796499  0.86423183  1
  F  F17  1  0.63576817  0.36379007  0.06796499  1
  F  F18  1  0.86423183  0.63620993  0.56796499  1
  F  F19  1  0.36423183  0.86379007  0.43203501  1
  F  F20  1  0.86423183  0.86379007  0.06796499  1
  F  F21  1  0.06796499  0.86423183  0.86379007  1
  F  F22  1  0.86379007  0.06796499  0.86423183  1
  F  F23  1  0.63620993  0.93203501  0.36423183  1
  F  F24  1  0.56796499  0.63576817  0.13620993  1
  F  F25  1  0.13620993  0.56796499  0.63576817  1
  F  F26  1  0.43203501  0.13576817  0.36379007  1
  F  F27  1  0.93203501  0.36423183  0.63620993  1
  F  F28  1  0.36379007  0.43203501  0.13576817  1
  F  F29  1  0.36423183  0.63620993  0.93203501  1
  F  F30  1  0.13576817  0.36379007  0.43203501  1
  F  F31  1  0.63576817  0.13620993  0.56796499  1
