# generated using pymatgen
data_RbHO
_symmetry_space_group_name_H-M   'P 1'
_cell_length_a   6.14856437
_cell_length_b   4.19343386
_cell_length_c   6.14856437
_cell_angle_alpha   90.00000000
_cell_angle_beta   40.34619681
_cell_angle_gamma   90.00000000
_symmetry_Int_Tables_number   1
_chemical_formula_structural   RbHO
_chemical_formula_sum   'Rb2 H2 O2'
_cell_volume   102.63440249
_cell_formula_units_Z   2
loop_
 _symmetry_equiv_pos_site_id
 _symmetry_equiv_pos_as_xyz
  1  'x, y, z'
loop_
 _atom_site_type_symbol
 _atom_site_label
 _atom_site_symmetry_multiplicity
 _atom_site_fract_x
 _atom_site_fract_y
 _atom_site_fract_z
 _atom_site_occupancy
  Rb  Rb0  1  0.35822276  0.26320408  0.35822276  1
  Rb  Rb1  1  0.64177724  0.76320408  0.64177724  1
  H  H2  1  0.04298933  0.38742643  0.04298933  1
  H  H3  1  0.95701067  0.88742643  0.95701067  1
  O  O4  1  0.11044953  0.24476249  0.11044953  1
  O  O5  1  0.88955047  0.74476249  0.88955047  1
