# generated using pymatgen
data_YbAg2
_symmetry_space_group_name_H-M   'P 1'
_cell_length_a   4.70448291
_cell_length_b   5.94179142
_cell_length_c   5.94179155
_cell_angle_alpha   74.53621854
_cell_angle_beta   66.67907428
_cell_angle_gamma   66.67907359
_symmetry_Int_Tables_number   1
_chemical_formula_structural   YbAg2
_chemical_formula_sum   'Yb2 Ag4'
_cell_volume   138.86643901
_cell_formula_units_Z   2
loop_
 _symmetry_equiv_pos_site_id
 _symmetry_equiv_pos_as_xyz
  1  'x, y, z'
loop_
 _atom_site_type_symbol
 _atom_site_label
 _atom_site_symmetry_multiplicity
 _atom_site_fract_x
 _atom_site_fract_y
 _atom_site_fract_z
 _atom_site_occupancy
  Yb  Yb0  1  0.54301520  0.70698480  0.20698480  1
  Yb  Yb1  1  0.45698480  0.29301520  0.79301520  1
  Ag  Ag2  1  0.83752650  0.11517851  0.20976850  1
  Ag  Ag3  1  0.16247350  0.29023150  0.38482149  1
  Ag  Ag4  1  0.16247350  0.88482149  0.79023150  1
  Ag  Ag5  1  0.83752650  0.70976850  0.61517851  1
