# generated using pymatgen
data_Rb6LiNd11Se12(Cl4O9)4
_symmetry_space_group_name_H-M   'P 1'
_cell_length_a   16.01923292
_cell_length_b   16.01923306
_cell_length_c   16.92745761
_cell_angle_alpha   118.24046330
_cell_angle_beta   118.24046357
_cell_angle_gamma   89.99999861
_symmetry_Int_Tables_number   1
_chemical_formula_structural   Rb6LiNd11Se12(Cl4O9)4
_chemical_formula_sum   'Rb12 Li2 Nd22 Se24 Cl32 O72'
_cell_volume   3227.96707377
_cell_formula_units_Z   2
loop_
 _symmetry_equiv_pos_site_id
 _symmetry_equiv_pos_as_xyz
  1  'x, y, z'
loop_
 _atom_site_type_symbol
 _atom_site_label
 _atom_site_symmetry_multiplicity
 _atom_site_fract_x
 _atom_site_fract_y
 _atom_site_fract_z
 _atom_site_occupancy
  Rb  Rb0  1  0.62025842  0.62966565  0.00000000  1
  Rb  Rb1  1  0.62966565  0.37974158  0.00000000  1
  Rb  Rb2  1  0.37665452  0.87665452  0.00000000  1
  Rb  Rb3  1  0.62334548  0.12334548  1.00000000  1
  Rb  Rb4  1  0.87665452  0.62334548  1.00000000  1
  Rb  Rb5  1  0.12025842  0.87033435  1.00000000  1
  Rb  Rb6  1  0.37033435  0.62025842  1.00000000  1
  Rb  Rb7  1  0.87974158  0.12966565  0.00000000  1
  Rb  Rb8  1  0.12966565  0.12025842  1.00000000  1
  Rb  Rb9  1  0.37974158  0.37033435  0.00000000  1
  Rb  Rb10  1  0.87033435  0.87974158  0.00000000  1
  Rb  Rb11  1  0.12334548  0.37665452  0.00000000  1
  Li  Li12  1  0.25000000  0.75000000  0.50000000  1
  Li  Li13  1  0.75000000  0.25000000  0.50000000  1
  Nd  Nd14  1  0.25415958  0.99667936  0.75083894  1
  Nd  Nd15  1  0.75415958  0.25415958  0.75083894  1
  Nd  Nd16  1  0.50704824  0.25000000  0.50000000  1
  Nd  Nd17  1  0.25000000  0.25000000  0.50000000  1
  Nd  Nd18  1  0.75000000  0.00704824  0.50000000  1
  Nd  Nd19  1  0.00000000  0.50000000  0.50000000  1
  Nd  Nd20  1  0.00332064  0.50332064  0.24916106  1
  Nd  Nd21  1  0.00000000  0.00000000  0.50000000  1
  Nd  Nd22  1  0.50332064  0.24584042  0.24916106  1
  Nd  Nd23  1  0.49295176  0.75000000  0.50000000  1
  Nd  Nd24  1  0.25000000  0.99295176  0.50000000  1
  Nd  Nd25  1  0.99295176  0.25000000  0.50000000  1
  Nd  Nd26  1  0.24584042  0.74584042  0.24916106  1
  Nd  Nd27  1  0.75000000  0.75000000  0.50000000  1
  Nd  Nd28  1  0.50000000  0.50000000  0.50000000  1
  Nd  Nd29  1  0.49667936  0.75415958  0.75083894  1
  Nd  Nd30  1  0.00704824  0.75000000  0.50000000  1
  Nd  Nd31  1  0.74584042  0.00332064  0.24916106  1
  Nd  Nd32  1  0.50000000  0.00000000  0.50000000  1
  Nd  Nd33  1  0.99667936  0.49667936  0.75083894  1
  Nd  Nd34  1  0.75000000  0.49295176  0.50000000  1
  Nd  Nd35  1  0.25000000  0.50704824  0.50000000  1
  Se  Se36  1  0.06376914  0.77940574  0.34317488  1
  Se  Se37  1  0.28168315  0.01074062  0.32039375  1
  Se  Se38  1  0.77940574  0.27940574  0.34317488  1
  Se  Se39  1  0.43623086  0.93623086  0.65682512  1
  Se  Se40  1  0.98925938  0.96128940  0.67960625  1
  Se  Se41  1  0.78168315  0.80965313  0.32039375  1
  Se  Se42  1  0.48925938  0.21831685  0.67960625  1
  Se  Se43  1  0.19034687  0.46128940  0.67960625  1
  Se  Se44  1  0.22059426  0.72059426  0.65682512  1
  Se  Se45  1  0.01074062  0.03871060  0.32039375  1
  Se  Se46  1  0.21831685  0.19034687  0.67960625  1
  Se  Se47  1  0.71831685  0.98925938  0.67960625  1
  Se  Se48  1  0.72059426  0.43623086  0.65682512  1
  Se  Se49  1  0.53871060  0.51074062  0.32039375  1
  Se  Se50  1  0.46128940  0.48925938  0.67960625  1
  Se  Se51  1  0.93623086  0.22059426  0.65682512  1
  Se  Se52  1  0.03871060  0.30965313  0.32039375  1
  Se  Se53  1  0.96128940  0.69034687  0.67960625  1
  Se  Se54  1  0.80965313  0.53871060  0.32039375  1
  Se  Se55  1  0.30965313  0.28168315  0.32039375  1
  Se  Se56  1  0.69034687  0.71831685  0.67960625  1
  Se  Se57  1  0.51074062  0.78168315  0.32039375  1
  Se  Se58  1  0.27940574  0.56376914  0.34317488  1
  Se  Se59  1  0.56376914  0.06376914  0.34317488  1
  Cl  Cl60  1  0.31562379  0.81562379  0.15346158  1
  Cl  Cl61  1  0.92342212  0.42342212  0.84684425  1
  Cl  Cl62  1  0.42276070  0.42276070  0.84552140  1
  Cl  Cl63  1  0.81562379  0.83783779  0.15346158  1
  Cl  Cl64  1  0.07657788  0.57657788  0.15315575  1
  Cl  Cl65  1  0.43257855  0.69058548  0.84967541  1
  Cl  Cl66  1  0.15908992  0.43257855  0.84967541  1
  Cl  Cl67  1  0.18437621  0.16216221  0.84653842  1
  Cl  Cl68  1  0.57723930  0.57723930  0.15447860  1
  Cl  Cl69  1  0.92276070  0.92276070  0.84552140  1
  Cl  Cl70  1  0.16216221  0.66216221  0.84653842  1
  Cl  Cl71  1  0.57657788  0.07657788  0.15315575  1
  Cl  Cl72  1  0.68437621  0.18437621  0.84653842  1
  Cl  Cl73  1  0.69058548  0.41709686  0.84967541  1
  Cl  Cl74  1  0.65908992  0.91709686  0.84967541  1
  Cl  Cl75  1  0.07723930  0.07723930  0.15447860  1
  Cl  Cl76  1  0.84091008  0.56742145  0.15032459  1
  Cl  Cl77  1  0.58290314  0.84091008  0.15032459  1
  Cl  Cl78  1  0.30941452  0.58290314  0.15032459  1
  Cl  Cl79  1  0.06742145  0.34091008  0.15032459  1
  Cl  Cl80  1  0.91709686  0.19058548  0.84967541  1
  Cl  Cl81  1  0.93257855  0.65908992  0.84967541  1
  Cl  Cl82  1  0.33783779  0.31562379  0.15346158  1
  Cl  Cl83  1  0.19058548  0.93257855  0.84967541  1
  Cl  Cl84  1  0.34091008  0.08290314  0.15032459  1
  Cl  Cl85  1  0.42342212  0.92342212  0.84684425  1
  Cl  Cl86  1  0.83783779  0.33783779  0.15346158  1
  Cl  Cl87  1  0.08290314  0.80941452  0.15032459  1
  Cl  Cl88  1  0.56742145  0.30941452  0.15032459  1
  Cl  Cl89  1  0.80941452  0.06742145  0.15032459  1
  Cl  Cl90  1  0.41709686  0.15908992  0.84967541  1
  Cl  Cl91  1  0.66216221  0.68437621  0.84653842  1
  O  O92  1  0.59400514  0.92308381  0.60432352  1
  O  O93  1  0.06314347  0.44099169  0.63454889  1
  O  O94  1  0.68320934  0.06385687  0.37083717  1
  O  O95  1  0.69355720  0.07140542  0.63454889  1
  O  O96  1  0.81876029  0.48968161  0.39567648  1
  O  O97  1  0.30698030  0.68320934  0.37083717  1
  O  O98  1  0.17592451  0.33798176  0.60085082  1
  O  O99  1  0.31876029  0.40599486  0.39567648  1
  O  O100  1  0.66201824  0.57507369  0.39914918  1
  O  O101  1  0.26286905  0.17592451  0.60085082  1
  O  O102  1  0.93614313  0.31237217  0.62916283  1
  O  O103  1  0.62558247  0.40529207  0.53087454  1
  O  O104  1  0.42859458  0.80644280  0.36545111  1
  O  O105  1  0.19355720  0.06314347  0.63454889  1
  O  O106  1  0.93685653  0.55900831  0.36545111  1
  O  O107  1  0.57691619  0.90599486  0.39567648  1
  O  O108  1  0.42492631  0.26286905  0.60085082  1
  O  O109  1  0.80698030  0.18762783  0.37083717  1
  O  O110  1  0.32407549  0.23713095  0.39914918  1
  O  O111  1  0.12558247  0.62558247  0.53087454  1
  O  O112  1  0.82407549  0.66201824  0.39914918  1
  O  O113  1  0.68123971  0.59400514  0.60432352  1
  O  O114  1  0.23713095  0.07507369  0.39914918  1
  O  O115  1  0.81237217  0.43614313  0.62916283  1
  O  O116  1  0.57507369  0.73713095  0.39914918  1
  O  O117  1  0.18123971  0.51031839  0.60432352  1
  O  O118  1  0.69301970  0.31679066  0.62916283  1
  O  O119  1  0.09470793  0.87441753  0.46912546  1
  O  O120  1  0.92492631  0.83798176  0.60085082  1
  O  O121  1  0.40599486  0.07691619  0.39567648  1
  O  O122  1  0.48968161  0.57691619  0.39567648  1
  O  O123  1  0.56314347  0.69355720  0.63454889  1
  O  O124  1  0.37441753  0.59470793  0.46912546  1
  O  O125  1  0.30644280  0.92859458  0.36545111  1
  O  O126  1  0.42308381  0.09400514  0.60432352  1
  O  O127  1  0.43685653  0.30644280  0.36545111  1
  O  O128  1  0.31237217  0.69301970  0.62916283  1
  O  O129  1  0.33798176  0.42492631  0.60085082  1
  O  O130  1  0.31679066  0.93614313  0.62916283  1
  O  O131  1  0.83798176  0.67592451  0.60085082  1
  O  O132  1  0.59470793  0.09470793  0.46912546  1
  O  O133  1  0.05900831  0.43685653  0.36545111  1
  O  O134  1  0.57140542  0.19355720  0.63454889  1
  O  O135  1  0.40529207  0.90529207  0.53087454  1
  O  O136  1  0.98968161  0.31876029  0.39567648  1
  O  O137  1  0.01031839  0.68123971  0.60432352  1
  O  O138  1  0.90599486  0.81876029  0.39567648  1
  O  O139  1  0.80644280  0.93685653  0.36545111  1
  O  O140  1  0.67592451  0.76286905  0.60085082  1
  O  O141  1  0.06385687  0.68762783  0.37083717  1
  O  O142  1  0.43614313  0.81679066  0.62916283  1
  O  O143  1  0.16201824  0.32407549  0.39914918  1
  O  O144  1  0.18762783  0.56385687  0.37083717  1
  O  O145  1  0.68762783  0.30698030  0.37083717  1
  O  O146  1  0.56385687  0.18320934  0.37083717  1
  O  O147  1  0.07140542  0.94099169  0.63454889  1
  O  O148  1  0.94099169  0.56314347  0.63454889  1
  O  O149  1  0.44099169  0.57140542  0.63454889  1
  O  O150  1  0.73713095  0.82407549  0.39914918  1
  O  O151  1  0.90529207  0.12558247  0.53087454  1
  O  O152  1  0.19301970  0.81237217  0.62916283  1
  O  O153  1  0.81679066  0.19301970  0.62916283  1
  O  O154  1  0.18320934  0.80698030  0.37083717  1
  O  O155  1  0.87441753  0.37441753  0.46912546  1
  O  O156  1  0.92308381  0.01031839  0.60432352  1
  O  O157  1  0.55900831  0.42859458  0.36545111  1
  O  O158  1  0.09400514  0.18123971  0.60432352  1
  O  O159  1  0.92859458  0.05900831  0.36545111  1
  O  O160  1  0.07691619  0.98968161  0.39567648  1
  O  O161  1  0.76286905  0.92492631  0.60085082  1
  O  O162  1  0.07507369  0.16201824  0.39914918  1
  O  O163  1  0.51031839  0.42308381  0.60432352  1
