# generated using pymatgen
data_Na3NiF6
_symmetry_space_group_name_H-M   'P 1'
_cell_length_a   5.51242988
_cell_length_b   5.78268353
_cell_length_c   7.96847022
_cell_angle_alpha   90.00000000
_cell_angle_beta   90.66510917
_cell_angle_gamma   90.00000000
_symmetry_Int_Tables_number   1
_chemical_formula_structural   Na3NiF6
_chemical_formula_sum   'Na6 Ni2 F12'
_cell_volume   253.99092232
_cell_formula_units_Z   2
loop_
 _symmetry_equiv_pos_site_id
 _symmetry_equiv_pos_as_xyz
  1  'x, y, z'
loop_
 _atom_site_type_symbol
 _atom_site_label
 _atom_site_symmetry_multiplicity
 _atom_site_fract_x
 _atom_site_fract_y
 _atom_site_fract_z
 _atom_site_occupancy
  Na  Na0  1  0.02111883  0.55917052  0.74236589  1
  Na  Na1  1  0.47888117  0.05917052  0.75763411  1
  Na  Na2  1  0.97888117  0.44082948  0.25763411  1
  Na  Na3  1  0.52111883  0.94082948  0.24236589  1
  Na  Na4  1  0.50000000  0.50000000  0.00000000  1
  Na  Na5  1  0.00000000  0.00000000  0.50000000  1
  Ni  Ni6  1  0.50000000  0.50000000  0.50000000  1
  Ni  Ni7  1  0.00000000  0.00000000  0.00000000  1
  F  F8  1  0.67061513  0.22778315  0.42376252  1
  F  F9  1  0.82938487  0.72778315  0.07623748  1
  F  F10  1  0.32938487  0.77221685  0.57623748  1
  F  F11  1  0.17061513  0.27221685  0.92376252  1
  F  F12  1  0.21819193  0.32103874  0.54878795  1
  F  F13  1  0.28180807  0.82103874  0.95121205  1
  F  F14  1  0.78180807  0.67896126  0.45121205  1
  F  F15  1  0.71819193  0.17896126  0.04878795  1
  F  F16  1  0.11908473  0.05952229  0.22332098  1
  F  F17  1  0.38091527  0.55952229  0.27667902  1
  F  F18  1  0.88091527  0.94047771  0.77667902  1
  F  F19  1  0.61908473  0.44047771  0.72332098  1
