# generated using pymatgen
data_K5Eu2Si4O13F
_symmetry_space_group_name_H-M   'P 1'
_cell_length_a   5.92493710
_cell_length_b   7.31588659
_cell_length_c   18.49841423
_cell_angle_alpha   92.20642312
_cell_angle_beta   90.00000000
_cell_angle_gamma   90.00000000
_symmetry_Int_Tables_number   1
_chemical_formula_structural   K5Eu2Si4O13F
_chemical_formula_sum   'K10 Eu4 Si8 O26 F2'
_cell_volume   801.24089283
_cell_formula_units_Z   2
loop_
 _symmetry_equiv_pos_site_id
 _symmetry_equiv_pos_as_xyz
  1  'x, y, z'
loop_
 _atom_site_type_symbol
 _atom_site_label
 _atom_site_symmetry_multiplicity
 _atom_site_fract_x
 _atom_site_fract_y
 _atom_site_fract_z
 _atom_site_occupancy
  Eu  Eu0  1  0.75000000  0.40134889  0.63003478  1
  Eu  Eu1  1  0.25000000  0.33374265  0.11067755  1
  Eu  Eu2  1  0.75000000  0.66625735  0.88932245  1
  Eu  Eu3  1  0.25000000  0.59865111  0.36996522  1
  K  K4  1  0.25000000  0.52310829  0.75013505  1
  K  K5  1  0.75000000  0.47689171  0.24986495  1
  K  K6  1  0.75000000  0.20578863  0.81342619  1
  K  K7  1  0.25000000  0.79421137  0.18657381  1
  K  K8  1  0.25000000  0.80880737  0.99695097  1
  K  K9  1  0.25000000  0.25513186  0.50917139  1
  K  K10  1  0.75000000  0.74486814  0.49082861  1
  K  K11  1  0.75000000  0.86581534  0.69481003  1
  K  K12  1  0.75000000  0.19119263  0.00304903  1
  K  K13  1  0.25000000  0.13418466  0.30518997  1
  Si  Si14  1  0.75000000  0.67097200  0.08430446  1
  Si  Si15  1  0.25000000  0.71616480  0.57691179  1
  Si  Si16  1  0.25000000  0.07971519  0.66962697  1
  Si  Si17  1  0.75000000  0.92028481  0.33037303  1
  Si  Si18  1  0.75000000  0.03967977  0.17399257  1
  Si  Si19  1  0.25000000  0.96032023  0.82600743  1
  Si  Si20  1  0.75000000  0.28383520  0.42308821  1
  Si  Si21  1  0.25000000  0.32902800  0.91569554  1
  O  O22  1  0.97929428  0.37017226  0.38860841  1
  O  O23  1  0.25000000  0.94518646  0.59455489  1
  O  O24  1  0.47929428  0.62982774  0.61139159  1
  O  O25  1  0.75000000  0.30696177  0.51166427  1
  O  O26  1  0.01814933  0.87478209  0.85572378  1
  O  O27  1  0.97952474  0.79927298  0.32669215  1
  O  O28  1  0.25000000  0.21574822  0.99045438  1
  O  O29  1  0.48185067  0.87478209  0.85572378  1
  O  O30  1  0.75000000  0.06963220  0.26419774  1
  O  O31  1  0.98185067  0.12521791  0.14427622  1
  O  O32  1  0.25000000  0.69303823  0.48833573  1
  O  O33  1  0.25000000  0.93036780  0.73580226  1
  O  O34  1  0.51814933  0.12521791  0.14427622  1
  O  O35  1  0.02047526  0.20072702  0.67330785  1
  O  O36  1  0.52047526  0.79927298  0.32669215  1
  O  O37  1  0.48088735  0.44726334  0.90628067  1
  O  O38  1  0.47952474  0.20072702  0.67330785  1
  O  O39  1  0.52070572  0.37017226  0.38860841  1
  O  O40  1  0.75000000  0.78425178  0.00954562  1
  O  O41  1  0.25000000  0.18470481  0.84190793  1
  O  O42  1  0.01911265  0.44726334  0.90628067  1
  O  O43  1  0.02070572  0.62982774  0.61139159  1
  O  O44  1  0.75000000  0.81529519  0.15809207  1
  O  O45  1  0.51911265  0.55273666  0.09371933  1
  O  O46  1  0.98088735  0.55273666  0.09371933  1
  O  O47  1  0.75000000  0.05481354  0.40544511  1
  F  F48  1  0.75000000  0.54015676  0.75801849  1
  F  F49  1  0.25000000  0.45984324  0.24198151  1
