# generated using pymatgen
data_MgVF4
_symmetry_space_group_name_H-M   'P 1'
_cell_length_a   5.53689535
_cell_length_b   5.13571190
_cell_length_c   7.03616967
_cell_angle_alpha   117.19112281
_cell_angle_beta   119.79095320
_cell_angle_gamma   90.98592169
_symmetry_Int_Tables_number   1
_chemical_formula_structural   MgVF4
_chemical_formula_sum   'Mg2 V2 F8'
_cell_volume   146.51408845
_cell_formula_units_Z   2
loop_
 _symmetry_equiv_pos_site_id
 _symmetry_equiv_pos_as_xyz
  1  'x, y, z'
loop_
 _atom_site_type_symbol
 _atom_site_label
 _atom_site_symmetry_multiplicity
 _atom_site_fract_x
 _atom_site_fract_y
 _atom_site_fract_z
 _atom_site_occupancy
  Mg  Mg0  1  0.19519966  0.25660453  0.51697541  1
  Mg  Mg1  1  0.80866673  0.74116671  0.48794472  1
  V  V2  1  0.00201589  0.49885137  0.00251710  1
  V  V3  1  0.50197326  0.99882302  0.00243024  1
  F  F4  1  0.92344148  0.40401990  0.25693075  1
  F  F5  1  0.75766184  0.04005627  0.74251416  1
  F  F6  1  0.08080356  0.59383584  0.74834443  1
  F  F7  1  0.22578610  0.03196257  0.69018449  1
  F  F8  1  0.24626098  0.95757912  0.26254838  1
  F  F9  1  0.41749211  0.41789707  0.20442535  1
  F  F10  1  0.77791863  0.96567600  0.31459103  1
  F  F11  1  0.58650677  0.57965860  0.80053194  1
