# generated using pymatgen
data_CaFe3P3O13
_symmetry_space_group_name_H-M   'P 1'
_cell_length_a   6.40859766
_cell_length_b   7.67636045
_cell_length_c   10.29249098
_cell_angle_alpha   99.87260799
_cell_angle_beta   90.00000000
_cell_angle_gamma   90.00000000
_symmetry_Int_Tables_number   1
_chemical_formula_structural   CaFe3P3O13
_chemical_formula_sum   'Ca2 Fe6 P6 O26'
_cell_volume   498.83794026
_cell_formula_units_Z   2
loop_
 _symmetry_equiv_pos_site_id
 _symmetry_equiv_pos_as_xyz
  1  'x, y, z'
loop_
 _atom_site_type_symbol
 _atom_site_label
 _atom_site_symmetry_multiplicity
 _atom_site_fract_x
 _atom_site_fract_y
 _atom_site_fract_z
 _atom_site_occupancy
  Ca  Ca0  1  0.75000000  0.65547221  0.19472752  1
  Ca  Ca1  1  0.25000000  0.34452779  0.80527248  1
  Fe  Fe2  1  0.25000000  0.35362374  0.20273290  1
  Fe  Fe3  1  0.75000000  0.64637626  0.79726710  1
  Fe  Fe4  1  0.25000000  0.78738789  0.43775004  1
  Fe  Fe5  1  0.50000000  0.00000000  0.00000000  1
  Fe  Fe6  1  0.75000000  0.21261211  0.56224996  1
  Fe  Fe7  1  0.00000000  0.00000000  0.00000000  1
  P  P8  1  0.25000000  0.21686144  0.48964972  1
  P  P9  1  0.75000000  0.78313856  0.51035028  1
  P  P10  1  0.25000000  0.73680456  0.76140207  1
  P  P11  1  0.75000000  0.26319544  0.23859793  1
  P  P12  1  0.75000000  0.31604445  0.88596744  1
  P  P13  1  0.25000000  0.68395555  0.11403256  1
  O  O14  1  0.75000000  0.35973710  0.74278226  1
  O  O15  1  0.56049293  0.75049263  0.41420559  1
  O  O16  1  0.25000000  0.78969534  0.62502976  1
  O  O17  1  0.54888248  0.21050733  0.90423710  1
  O  O18  1  0.75000000  0.65348783  0.60751262  1
  O  O19  1  0.75000000  0.87654163  0.90798034  1
  O  O20  1  0.25000000  0.34651217  0.39248738  1
  O  O21  1  0.04888248  0.78949267  0.09576290  1
  O  O22  1  0.25000000  0.02556823  0.41152375  1
  O  O23  1  0.75000000  0.97443177  0.58847625  1
  O  O24  1  0.06199047  0.62104168  0.78614826  1
  O  O25  1  0.25000000  0.12345837  0.09201966  1
  O  O26  1  0.56199047  0.37895832  0.21385174  1
  O  O27  1  0.75000000  0.50482430  0.96716540  1
  O  O28  1  0.75000000  0.21030466  0.37497024  1
  O  O29  1  0.45111752  0.78949267  0.09576290  1
  O  O30  1  0.93950707  0.75049263  0.41420559  1
  O  O31  1  0.43950707  0.24950737  0.58579441  1
  O  O32  1  0.43800953  0.62104168  0.78614826  1
  O  O33  1  0.25000000  0.64026290  0.25721774  1
  O  O34  1  0.75000000  0.08815255  0.13235797  1
  O  O35  1  0.25000000  0.91184745  0.86764203  1
  O  O36  1  0.93800953  0.37895832  0.21385174  1
  O  O37  1  0.95111752  0.21050733  0.90423710  1
  O  O38  1  0.06049293  0.24950737  0.58579441  1
  O  O39  1  0.25000000  0.49517570  0.03283460  1
