# generated using pymatgen
data_K2SbF5
_symmetry_space_group_name_H-M   'P 1'
_cell_length_a   6.60302727
_cell_length_b   15.49794932
_cell_length_c   17.44413671
_cell_angle_alpha   90.81247426
_cell_angle_beta   90.00000000
_cell_angle_gamma   90.00000000
_symmetry_Int_Tables_number   1
_chemical_formula_structural   K2SbF5
_chemical_formula_sum   'K24 Sb12 F60'
_cell_volume   1784.93803022
_cell_formula_units_Z   12
loop_
 _symmetry_equiv_pos_site_id
 _symmetry_equiv_pos_as_xyz
  1  'x, y, z'
loop_
 _atom_site_type_symbol
 _atom_site_label
 _atom_site_symmetry_multiplicity
 _atom_site_fract_x
 _atom_site_fract_y
 _atom_site_fract_z
 _atom_site_occupancy
  K  K0  1  0.74625165  0.36830074  0.75207537  1
  K  K1  1  0.26217012  0.29080895  0.91567245  1
  K  K2  1  0.76066586  0.59877374  0.64910365  1
  K  K3  1  0.26574960  0.45699956  0.57770129  1
  K  K4  1  0.24045851  0.22854659  0.68485935  1
  K  K5  1  0.75374835  0.86830074  0.75207537  1
  K  K6  1  0.25374835  0.63169926  0.24792463  1
  K  K7  1  0.25954149  0.72854659  0.68485935  1
  K  K8  1  0.25243440  0.56164670  0.01833899  1
  K  K9  1  0.75954149  0.77145341  0.31514065  1
  K  K10  1  0.23933414  0.40122626  0.35089635  1
  K  K11  1  0.23782988  0.79080895  0.91567245  1
  K  K12  1  0.73425040  0.54300044  0.42229871  1
  K  K13  1  0.76574960  0.04300044  0.42229871  1
  K  K14  1  0.73782988  0.70919105  0.08432755  1
  K  K15  1  0.24625165  0.13169926  0.24792463  1
  K  K16  1  0.73933414  0.09877374  0.64910365  1
  K  K17  1  0.23425040  0.95699956  0.57770129  1
  K  K18  1  0.74045851  0.27145341  0.31514065  1
  K  K19  1  0.76217012  0.20919105  0.08432755  1
  K  K20  1  0.26066586  0.90122626  0.35089635  1
  K  K21  1  0.24756560  0.06164670  0.01833899  1
  K  K22  1  0.74756560  0.43835330  0.98166101  1
  K  K23  1  0.75243440  0.93835330  0.98166101  1
  Sb  Sb24  1  0.24178348  0.67274436  0.47178203  1
  Sb  Sb25  1  0.25997142  0.34121743  0.13632537  1
  Sb  Sb26  1  0.75821652  0.32725564  0.52821797  1
  Sb  Sb27  1  0.74002858  0.65878257  0.86367463  1
  Sb  Sb28  1  0.25821652  0.17274436  0.47178203  1
  Sb  Sb29  1  0.25879327  0.00135414  0.80222438  1
  Sb  Sb30  1  0.24120673  0.50135414  0.80222438  1
  Sb  Sb31  1  0.24002858  0.84121743  0.13632537  1
  Sb  Sb32  1  0.74120673  0.99864586  0.19777562  1
  Sb  Sb33  1  0.74178348  0.82725564  0.52821797  1
  Sb  Sb34  1  0.75879327  0.49864586  0.19777562  1
  Sb  Sb35  1  0.75997142  0.15878257  0.86367463  1
  F  F36  1  0.22651501  0.87739273  0.77265468  1
  F  F37  1  0.47354273  0.27861881  0.20615624  1
  F  F38  1  0.02275875  0.01006739  0.71926200  1
  F  F39  1  0.97354273  0.22138119  0.79384376  1
  F  F40  1  0.47724125  0.51006739  0.71926200  1
  F  F41  1  0.27348499  0.37739273  0.77265468  1
  F  F42  1  0.54212074  0.13987889  0.95153603  1
  F  F43  1  0.48032312  0.33468815  0.04943278  1
  F  F44  1  0.99273839  0.55179575  0.13114227  1
  F  F45  1  0.48164624  0.10801640  0.53552963  1
  F  F46  1  0.52275875  0.48993261  0.28073800  1
  F  F47  1  0.53328870  0.82717021  0.61883622  1
  F  F48  1  0.04571141  0.29972759  0.22032464  1
  F  F49  1  0.56250802  0.54206092  0.10845805  1
  F  F50  1  0.05077267  0.12768403  0.55750775  1
  F  F51  1  0.98032312  0.16531185  0.95056722  1
  F  F52  1  0.78712842  0.77972266  0.89867862  1
  F  F53  1  0.28712842  0.72027734  0.10132138  1
  F  F54  1  0.02645727  0.77861881  0.20615624  1
  F  F55  1  0.51835376  0.89198360  0.46447037  1
  F  F56  1  0.47047563  0.69280443  0.38789827  1
  F  F57  1  0.46157913  0.99883008  0.70924391  1
  F  F58  1  0.97724125  0.98993261  0.28073800  1
  F  F59  1  0.51967688  0.66531185  0.95056722  1
  F  F60  1  0.72651501  0.62260727  0.22734532  1
  F  F61  1  0.03328870  0.67282979  0.38116378  1
  F  F62  1  0.93749198  0.04206092  0.10845805  1
  F  F63  1  0.55077267  0.37231597  0.44249225  1
  F  F64  1  0.20961817  0.05280922  0.43485166  1
  F  F65  1  0.02952437  0.19280443  0.38789827  1
  F  F66  1  0.52952437  0.30719557  0.61210173  1
  F  F67  1  0.45787926  0.86012111  0.04846397  1
  F  F68  1  0.01835376  0.60801640  0.53552963  1
  F  F69  1  0.29038183  0.55280922  0.43485166  1
  F  F70  1  0.46671130  0.17282979  0.38116378  1
  F  F71  1  0.49273839  0.94820425  0.86885773  1
  F  F72  1  0.96671130  0.32717021  0.61883622  1
  F  F73  1  0.06250802  0.95793908  0.89154195  1
  F  F74  1  0.04212074  0.36012111  0.04846397  1
  F  F75  1  0.00726161  0.44820425  0.86885773  1
  F  F76  1  0.54571141  0.20027241  0.77967536  1
  F  F77  1  0.98164624  0.39198360  0.46447037  1
  F  F78  1  0.77348499  0.12260727  0.22734532  1
  F  F79  1  0.79038183  0.94719078  0.56514834  1
  F  F80  1  0.03842087  0.49883008  0.70924391  1
  F  F81  1  0.45428859  0.79972759  0.22032464  1
  F  F82  1  0.50726161  0.05179575  0.13114227  1
  F  F83  1  0.43749198  0.45793908  0.89154195  1
  F  F84  1  0.71287158  0.27972266  0.89867862  1
  F  F85  1  0.97047563  0.80719557  0.61210173  1
  F  F86  1  0.95428859  0.70027241  0.77967536  1
  F  F87  1  0.01967688  0.83468815  0.04943278  1
  F  F88  1  0.52645727  0.72138119  0.79384376  1
  F  F89  1  0.95787926  0.63987889  0.95153603  1
  F  F90  1  0.53842087  0.00116992  0.29075609  1
  F  F91  1  0.70961817  0.44719078  0.56514834  1
  F  F92  1  0.94922733  0.87231597  0.44249225  1
  F  F93  1  0.21287158  0.22027734  0.10132138  1
  F  F94  1  0.44922733  0.62768403  0.55750775  1
  F  F95  1  0.96157913  0.50116992  0.29075609  1
