# generated using pymatgen
data_Ca2MnGaO5
_symmetry_space_group_name_H-M   'P 1'
_cell_length_a   5.39452940
_cell_length_b   5.63503657
_cell_length_c   15.02717044
_cell_angle_alpha   89.99871741
_cell_angle_beta   90.00099809
_cell_angle_gamma   90.00487745
_symmetry_Int_Tables_number   1
_chemical_formula_structural   Ca2MnGaO5
_chemical_formula_sum   'Ca8 Mn4 Ga4 O20'
_cell_volume   456.80149123
_cell_formula_units_Z   4
loop_
 _symmetry_equiv_pos_site_id
 _symmetry_equiv_pos_as_xyz
  1  'x, y, z'
loop_
 _atom_site_type_symbol
 _atom_site_label
 _atom_site_symmetry_multiplicity
 _atom_site_fract_x
 _atom_site_fract_y
 _atom_site_fract_z
 _atom_site_occupancy
  Ca  Ca0  1  0.01271507  0.52737913  0.60851860  1
  Ca  Ca1  1  0.98717854  0.47268028  0.10857684  1
  Ca  Ca2  1  0.51280968  0.97269341  0.60854029  1
  Ca  Ca3  1  0.48722871  0.02730549  0.10857004  1
  Ca  Ca4  1  0.51295449  0.97254348  0.89145725  1
  Ca  Ca5  1  0.01273329  0.52754307  0.89147417  1
  Ca  Ca6  1  0.98715307  0.47244524  0.39147835  1
  Ca  Ca7  1  0.48718192  0.02744210  0.39147885  1
  Mn  Mn8  1  0.99992950  -0.00002874  0.49996720  1
  Mn  Mn9  1  0.49989975  0.49999604  0.49997569  1
  Mn  Mn10  1  0.50001598  0.50001652  0.00000063  1
  Mn  Mn11  1  0.00003008  0.00004632  -0.00000137  1
  Ga  Ga12  1  0.54668750  0.43172066  0.74997976  1
  Ga  Ga13  1  0.45336007  0.56830166  0.25002224  1
  Ga  Ga14  1  0.95338615  0.93162348  0.25004145  1
  Ga  Ga15  1  0.04672136  0.06839229  0.74997412  1
  O  O16  1  0.47039361  0.57139475  0.85689474  1
  O  O17  1  0.97035765  0.92845327  0.85683490  1
  O  O18  1  0.40077937  0.12208088  0.74998873  1
  O  O19  1  0.25560256  0.24316121  0.51367345  1
  O  O20  1  0.52965813  0.42850766  0.35691306  1
  O  O21  1  0.59933033  0.87792395  0.25006354  1
  O  O22  1  0.74417821  0.75683563  0.48636124  1
  O  O23  1  0.24412297  0.74307580  0.01359297  1
  O  O24  1  0.75562401  0.25682917  0.51354927  1
  O  O25  1  0.24417702  0.74308019  0.48628927  1
  O  O26  1  0.74417840  0.75691985  0.01360870  1
  O  O27  1  0.75578833  0.25686174  0.98637342  1
  O  O28  1  0.02980036  0.07151614  0.35690660  1
  O  O29  1  0.25583839  0.24315821  0.98637356  1
  O  O30  1  0.09933579  0.62205603  0.25004069  1
  O  O31  1  0.47023104  0.57147607  0.64307217  1
  O  O32  1  0.97031010  0.92842142  0.64310426  1
  O  O33  1  0.90074799  0.37798506  0.74998622  1
  O  O34  1  0.02980891  0.07162633  0.14319235  1
  O  O35  1  0.52975170  0.42853621  0.14312674  1
