# generated using pymatgen
data_Eu(GeRh)2
_symmetry_space_group_name_H-M   'P 1'
_cell_length_a   4.20183401
_cell_length_b   4.20183414
_cell_length_c   6.11576276
_cell_angle_alpha   110.09177247
_cell_angle_beta   110.09177316
_cell_angle_gamma   90.00000395
_symmetry_Int_Tables_number   1
_chemical_formula_structural   Eu(GeRh)2
_chemical_formula_sum   'Eu1 Ge2 Rh2'
_cell_volume   94.37779025
_cell_formula_units_Z   1
loop_
 _symmetry_equiv_pos_site_id
 _symmetry_equiv_pos_as_xyz
  1  'x, y, z'
loop_
 _atom_site_type_symbol
 _atom_site_label
 _atom_site_symmetry_multiplicity
 _atom_site_fract_x
 _atom_site_fract_y
 _atom_site_fract_z
 _atom_site_occupancy
  Eu  Eu0  1  0.00000000  0.00000000  0.00000000  1
  Ge  Ge1  1  0.37122088  0.37122088  0.74244176  1
  Ge  Ge2  1  0.62877912  0.62877912  0.25755824  1
  Rh  Rh3  1  0.25000000  0.75000000  0.50000000  1
  Rh  Rh4  1  0.75000000  0.25000000  0.50000000  1
