# generated using pymatgen
data_Ho2Te5O13
_symmetry_space_group_name_H-M   'P 1'
_cell_length_a   7.01285305
_cell_length_b   8.77375037
_cell_length_c   10.78705498
_cell_angle_alpha   89.29975921
_cell_angle_beta   87.35599674
_cell_angle_gamma   75.01347380
_symmetry_Int_Tables_number   1
_chemical_formula_structural   Ho2Te5O13
_chemical_formula_sum   'Ho4 Te10 O26'
_cell_volume   640.45915076
_cell_formula_units_Z   2
loop_
 _symmetry_equiv_pos_site_id
 _symmetry_equiv_pos_as_xyz
  1  'x, y, z'
loop_
 _atom_site_type_symbol
 _atom_site_label
 _atom_site_symmetry_multiplicity
 _atom_site_fract_x
 _atom_site_fract_y
 _atom_site_fract_z
 _atom_site_occupancy
  O  O0  1  0.93396495  0.98335372  0.30721679  1
  O  O1  1  0.06603505  0.01664628  0.69278321  1
  O  O2  1  0.32863198  0.73968709  0.77638034  1
  O  O3  1  0.67136802  0.26031291  0.22361966  1
  O  O4  1  0.94052555  0.18262306  0.96060103  1
  O  O5  1  0.05947445  0.81737694  0.03939897  1
  O  O6  1  0.87561519  0.51030415  0.10517504  1
  O  O7  1  0.12438481  0.48969585  0.89482496  1
  O  O8  1  0.54002829  0.80508140  0.47864670  1
  O  O9  1  0.45997171  0.19491860  0.52135330  1
  O  O10  1  0.95662359  0.64946944  0.43266161  1
  O  O11  1  0.04337641  0.35053056  0.56733839  1
  O  O12  1  0.64937775  0.01883821  0.87487268  1
  O  O13  1  0.35062225  0.98116179  0.12512732  1
  O  O14  1  0.32654618  0.22871817  0.77697492  1
  O  O15  1  0.67345382  0.77128183  0.22302508  1
  O  O16  1  0.53272445  0.33058526  0.99991594  1
  O  O17  1  0.46727555  0.66941474  0.00008406  1
  O  O18  1  0.23573677  0.49622477  0.18688036  1
  O  O19  1  0.76426323  0.50377523  0.81311964  1
  O  O20  1  0.31441851  0.73496194  0.28523485  1
  O  O21  1  0.68558149  0.26503806  0.71476515  1
  O  O22  1  0.66291220  0.48583929  0.38045402  1
  O  O23  1  0.33708780  0.51416071  0.61954598  1
  O  O24  1  0.06732882  0.26538996  0.27525770  1
  O  O25  1  0.93267118  0.73461004  0.72474230  1
  Te  Te26  1  0.29120023  0.87477127  0.97764395  1
  Te  Te27  1  0.70879977  0.12522873  0.02235605  1
  Te  Te28  1  0.15466444  0.80332035  0.64459126  1
  Te  Te29  1  0.84533556  0.19667965  0.35540874  1
  Te  Te30  1  0.72804938  0.60550395  0.51080322  1
  Te  Te31  1  0.27195062  0.39449605  0.48919678  1
  Te  Te32  1  0.87760235  0.64858523  0.89295177  1
  Te  Te33  1  0.12239765  0.35141477  0.10704823  1
  Te  Te34  1  0.55925580  0.10011577  0.69922921  1
  Te  Te35  1  0.44074420  0.89988423  0.30077079  1
  Ho  Ho36  1  0.99974222  0.73815891  0.23896736  1
  Ho  Ho37  1  0.00025778  0.26184109  0.76103264  1
  Ho  Ho38  1  0.55322723  0.52798455  0.17869538  1
  Ho  Ho39  1  0.44677277  0.47201545  0.82130462  1
