# generated using pymatgen
data_Mg3Co2(Si2O7)2
_symmetry_space_group_name_H-M   'P 1'
_cell_length_a   7.53639345
_cell_length_b   9.34936969
_cell_length_c   9.29269057
_cell_angle_alpha   63.01030647
_cell_angle_beta   66.07746369
_cell_angle_gamma   66.23145743
_symmetry_Int_Tables_number   1
_chemical_formula_structural   Mg3Co2(Si2O7)2
_chemical_formula_sum   'Mg6 Co4 Si8 O28'
_cell_volume   513.69296040
_cell_formula_units_Z   2
loop_
 _symmetry_equiv_pos_site_id
 _symmetry_equiv_pos_as_xyz
  1  'x, y, z'
loop_
 _atom_site_type_symbol
 _atom_site_label
 _atom_site_symmetry_multiplicity
 _atom_site_fract_x
 _atom_site_fract_y
 _atom_site_fract_z
 _atom_site_occupancy
  Mg  Mg0  1  0.91518955  0.89272118  0.44811833  1
  Mg  Mg1  1  0.25602906  0.60727882  0.05188167  1
  Mg  Mg2  1  0.74397094  0.39272118  0.94811833  1
  Mg  Mg3  1  0.61389662  0.25000000  0.75000000  1
  Mg  Mg4  1  0.08481045  0.10727882  0.55188167  1
  Mg  Mg5  1  0.38610338  0.75000000  0.25000000  1
  Co  Co6  1  0.21242124  0.25000000  0.75000000  1
  Co  Co7  1  0.78757876  0.75000000  0.25000000  1
  Co  Co8  1  0.00000000  0.00000000  0.00000000  1
  Co  Co9  1  0.00000000  0.50000000  0.50000000  1
  Si  Si10  1  0.45788865  0.29260091  0.33858132  1
  Si  Si11  1  0.91092812  0.79260091  0.83858132  1
  Si  Si12  1  0.47537433  0.89562242  0.86693360  1
  Si  Si13  1  0.76207066  0.39562242  0.36693360  1
  Si  Si14  1  0.08907188  0.20739909  0.16141868  1
  Si  Si15  1  0.52462567  0.10437758  0.13306640  1
  Si  Si16  1  0.23792934  0.60437758  0.63306640  1
  Si  Si17  1  0.54211135  0.70739909  0.66141868  1
  O  O18  1  0.16077123  0.67828850  0.46430839  1
  O  O19  1  0.02721352  0.58542739  0.27841056  1
  O  O20  1  0.54709178  0.90883160  0.17966773  1
  O  O21  1  0.10894853  0.08542739  0.77841056  1
  O  O22  1  0.76461442  0.69940866  0.52431776  1
  O  O23  1  0.93895671  0.38190574  0.19352945  1
  O  O24  1  0.36440790  0.40883160  0.67966773  1
  O  O25  1  0.98834084  0.80059134  0.97568224  1
  O  O26  1  0.06104329  0.61809426  0.80647055  1
  O  O27  1  0.37021530  0.73457085  0.57865199  1
  O  O28  1  0.97278648  0.41457261  0.72158944  1
  O  O29  1  0.23538558  0.30059134  0.47568224  1
  O  O30  1  0.51439291  0.11809426  0.30647055  1
  O  O31  1  0.69663087  0.17828850  0.96430839  1
  O  O32  1  0.31656186  0.23457085  0.07865199  1
  O  O33  1  0.01165916  0.19940866  0.02431776  1
  O  O34  1  0.08720444  0.05505710  0.33906215  1
  O  O35  1  0.62978470  0.26542915  0.42134801  1
  O  O36  1  0.48132270  0.44494290  0.16093785  1
  O  O37  1  0.68343814  0.76542915  0.92134801  1
  O  O38  1  0.48560709  0.88190574  0.69352945  1
  O  O39  1  0.89105147  0.91457261  0.22158944  1
  O  O40  1  0.51867730  0.55505710  0.83906215  1
  O  O41  1  0.45290822  0.09116840  0.82033227  1
  O  O42  1  0.91279556  0.94494290  0.66093785  1
  O  O43  1  0.63559210  0.59116840  0.32033227  1
  O  O44  1  0.30336913  0.82171150  0.03569161  1
  O  O45  1  0.83922877  0.32171150  0.53569161  1
