# generated using pymatgen
data_La12C6I17
_symmetry_space_group_name_H-M   'P 1'
_cell_length_a   12.09032854
_cell_length_b   12.09032844
_cell_length_c   19.69389252
_cell_angle_alpha   89.30446075
_cell_angle_beta   89.30446076
_cell_angle_gamma   64.09249648
_symmetry_Int_Tables_number   1
_chemical_formula_structural   La12C6I17
_chemical_formula_sum   'La24 C12 I34'
_cell_volume   2589.19442779
_cell_formula_units_Z   2
loop_
 _symmetry_equiv_pos_site_id
 _symmetry_equiv_pos_as_xyz
  1  'x, y, z'
loop_
 _atom_site_type_symbol
 _atom_site_label
 _atom_site_symmetry_multiplicity
 _atom_site_fract_x
 _atom_site_fract_y
 _atom_site_fract_z
 _atom_site_occupancy
  La  La0  1  0.66169571  0.19166432  0.71069118  1
  La  La1  1  0.64248858  0.64091058  0.95031285  1
  La  La2  1  0.64091058  0.64248858  0.45031285  1
  La  La3  1  0.53541284  0.54790113  0.62931930  1
  La  La4  1  0.42531047  0.90144800  0.11802221  1
  La  La5  1  0.45209887  0.46458716  0.87068070  1
  La  La6  1  0.29537595  0.71366442  0.02089446  1
  La  La7  1  0.46458716  0.45209887  0.37068070  1
  La  La8  1  0.33830429  0.80833568  0.28930882  1
  La  La9  1  0.35751142  0.35908942  0.04968715  1
  La  La10  1  0.92472908  0.97916695  0.84781637  1
  La  La11  1  0.70462405  0.28633558  0.97910554  1
  La  La12  1  0.09855200  0.57468953  0.38197779  1
  La  La13  1  0.97916695  0.92472908  0.34781637  1
  La  La14  1  0.57468953  0.09855200  0.88197779  1
  La  La15  1  0.54790113  0.53541284  0.12931930  1
  La  La16  1  0.35908942  0.35751142  0.54968715  1
  La  La17  1  0.90144800  0.42531047  0.61802221  1
  La  La18  1  0.07527092  0.02083305  0.15218363  1
  La  La19  1  0.71366442  0.29537595  0.52089446  1
  La  La20  1  0.19166432  0.66169571  0.21069118  1
  La  La21  1  0.02083305  0.07527092  0.65218363  1
  La  La22  1  0.28633558  0.70462405  0.47910554  1
  La  La23  1  0.80833568  0.33830429  0.78930882  1
  C  C24  1  0.72310299  0.36572279  0.64960662  1
  C  C25  1  0.27689701  0.63427721  0.35039338  1
  C  C26  1  0.63427721  0.27689701  0.85039338  1
  C  C27  1  0.46771045  0.46730191  0.01139283  1
  C  C28  1  0.25672961  0.83343055  0.15257853  1
  C  C29  1  0.53228955  0.53269809  0.98860717  1
  C  C30  1  0.74327039  0.16656945  0.84742147  1
  C  C31  1  0.53269809  0.53228955  0.48860717  1
  C  C32  1  0.16656945  0.74327039  0.34742147  1
  C  C33  1  0.83343055  0.25672961  0.65257853  1
  C  C34  1  0.36572279  0.72310299  0.14960662  1
  C  C35  1  0.46730191  0.46771045  0.51139283  1
  I  I36  1  0.69126095  0.70928166  0.60103292  1
  I  I37  1  0.39566782  0.89687047  0.44130731  1
  I  I38  1  0.50119332  0.03181330  0.74399870  1
  I  I39  1  0.09334609  0.11415874  0.80343563  1
  I  I40  1  0.29071834  0.30873905  0.89896708  1
  I  I41  1  0.71861273  0.19365890  0.36174837  1
  I  I42  1  0.88584126  0.90665391  0.69656437  1
  I  I43  1  0.78898148  0.81719930  0.89927467  1
  I  I44  1  0.10312953  0.60433218  0.05869269  1
  I  I45  1  0.90646436  0.39979986  0.45095694  1
  I  I46  1  0.39979986  0.90646436  0.95095694  1
  I  I47  1  0.21101852  0.18280070  0.10072533  1
  I  I48  1  0.37429919  0.42243775  0.70804589  1
  I  I49  1  0.11415874  0.09334609  0.30343563  1
  I  I50  1  0.96818670  0.49880668  0.75600130  1
  I  I51  1  0.81719930  0.78898148  0.39927467  1
  I  I52  1  0.28138727  0.80634110  0.63825163  1
  I  I53  1  0.90665391  0.88584126  0.19656437  1
  I  I54  1  0.42243775  0.37429919  0.20804589  1
  I  I55  1  0.00000000  0.00000000  0.00000000  1
  I  I56  1  0.60433218  0.10312953  0.55869269  1
  I  I57  1  0.57756225  0.62570081  0.79195411  1
  I  I58  1  0.70928166  0.69126095  0.10103292  1
  I  I59  1  0.62570081  0.57756225  0.29195411  1
  I  I60  1  0.18280070  0.21101852  0.60072533  1
  I  I61  1  0.49880668  0.96818670  0.25600130  1
  I  I62  1  0.30873905  0.29071834  0.39896708  1
  I  I63  1  0.80634110  0.28138727  0.13825163  1
  I  I64  1  0.60020014  0.09353564  0.04904306  1
  I  I65  1  0.09353564  0.60020014  0.54904306  1
  I  I66  1  0.89687047  0.39566782  0.94130731  1
  I  I67  1  0.03181330  0.50119332  0.24399870  1
  I  I68  1  0.19365890  0.71861273  0.86174837  1
  I  I69  1  0.00000000  0.00000000  0.50000000  1
