# generated using pymatgen
data_Li4Ca3(SiN3)2
_symmetry_space_group_name_H-M   'P 1'
_cell_length_a   5.69046509
_cell_length_b   5.69046559
_cell_length_c   6.00784398
_cell_angle_alpha   90.24868604
_cell_angle_beta   90.24868615
_cell_angle_gamma   118.43292465
_symmetry_Int_Tables_number   1
_chemical_formula_structural   Li4Ca3(SiN3)2
_chemical_formula_sum   'Li4 Ca3 Si2 N6'
_cell_volume   171.06956960
_cell_formula_units_Z   1
loop_
 _symmetry_equiv_pos_site_id
 _symmetry_equiv_pos_as_xyz
  1  'x, y, z'
loop_
 _atom_site_type_symbol
 _atom_site_label
 _atom_site_symmetry_multiplicity
 _atom_site_fract_x
 _atom_site_fract_y
 _atom_site_fract_z
 _atom_site_occupancy
  Li  Li0  1  0.03605469  0.68551002  0.12630058  1
  Li  Li1  1  0.68551002  0.03605469  0.12630058  1
  Li  Li2  1  0.96394531  0.31448998  0.87369942  1
  Li  Li3  1  0.31448998  0.96394531  0.87369942  1
  Ca  Ca4  1  0.31506672  0.68493328  0.50000000  1
  Ca  Ca5  1  0.68493328  0.31506672  0.50000000  1
  Ca  Ca6  1  0.50000000  0.50000000  0.00000000  1
  Si  Si7  1  0.88123933  0.88123933  0.66889506  1
  Si  Si8  1  0.11876067  0.11876067  0.33110494  1
  N  N9  1  0.36451948  0.06655372  0.20980487  1
  N  N10  1  0.80762245  0.80762245  0.36746666  1
  N  N11  1  0.19237755  0.19237755  0.63253334  1
  N  N12  1  0.63548052  0.93344628  0.79019513  1
  N  N13  1  0.93344628  0.63548052  0.79019513  1
  N  N14  1  0.06655372  0.36451948  0.20980487  1
