# generated using pymatgen
data_Ce(NiAs)2
_symmetry_space_group_name_H-M   'P 1'
_cell_length_a   4.14301775
_cell_length_b   4.14311703
_cell_length_c   9.12948794
_cell_angle_alpha   89.99973580
_cell_angle_beta   90.00038868
_cell_angle_gamma   89.99632237
_symmetry_Int_Tables_number   1
_chemical_formula_structural   Ce(NiAs)2
_chemical_formula_sum   'Ce2 Ni4 As4'
_cell_volume   156.70772784
_cell_formula_units_Z   2
loop_
 _symmetry_equiv_pos_site_id
 _symmetry_equiv_pos_as_xyz
  1  'x, y, z'
loop_
 _atom_site_type_symbol
 _atom_site_label
 _atom_site_symmetry_multiplicity
 _atom_site_fract_x
 _atom_site_fract_y
 _atom_site_fract_z
 _atom_site_occupancy
  Ce  Ce0  1  0.25000376  0.25001492  0.25257087  1
  Ce  Ce1  1  0.74999327  0.75000456  0.74746224  1
  Ni  Ni2  1  0.24998797  0.25000509  0.88280915  1
  Ni  Ni3  1  0.25000234  0.74999683  0.49996017  1
  Ni  Ni4  1  0.75000717  0.74999414  0.11723041  1
  Ni  Ni5  1  0.74998722  0.24999812  0.49995331  1
  As  As6  1  0.75001168  0.74999548  0.37029800  1
  As  As7  1  0.24999219  0.74999147  0.00002963  1
  As  As8  1  0.75001204  0.25000319  0.00003419  1
  As  As9  1  0.25000235  0.24999620  0.62965203  1
