# generated using pymatgen
data_Mg2TaCrO6
_symmetry_space_group_name_H-M   'P 1'
_cell_length_a   5.16618192
_cell_length_b   5.38967660
_cell_length_c   7.59150800
_cell_angle_alpha   90.00000000
_cell_angle_beta   90.00000000
_cell_angle_gamma   89.57246676
_symmetry_Int_Tables_number   1
_chemical_formula_structural   Mg2TaCrO6
_chemical_formula_sum   'Mg4 Ta2 Cr2 O12'
_cell_volume   211.37244224
_cell_formula_units_Z   2
loop_
 _symmetry_equiv_pos_site_id
 _symmetry_equiv_pos_as_xyz
  1  'x, y, z'
loop_
 _atom_site_type_symbol
 _atom_site_label
 _atom_site_symmetry_multiplicity
 _atom_site_fract_x
 _atom_site_fract_y
 _atom_site_fract_z
 _atom_site_occupancy
  Mg  Mg0  1  0.00704158  0.95839496  0.25000000  1
  Mg  Mg1  1  0.48632878  0.43037479  0.25000000  1
  Mg  Mg2  1  0.51367122  0.56962521  0.75000000  1
  Mg  Mg3  1  0.99295842  0.04160504  0.75000000  1
  Ta  Ta4  1  0.00000000  0.50000000  0.00000000  1
  Ta  Ta5  1  0.00000000  0.50000000  0.50000000  1
  Cr  Cr6  1  0.50000000  0.00000000  0.00000000  1
  Cr  Cr7  1  0.50000000  0.00000000  0.50000000  1
  O  O8  1  0.82129816  0.80964056  0.56849362  1
  O  O9  1  0.31445789  0.68316112  0.43179751  1
  O  O10  1  0.17870184  0.19035944  0.43150638  1
  O  O11  1  0.68554211  0.31683888  0.93179751  1
  O  O12  1  0.13150555  0.43967115  0.75000000  1
  O  O13  1  0.68554211  0.31683888  0.56820249  1
  O  O14  1  0.31445789  0.68316112  0.06820249  1
  O  O15  1  0.82129816  0.80964056  0.93150638  1
  O  O16  1  0.63103517  0.06878069  0.25000000  1
  O  O17  1  0.17870184  0.19035944  0.06849362  1
  O  O18  1  0.36896483  0.93121931  0.75000000  1
  O  O19  1  0.86849445  0.56032885  0.25000000  1
