# generated using pymatgen
data_Ca(PO3)2
_symmetry_space_group_name_H-M   'P 1'
_cell_length_a   7.12080076
_cell_length_b   7.83570276
_cell_length_c   17.22035209
_cell_angle_alpha   90.00000000
_cell_angle_beta   90.38621720
_cell_angle_gamma   90.00000000
_symmetry_Int_Tables_number   1
_chemical_formula_structural   Ca(PO3)2
_chemical_formula_sum   'Ca8 P16 O48'
_cell_volume   960.81316984
_cell_formula_units_Z   8
loop_
 _symmetry_equiv_pos_site_id
 _symmetry_equiv_pos_as_xyz
  1  'x, y, z'
loop_
 _atom_site_type_symbol
 _atom_site_label
 _atom_site_symmetry_multiplicity
 _atom_site_fract_x
 _atom_site_fract_y
 _atom_site_fract_z
 _atom_site_occupancy
  O  O0  1  0.57645330  0.83786169  0.03334041  1
  O  O1  1  0.42354670  0.33786169  0.46665959  1
  O  O2  1  0.42354670  0.16213831  0.96665959  1
  O  O3  1  0.57645330  0.66213831  0.53334041  1
  O  O4  1  0.24073954  0.41133225  0.34507117  1
  O  O5  1  0.75926046  0.91133225  0.15492883  1
  O  O6  1  0.75926046  0.58866775  0.65492883  1
  O  O7  1  0.24073954  0.08866775  0.84507117  1
  O  O8  1  0.82033094  0.44423654  0.40685712  1
  O  O9  1  0.17966906  0.94423654  0.09314288  1
  O  O10  1  0.17966906  0.55576346  0.59314288  1
  O  O11  1  0.82033094  0.05576346  0.90685712  1
  O  O12  1  0.93663929  0.42882034  0.80178684  1
  O  O13  1  0.06336071  0.92882034  0.69821316  1
  O  O14  1  0.06336071  0.57117966  0.19821316  1
  O  O15  1  0.93663929  0.07117966  0.30178684  1
  O  O16  1  0.58954355  0.44120209  0.80967123  1
  O  O17  1  0.41045645  0.94120209  0.69032877  1
  O  O18  1  0.91741732  0.76030686  0.03755468  1
  O  O19  1  0.58954355  0.05879791  0.30967123  1
  O  O20  1  0.77910641  0.67325490  0.87802392  1
  O  O21  1  0.22089359  0.17325490  0.62197608  1
  O  O22  1  0.22089359  0.32674510  0.12197608  1
  O  O23  1  0.77910641  0.82674510  0.37802392  1
  O  O24  1  0.77166802  0.37733799  0.93194213  1
  O  O25  1  0.22833198  0.87733799  0.56805787  1
  O  O26  1  0.22833198  0.62266201  0.06805787  1
  O  O27  1  0.77166802  0.12266201  0.43194213  1
  O  O28  1  0.08258268  0.26030686  0.46244532  1
  O  O29  1  0.29409227  0.09626703  0.38247589  1
  O  O30  1  0.91741732  0.73969314  0.53755468  1
  O  O31  1  0.08258268  0.23969314  0.96244532  1
  O  O32  1  0.80651734  0.31872160  0.54567844  1
  O  O33  1  0.19348266  0.81872160  0.95432156  1
  O  O34  1  0.19348266  0.68127840  0.45432156  1
  O  O35  1  0.80651734  0.18127840  0.04567844  1
  O  O36  1  0.34685968  0.68585553  0.82117131  1
  O  O37  1  0.65314032  0.18585553  0.67882869  1
  O  O38  1  0.65314032  0.31414447  0.17882869  1
  O  O39  1  0.34685968  0.81414447  0.32117131  1
  O  O40  1  0.30070167  0.42412517  0.73139686  1
  O  O41  1  0.69929833  0.92412517  0.76860314  1
  O  O42  1  0.69929833  0.57587483  0.26860314  1
  O  O43  1  0.30070167  0.07587483  0.23139686  1
  O  O44  1  0.29409227  0.40373297  0.88247589  1
  O  O45  1  0.70590773  0.90373297  0.61752411  1
  O  O46  1  0.70590773  0.59626703  0.11752411  1
  O  O47  1  0.41045645  0.55879791  0.19032877  1
  P  P48  1  0.86133394  0.29964912  0.46228275  1
  P  P49  1  0.13866606  0.79964912  0.03771725  1
  P  P50  1  0.13866606  0.70035088  0.53771725  1
  P  P51  1  0.86133394  0.20035088  0.96228275  1
  P  P52  1  0.37257257  0.00157408  0.30596307  1
  P  P53  1  0.62742743  0.50157408  0.19403693  1
  P  P54  1  0.62742743  0.99842592  0.69403693  1
  P  P55  1  0.37257257  0.49842592  0.80596307  1
  P  P56  1  0.78139993  0.01132055  0.35309474  1
  P  P57  1  0.21860007  0.51132055  0.14690526  1
  P  P58  1  0.21860007  0.98867945  0.64690526  1
  P  P59  1  0.78139993  0.48867945  0.85309474  1
  P  P60  1  0.26676945  0.21169656  0.91166491  1
  P  P61  1  0.73323055  0.71169656  0.58833509  1
  P  P62  1  0.73323055  0.78830344  0.08833509  1
  P  P63  1  0.26676945  0.28830344  0.41166491  1
  Ca  Ca64  1  0.98419956  0.13236128  0.17031481  1
  Ca  Ca65  1  0.01580044  0.63236128  0.32968519  1
  Ca  Ca66  1  0.01580044  0.86763872  0.82968519  1
  Ca  Ca67  1  0.98419956  0.36763872  0.67031481  1
  Ca  Ca68  1  0.52565453  0.61548784  0.39697179  1
  Ca  Ca69  1  0.47434547  0.11548784  0.10302821  1
  Ca  Ca70  1  0.47434547  0.38451216  0.60302821  1
  Ca  Ca71  1  0.52565453  0.88451216  0.89697179  1
