# generated using pymatgen
data_Y12Ni6Pb
_symmetry_space_group_name_H-M   'P 1'
_cell_length_a   8.47198329
_cell_length_b   8.47554471
_cell_length_c   8.47738223
_cell_angle_alpha   109.44106703
_cell_angle_beta   109.52571097
_cell_angle_gamma   109.17697683
_symmetry_Int_Tables_number   1
_chemical_formula_structural   Y12Ni6Pb
_chemical_formula_sum   'Y12 Ni6 Pb1'
_cell_volume   470.14037905
_cell_formula_units_Z   1
loop_
 _symmetry_equiv_pos_site_id
 _symmetry_equiv_pos_as_xyz
  1  'x, y, z'
loop_
 _atom_site_type_symbol
 _atom_site_label
 _atom_site_symmetry_multiplicity
 _atom_site_fract_x
 _atom_site_fract_y
 _atom_site_fract_z
 _atom_site_occupancy
  Y  Y0  1  0.69629653  0.80998702  0.50659572  1
  Y  Y1  1  0.88603368  0.69645603  0.18922967  1
  Y  Y2  1  0.69726374  0.18989924  0.88699659  1
  Y  Y3  1  0.49432731  0.30378411  0.18991142  1
  Y  Y4  1  0.50594410  0.69680824  0.81028517  1
  Y  Y5  1  0.18829308  0.49343204  0.30377278  1
  Y  Y6  1  0.30348988  0.80995224  0.11365362  1
  Y  Y7  1  0.18932430  0.88584992  0.69618529  1
  Y  Y8  1  0.81113992  0.11408528  0.30424030  1
  Y  Y9  1  0.11396933  0.30356475  0.80997153  1
  Y  Y10  1  0.81063833  0.50596489  0.69628034  1
  Y  Y11  1  0.30270199  0.18993928  0.49331301  1
  Ni  Ni12  1  0.50018886  0.62128589  0.12153634  1
  Ni  Ni13  1  0.12177150  0.50021354  0.62198998  1
  Ni  Ni14  1  0.87835434  0.50035922  0.37812153  1
  Ni  Ni15  1  0.50001617  0.37881542  0.87866860  1
  Ni  Ni16  1  0.62184377  0.12166285  0.50042268  1
  Ni  Ni17  1  0.37843412  0.87809645  0.50009080  1
  Pb  Pb18  1  0.99996907  0.99984359  0.99873463  1
