# generated using pymatgen
data_Yb4Cu2Sn5
_symmetry_space_group_name_H-M   'P 1'
_cell_length_a   4.42307668
_cell_length_b   8.96169910
_cell_length_c   13.98307394
_cell_angle_alpha   90.00000000
_cell_angle_beta   90.00000000
_cell_angle_gamma   90.00000000
_symmetry_Int_Tables_number   1
_chemical_formula_structural   Yb4Cu2Sn5
_chemical_formula_sum   'Yb8 Cu4 Sn10'
_cell_volume   554.26503229
_cell_formula_units_Z   2
loop_
 _symmetry_equiv_pos_site_id
 _symmetry_equiv_pos_as_xyz
  1  'x, y, z'
loop_
 _atom_site_type_symbol
 _atom_site_label
 _atom_site_symmetry_multiplicity
 _atom_site_fract_x
 _atom_site_fract_y
 _atom_site_fract_z
 _atom_site_occupancy
  Yb  Yb0  1  0.75000000  0.20573504  0.99128009  1
  Yb  Yb1  1  0.75000000  0.30011270  0.25000000  1
  Yb  Yb2  1  0.25000000  0.79426496  0.00871991  1
  Yb  Yb3  1  0.25000000  0.69988730  0.75000000  1
  Yb  Yb4  1  0.25000000  0.79426496  0.49128009  1
  Yb  Yb5  1  0.75000000  0.86566192  0.25000000  1
  Yb  Yb6  1  0.25000000  0.13433808  0.75000000  1
  Yb  Yb7  1  0.75000000  0.20573504  0.50871991  1
  Cu  Cu8  1  0.75000000  0.62196118  0.89362323  1
  Cu  Cu9  1  0.25000000  0.37803882  0.10637677  1
  Cu  Cu10  1  0.25000000  0.37803882  0.39362323  1
  Cu  Cu11  1  0.75000000  0.62196118  0.60637677  1
  Sn  Sn12  1  0.75000000  0.91476007  0.64523224  1
  Sn  Sn13  1  0.25000000  0.44346576  0.91368533  1
  Sn  Sn14  1  0.25000000  0.59555568  0.25000000  1
  Sn  Sn15  1  0.75000000  0.55653424  0.41368533  1
  Sn  Sn16  1  0.75000000  0.40444432  0.75000000  1
  Sn  Sn17  1  0.75000000  0.55653424  0.08631467  1
  Sn  Sn18  1  0.25000000  0.08523993  0.14523224  1
  Sn  Sn19  1  0.25000000  0.44346576  0.58631467  1
  Sn  Sn20  1  0.75000000  0.91476007  0.85476776  1
  Sn  Sn21  1  0.25000000  0.08523993  0.35476776  1
