# generated using pymatgen
data_K2EuSiSe5
_symmetry_space_group_name_H-M   'P 1'
_cell_length_a   9.02830930
_cell_length_b   9.98426986
_cell_length_c   11.78472770
_cell_angle_alpha   90.00000000
_cell_angle_beta   91.77690515
_cell_angle_gamma   90.00000000
_symmetry_Int_Tables_number   1
_chemical_formula_structural   K2EuSiSe5
_chemical_formula_sum   'K8 Eu4 Si4 Se20'
_cell_volume   1061.77722916
_cell_formula_units_Z   4
loop_
 _symmetry_equiv_pos_site_id
 _symmetry_equiv_pos_as_xyz
  1  'x, y, z'
loop_
 _atom_site_type_symbol
 _atom_site_label
 _atom_site_symmetry_multiplicity
 _atom_site_fract_x
 _atom_site_fract_y
 _atom_site_fract_z
 _atom_site_occupancy
  Eu  Eu0  1  0.39628692  0.23089149  0.01640782  1
  Eu  Eu1  1  0.89628692  0.26910851  0.01640782  1
  Eu  Eu2  1  0.10371308  0.73089149  0.98359218  1
  Eu  Eu3  1  0.60371308  0.76910851  0.98359218  1
  K  K4  1  0.45587279  0.19735319  0.43890964  1
  K  K5  1  0.12805148  0.94166518  0.30299362  1
  K  K6  1  0.62805148  0.55833482  0.30299362  1
  K  K7  1  0.54412721  0.80264681  0.56109036  1
  K  K8  1  0.95587279  0.30264681  0.43890964  1
  K  K9  1  0.04412721  0.69735319  0.56109036  1
  K  K10  1  0.37194852  0.44166518  0.69700638  1
  K  K11  1  0.87194852  0.05833482  0.69700638  1
  Si  Si12  1  0.20992538  0.47823592  0.24702272  1
  Si  Si13  1  0.79007462  0.52176408  0.75297728  1
  Si  Si14  1  0.70992538  0.02176408  0.24702272  1
  Si  Si15  1  0.29007462  0.97823592  0.75297728  1
  Se  Se16  1  0.65071035  0.24018264  0.21258306  1
  Se  Se17  1  0.00658128  0.62215454  0.25724037  1
  Se  Se18  1  0.85786008  0.96225193  0.09943350  1
  Se  Se19  1  0.99341872  0.37784546  0.74275963  1
  Se  Se20  1  0.64213992  0.46225193  0.90056650  1
  Se  Se21  1  0.69368117  0.48504201  0.57503202  1
  Se  Se22  1  0.15071035  0.25981736  0.21258306  1
  Se  Se23  1  0.15905560  0.43625601  0.91180336  1
  Se  Se24  1  0.14213992  0.03774807  0.90056650  1
  Se  Se25  1  0.19368117  0.01495799  0.57503202  1
  Se  Se26  1  0.30631883  0.51495799  0.42496798  1
  Se  Se27  1  0.34928965  0.75981736  0.78741694  1
  Se  Se28  1  0.49341872  0.12215454  0.74275963  1
  Se  Se29  1  0.34094440  0.93625601  0.08819664  1
  Se  Se30  1  0.84928965  0.74018264  0.78741694  1
  Se  Se31  1  0.84094440  0.56374399  0.08819664  1
  Se  Se32  1  0.80631883  0.98504201  0.42496798  1
  Se  Se33  1  0.65905560  0.06374399  0.91180336  1
  Se  Se34  1  0.35786008  0.53774807  0.09943350  1
  Se  Se35  1  0.50658128  0.87784546  0.25724037  1
