# generated using pymatgen
data_KV(IO4)2
_symmetry_space_group_name_H-M   'P 1'
_cell_length_a   5.30849207
_cell_length_b   9.79297229
_cell_length_c   15.91141634
_cell_angle_alpha   104.35341092
_cell_angle_beta   90.00000000
_cell_angle_gamma   90.00000000
_symmetry_Int_Tables_number   1
_chemical_formula_structural   KV(IO4)2
_chemical_formula_sum   'K4 V4 I8 O32'
_cell_volume   801.34950040
_cell_formula_units_Z   4
loop_
 _symmetry_equiv_pos_site_id
 _symmetry_equiv_pos_as_xyz
  1  'x, y, z'
loop_
 _atom_site_type_symbol
 _atom_site_label
 _atom_site_symmetry_multiplicity
 _atom_site_fract_x
 _atom_site_fract_y
 _atom_site_fract_z
 _atom_site_occupancy
  K  K0  1  0.27277867  0.32357485  0.40968779  1
  K  K1  1  0.72722133  0.67642515  0.59031221  1
  K  K2  1  0.77277867  0.17642515  0.09031221  1
  K  K3  1  0.22722133  0.82357485  0.90968779  1
  V  V4  1  0.27990450  0.48676399  0.18593912  1
  V  V5  1  0.72009550  0.51323601  0.81406088  1
  V  V6  1  0.77990450  0.01323601  0.31406088  1
  V  V7  1  0.22009550  0.98676399  0.68593912  1
  I  I8  1  0.17394657  0.36662876  0.92854405  1
  I  I9  1  0.32605343  0.86662876  0.42854405  1
  I  I10  1  0.27502223  0.95399064  0.17991715  1
  I  I11  1  0.72497777  0.04600936  0.82008285  1
  I  I12  1  0.67394657  0.13337124  0.57145595  1
  I  I13  1  0.82605343  0.63337124  0.07145595  1
  I  I14  1  0.22497777  0.45399064  0.67991715  1
  I  I15  1  0.77502223  0.54600936  0.32008285  1
  O  O16  1  0.73876351  0.99539674  0.92114927  1
  O  O17  1  0.81926081  0.14012346  0.40461055  1
  O  O18  1  0.44696365  0.93298480  0.77670462  1
  O  O19  1  0.23876351  0.50460326  0.57885073  1
  O  O20  1  0.18110155  0.17823732  0.87617431  1
  O  O21  1  0.55713458  0.37122991  0.82335595  1
  O  O22  1  0.03494206  0.08061062  0.24108375  1
  O  O23  1  0.46505794  0.58061062  0.74108375  1
  O  O24  1  0.94582509  0.56090208  0.16484733  1
  O  O25  1  0.05713458  0.12877009  0.67664405  1
  O  O26  1  0.05417491  0.43909792  0.83515267  1
  O  O27  1  0.96505794  0.91938938  0.75891625  1
  O  O28  1  0.68073919  0.64012346  0.90461055  1
  O  O29  1  0.94286542  0.87122991  0.32335595  1
  O  O30  1  0.37167866  0.13224058  0.51550075  1
  O  O31  1  0.31889845  0.67823732  0.37617431  1
  O  O32  1  0.87167866  0.36775942  0.98449925  1
  O  O33  1  0.55417491  0.06090208  0.66484733  1
  O  O34  1  0.53494206  0.41938938  0.25891625  1
  O  O35  1  0.62832134  0.86775942  0.48449925  1
  O  O36  1  0.26123649  0.00460326  0.07885073  1
  O  O37  1  0.81889845  0.82176268  0.12382569  1
  O  O38  1  0.44582509  0.93909792  0.33515267  1
  O  O39  1  0.55303635  0.06701520  0.22329538  1
  O  O40  1  0.18073919  0.85987654  0.59538945  1
  O  O41  1  0.12832134  0.63224058  0.01550075  1
  O  O42  1  0.68110155  0.32176268  0.62382569  1
  O  O43  1  0.76123649  0.49539674  0.42114927  1
  O  O44  1  0.05303635  0.43298480  0.27670462  1
  O  O45  1  0.44286542  0.62877009  0.17664405  1
  O  O46  1  0.94696365  0.56701520  0.72329538  1
  O  O47  1  0.31926081  0.35987654  0.09538945  1
