# generated using pymatgen
data_Nd3(GeRu)2
_symmetry_space_group_name_H-M   'P 1'
_cell_length_a   5.74529155
_cell_length_b   7.96712156
_cell_length_c   13.80105849
_cell_angle_alpha   90.00000000
_cell_angle_beta   90.00000000
_cell_angle_gamma   90.00000000
_symmetry_Int_Tables_number   1
_chemical_formula_structural   Nd3(GeRu)2
_chemical_formula_sum   'Nd12 Ge8 Ru8'
_cell_volume   631.72186996
_cell_formula_units_Z   4
loop_
 _symmetry_equiv_pos_site_id
 _symmetry_equiv_pos_as_xyz
  1  'x, y, z'
loop_
 _atom_site_type_symbol
 _atom_site_label
 _atom_site_symmetry_multiplicity
 _atom_site_fract_x
 _atom_site_fract_y
 _atom_site_fract_z
 _atom_site_occupancy
  Nd  Nd0  1  0.85018405  0.90191137  0.59875095  1
  Nd  Nd1  1  0.14981595  0.40191137  0.90124905  1
  Nd  Nd2  1  0.85018405  0.59808863  0.09875095  1
  Nd  Nd3  1  0.62940198  0.25918672  0.75000000  1
  Nd  Nd4  1  0.62940198  0.24081328  0.25000000  1
  Nd  Nd5  1  0.85018405  0.59808863  0.40124905  1
  Nd  Nd6  1  0.37059802  0.74081328  0.25000000  1
  Nd  Nd7  1  0.14981595  0.09808863  0.09875095  1
  Nd  Nd8  1  0.14981595  0.09808863  0.40124905  1
  Nd  Nd9  1  0.37059802  0.75918672  0.75000000  1
  Nd  Nd10  1  0.14981595  0.40191137  0.59875095  1
  Nd  Nd11  1  0.85018405  0.90191137  0.90124905  1
  Ge  Ge12  1  0.38426850  0.75000000  0.50000000  1
  Ge  Ge13  1  0.38426850  0.75000000  0.00000000  1
  Ge  Ge14  1  0.13877647  0.10859197  0.75000000  1
  Ge  Ge15  1  0.61573150  0.25000000  0.50000000  1
  Ge  Ge16  1  0.13877647  0.39140803  0.25000000  1
  Ge  Ge17  1  0.86122353  0.89140803  0.25000000  1
  Ge  Ge18  1  0.86122353  0.60859197  0.75000000  1
  Ge  Ge19  1  0.61573150  0.25000000  0.00000000  1
  Ru  Ru20  1  0.35721624  0.03014897  0.90930362  1
  Ru  Ru21  1  0.35721624  0.46985103  0.09069638  1
  Ru  Ru22  1  0.64278376  0.96985103  0.09069638  1
  Ru  Ru23  1  0.64278376  0.53014897  0.90930362  1
  Ru  Ru24  1  0.64278376  0.96985103  0.40930362  1
  Ru  Ru25  1  0.64278376  0.53014897  0.59069638  1
  Ru  Ru26  1  0.35721624  0.46985103  0.40930362  1
  Ru  Ru27  1  0.35721624  0.03014897  0.59069638  1
