# generated using pymatgen
data_Cs6ZnGe8
_symmetry_space_group_name_H-M   'P 1'
_cell_length_a   12.68281795
_cell_length_b   12.89120654
_cell_length_c   13.47222133
_cell_angle_alpha   76.61184764
_cell_angle_beta   61.92008878
_cell_angle_gamma   60.53331556
_symmetry_Int_Tables_number   1
_chemical_formula_structural   Cs6ZnGe8
_chemical_formula_sum   'Cs18 Zn3 Ge24'
_cell_volume   1692.00018436
_cell_formula_units_Z   3
loop_
 _symmetry_equiv_pos_site_id
 _symmetry_equiv_pos_as_xyz
  1  'x, y, z'
loop_
 _atom_site_type_symbol
 _atom_site_label
 _atom_site_symmetry_multiplicity
 _atom_site_fract_x
 _atom_site_fract_y
 _atom_site_fract_z
 _atom_site_occupancy
  Cs  Cs0  1  0.39406655  0.00000000  0.66213376  1
  Cs  Cs1  1  0.44236876  0.70925350  0.36195548  1
  Cs  Cs2  1  0.77494185  0.38148923  0.65823654  1
  Cs  Cs3  1  0.72823841  0.00000000  0.36648508  1
  Cs  Cs4  1  0.15162226  0.29074650  0.36195548  1
  Cs  Cs5  1  0.32196059  0.29430693  1.00000000  1
  Cs  Cs6  1  0.09472349  0.00000000  0.63351492  1
  Cs  Cs7  1  0.91108886  1.00000000  0.00000000  1
  Cs  Cs8  1  0.24242759  0.00000000  0.00000000  1
  Cs  Cs9  1  0.98947475  0.62712793  0.00000000  1
  Cs  Cs10  1  0.15643108  0.61851077  0.65823654  1
  Cs  Cs11  1  0.61660269  0.37287207  0.00000000  1
  Cs  Cs12  1  0.81466762  0.61851077  0.34176346  1
  Cs  Cs13  1  0.51357774  0.29074650  0.63804452  1
  Cs  Cs14  1  0.05620031  0.00000000  0.33786624  1
  Cs  Cs15  1  0.80432425  0.70925350  0.63804452  1
  Cs  Cs16  1  0.61626752  0.70569307  0.00000000  1
  Cs  Cs17  1  0.43317839  0.38148923  0.34176346  1
  Zn  Zn18  1  0.95089361  0.33359380  0.00000000  1
  Zn  Zn19  1  0.61381315  0.00000000  0.00000000  1
  Zn  Zn20  1  0.28448740  0.66640620  0.00000000  1
  Ge  Ge21  1  0.74315404  0.45912934  0.18598559  1
  Ge  Ge22  1  0.17080865  0.31571730  0.81257513  1
  Ge  Ge23  1  0.05879170  0.77620036  0.18739529  1
  Ge  Ge24  1  0.12729500  0.33476041  0.63929893  1
  Ge  Ge25  1  0.79602878  0.00000000  0.64107100  1
  Ge  Ge26  1  0.82975723  0.88075322  0.81401034  1
  Ge  Ge27  1  0.58687857  0.00000000  0.81257908  1
  Ge  Ge28  1  0.10135434  0.66523959  0.36070107  1
  Ge  Ge29  1  0.24618699  0.77620036  0.81260471  1
  Ge  Ge30  1  0.76659394  0.33476041  0.36070107  1
  Ge  Ge31  1  0.83499206  0.22379964  0.18739529  1
  Ge  Ge32  1  0.46205541  0.66523959  0.63929893  1
  Ge  Ge33  1  0.29910109  0.68428270  0.18742487  1
  Ge  Ge34  1  0.52452080  0.11924678  0.18598966  1
  Ge  Ge35  1  0.20228338  0.54087066  0.18598559  1
  Ge  Ge36  1  0.64376758  0.88075322  0.18598966  1
  Ge  Ge37  1  0.71051045  0.11924678  0.81401034  1
  Ge  Ge38  1  0.38826897  0.54087066  0.81401441  1
  Ge  Ge39  1  0.39945765  0.00000000  0.18742092  1
  Ge  Ge40  1  0.02238735  0.22379964  0.81260471  1
  Ge  Ge41  1  0.43709978  1.00000000  0.35892900  1
  Ge  Ge42  1  0.98338379  0.31571730  0.18742487  1
  Ge  Ge43  1  0.92913963  0.45912934  0.81401441  1
  Ge  Ge44  1  0.48652596  0.68428270  0.81257513  1
