# generated using pymatgen
data_Mg2TaMnO6
_symmetry_space_group_name_H-M   'P 1'
_cell_length_a   5.22094012
_cell_length_b   5.50242656
_cell_length_c   7.51492708
_cell_angle_alpha   90.00000000
_cell_angle_beta   90.00000000
_cell_angle_gamma   85.48529561
_symmetry_Int_Tables_number   1
_chemical_formula_structural   Mg2TaMnO6
_chemical_formula_sum   'Mg4 Ta2 Mn2 O12'
_cell_volume   215.21775606
_cell_formula_units_Z   2
loop_
 _symmetry_equiv_pos_site_id
 _symmetry_equiv_pos_as_xyz
  1  'x, y, z'
loop_
 _atom_site_type_symbol
 _atom_site_label
 _atom_site_symmetry_multiplicity
 _atom_site_fract_x
 _atom_site_fract_y
 _atom_site_fract_z
 _atom_site_occupancy
  Mg  Mg0  1  0.02167688  0.94959654  0.25000000  1
  Mg  Mg1  1  0.49614366  0.43499768  0.25000000  1
  Mg  Mg2  1  0.50385634  0.56500232  0.75000000  1
  Mg  Mg3  1  0.97832312  0.05040346  0.75000000  1
  Ta  Ta4  1  0.00000000  0.50000000  0.00000000  1
  Ta  Ta5  1  0.00000000  0.50000000  0.50000000  1
  Mn  Mn6  1  0.50000000  0.00000000  0.00000000  1
  Mn  Mn7  1  0.50000000  0.00000000  0.50000000  1
  O  O8  1  0.82182999  0.82052286  0.56615304  1
  O  O9  1  0.30142924  0.66835632  0.42812405  1
  O  O10  1  0.17817001  0.17947714  0.43384696  1
  O  O11  1  0.69857076  0.33164368  0.92812405  1
  O  O12  1  0.13890071  0.44890844  0.75000000  1
  O  O13  1  0.69857076  0.33164368  0.57187595  1
  O  O14  1  0.30142924  0.66835632  0.07187595  1
  O  O15  1  0.82182999  0.82052286  0.93384696  1
  O  O16  1  0.63246703  0.06674993  0.25000000  1
  O  O17  1  0.17817001  0.17947714  0.06615304  1
  O  O18  1  0.36753297  0.93325007  0.75000000  1
  O  O19  1  0.86109929  0.55109156  0.25000000  1
