# generated using pymatgen
data_CaAgAs
_symmetry_space_group_name_H-M   'P 1'
_cell_length_a   7.26632766
_cell_length_b   7.26632765
_cell_length_c   4.31269464
_cell_angle_alpha   90.00000000
_cell_angle_beta   90.00000000
_cell_angle_gamma   120.00000002
_symmetry_Int_Tables_number   1
_chemical_formula_structural   CaAgAs
_chemical_formula_sum   'Ca3 Ag3 As3'
_cell_volume   197.20108291
_cell_formula_units_Z   3
loop_
 _symmetry_equiv_pos_site_id
 _symmetry_equiv_pos_as_xyz
  1  'x, y, z'
loop_
 _atom_site_type_symbol
 _atom_site_label
 _atom_site_symmetry_multiplicity
 _atom_site_fract_x
 _atom_site_fract_y
 _atom_site_fract_z
 _atom_site_occupancy
  Ca  Ca0  1  0.00000000  0.58744572  0.50000000  1
  Ca  Ca1  1  0.41255428  0.41255428  0.50000000  1
  Ca  Ca2  1  0.58744572  0.00000000  0.50000000  1
  As  As3  1  0.00000000  0.00000000  0.50000000  1
  As  As4  1  0.33333333  0.66666667  0.00000000  1
  As  As5  1  0.66666667  0.33333333  0.00000000  1
  Ag  Ag6  1  0.00000000  0.25066670  0.00000000  1
  Ag  Ag7  1  0.74933330  0.74933330  0.00000000  1
  Ag  Ag8  1  0.25066670  0.00000000  0.00000000  1
