# generated using pymatgen
data_Ce3Si6N11
_symmetry_space_group_name_H-M   'P 1'
_cell_length_a   4.88540302
_cell_length_b   10.15738424
_cell_length_c   10.15738424
_cell_angle_alpha   90.00000000
_cell_angle_beta   90.00000000
_cell_angle_gamma   90.00000000
_symmetry_Int_Tables_number   1
_chemical_formula_structural   Ce3Si6N11
_chemical_formula_sum   'Ce6 Si12 N22'
_cell_volume   504.03902128
_cell_formula_units_Z   2
loop_
 _symmetry_equiv_pos_site_id
 _symmetry_equiv_pos_as_xyz
  1  'x, y, z'
loop_
 _atom_site_type_symbol
 _atom_site_label
 _atom_site_symmetry_multiplicity
 _atom_site_fract_x
 _atom_site_fract_y
 _atom_site_fract_z
 _atom_site_occupancy
  Ce  Ce0  1  0.64402627  0.31886773  0.18113227  1
  Ce  Ce1  1  0.64402627  0.81886773  0.31886773  1
  Ce  Ce2  1  0.64402627  0.18113227  0.68113227  1
  Ce  Ce3  1  0.64402627  0.68113227  0.81886773  1
  Ce  Ce4  1  0.65420570  0.00000000  0.00000000  1
  Ce  Ce5  1  0.65420570  0.50000000  0.50000000  1
  Si  Si6  1  0.11480644  0.07881565  0.20903189  1
  Si  Si7  1  0.11480644  0.79096811  0.07881565  1
  Si  Si8  1  0.11480644  0.20903189  0.92118435  1
  Si  Si9  1  0.11480644  0.92118435  0.79096811  1
  Si  Si10  1  0.11480644  0.42118435  0.70903189  1
  Si  Si11  1  0.11480644  0.57881565  0.29096811  1
  Si  Si12  1  0.11480644  0.29096811  0.42118435  1
  Si  Si13  1  0.11480644  0.70903189  0.57881565  1
  N  N14  1  0.46816865  0.07533241  0.22968281  1
  N  N15  1  0.46816865  0.77031719  0.07533241  1
  N  N16  1  0.46816865  0.22968281  0.92466759  1
  N  N17  1  0.46816865  0.92466759  0.77031719  1
  N  N18  1  0.46816865  0.42466759  0.72968281  1
  N  N19  1  0.46816865  0.57533241  0.27031719  1
  N  N20  1  0.46816865  0.27031719  0.42466759  1
  N  N21  1  0.46816865  0.72968281  0.57533241  1
  Si  Si22  1  0.60412332  0.61723548  0.11723548  1
  Si  Si23  1  0.60412332  0.88276452  0.61723548  1
  Si  Si24  1  0.60412332  0.11723548  0.38276452  1
  Si  Si25  1  0.60412332  0.38276452  0.88276452  1
  N  N26  1  0.95089837  0.65337018  0.15337018  1
  N  N27  1  0.95089837  0.84662982  0.65337018  1
  N  N28  1  0.95089837  0.15337018  0.34662982  1
  N  N29  1  0.95089837  0.34662982  0.84662982  1
  N  N30  1  0.00189470  0.92028564  0.17899878  1
  N  N31  1  0.00189470  0.82100122  0.92028564  1
  N  N32  1  0.00189470  0.17899878  0.07971436  1
  N  N33  1  0.00189470  0.07971436  0.82100122  1
  N  N34  1  0.00189470  0.57971436  0.67899878  1
  N  N35  1  0.00189470  0.42028564  0.32100122  1
  N  N36  1  0.00189470  0.32100122  0.57971436  1
  N  N37  1  0.00189470  0.67899878  0.42028564  1
  N  N38  1  0.57598920  0.50000000  0.00000000  1
  N  N39  1  0.57598920  0.00000000  0.50000000  1
