# generated using pymatgen
data_GdCdPd
_symmetry_space_group_name_H-M   'P 1'
_cell_length_a   7.65594370
_cell_length_b   7.65553900
_cell_length_c   3.96209398
_cell_angle_alpha   89.99960175
_cell_angle_beta   89.99899504
_cell_angle_gamma   119.99230363
_symmetry_Int_Tables_number   1
_chemical_formula_structural   GdCdPd
_chemical_formula_sum   'Gd3 Cd3 Pd3'
_cell_volume   201.12385474
_cell_formula_units_Z   3
loop_
 _symmetry_equiv_pos_site_id
 _symmetry_equiv_pos_as_xyz
  1  'x, y, z'
loop_
 _atom_site_type_symbol
 _atom_site_label
 _atom_site_symmetry_multiplicity
 _atom_site_fract_x
 _atom_site_fract_y
 _atom_site_fract_z
 _atom_site_occupancy
  Gd  Gd0  1  0.59348096  -0.00002680  0.99999853  1
  Gd  Gd1  1  0.40650442  0.40650053  0.00000674  1
  Gd  Gd2  1  -0.00002658  0.59350465  0.99999076  1
  Cd  Cd3  1  0.25415543  0.99998328  0.49999800  1
  Cd  Cd4  1  0.74586471  0.74590063  0.49999628  1
  Cd  Cd5  1  0.99994902  0.25410267  0.50000400  1
  Pd  Pd6  1  0.66667085  0.33324074  0.50001600  1
  Pd  Pd7  1  0.33341766  0.66678117  0.49998629  1
  Pd  Pd8  1  -0.00001647  0.00001313  0.00000340  1
