# generated using pymatgen
data_Eu2Ga3Ir
_symmetry_space_group_name_H-M   'P 1'
_cell_length_a   5.69031659
_cell_length_b   5.69127308
_cell_length_c   8.74034769
_cell_angle_alpha   90.07209193
_cell_angle_beta   89.99732260
_cell_angle_gamma   120.00901081
_symmetry_Int_Tables_number   1
_chemical_formula_structural   Eu2Ga3Ir
_chemical_formula_sum   'Eu4 Ga6 Ir2'
_cell_volume   245.11241744
_cell_formula_units_Z   2
loop_
 _symmetry_equiv_pos_site_id
 _symmetry_equiv_pos_as_xyz
  1  'x, y, z'
loop_
 _atom_site_type_symbol
 _atom_site_label
 _atom_site_symmetry_multiplicity
 _atom_site_fract_x
 _atom_site_fract_y
 _atom_site_fract_z
 _atom_site_occupancy
  Eu  Eu0  1  0.33377980  0.66700950  0.45029447  1
  Eu  Eu1  1  0.66619552  0.33278583  0.95027241  1
  Eu  Eu2  1  0.33380630  0.66721718  0.04963381  1
  Eu  Eu3  1  0.66624409  0.33278026  0.54982058  1
  Ga  Ga4  1  0.83992818  0.68002435  0.25046472  1
  Ga  Ga5  1  0.84140601  0.15970436  0.24978125  1
  Ga  Ga6  1  0.15854992  0.84031134  0.75019499  1
  Ga  Ga7  1  0.31844195  0.15986411  0.24974186  1
  Ga  Ga8  1  0.68161056  0.84020988  0.75024872  1
  Ga  Ga9  1  0.16000391  0.31996015  0.74956126  1
  Ir  Ir10  1  0.00003363  0.00012572  -0.00000064  1
  Ir  Ir11  1  0.00000012  0.00000733  0.49998656  1
