# generated using pymatgen
data_Ba3Nb2CoO9
_symmetry_space_group_name_H-M   'P 1'
_cell_length_a   5.85528923
_cell_length_b   5.85528923
_cell_length_c   7.20468449
_cell_angle_alpha   90.00000000
_cell_angle_beta   90.00000000
_cell_angle_gamma   119.99999996
_symmetry_Int_Tables_number   1
_chemical_formula_structural   Ba3Nb2CoO9
_chemical_formula_sum   'Ba3 Nb2 Co1 O9'
_cell_volume   213.91552437
_cell_formula_units_Z   1
loop_
 _symmetry_equiv_pos_site_id
 _symmetry_equiv_pos_as_xyz
  1  'x, y, z'
loop_
 _atom_site_type_symbol
 _atom_site_label
 _atom_site_symmetry_multiplicity
 _atom_site_fract_x
 _atom_site_fract_y
 _atom_site_fract_z
 _atom_site_occupancy
  O  O0  1  0.34281565  0.17140783  0.67435064  1
  O  O1  1  0.82859217  0.17140783  0.67435064  1
  O  O2  1  0.82859217  0.65718435  0.67435064  1
  O  O3  1  0.17140783  0.82859217  0.32564936  1
  O  O4  1  0.65718435  0.82859217  0.32564936  1
  O  O5  1  0.17140783  0.34281565  0.32564936  1
  O  O6  1  0.50000000  0.00000000  0.00000000  1
  O  O7  1  0.00000000  0.50000000  0.00000000  1
  O  O8  1  0.50000000  0.50000000  0.00000000  1
  Co  Co9  1  0.00000000  0.00000000  0.50000000  1
  Nb  Nb10  1  0.33333333  0.66666667  0.17804214  1
  Nb  Nb11  1  0.66666667  0.33333333  0.82195786  1
  Ba  Ba12  1  0.66666667  0.33333333  0.33465575  1
  Ba  Ba13  1  0.33333333  0.66666667  0.66534425  1
  Ba  Ba14  1  0.00000000  0.00000000  0.00000000  1
