# generated using pymatgen
data_Ca3W2O7
_symmetry_space_group_name_H-M   'P 1'
_cell_length_a   5.79283149
_cell_length_b   5.65834792
_cell_length_c   10.27357859
_cell_angle_alpha   105.98486339
_cell_angle_beta   90.00000000
_cell_angle_gamma   90.00000000
_symmetry_Int_Tables_number   1
_chemical_formula_structural   Ca3W2O7
_chemical_formula_sum   'Ca6 W4 O14'
_cell_volume   323.72542563
_cell_formula_units_Z   2
loop_
 _symmetry_equiv_pos_site_id
 _symmetry_equiv_pos_as_xyz
  1  'x, y, z'
loop_
 _atom_site_type_symbol
 _atom_site_label
 _atom_site_symmetry_multiplicity
 _atom_site_fract_x
 _atom_site_fract_y
 _atom_site_fract_z
 _atom_site_occupancy
  Ca  Ca0  1  0.69861988  0.75739080  0.00000000  1
  Ca  Ca1  1  0.19861988  0.24260920  1.00000000  1
  Ca  Ca2  1  0.80399508  0.57276699  0.61902570  1
  Ca  Ca3  1  0.30399508  0.42723301  0.38097430  1
  Ca  Ca4  1  0.80399508  0.95374030  0.38097430  1
  Ca  Ca5  1  0.30399508  0.04625970  0.61902570  1
  W  W6  1  0.74906719  0.35163457  0.20123434  1
  W  W7  1  0.24906719  0.64836543  0.79876566  1
  W  W8  1  0.24906719  0.84959978  0.20123434  1
  W  W9  1  0.74906719  0.15040022  0.79876566  1
  O  O10  1  0.71386203  0.96033521  0.59860905  1
  O  O11  1  0.21386203  0.03966479  0.40139095  1
  O  O12  1  0.21386203  0.63827284  0.59860905  1
  O  O13  1  0.71386203  0.36172716  0.40139095  1
  O  O14  1  0.05810943  0.32938044  0.76096068  1
  O  O15  1  0.55810943  0.67061956  0.23903932  1
  O  O16  1  0.55810943  0.43158024  0.76096068  1
  O  O17  1  0.05810943  0.56841976  0.23903932  1
  O  O18  1  0.93953184  0.87007009  0.83936096  1
  O  O19  1  0.43953184  0.12992991  0.16063904  1
  O  O20  1  0.79225097  0.35177349  0.00000000  1
  O  O21  1  0.29225097  0.64822651  1.00000000  1
  O  O22  1  0.93953184  0.03070913  0.16063904  1
  O  O23  1  0.43953184  0.96929087  0.83936096  1
