# generated using pymatgen
data_Ca4P2O9
_symmetry_space_group_name_H-M   'P 1'
_cell_length_a   7.06885467
_cell_length_b   9.55573779
_cell_length_c   12.10172261
_cell_angle_alpha   90.00000000
_cell_angle_beta   90.00000000
_cell_angle_gamma   90.97646993
_symmetry_Int_Tables_number   1
_chemical_formula_structural   Ca4P2O9
_chemical_formula_sum   'Ca16 P8 O36'
_cell_volume   817.32992073
_cell_formula_units_Z   4
loop_
 _symmetry_equiv_pos_site_id
 _symmetry_equiv_pos_as_xyz
  1  'x, y, z'
loop_
 _atom_site_type_symbol
 _atom_site_label
 _atom_site_symmetry_multiplicity
 _atom_site_fract_x
 _atom_site_fract_y
 _atom_site_fract_z
 _atom_site_occupancy
  O  O0  1  0.71437502  0.78576481  0.50111908  1
  O  O1  1  0.16086181  0.15842411  0.81421221  1
  O  O2  1  0.58860207  0.99909907  0.39391171  1
  O  O3  1  0.41139793  0.00090093  0.89391171  1
  O  O4  1  0.24469270  0.22620255  0.56598386  1
  O  O5  1  0.75530730  0.77379745  0.06598386  1
  O  O6  1  0.42041835  0.30614588  0.39073255  1
  O  O7  1  0.57958165  0.69385412  0.89073255  1
  O  O8  1  0.76705506  0.49090843  0.37209760  1
  O  O9  1  0.23294494  0.50909157  0.87209760  1
  O  O10  1  0.26580002  0.01570388  0.23836443  1
  O  O11  1  0.73419998  0.98429612  0.73836443  1
  O  O12  1  0.91904117  0.00737030  0.47351003  1
  O  O13  1  0.08095883  0.99262970  0.97351003  1
  O  O14  1  0.83913819  0.84157589  0.31421221  1
  O  O15  1  0.95614563  0.29370211  0.13297893  1
  O  O16  1  0.27038620  0.77429377  0.48084467  1
  O  O17  1  0.72961380  0.22570623  0.98084467  1
  O  O18  1  0.38628375  0.71167308  0.67752041  1
  O  O19  1  0.61371625  0.28832692  0.17752041  1
  O  O20  1  0.04385437  0.70629789  0.63297893  1
  O  O21  1  0.07691687  0.26359876  0.38294297  1
  O  O22  1  0.23011108  0.94423362  0.63605519  1
  O  O23  1  0.76988892  0.05576638  0.13605519  1
  O  O24  1  0.71371824  0.25105766  0.59112284  1
  O  O25  1  0.28628176  0.74894234  0.09112284  1
  O  O26  1  0.90417542  0.37694261  0.73702700  1
  O  O27  1  0.09582458  0.62305739  0.23702700  1
  O  O28  1  0.54236262  0.34204102  0.75686710  1
  O  O29  1  0.45763738  0.65795898  0.25686710  1
  O  O30  1  0.67252878  0.51641989  0.61784052  1
  O  O31  1  0.32747122  0.48358011  0.11784052  1
  O  O32  1  0.78488992  0.52676041  0.99599834  1
  O  O33  1  0.21511008  0.47323959  0.49599834  1
  O  O34  1  0.92308313  0.73640124  0.88294297  1
  O  O35  1  0.28562498  0.21423519  0.00111908  1
  P  P36  1  0.23268774  0.78553112  0.60850103  1
  P  P37  1  0.76731226  0.21446888  0.10850103  1
  P  P38  1  0.71051913  0.37620607  0.67536452  1
  P  P39  1  0.28948087  0.62379393  0.17536452  1
  P  P40  1  0.76317515  0.68206395  0.95903584  1
  P  P41  1  0.23682485  0.31793605  0.45903584  1
  P  P42  1  0.23557386  0.08985898  0.92295332  1
  P  P43  1  0.76442614  0.91014102  0.42295332  1
  Ca  Ca44  1  0.25016293  0.01171778  0.42081898  1
  Ca  Ca45  1  0.48460087  0.40989219  0.94697674  1
  Ca  Ca46  1  0.98974803  0.63456671  0.43038046  1
  Ca  Ca47  1  0.01025197  0.36543329  0.93038046  1
  Ca  Ca48  1  0.51539913  0.59010781  0.44697674  1
  Ca  Ca49  1  0.74983707  0.98828222  0.92081898  1
  Ca  Ca50  1  0.74110464  0.25867018  0.39498391  1
  Ca  Ca51  1  0.25889536  0.74132982  0.89498391  1
  Ca  Ca52  1  0.26986283  0.25126801  0.19972774  1
  Ca  Ca53  1  0.73013717  0.74873199  0.69972774  1
  Ca  Ca54  1  0.77034820  0.52845940  0.19663723  1
  Ca  Ca55  1  0.22965180  0.47154060  0.69663723  1
  Ca  Ca56  1  0.53275708  0.89713226  0.20288860  1
  Ca  Ca57  1  0.46724292  0.10286774  0.70288860  1
  Ca  Ca58  1  0.03299131  0.89574207  0.15642217  1
  Ca  Ca59  1  0.96700869  0.10425793  0.65642217  1
