# generated using pymatgen
data_BaY2CoO5
_symmetry_space_group_name_H-M   'P 1'
_cell_length_a   5.77002460
_cell_length_b   7.15852850
_cell_length_c   12.39054022
_cell_angle_alpha   90.00000000
_cell_angle_beta   90.00000000
_cell_angle_gamma   90.00000000
_symmetry_Int_Tables_number   1
_chemical_formula_structural   BaY2CoO5
_chemical_formula_sum   'Ba4 Y8 Co4 O20'
_cell_volume   511.78984563
_cell_formula_units_Z   4
loop_
 _symmetry_equiv_pos_site_id
 _symmetry_equiv_pos_as_xyz
  1  'x, y, z'
loop_
 _atom_site_type_symbol
 _atom_site_label
 _atom_site_symmetry_multiplicity
 _atom_site_fract_x
 _atom_site_fract_y
 _atom_site_fract_z
 _atom_site_occupancy
  Ba  Ba0  1  0.25000000  0.92148523  0.89996939  1
  Ba  Ba1  1  0.75000000  0.07851477  0.10003061  1
  Ba  Ba2  1  0.75000000  0.42148523  0.60003061  1
  Ba  Ba3  1  0.25000000  0.57851477  0.39996939  1
  Y  Y4  1  0.25000000  0.11880906  0.29158778  1
  Y  Y5  1  0.75000000  0.88119094  0.70841222  1
  Y  Y6  1  0.75000000  0.61880906  0.20841222  1
  Y  Y7  1  0.25000000  0.38119094  0.79158778  1
  Y  Y8  1  0.25000000  0.40053605  0.07457464  1
  Y  Y9  1  0.75000000  0.59946395  0.92542536  1
  Y  Y10  1  0.75000000  0.90053605  0.42542536  1
  Y  Y11  1  0.25000000  0.09946395  0.57457464  1
  Co  Co12  1  0.25000000  0.69233220  0.65200174  1
  Co  Co13  1  0.75000000  0.30766780  0.34799826  1
  Co  Co14  1  0.75000000  0.19233220  0.84799826  1
  Co  Co15  1  0.25000000  0.80766780  0.15200174  1
  O  O16  1  0.99543966  0.16653779  0.43433341  1
  O  O17  1  0.49543966  0.83346221  0.56566659  1
  O  O18  1  0.00456034  0.66653779  0.06566659  1
  O  O19  1  0.50456034  0.33346221  0.93433341  1
  O  O20  1  0.00456034  0.83346221  0.56566659  1
  O  O21  1  0.50456034  0.16653779  0.43433341  1
  O  O22  1  0.99543966  0.33346221  0.93433341  1
  O  O23  1  0.49543966  0.66653779  0.06566659  1
  O  O24  1  0.50153554  0.35934133  0.22500649  1
  O  O25  1  0.00153554  0.64065867  0.77499351  1
  O  O26  1  0.49846446  0.85934133  0.27499351  1
  O  O27  1  0.99846446  0.14065867  0.72500649  1
  O  O28  1  0.49846446  0.64065867  0.77499351  1
  O  O29  1  0.99846446  0.35934133  0.22500649  1
  O  O30  1  0.50153554  0.14065867  0.72500649  1
  O  O31  1  0.00153554  0.85934133  0.27499351  1
  O  O32  1  0.25000000  0.07464031  0.10185865  1
  O  O33  1  0.75000000  0.92535969  0.89814135  1
  O  O34  1  0.75000000  0.57464031  0.39814135  1
  O  O35  1  0.25000000  0.42535969  0.60185865  1
