# generated using pymatgen
data_Cs2As4Pd3O14
_symmetry_space_group_name_H-M   'P 1'
_cell_length_a   6.17352048
_cell_length_b   16.56039614
_cell_length_c   16.56039614
_cell_angle_alpha   90.00000000
_cell_angle_beta   90.00000000
_cell_angle_gamma   90.00000000
_symmetry_Int_Tables_number   1
_chemical_formula_structural   Cs2As4Pd3O14
_chemical_formula_sum   'Cs8 As16 Pd12 O56'
_cell_volume   1693.06774443
_cell_formula_units_Z   4
loop_
 _symmetry_equiv_pos_site_id
 _symmetry_equiv_pos_as_xyz
  1  'x, y, z'
loop_
 _atom_site_type_symbol
 _atom_site_label
 _atom_site_symmetry_multiplicity
 _atom_site_fract_x
 _atom_site_fract_y
 _atom_site_fract_z
 _atom_site_occupancy
  Cs  Cs0  1  0.47249629  0.66846251  0.01262328  1
  Cs  Cs1  1  0.47249629  0.01262328  0.83153749  1
  Cs  Cs2  1  0.52750371  0.33153749  0.98737672  1
  Cs  Cs3  1  0.47249629  0.48737672  0.66846251  1
  Cs  Cs4  1  0.52750371  0.98737672  0.16846251  1
  Cs  Cs5  1  0.52750371  0.16846251  0.51262328  1
  Cs  Cs6  1  0.52750371  0.51262328  0.33153749  1
  Cs  Cs7  1  0.47249629  0.83153749  0.48737672  1
  As  As8  1  0.92019067  0.83201799  0.90147958  1
  As  As9  1  0.00262862  0.40711925  0.82165374  1
  As  As10  1  0.99737138  0.90711925  0.32165374  1
  As  As11  1  0.92019067  0.90147958  0.66798201  1
  As  As12  1  0.99737138  0.17834626  0.90711925  1
  As  As13  1  0.92019067  0.66798201  0.59852042  1
  As  As14  1  0.99737138  0.32165374  0.59288075  1
  As  As15  1  0.07980933  0.09852042  0.33201799  1
  As  As16  1  0.00262862  0.67834626  0.40711925  1
  As  As17  1  0.99737138  0.59288075  0.17834626  1
  As  As18  1  0.07980933  0.33201799  0.40147958  1
  As  As19  1  0.07980933  0.16798201  0.09852042  1
  As  As20  1  0.00262862  0.82165374  0.09288075  1
  As  As21  1  0.07980933  0.40147958  0.16798201  1
  As  As22  1  0.00262862  0.09288075  0.67834626  1
  As  As23  1  0.92019067  0.59852042  0.83201799  1
  Pd  Pd24  1  0.30563462  0.25000000  0.25000000  1
  Pd  Pd25  1  0.84847370  0.25000000  0.25000000  1
  Pd  Pd26  1  0.76410756  0.25000000  0.75000000  1
  Pd  Pd27  1  0.69436538  0.75000000  0.75000000  1
  Pd  Pd28  1  0.00000000  0.50000000  0.00000000  1
  Pd  Pd29  1  0.15152630  0.75000000  0.75000000  1
  Pd  Pd30  1  0.76410756  0.75000000  0.25000000  1
  Pd  Pd31  1  0.23589244  0.25000000  0.75000000  1
  Pd  Pd32  1  0.00000000  0.00000000  0.50000000  1
  Pd  Pd33  1  0.00000000  0.50000000  0.50000000  1
  Pd  Pd34  1  0.00000000  0.00000000  0.00000000  1
  Pd  Pd35  1  0.23589244  0.75000000  0.25000000  1
  O  O36  1  0.86008608  0.16106798  0.16216246  1
  O  O37  1  0.02650880  0.71564093  0.50859866  1
  O  O38  1  0.75999843  0.86855844  0.28321953  1
  O  O39  1  0.00448210  0.40308546  0.92546891  1
  O  O40  1  0.81516773  0.92264624  0.93409476  1
  O  O41  1  0.00448210  0.57453109  0.40308546  1
  O  O42  1  0.76317871  0.71695304  0.37040425  1
  O  O43  1  0.99551790  0.90308546  0.42546891  1
  O  O44  1  0.02650880  0.78435907  0.99140134  1
  O  O45  1  0.76317871  0.12959575  0.71695304  1
  O  O46  1  0.18483227  0.43409476  0.07735376  1
  O  O47  1  0.24000157  0.71678047  0.36855844  1
  O  O48  1  0.02650880  0.99140134  0.71564093  1
  O  O49  1  0.24000157  0.36855844  0.78321953  1
  O  O50  1  0.70723964  0.87247917  0.72879703  1
  O  O51  1  0.86008608  0.33783754  0.16106798  1
  O  O52  1  0.29276036  0.37247917  0.22879703  1
  O  O53  1  0.75999843  0.63144156  0.21678047  1
  O  O54  1  0.97349120  0.49140134  0.21564093  1
  O  O55  1  0.24000157  0.78321953  0.13144156  1
  O  O56  1  0.86008608  0.16216246  0.33893202  1
  O  O57  1  0.23682129  0.87040425  0.28304696  1
  O  O58  1  0.75999843  0.21678047  0.86855844  1
  O  O59  1  0.97349120  0.21564093  0.00859866  1
  O  O60  1  0.23682129  0.62959575  0.21695304  1
  O  O61  1  0.29276036  0.27120297  0.37247917  1
  O  O62  1  0.70723964  0.72879703  0.62752083  1
  O  O63  1  0.18483227  0.07735376  0.06590524  1
  O  O64  1  0.97349120  0.00859866  0.28435907  1
  O  O65  1  0.00448210  0.92546891  0.09691454  1
  O  O66  1  0.13991392  0.66106798  0.66216246  1
  O  O67  1  0.76317871  0.78304696  0.12959575  1
  O  O68  1  0.13991392  0.83783754  0.66106798  1
  O  O69  1  0.86008608  0.33893202  0.33783754  1
  O  O70  1  0.76317871  0.37040425  0.78304696  1
  O  O71  1  0.97349120  0.28435907  0.49140134  1
  O  O72  1  0.81516773  0.56590524  0.92264624  1
  O  O73  1  0.99551790  0.07453109  0.90308546  1
  O  O74  1  0.00448210  0.09691454  0.57453109  1
  O  O75  1  0.18483227  0.42264624  0.43409476  1
  O  O76  1  0.02650880  0.50859866  0.78435907  1
  O  O77  1  0.24000157  0.13144156  0.71678047  1
  O  O78  1  0.70723964  0.77120297  0.87247917  1
  O  O79  1  0.13991392  0.83893202  0.83783754  1
  O  O80  1  0.75999843  0.28321953  0.63144156  1
  O  O81  1  0.29276036  0.12752083  0.27120297  1
  O  O82  1  0.13991392  0.66216246  0.83893202  1
  O  O83  1  0.18483227  0.06590524  0.42264624  1
  O  O84  1  0.81516773  0.93409476  0.57735376  1
  O  O85  1  0.23682129  0.28304696  0.62959575  1
  O  O86  1  0.99551790  0.42546891  0.59691454  1
  O  O87  1  0.70723964  0.62752083  0.77120297  1
  O  O88  1  0.23682129  0.21695304  0.87040425  1
  O  O89  1  0.29276036  0.22879703  0.12752083  1
  O  O90  1  0.99551790  0.59691454  0.07453109  1
  O  O91  1  0.81516773  0.57735376  0.56590524  1
