# generated using pymatgen
data_V2Zn3(Si2O7)2
_symmetry_space_group_name_H-M   'P 1'
_cell_length_a   7.76348645
_cell_length_b   9.68658608
_cell_length_c   9.11615908
_cell_angle_alpha   63.16998940
_cell_angle_beta   64.79811363
_cell_angle_gamma   66.37593324
_symmetry_Int_Tables_number   1
_chemical_formula_structural   V2Zn3(Si2O7)2
_chemical_formula_sum   'V4 Zn6 Si8 O28'
_cell_volume   534.73736301
_cell_formula_units_Z   2
loop_
 _symmetry_equiv_pos_site_id
 _symmetry_equiv_pos_as_xyz
  1  'x, y, z'
loop_
 _atom_site_type_symbol
 _atom_site_label
 _atom_site_symmetry_multiplicity
 _atom_site_fract_x
 _atom_site_fract_y
 _atom_site_fract_z
 _atom_site_occupancy
  V  V0  1  0.19934788  0.25000000  0.75000000  1
  V  V1  1  0.80065212  0.75000000  0.25000000  1
  V  V2  1  0.00000000  0.00000000  0.00000000  1
  V  V3  1  0.00000000  0.50000000  0.50000000  1
  Zn  Zn4  1  0.93572632  0.90463139  0.44088751  1
  Zn  Zn5  1  0.28124522  0.59536861  0.05911249  1
  Zn  Zn6  1  0.71875478  0.40463139  0.94088751  1
  Zn  Zn7  1  0.60535009  0.25000000  0.75000000  1
  Zn  Zn8  1  0.06427368  0.09536861  0.55911249  1
  Zn  Zn9  1  0.39464991  0.75000000  0.25000000  1
  Si  Si10  1  0.47298395  0.29061307  0.34409886  1
  Si  Si11  1  0.89230312  0.79061307  0.84409886  1
  Si  Si12  1  0.47628741  0.89929482  0.85825290  1
  Si  Si13  1  0.76616588  0.39929482  0.35825290  1
  Si  Si14  1  0.10769688  0.20938693  0.15590114  1
  Si  Si15  1  0.52371259  0.10070518  0.14174710  1
  Si  Si16  1  0.23383412  0.60070518  0.64174710  1
  Si  Si17  1  0.52701605  0.70938693  0.65590114  1
  O  O18  1  0.15771450  0.66594142  0.46912098  1
  O  O19  1  0.04500579  0.58208949  0.25273672  1
  O  O20  1  0.53927830  0.91295605  0.19201966  1
  O  O21  1  0.12016800  0.08208949  0.75273672  1
  O  O22  1  0.74276809  0.67547122  0.51837072  1
  O  O23  1  0.94713260  0.37394090  0.18562418  1
  O  O24  1  0.35574499  0.41295605  0.69201966  1
  O  O25  1  0.93661003  0.82452878  0.98162928  1
  O  O26  1  0.05286740  0.62605910  0.81437582  1
  O  O27  1  0.35880788  0.73286927  0.57648113  1
  O  O28  1  0.95499421  0.41791051  0.74726328  1
  O  O29  1  0.25723191  0.32452878  0.48162928  1
  O  O30  1  0.50669868  0.12605910  0.31437582  1
  O  O31  1  0.70722210  0.16594142  0.96912098  1
  O  O32  1  0.33184172  0.23286927  0.07648113  1
  O  O33  1  0.06338997  0.17547122  0.01837072  1
  O  O34  1  0.09901864  0.06565368  0.34275701  1
  O  O35  1  0.64119212  0.26713073  0.42351887  1
  O  O36  1  0.50742833  0.43434632  0.15724299  1
  O  O37  1  0.66815828  0.76713073  0.92351887  1
  O  O38  1  0.49330132  0.87394090  0.68562418  1
  O  O39  1  0.87983200  0.91791051  0.24726328  1
  O  O40  1  0.49257167  0.56565368  0.84275701  1
  O  O41  1  0.46072170  0.08704395  0.80798034  1
  O  O42  1  0.90098136  0.93434632  0.65724299  1
  O  O43  1  0.64425501  0.58704395  0.30798034  1
  O  O44  1  0.29277790  0.83405858  0.03087902  1
  O  O45  1  0.84228550  0.33405858  0.53087902  1
