# generated using pymatgen
data_GdSi2Rh3
_symmetry_space_group_name_H-M   'P 1'
_cell_length_a   5.56352703
_cell_length_b   5.56476306
_cell_length_c   3.67235969
_cell_angle_alpha   90.01782453
_cell_angle_beta   89.98595542
_cell_angle_gamma   120.00827318
_symmetry_Int_Tables_number   1
_chemical_formula_structural   GdSi2Rh3
_chemical_formula_sum   'Gd1 Si2 Rh3'
_cell_volume   98.45470805
_cell_formula_units_Z   1
loop_
 _symmetry_equiv_pos_site_id
 _symmetry_equiv_pos_as_xyz
  1  'x, y, z'
loop_
 _atom_site_type_symbol
 _atom_site_label
 _atom_site_symmetry_multiplicity
 _atom_site_fract_x
 _atom_site_fract_y
 _atom_site_fract_z
 _atom_site_occupancy
  Gd  Gd0  1  -0.00000107  0.00000107  0.00000441  1
  Si  Si1  1  0.66684275  0.33331120  0.99999708  1
  Si  Si2  1  0.33315843  0.66668955  0.00000110  1
  Rh  Rh3  1  0.49999959  0.99999866  0.50000031  1
  Rh  Rh4  1  0.00000035  0.49999943  0.49999983  1
  Rh  Rh5  1  0.49999996  0.50000009  0.49999727  1
