# generated using pymatgen
data_Nd(BC)2
_symmetry_space_group_name_H-M   'P 1'
_cell_length_a   3.82414734
_cell_length_b   5.39550458
_cell_length_c   5.39550458
_cell_angle_alpha   90.00000000
_cell_angle_beta   90.00000000
_cell_angle_gamma   90.00000000
_symmetry_Int_Tables_number   1
_chemical_formula_structural   Nd(BC)2
_chemical_formula_sum   'Nd2 B4 C4'
_cell_volume   111.32654931
_cell_formula_units_Z   2
loop_
 _symmetry_equiv_pos_site_id
 _symmetry_equiv_pos_as_xyz
  1  'x, y, z'
loop_
 _atom_site_type_symbol
 _atom_site_label
 _atom_site_symmetry_multiplicity
 _atom_site_fract_x
 _atom_site_fract_y
 _atom_site_fract_z
 _atom_site_occupancy
  B  B0  1  0.50000000  0.63791976  0.13791976  1
  B  B1  1  0.50000000  0.86208024  0.63791976  1
  B  B2  1  0.50000000  0.36208024  0.86208024  1
  B  B3  1  0.50000000  0.13791976  0.36208024  1
  C  C4  1  0.50000000  0.66067235  0.83932765  1
  C  C5  1  0.50000000  0.83932765  0.33932765  1
  C  C6  1  0.50000000  0.16067235  0.66067235  1
  C  C7  1  0.50000000  0.33932765  0.16067235  1
  Nd  Nd8  1  0.00000000  0.50000000  0.50000000  1
  Nd  Nd9  1  0.00000000  0.00000000  0.00000000  1
