# generated using pymatgen
data_Na8In6Au11
_symmetry_space_group_name_H-M   'P 1'
_cell_length_a   5.62213623
_cell_length_b   15.29192884
_cell_length_c   26.16939866
_cell_angle_alpha   90.00000000
_cell_angle_beta   90.00000000
_cell_angle_gamma   90.00000000
_symmetry_Int_Tables_number   1
_chemical_formula_structural   Na8In6Au11
_chemical_formula_sum   'Na32 In24 Au44'
_cell_volume   2249.86974913
_cell_formula_units_Z   4
loop_
 _symmetry_equiv_pos_site_id
 _symmetry_equiv_pos_as_xyz
  1  'x, y, z'
loop_
 _atom_site_type_symbol
 _atom_site_label
 _atom_site_symmetry_multiplicity
 _atom_site_fract_x
 _atom_site_fract_y
 _atom_site_fract_z
 _atom_site_occupancy
  Na  Na0  1  0.77448794  0.13754461  0.63983997  1
  Na  Na1  1  0.77448794  0.86245539  0.86016003  1
  Na  Na2  1  0.24659023  0.06381236  0.69842137  1
  Na  Na3  1  0.22984493  0.94096040  0.48371919  1
  Na  Na4  1  0.22551206  0.36245539  0.13983997  1
  Na  Na5  1  0.77323848  0.75000000  0.07071236  1
  Na  Na6  1  0.22551206  0.86245539  0.36016003  1
  Na  Na7  1  0.77323848  0.25000000  0.42928764  1
  Na  Na8  1  0.23409159  0.25000000  0.35798618  1
  Na  Na9  1  0.23409159  0.75000000  0.14201382  1
  Na  Na10  1  0.75340977  0.56381236  0.30157863  1
  Na  Na11  1  0.22984493  0.05903960  0.01628081  1
  Na  Na12  1  0.22551206  0.13754461  0.13983997  1
  Na  Na13  1  0.24659023  0.93618764  0.80157863  1
  Na  Na14  1  0.77015507  0.05903960  0.51628081  1
  Na  Na15  1  0.76590841  0.75000000  0.64201382  1
  Na  Na16  1  0.22551206  0.63754461  0.36016003  1
  Na  Na17  1  0.77448794  0.36245539  0.63983997  1
  Na  Na18  1  0.75340977  0.43618764  0.19842137  1
  Na  Na19  1  0.22984493  0.55903960  0.48371919  1
  Na  Na20  1  0.75340977  0.93618764  0.30157863  1
  Na  Na21  1  0.76590841  0.25000000  0.85798618  1
  Na  Na22  1  0.77448794  0.63754461  0.86016003  1
  Na  Na23  1  0.22676152  0.25000000  0.92928764  1
  Na  Na24  1  0.24659023  0.43618764  0.69842137  1
  Na  Na25  1  0.77015507  0.44096040  0.51628081  1
  Na  Na26  1  0.77015507  0.94096040  0.98371919  1
  Na  Na27  1  0.22676152  0.75000000  0.57071236  1
  Na  Na28  1  0.24659023  0.56381236  0.80157863  1
  Na  Na29  1  0.75340977  0.06381236  0.19842137  1
  Na  Na30  1  0.77015507  0.55903960  0.98371919  1
  Na  Na31  1  0.22984493  0.44096040  0.01628081  1
  In  In32  1  0.49648496  0.75000000  0.76347002  1
  In  In33  1  0.50351504  0.25000000  0.23652998  1
  In  In34  1  0.46893713  0.93927211  0.60469921  1
  In  In35  1  0.50088219  0.25000000  0.54552517  1
  In  In36  1  0.22879274  0.41887488  0.28362523  1
  In  In37  1  0.22879274  0.58112512  0.21637477  1
  In  In38  1  0.22879274  0.08112512  0.28362523  1
  In  In39  1  0.77120726  0.58112512  0.71637477  1
  In  In40  1  0.49648496  0.25000000  0.73652998  1
  In  In41  1  0.22879274  0.91887488  0.21637477  1
  In  In42  1  0.77120726  0.41887488  0.78362523  1
  In  In43  1  0.53106287  0.06072789  0.39530079  1
  In  In44  1  0.50088219  0.75000000  0.95447483  1
  In  In45  1  0.46893713  0.43927211  0.89530079  1
  In  In46  1  0.77120726  0.08112512  0.78362523  1
  In  In47  1  0.53106287  0.43927211  0.39530079  1
  In  In48  1  0.50351504  0.75000000  0.26347002  1
  In  In49  1  0.46893713  0.56072789  0.60469921  1
  In  In50  1  0.77120726  0.91887488  0.71637477  1
  In  In51  1  0.53106287  0.93927211  0.10469921  1
  In  In52  1  0.49911781  0.25000000  0.04552517  1
  In  In53  1  0.53106287  0.56072789  0.10469921  1
  In  In54  1  0.46893713  0.06072789  0.89530079  1
  In  In55  1  0.49911781  0.75000000  0.45447483  1
  Au  Au56  1  0.26524208  0.65229082  0.03249085  1
  Au  Au57  1  0.03634676  0.44449395  0.38588177  1
  Au  Au58  1  0.96365324  0.55550605  0.61411823  1
  Au  Au59  1  0.73475792  0.15229082  0.96750915  1
  Au  Au60  1  0.74832408  0.59401309  0.42340885  1
  Au  Au61  1  0.72978698  0.64310081  0.18974210  1
  Au  Au62  1  0.25167592  0.90598691  0.92340885  1
  Au  Au63  1  0.01816326  0.75000000  0.26032652  1
  Au  Au64  1  0.72978698  0.14310081  0.31025790  1
  Au  Au65  1  0.97820313  0.75000000  0.95440490  1
  Au  Au66  1  0.27021302  0.35689919  0.81025790  1
  Au  Au67  1  0.97820313  0.25000000  0.54559510  1
  Au  Au68  1  0.03634676  0.05550605  0.38588177  1
  Au  Au69  1  0.74832408  0.09401309  0.07659115  1
  Au  Au70  1  0.73764524  0.75000000  0.35631868  1
  Au  Au71  1  0.26524208  0.84770918  0.03249085  1
  Au  Au72  1  0.25167592  0.09401309  0.57659115  1
  Au  Au73  1  0.72978698  0.85689919  0.18974210  1
  Au  Au74  1  0.25167592  0.59401309  0.92340885  1
  Au  Au75  1  0.03634676  0.55550605  0.11411823  1
  Au  Au76  1  0.73475792  0.65229082  0.53249085  1
  Au  Au77  1  0.02179687  0.25000000  0.04559510  1
  Au  Au78  1  0.74832408  0.90598691  0.42340885  1
  Au  Au79  1  0.03634676  0.94449395  0.11411823  1
  Au  Au80  1  0.96365324  0.44449395  0.88588177  1
  Au  Au81  1  0.27021302  0.64310081  0.68974210  1
  Au  Au82  1  0.02179687  0.75000000  0.45440490  1
  Au  Au83  1  0.73475792  0.34770918  0.96750915  1
  Au  Au84  1  0.26524208  0.15229082  0.46750915  1
  Au  Au85  1  0.98183674  0.25000000  0.73967348  1
  Au  Au86  1  0.26235476  0.75000000  0.85631868  1
  Au  Au87  1  0.26235476  0.25000000  0.64368132  1
  Au  Au88  1  0.96365324  0.05550605  0.88588177  1
  Au  Au89  1  0.98183674  0.75000000  0.76032652  1
  Au  Au90  1  0.74832408  0.40598691  0.07659115  1
  Au  Au91  1  0.25167592  0.40598691  0.57659115  1
  Au  Au92  1  0.26524208  0.34770918  0.46750915  1
  Au  Au93  1  0.73475792  0.84770918  0.53249085  1
  Au  Au94  1  0.73764524  0.25000000  0.14368132  1
  Au  Au95  1  0.27021302  0.14310081  0.81025790  1
  Au  Au96  1  0.96365324  0.94449395  0.61411823  1
  Au  Au97  1  0.72978698  0.35689919  0.31025790  1
  Au  Au98  1  0.27021302  0.85689919  0.68974210  1
  Au  Au99  1  0.01816326  0.25000000  0.23967348  1
