# generated using pymatgen
data_MgCu(SiO3)2
_symmetry_space_group_name_H-M   'P 1'
_cell_length_a   5.25840380
_cell_length_b   6.81388159
_cell_length_c   6.81388185
_cell_angle_alpha   85.32506570
_cell_angle_beta   74.76362038
_cell_angle_gamma   74.76362443
_symmetry_Int_Tables_number   1
_chemical_formula_structural   MgCu(SiO3)2
_chemical_formula_sum   'Mg2 Cu2 Si4 O12'
_cell_volume   227.26041851
_cell_formula_units_Z   2
loop_
 _symmetry_equiv_pos_site_id
 _symmetry_equiv_pos_as_xyz
  1  'x, y, z'
loop_
 _atom_site_type_symbol
 _atom_site_label
 _atom_site_symmetry_multiplicity
 _atom_site_fract_x
 _atom_site_fract_y
 _atom_site_fract_z
 _atom_site_occupancy
  Mg  Mg0  1  0.75000000  0.24426369  0.75573631  1
  Mg  Mg1  1  0.25000100  0.75573631  0.24426469  1
  Cu  Cu2  1  0.24999900  0.10851102  0.89148998  1
  Cu  Cu3  1  0.74999900  0.89149098  0.10851002  1
  Si  Si4  1  0.25453283  0.20424471  0.38278827  1
  Si  Si5  1  0.24546617  0.61721173  0.79575529  1
  Si  Si6  1  0.75453283  0.38278827  0.20424471  1
  Si  Si7  1  0.74546717  0.79575529  0.61721173  1
  O  O8  1  0.49999299  0.31608611  0.37399382  1
  O  O9  1  0.00000701  0.62600518  0.68391489  1
  O  O10  1  0.50000801  0.68391489  0.62600618  1
  O  O11  1  -0.00000801  0.37399482  0.31608511  1
  O  O12  1  0.13344327  0.13371606  0.61255109  1
  O  O13  1  0.36655673  0.38744791  0.86628294  1
  O  O14  1  0.86655673  0.86628394  0.38744891  1
  O  O15  1  0.63344227  0.61255109  0.13371706  1
  O  O16  1  0.86754679  0.21626245  0.01904587  1
  O  O17  1  0.63245321  0.98095413  0.78373655  1
  O  O18  1  0.36754579  0.01904587  0.21626345  1
  O  O19  1  0.13245421  0.78373755  0.98095413  1
