# generated using pymatgen
data_Nd5Si3
_symmetry_space_group_name_H-M   'P 1'
_cell_length_a   7.81886637
_cell_length_b   7.81886637
_cell_length_c   8.89554780
_cell_angle_alpha   116.07083566
_cell_angle_beta   116.07083566
_cell_angle_gamma   90.00000000
_symmetry_Int_Tables_number   1
_chemical_formula_structural   Nd5Si3
_chemical_formula_sum   'Nd10 Si6'
_cell_volume   426.03205913
_cell_formula_units_Z   2
loop_
 _symmetry_equiv_pos_site_id
 _symmetry_equiv_pos_as_xyz
  1  'x, y, z'
loop_
 _atom_site_type_symbol
 _atom_site_label
 _atom_site_symmetry_multiplicity
 _atom_site_fract_x
 _atom_site_fract_y
 _atom_site_fract_z
 _atom_site_occupancy
  Nd  Nd0  1  0.50000000  0.50000000  -0.00000000  1
  Nd  Nd1  1  -0.00000000  -0.00000000  0.00000000  1
  Nd  Nd2  1  0.96845241  0.82298887  0.29144128  1
  Nd  Nd3  1  0.32298887  0.46845241  0.29144128  1
  Nd  Nd4  1  0.82298887  0.32298887  0.29144128  1
  Nd  Nd5  1  0.46845241  0.96845241  0.29144128  1
  Nd  Nd6  1  0.03154759  0.17701113  0.70855872  1
  Nd  Nd7  1  0.67701113  0.53154759  0.70855872  1
  Nd  Nd8  1  0.17701113  0.67701113  0.70855872  1
  Nd  Nd9  1  0.53154759  0.03154759  0.70855872  1
  Si  Si10  1  0.75000000  0.75000000  0.50000000  1
  Si  Si11  1  0.25000000  0.25000000  0.50000000  1
  Si  Si12  1  0.61533182  0.88466818  0.00000000  1
  Si  Si13  1  0.38466818  0.11533182  -0.00000000  1
  Si  Si14  1  0.88466818  0.38466818  0.00000000  1
  Si  Si15  1  0.11533182  0.61533182  -0.00000000  1
