# generated using pymatgen
data_UNiH14O9F4
_symmetry_space_group_name_H-M   'P 1'
_cell_length_a   9.45578297
_cell_length_b   10.15794665
_cell_length_c   12.21327380
_cell_angle_alpha   96.84536274
_cell_angle_beta   90.00000000
_cell_angle_gamma   90.00000000
_symmetry_Int_Tables_number   1
_chemical_formula_structural   UNiH14O9F4
_chemical_formula_sum   'U4 Ni4 H56 O36 F16'
_cell_volume   1164.73879357
_cell_formula_units_Z   4
loop_
 _symmetry_equiv_pos_site_id
 _symmetry_equiv_pos_as_xyz
  1  'x, y, z'
loop_
 _atom_site_type_symbol
 _atom_site_label
 _atom_site_symmetry_multiplicity
 _atom_site_fract_x
 _atom_site_fract_y
 _atom_site_fract_z
 _atom_site_occupancy
  U  U0  1  0.33899543  0.13029620  0.49481978  1
  U  U1  1  0.66100457  0.86970380  0.50518022  1
  U  U2  1  0.16100457  0.13029620  0.99481978  1
  U  U3  1  0.83899543  0.86970380  0.00518022  1
  Ni  Ni4  1  0.81695790  0.37238379  0.69890434  1
  Ni  Ni5  1  0.31695790  0.62761621  0.80109566  1
  Ni  Ni6  1  0.68304210  0.37238379  0.19890434  1
  Ni  Ni7  1  0.18304210  0.62761621  0.30109566  1
  H  H8  1  0.94607969  0.50108608  0.32876404  1
  H  H9  1  0.16263446  0.75586135  0.51065043  1
  H  H10  1  0.67837588  0.60711147  0.71371868  1
  H  H11  1  0.14475826  0.88725151  0.32316894  1
  H  H12  1  0.45945281  0.66876517  0.31532636  1
  H  H13  1  0.61706298  0.53474573  0.38778568  1
  H  H14  1  0.35524174  0.88725151  0.82316894  1
  H  H15  1  0.45541017  0.82448437  0.72671882  1
  H  H16  1  0.18873825  0.76621301  0.95755038  1
  H  H17  1  0.33736554  0.75586135  0.01065043  1
  H  H18  1  0.83736554  0.24413865  0.48934957  1
  H  H19  1  0.34712632  0.92644840  0.14443431  1
  H  H20  1  0.39992325  0.61412633  0.59051006  1
  H  H21  1  0.59663999  0.26604110  0.79028441  1
  H  H22  1  0.49512093  0.10482455  0.89152997  1
  H  H23  1  0.60007675  0.38587367  0.40948994  1
  H  H24  1  0.68873825  0.23378699  0.54244962  1
  H  H25  1  0.92448117  0.63914568  0.40732810  1
  H  H26  1  0.88293702  0.53474573  0.88778568  1
  H  H27  1  0.54458983  0.17551563  0.27328118  1
  H  H28  1  0.64475826  0.11274849  0.17683106  1
  H  H29  1  0.57551883  0.63914568  0.90732810  1
  H  H30  1  0.95541017  0.17551563  0.77328118  1
  H  H31  1  0.00487907  0.10482455  0.39152997  1
  H  H32  1  0.31126175  0.76621301  0.45755038  1
  H  H33  1  0.05392031  0.49891392  0.67123596  1
  H  H34  1  0.85524174  0.11274849  0.67683106  1
  H  H35  1  0.11706298  0.46525427  0.11221432  1
  H  H36  1  0.81126175  0.23378699  0.04244962  1
  H  H37  1  0.90336001  0.26604110  0.29028441  1
  H  H38  1  0.10007675  0.61412633  0.09051006  1
  H  H39  1  0.78070139  0.61328905  0.60932719  1
  H  H40  1  0.95945281  0.33123483  0.18467364  1
  H  H41  1  0.07551883  0.36085432  0.59267190  1
  H  H42  1  0.04458983  0.82448437  0.22671882  1
  H  H43  1  0.04054719  0.66876517  0.81532636  1
  H  H44  1  0.50487907  0.89517545  0.10847003  1
  H  H45  1  0.55392031  0.50108608  0.82876404  1
  H  H46  1  0.21929861  0.38671095  0.39067281  1
  H  H47  1  0.09663999  0.73395890  0.70971559  1
  H  H48  1  0.65287368  0.07355160  0.85556569  1
  H  H49  1  0.99512093  0.89517545  0.60847003  1
  H  H50  1  0.15287368  0.92644840  0.64443431  1
  H  H51  1  0.44607969  0.49891392  0.17123596  1
  H  H52  1  0.17837588  0.39288853  0.78628132  1
  H  H53  1  0.40336001  0.73395890  0.20971559  1
  H  H54  1  0.66263446  0.24413865  0.98934957  1
  H  H55  1  0.32162412  0.39288853  0.28628132  1
  H  H56  1  0.54054719  0.33123483  0.68467364  1
  H  H57  1  0.84712632  0.07355160  0.35556569  1
  H  H58  1  0.89992325  0.38587367  0.90948994  1
  H  H59  1  0.28070139  0.38671095  0.89067281  1
  H  H60  1  0.38293702  0.46525427  0.61221432  1
  H  H61  1  0.42448117  0.36085432  0.09267190  1
  H  H62  1  0.82162412  0.60711147  0.21371868  1
  H  H63  1  0.71929861  0.61328905  0.10932719  1
  O  O64  1  0.63787252  0.18514204  0.23857949  1
  O  O65  1  0.76854395  0.29538134  0.53933100  1
  O  O66  1  0.85282115  0.44262220  0.86205115  1
  O  O67  1  0.90217976  0.83456336  0.13986125  1
  O  O68  1  0.22038102  0.08972723  0.12834264  1
  O  O69  1  0.97067932  0.59666204  0.33887905  1
  O  O70  1  0.91397822  0.14655804  0.37435241  1
  O  O71  1  0.08602178  0.85344196  0.62564759  1
  O  O72  1  0.39545306  0.65431536  0.25054955  1
  O  O73  1  0.23145605  0.70461866  0.46066900  1
  O  O74  1  0.59782024  0.83456336  0.63986125  1
  O  O75  1  0.75578408  0.56255785  0.67096025  1
  O  O76  1  0.52932068  0.59666204  0.83887905  1
  O  O77  1  0.86212748  0.18514204  0.73857949  1
  O  O78  1  0.47067932  0.40333796  0.16112095  1
  O  O79  1  0.77961898  0.91027277  0.87165736  1
  O  O80  1  0.40217976  0.16543664  0.36013875  1
  O  O81  1  0.73145605  0.29538134  0.03933100  1
  O  O82  1  0.74421592  0.56255785  0.17096025  1
  O  O83  1  0.58602178  0.14655804  0.87435241  1
  O  O84  1  0.35282115  0.55737780  0.63794885  1
  O  O85  1  0.14717885  0.55737780  0.13794885  1
  O  O86  1  0.64717885  0.44262220  0.36205115  1
  O  O87  1  0.24421592  0.43744215  0.32903975  1
  O  O88  1  0.60454694  0.34568464  0.74945045  1
  O  O89  1  0.02932068  0.40333796  0.66112095  1
  O  O90  1  0.27961898  0.08972723  0.62834264  1
  O  O91  1  0.36212748  0.81485796  0.76142051  1
  O  O92  1  0.41397822  0.85344196  0.12564759  1
  O  O93  1  0.72038102  0.91027277  0.37165736  1
  O  O94  1  0.09782024  0.16543664  0.86013875  1
  O  O95  1  0.25578408  0.43744215  0.82903975  1
  O  O96  1  0.89545306  0.34568464  0.24945045  1
  O  O97  1  0.26854395  0.70461866  0.96066900  1
  O  O98  1  0.10454694  0.65431536  0.75054955  1
  O  O99  1  0.13787252  0.81485796  0.26142051  1
  F  F100  1  0.17267624  0.29151939  0.48870779  1
  F  F101  1  0.84584498  0.98110778  0.58463680  1
  F  F102  1  0.41907614  0.90778818  0.45673557  1
  F  F103  1  0.05254927  0.32323609  0.06941045  1
  F  F104  1  0.94745073  0.67676391  0.93058955  1
  F  F105  1  0.67267624  0.70848061  0.01129221  1
  F  F106  1  0.82732376  0.70848061  0.51129221  1
  F  F107  1  0.34584498  0.01889222  0.91536320  1
  F  F108  1  0.32732376  0.29151939  0.98870779  1
  F  F109  1  0.91907614  0.09221182  0.04326443  1
  F  F110  1  0.15415502  0.01889222  0.41536320  1
  F  F111  1  0.55254927  0.67676391  0.43058955  1
  F  F112  1  0.08092386  0.90778818  0.95673557  1
  F  F113  1  0.58092386  0.09221182  0.54326443  1
  F  F114  1  0.44745073  0.32323609  0.56941045  1
  F  F115  1  0.65415502  0.98110778  0.08463680  1
