# generated using pymatgen
data_TbB4
_symmetry_space_group_name_H-M   'P 1'
_cell_length_a   4.03146294
_cell_length_b   7.11916602
_cell_length_c   7.11916602
_cell_angle_alpha   90.00000000
_cell_angle_beta   90.00000000
_cell_angle_gamma   90.00000000
_symmetry_Int_Tables_number   1
_chemical_formula_structural   TbB4
_chemical_formula_sum   'Tb4 B16'
_cell_volume   204.32472052
_cell_formula_units_Z   4
loop_
 _symmetry_equiv_pos_site_id
 _symmetry_equiv_pos_as_xyz
  1  'x, y, z'
loop_
 _atom_site_type_symbol
 _atom_site_label
 _atom_site_symmetry_multiplicity
 _atom_site_fract_x
 _atom_site_fract_y
 _atom_site_fract_z
 _atom_site_occupancy
  Tb  Tb0  1  0.00000000  0.31762042  0.81762042  1
  Tb  Tb1  1  0.00000000  0.18237958  0.31762042  1
  Tb  Tb2  1  0.00000000  0.81762042  0.68237958  1
  Tb  Tb3  1  0.00000000  0.68237958  0.18237958  1
  B  B4  1  0.50000000  0.32420738  0.53891050  1
  B  B5  1  0.50000000  0.03891050  0.82420738  1
  B  B6  1  0.50000000  0.17579262  0.03891050  1
  B  B7  1  0.50000000  0.46108950  0.32420738  1
  B  B8  1  0.50000000  0.53891050  0.67579262  1
  B  B9  1  0.79678901  0.50000000  0.50000000  1
  B  B10  1  0.50000000  0.82420738  0.96108950  1
  B  B11  1  0.50000000  0.08722187  0.58722187  1
  B  B12  1  0.50000000  0.91277813  0.41277813  1
  B  B13  1  0.50000000  0.41277813  0.08722187  1
  B  B14  1  0.50000000  0.67579262  0.46108950  1
  B  B15  1  0.50000000  0.96108950  0.17579262  1
  B  B16  1  0.79678901  0.00000000  0.00000000  1
  B  B17  1  0.20321099  0.50000000  0.50000000  1
  B  B18  1  0.50000000  0.58722187  0.91277813  1
  B  B19  1  0.20321099  0.00000000  0.00000000  1
