# generated using pymatgen
data_Ca2In4Au3
_symmetry_space_group_name_H-M   'P 1'
_cell_length_a   4.50697433
_cell_length_b   12.98678812
_cell_length_c   14.95547978
_cell_angle_alpha   90.00000000
_cell_angle_beta   90.00000000
_cell_angle_gamma   90.00000000
_symmetry_Int_Tables_number   1
_chemical_formula_structural   Ca2In4Au3
_chemical_formula_sum   'Ca8 In16 Au12'
_cell_volume   875.36099192
_cell_formula_units_Z   4
loop_
 _symmetry_equiv_pos_site_id
 _symmetry_equiv_pos_as_xyz
  1  'x, y, z'
loop_
 _atom_site_type_symbol
 _atom_site_label
 _atom_site_symmetry_multiplicity
 _atom_site_fract_x
 _atom_site_fract_y
 _atom_site_fract_z
 _atom_site_occupancy
  Ca  Ca0  1  0.75000000  0.21312050  0.51950082  1
  Ca  Ca1  1  0.75000000  0.41578432  0.29098854  1
  Ca  Ca2  1  0.25000000  0.78687950  0.48049918  1
  Ca  Ca3  1  0.25000000  0.71312050  0.98049918  1
  Ca  Ca4  1  0.75000000  0.28687950  0.01950082  1
  Ca  Ca5  1  0.25000000  0.58421568  0.70901146  1
  Ca  Ca6  1  0.75000000  0.08421568  0.79098854  1
  Ca  Ca7  1  0.25000000  0.91578432  0.20901146  1
  In  In8  1  0.75000000  0.71634631  0.31948746  1
  In  In9  1  0.25000000  0.21634631  0.18051254  1
  In  In10  1  0.75000000  0.36943957  0.80418928  1
  In  In11  1  0.25000000  0.41330709  0.49541099  1
  In  In12  1  0.75000000  0.96022351  0.57114012  1
  In  In13  1  0.75000000  0.78365369  0.81948746  1
  In  In14  1  0.25000000  0.28365369  0.68051254  1
  In  In15  1  0.75000000  0.53977649  0.07114012  1
  In  In16  1  0.75000000  0.58669291  0.50458901  1
  In  In17  1  0.25000000  0.03977649  0.42885988  1
  In  In18  1  0.75000000  0.91330709  0.00458901  1
  In  In19  1  0.25000000  0.63056043  0.19581072  1
  In  In20  1  0.25000000  0.46022351  0.92885988  1
  In  In21  1  0.75000000  0.13056043  0.30418928  1
  In  In22  1  0.25000000  0.08669291  0.99541099  1
  In  In23  1  0.25000000  0.86943957  0.69581072  1
  Au  Au24  1  0.75000000  0.75391705  0.12914024  1
  Au  Au25  1  0.75000000  0.92004630  0.37441889  1
  Au  Au26  1  0.25000000  0.07995370  0.62558111  1
  Au  Au27  1  0.75000000  0.74608295  0.62914024  1
  Au  Au28  1  0.75000000  0.57995370  0.87441889  1
  Au  Au29  1  0.25000000  0.91750954  0.87786705  1
  Au  Au30  1  0.75000000  0.41750954  0.62213295  1
  Au  Au31  1  0.25000000  0.24608295  0.87085976  1
  Au  Au32  1  0.25000000  0.58249046  0.37786705  1
  Au  Au33  1  0.25000000  0.25391705  0.37085976  1
  Au  Au34  1  0.75000000  0.08249046  0.12213295  1
  Au  Au35  1  0.25000000  0.42004630  0.12558111  1
