# generated using pymatgen
data_Tl4SnS4
_symmetry_space_group_name_H-M   'P 1'
_cell_length_a   8.47328106
_cell_length_b   8.54768073
_cell_length_c   16.01446231
_cell_angle_alpha   105.00488930
_cell_angle_beta   90.00000000
_cell_angle_gamma   90.00000000
_symmetry_Int_Tables_number   1
_chemical_formula_structural   Tl4SnS4
_chemical_formula_sum   'Tl16 Sn4 S16'
_cell_volume   1120.33037906
_cell_formula_units_Z   4
loop_
 _symmetry_equiv_pos_site_id
 _symmetry_equiv_pos_as_xyz
  1  'x, y, z'
loop_
 _atom_site_type_symbol
 _atom_site_label
 _atom_site_symmetry_multiplicity
 _atom_site_fract_x
 _atom_site_fract_y
 _atom_site_fract_z
 _atom_site_occupancy
  S  S0  1  0.17260153  0.55611407  0.21326887  1
  S  S1  1  0.67260153  0.44388593  0.28673113  1
  S  S2  1  0.82739847  0.44388593  0.78673113  1
  S  S3  1  0.32739847  0.55611407  0.71326887  1
  S  S4  1  0.65186630  0.80679179  0.96389383  1
  S  S5  1  0.15186630  0.19320821  0.53610617  1
  S  S6  1  0.34813370  0.19320821  0.03610617  1
  S  S7  1  0.84813370  0.80679179  0.46389383  1
  S  S8  1  0.55620768  0.90012814  0.29134102  1
  S  S9  1  0.05620768  0.09987186  0.20865898  1
  S  S10  1  0.44379232  0.09987186  0.70865898  1
  S  S11  1  0.94379232  0.90012814  0.79134102  1
  S  S12  1  0.61496832  0.31251972  0.53560787  1
  S  S13  1  0.11496832  0.68748028  0.96439213  1
  S  S14  1  0.38503168  0.68748028  0.46439213  1
  S  S15  1  0.88503168  0.31251972  0.03560787  1
  Sn  Sn16  1  0.88437460  0.71337070  0.87810778  1
  Sn  Sn17  1  0.38437460  0.28662930  0.62189222  1
  Sn  Sn18  1  0.11562540  0.28662930  0.12189222  1
  Sn  Sn19  1  0.61562540  0.71337070  0.37810778  1
  Tl  Tl20  1  0.21577402  0.89970139  0.36006262  1
  Tl  Tl21  1  0.71577402  0.10029861  0.13993738  1
  Tl  Tl22  1  0.78422598  0.10029861  0.63993738  1
  Tl  Tl23  1  0.28422598  0.89970139  0.86006262  1
  Tl  Tl24  1  0.82189835  0.10341693  0.38992307  1
  Tl  Tl25  1  0.32189835  0.89658307  0.11007693  1
  Tl  Tl26  1  0.17810165  0.89658307  0.61007693  1
  Tl  Tl27  1  0.67810165  0.10341693  0.88992307  1
  Tl  Tl28  1  0.39966851  0.31661303  0.37783792  1
  Tl  Tl29  1  0.89966851  0.68338697  0.12216208  1
  Tl  Tl30  1  0.60033149  0.68338697  0.62216208  1
  Tl  Tl31  1  0.10033149  0.31661303  0.87783792  1
  Tl  Tl32  1  0.00552190  0.47405758  0.36692939  1
  Tl  Tl33  1  0.50552190  0.52594242  0.13307061  1
  Tl  Tl34  1  0.99447810  0.52594242  0.63307061  1
  Tl  Tl35  1  0.49447810  0.47405758  0.86692939  1
