# generated using pymatgen
data_Cs7Fe4F15
_symmetry_space_group_name_H-M   'P 1'
_cell_length_a   7.96583591
_cell_length_b   11.30437483
_cell_length_c   12.00457332
_cell_angle_alpha   90.00000000
_cell_angle_beta   91.69233434
_cell_angle_gamma   90.00000000
_symmetry_Int_Tables_number   1
_chemical_formula_structural   Cs7Fe4F15
_chemical_formula_sum   'Cs14 Fe8 F30'
_cell_volume   1080.52585250
_cell_formula_units_Z   2
loop_
 _symmetry_equiv_pos_site_id
 _symmetry_equiv_pos_as_xyz
  1  'x, y, z'
loop_
 _atom_site_type_symbol
 _atom_site_label
 _atom_site_symmetry_multiplicity
 _atom_site_fract_x
 _atom_site_fract_y
 _atom_site_fract_z
 _atom_site_occupancy
  Cs  Cs0  1  0.50173356  0.68117929  0.46991024  1
  Cs  Cs1  1  0.15668149  0.34695473  0.80312888  1
  Cs  Cs2  1  0.49826644  0.18117929  0.03008976  1
  Cs  Cs3  1  0.32783633  0.00214714  0.66611335  1
  Cs  Cs4  1  0.00000000  0.00000000  0.00000000  1
  Cs  Cs5  1  0.84331851  0.84695473  0.69687112  1
  Cs  Cs6  1  0.32783633  0.49785286  0.16611335  1
  Cs  Cs7  1  0.67216367  0.50214714  0.83388665  1
  Cs  Cs8  1  0.49826644  0.31882071  0.53008976  1
  Cs  Cs9  1  0.50173356  0.81882071  0.96991024  1
  Cs  Cs10  1  0.00000000  0.50000000  0.50000000  1
  Cs  Cs11  1  0.15668149  0.15304527  0.30312888  1
  Cs  Cs12  1  0.67216367  0.99785286  0.33388665  1
  Cs  Cs13  1  0.84331851  0.65304527  0.19687112  1
  Fe  Fe14  1  0.26365389  0.82790139  0.22527960  1
  Fe  Fe15  1  0.07775925  0.66256295  0.92833735  1
  Fe  Fe16  1  0.73634611  0.17209861  0.77472040  1
  Fe  Fe17  1  0.92224075  0.16256295  0.57166265  1
  Fe  Fe18  1  0.07775925  0.83743705  0.42833735  1
  Fe  Fe19  1  0.73634611  0.32790139  0.27472040  1
  Fe  Fe20  1  0.26365389  0.67209861  0.72527960  1
  Fe  Fe21  1  0.92224075  0.33743705  0.07166265  1
  F  F22  1  0.67114628  0.02340131  0.85999231  1
  F  F23  1  0.02120205  0.60054057  0.75621105  1
  F  F24  1  0.17347529  0.76599311  0.58136001  1
  F  F25  1  0.17347529  0.73400689  0.08136001  1
  F  F26  1  0.49438440  0.74959147  0.72174956  1
  F  F27  1  0.82168668  0.31201487  0.66742804  1
  F  F28  1  0.50561560  0.24959147  0.77825044  1
  F  F29  1  0.17831332  0.68798513  0.33257196  1
  F  F30  1  0.68724188  0.40853118  0.10504399  1
  F  F31  1  0.82652471  0.23400689  0.41863999  1
  F  F32  1  0.49438440  0.75040853  0.22174956  1
  F  F33  1  0.97879795  0.10054057  0.74378895  1
  F  F34  1  0.82168668  0.18798513  0.16742804  1
  F  F35  1  0.68724188  0.09146882  0.60504399  1
  F  F36  1  0.14784297  0.26295020  0.05692561  1
  F  F37  1  0.85215703  0.73704980  0.94307439  1
  F  F38  1  0.32885372  0.52340131  0.64000769  1
  F  F39  1  0.32885372  0.97659869  0.14000769  1
  F  F40  1  0.31275812  0.90853118  0.39495601  1
  F  F41  1  0.14784297  0.23704980  0.55692561  1
  F  F42  1  0.50561560  0.25040853  0.27825044  1
  F  F43  1  0.02120205  0.89945943  0.25621105  1
  F  F44  1  0.82652471  0.26599311  0.91863999  1
  F  F45  1  0.85215703  0.76295020  0.44307439  1
  F  F46  1  0.97879795  0.39945943  0.24378895  1
  F  F47  1  0.17831332  0.81201487  0.83257196  1
  F  F48  1  0.67114628  0.47659869  0.35999231  1
  F  F49  1  0.31275812  0.59146882  0.89495601  1
  F  F50  1  0.00000000  0.00000000  0.50000000  1
  F  F51  1  0.00000000  0.50000000  0.00000000  1
