# generated using pymatgen
data_Zn(HO)2
_symmetry_space_group_name_H-M   'P 1'
_cell_length_a   4.87176463
_cell_length_b   8.75225514
_cell_length_c   5.06348099
_cell_angle_alpha   90.00000000
_cell_angle_beta   90.00000000
_cell_angle_gamma   90.00000000
_symmetry_Int_Tables_number   1
_chemical_formula_structural   Zn(HO)2
_chemical_formula_sum   'Zn4 H8 O8'
_cell_volume   215.90139642
_cell_formula_units_Z   4
loop_
 _symmetry_equiv_pos_site_id
 _symmetry_equiv_pos_as_xyz
  1  'x, y, z'
loop_
 _atom_site_type_symbol
 _atom_site_label
 _atom_site_symmetry_multiplicity
 _atom_site_fract_x
 _atom_site_fract_y
 _atom_site_fract_z
 _atom_site_occupancy
  Zn  Zn0  1  0.68242986  0.62660996  0.10777445  1
  Zn  Zn1  1  0.81757014  0.37339004  0.60777445  1
  Zn  Zn2  1  0.18242986  0.87339004  0.89222555  1
  Zn  Zn3  1  0.31757014  0.12660996  0.39222555  1
  H  H4  1  0.49259068  0.59164278  0.57478497  1
  H  H5  1  0.00740932  0.40835722  0.07478497  1
  H  H6  1  0.99259068  0.90835722  0.42521503  1
  H  H7  1  0.50740932  0.09164278  0.92521503  1
  H  H8  1  0.71908088  0.90271741  0.10805963  1
  H  H9  1  0.78091912  0.09728259  0.60805963  1
  H  H10  1  0.21908088  0.59728259  0.89194037  1
  H  H11  1  0.28091912  0.40271741  0.39194037  1
  O  O12  1  0.56171369  0.52103855  0.43388659  1
  O  O13  1  0.93828631  0.47896145  0.93388659  1
  O  O14  1  0.06171369  0.97896145  0.56611341  1
  O  O15  1  0.43828631  0.02103855  0.06611341  1
  O  O16  1  0.87086882  0.82711640  0.13822660  1
  O  O17  1  0.62913118  0.17288360  0.63822660  1
  O  O18  1  0.37086882  0.67288360  0.86177340  1
  O  O19  1  0.12913118  0.32711640  0.36177340  1
