# generated using pymatgen
data_Tl2Hg2PdCl8
_symmetry_space_group_name_H-M   'P 1'
_cell_length_a   6.75955605
_cell_length_b   6.75955714
_cell_length_c   10.14974151
_cell_angle_alpha   73.79611002
_cell_angle_beta   73.79610717
_cell_angle_gamma   61.96265081
_symmetry_Int_Tables_number   1
_chemical_formula_structural   Tl2Hg2PdCl8
_chemical_formula_sum   'Tl2 Hg2 Pd1 Cl8'
_cell_volume   387.04162711
_cell_formula_units_Z   1
loop_
 _symmetry_equiv_pos_site_id
 _symmetry_equiv_pos_as_xyz
  1  'x, y, z'
loop_
 _atom_site_type_symbol
 _atom_site_label
 _atom_site_symmetry_multiplicity
 _atom_site_fract_x
 _atom_site_fract_y
 _atom_site_fract_z
 _atom_site_occupancy
  Tl  Tl0  1  0.39663570  0.39663570  0.84178509  1
  Tl  Tl1  1  0.60336430  0.60336430  0.15821491  1
  Hg  Hg2  1  0.13397119  0.13397119  0.59975109  1
  Hg  Hg3  1  0.86602881  0.86602881  0.40024891  1
  Pd  Pd4  1  0.00000000  0.00000000  0.00000000  1
  Cl  Cl5  1  0.89812178  0.36938728  0.87406080  1
  Cl  Cl6  1  0.36938728  0.89812178  0.87406080  1
  Cl  Cl7  1  0.34690685  0.34690685  0.49829747  1
  Cl  Cl8  1  0.10187822  0.63061272  0.12593920  1
  Cl  Cl9  1  0.92009441  0.92009441  0.69143639  1
  Cl  Cl10  1  0.65309315  0.65309315  0.50170253  1
  Cl  Cl11  1  0.63061272  0.10187822  0.12593920  1
  Cl  Cl12  1  0.07990559  0.07990559  0.30856361  1
