# generated using pymatgen
data_BaSr2(PN2)6
_symmetry_space_group_name_H-M   'P 1'
_cell_length_a   10.15848413
_cell_length_b   10.15848413
_cell_length_c   10.15848413
_cell_angle_alpha   90.00000000
_cell_angle_beta   90.00000000
_cell_angle_gamma   90.00000000
_symmetry_Int_Tables_number   1
_chemical_formula_structural   BaSr2(PN2)6
_chemical_formula_sum   'Ba4 Sr8 P24 N48'
_cell_volume   1048.30273626
_cell_formula_units_Z   4
loop_
 _symmetry_equiv_pos_site_id
 _symmetry_equiv_pos_as_xyz
  1  'x, y, z'
loop_
 _atom_site_type_symbol
 _atom_site_label
 _atom_site_symmetry_multiplicity
 _atom_site_fract_x
 _atom_site_fract_y
 _atom_site_fract_z
 _atom_site_occupancy
  Ba  Ba0  1  0.50000000  0.00000000  0.50000000  1
  Ba  Ba1  1  0.00000000  0.50000000  0.50000000  1
  Ba  Ba2  1  0.00000000  0.00000000  0.00000000  1
  Ba  Ba3  1  0.50000000  0.50000000  0.00000000  1
  Sr  Sr4  1  0.12849013  0.87150987  0.37150987  1
  Sr  Sr5  1  0.37150987  0.12849013  0.87150987  1
  Sr  Sr6  1  0.37150987  0.37150987  0.37150987  1
  Sr  Sr7  1  0.12849013  0.62849013  0.87150987  1
  Sr  Sr8  1  0.62849013  0.62849013  0.62849013  1
  Sr  Sr9  1  0.87150987  0.37150987  0.12849013  1
  Sr  Sr10  1  0.87150987  0.12849013  0.62849013  1
  Sr  Sr11  1  0.62849013  0.87150987  0.12849013  1
  P  P12  1  0.83996234  0.38677808  0.81282900  1
  P  P13  1  0.81282900  0.66003766  0.88677808  1
  P  P14  1  0.16003766  0.88677808  0.68717100  1
  P  P15  1  0.88677808  0.81282900  0.66003766  1
  P  P16  1  0.33996234  0.38677808  0.68717100  1
  P  P17  1  0.18717100  0.16003766  0.61322192  1
  P  P18  1  0.81282900  0.83996234  0.38677808  1
  P  P19  1  0.38677808  0.81282900  0.83996234  1
  P  P20  1  0.11322192  0.18717100  0.33996234  1
  P  P21  1  0.61322192  0.18717100  0.16003766  1
  P  P22  1  0.61322192  0.31282900  0.66003766  1
  P  P23  1  0.38677808  0.68717100  0.33996234  1
  P  P24  1  0.68717100  0.33996234  0.38677808  1
  P  P25  1  0.18717100  0.33996234  0.11322192  1
  P  P26  1  0.33996234  0.11322192  0.18717100  1
  P  P27  1  0.66003766  0.61322192  0.31282900  1
  P  P28  1  0.11322192  0.31282900  0.83996234  1
  P  P29  1  0.16003766  0.61322192  0.18717100  1
  P  P30  1  0.83996234  0.11322192  0.31282900  1
  P  P31  1  0.66003766  0.88677808  0.81282900  1
  P  P32  1  0.31282900  0.66003766  0.61322192  1
  P  P33  1  0.68717100  0.16003766  0.88677808  1
  P  P34  1  0.31282900  0.83996234  0.11322192  1
  P  P35  1  0.88677808  0.68717100  0.16003766  1
  N  N36  1  0.82736562  0.24108437  0.88478617  1
  N  N37  1  0.11521383  0.32736562  0.25891563  1
  N  N38  1  0.67263438  0.75891563  0.38478617  1
  N  N39  1  0.00202086  0.91080997  0.71763066  1
  N  N40  1  0.71763066  0.00202086  0.91080997  1
  N  N41  1  0.25891563  0.38478617  0.82736562  1
  N  N42  1  0.41080997  0.78236934  0.99797914  1
  N  N43  1  0.99797914  0.08919003  0.28236934  1
  N  N44  1  0.58919003  0.21763066  0.00202086  1
  N  N45  1  0.61521383  0.32736562  0.24108437  1
  N  N46  1  0.17263438  0.74108437  0.61521383  1
  N  N47  1  0.08919003  0.28236934  0.99797914  1
  N  N48  1  0.74108437  0.61521383  0.17263438  1
  N  N49  1  0.25891563  0.11521383  0.32736562  1
  N  N50  1  0.91080997  0.78236934  0.50202086  1
  N  N51  1  0.32736562  0.24108437  0.61521383  1
  N  N52  1  0.82736562  0.25891563  0.38478617  1
  N  N53  1  0.00202086  0.58919003  0.21763066  1
  N  N54  1  0.75891563  0.38478617  0.67263438  1
  N  N55  1  0.74108437  0.88478617  0.67263438  1
  N  N56  1  0.99797914  0.41080997  0.78236934  1
  N  N57  1  0.28236934  0.99797914  0.08919003  1
  N  N58  1  0.17263438  0.75891563  0.11521383  1
  N  N59  1  0.49797914  0.08919003  0.21763066  1
  N  N60  1  0.24108437  0.61521383  0.32736562  1
  N  N61  1  0.71763066  0.49797914  0.41080997  1
  N  N62  1  0.58919003  0.28236934  0.50202086  1
  N  N63  1  0.28236934  0.50202086  0.58919003  1
  N  N64  1  0.91080997  0.71763066  0.00202086  1
  N  N65  1  0.88478617  0.67263438  0.74108437  1
  N  N66  1  0.75891563  0.11521383  0.17263438  1
  N  N67  1  0.21763066  0.49797914  0.08919003  1
  N  N68  1  0.21763066  0.00202086  0.58919003  1
  N  N69  1  0.67263438  0.74108437  0.88478617  1
  N  N70  1  0.78236934  0.99797914  0.41080997  1
  N  N71  1  0.50202086  0.58919003  0.28236934  1
  N  N72  1  0.61521383  0.17263438  0.74108437  1
  N  N73  1  0.32736562  0.25891563  0.11521383  1
  N  N74  1  0.78236934  0.50202086  0.91080997  1
  N  N75  1  0.49797914  0.41080997  0.71763066  1
  N  N76  1  0.38478617  0.82736562  0.25891563  1
  N  N77  1  0.88478617  0.82736562  0.24108437  1
  N  N78  1  0.08919003  0.21763066  0.49797914  1
  N  N79  1  0.11521383  0.17263438  0.75891563  1
  N  N80  1  0.38478617  0.67263438  0.75891563  1
  N  N81  1  0.24108437  0.88478617  0.82736562  1
  N  N82  1  0.50202086  0.91080997  0.78236934  1
  N  N83  1  0.41080997  0.71763066  0.49797914  1
