# generated using pymatgen
data_Cu3BiSe2BrO8
_symmetry_space_group_name_H-M   'P 1'
_cell_length_a   6.44740539
_cell_length_b   7.36530752
_cell_length_c   9.78638091
_cell_angle_alpha   90.00000000
_cell_angle_beta   90.00000000
_cell_angle_gamma   90.00000000
_symmetry_Int_Tables_number   1
_chemical_formula_structural   Cu3BiSe2BrO8
_chemical_formula_sum   'Cu6 Bi2 Se4 Br2 O16'
_cell_volume   464.72707795
_cell_formula_units_Z   2
loop_
 _symmetry_equiv_pos_site_id
 _symmetry_equiv_pos_as_xyz
  1  'x, y, z'
loop_
 _atom_site_type_symbol
 _atom_site_label
 _atom_site_symmetry_multiplicity
 _atom_site_fract_x
 _atom_site_fract_y
 _atom_site_fract_z
 _atom_site_occupancy
  Cu  Cu0  1  0.00000000  0.00000000  0.00000000  1
  Cu  Cu1  1  0.00000000  0.00000000  0.50000000  1
  Cu  Cu2  1  0.50000000  0.00000000  0.50000000  1
  Cu  Cu3  1  0.75000000  0.20679589  0.75000000  1
  Cu  Cu4  1  0.25000000  0.79320411  0.25000000  1
  Cu  Cu5  1  0.50000000  0.00000000  0.00000000  1
  Bi  Bi6  1  0.25000000  0.24489888  0.25000000  1
  Bi  Bi7  1  0.75000000  0.75510112  0.75000000  1
  Se  Se8  1  0.75000000  0.38898117  0.44307993  1
  Se  Se9  1  0.25000000  0.61101883  0.94307993  1
  Se  Se10  1  0.75000000  0.38898117  0.05692007  1
  Se  Se11  1  0.25000000  0.61101883  0.55692007  1
  Br  Br12  1  0.25000000  0.15849220  0.75000000  1
  Br  Br13  1  0.75000000  0.84150780  0.25000000  1
  O  O14  1  0.25000000  0.98999170  0.11397030  1
  O  O15  1  0.75000000  0.01000830  0.61397030  1
  O  O16  1  0.25000000  0.58862638  0.11731476  1
  O  O17  1  0.53878963  0.24416807  0.41562829  1
  O  O18  1  0.46121037  0.75583193  0.91562829  1
  O  O19  1  0.75000000  0.41137362  0.61731476  1
  O  O20  1  0.03878963  0.75583193  0.58437171  1
  O  O21  1  0.03878963  0.75583193  0.91562829  1
  O  O22  1  0.25000000  0.58862638  0.38268524  1
  O  O23  1  0.75000000  0.41137362  0.88268524  1
  O  O24  1  0.96121037  0.24416807  0.08437171  1
  O  O25  1  0.46121037  0.75583193  0.58437171  1
  O  O26  1  0.75000000  0.01000830  0.88602970  1
  O  O27  1  0.25000000  0.98999170  0.38602970  1
  O  O28  1  0.96121037  0.24416807  0.41562829  1
  O  O29  1  0.53878963  0.24416807  0.08437171  1
