# generated using pymatgen
data_LiNdGeO4
_symmetry_space_group_name_H-M   'P 1'
_cell_length_a   5.15458197
_cell_length_b   5.45643529
_cell_length_c   12.04876572
_cell_angle_alpha   90.00000000
_cell_angle_beta   90.00000000
_cell_angle_gamma   90.00000000
_symmetry_Int_Tables_number   1
_chemical_formula_structural   LiNdGeO4
_chemical_formula_sum   'Li4 Nd4 Ge4 O16'
_cell_volume   338.87928283
_cell_formula_units_Z   4
loop_
 _symmetry_equiv_pos_site_id
 _symmetry_equiv_pos_as_xyz
  1  'x, y, z'
loop_
 _atom_site_type_symbol
 _atom_site_label
 _atom_site_symmetry_multiplicity
 _atom_site_fract_x
 _atom_site_fract_y
 _atom_site_fract_z
 _atom_site_occupancy
  Li  Li0  1  0.50000000  0.25000000  0.26698595  1
  Li  Li1  1  0.50000000  0.75000000  0.73301405  1
  Li  Li2  1  0.00000000  0.75000000  0.23301405  1
  Li  Li3  1  0.00000000  0.25000000  0.76698595  1
  Nd  Nd4  1  0.50000000  0.25000000  0.61252880  1
  Nd  Nd5  1  0.50000000  0.75000000  0.38747120  1
  Nd  Nd6  1  0.00000000  0.25000000  0.11252880  1
  Nd  Nd7  1  0.00000000  0.75000000  0.88747120  1
  Ge  Ge8  1  0.50000000  0.75000000  0.11047135  1
  Ge  Ge9  1  0.50000000  0.25000000  0.88952865  1
  Ge  Ge10  1  0.00000000  0.75000000  0.61047135  1
  Ge  Ge11  1  0.00000000  0.25000000  0.38952865  1
  O  O12  1  0.24914757  0.58515263  0.04291567  1
  O  O13  1  0.25085243  0.58515263  0.54291567  1
  O  O14  1  0.67616431  0.54714777  0.20247539  1
  O  O15  1  0.67616431  0.04714777  0.79752461  1
  O  O16  1  0.82383569  0.04714777  0.29752461  1
  O  O17  1  0.32383569  0.45285223  0.79752461  1
  O  O18  1  0.32383569  0.95285223  0.20247539  1
  O  O19  1  0.74914757  0.91484737  0.54291567  1
  O  O20  1  0.82383569  0.54714777  0.70247539  1
  O  O21  1  0.25085243  0.08515263  0.45708433  1
  O  O22  1  0.24914757  0.08515263  0.95708433  1
  O  O23  1  0.17616431  0.95285223  0.70247539  1
  O  O24  1  0.75085243  0.91484737  0.04291567  1
  O  O25  1  0.75085243  0.41484737  0.95708433  1
  O  O26  1  0.74914757  0.41484737  0.45708433  1
  O  O27  1  0.17616431  0.45285223  0.29752461  1
