# generated using pymatgen
data_Sr2Co(PO4)2
_symmetry_space_group_name_H-M   'P 1'
_cell_length_a   9.17076439
_cell_length_b   10.14045065
_cell_length_c   11.84624351
_cell_angle_alpha   90.00000000
_cell_angle_beta   97.71719329
_cell_angle_gamma   90.00000000
_symmetry_Int_Tables_number   1
_chemical_formula_structural   Sr2Co(PO4)2
_chemical_formula_sum   'Sr12 Co6 P12 O48'
_cell_volume   1091.67181777
_cell_formula_units_Z   6
loop_
 _symmetry_equiv_pos_site_id
 _symmetry_equiv_pos_as_xyz
  1  'x, y, z'
loop_
 _atom_site_type_symbol
 _atom_site_label
 _atom_site_symmetry_multiplicity
 _atom_site_fract_x
 _atom_site_fract_y
 _atom_site_fract_z
 _atom_site_occupancy
  Sr  Sr0  1  0.33402479  0.64919493  0.84843221  1
  Sr  Sr1  1  0.66560270  0.22709776  0.81071167  1
  Sr  Sr2  1  0.66597521  0.35080507  0.15156779  1
  Sr  Sr3  1  0.83402479  0.85080507  0.84843221  1
  Sr  Sr4  1  0.30359491  0.11450674  0.50414408  1
  Sr  Sr5  1  0.83439730  0.72709776  0.18928833  1
  Sr  Sr6  1  0.16560270  0.27290224  0.81071167  1
  Sr  Sr7  1  0.69640509  0.88549326  0.49585592  1
  Sr  Sr8  1  0.33439730  0.77290224  0.18928833  1
  Sr  Sr9  1  0.19640509  0.61450674  0.49585592  1
  Sr  Sr10  1  0.80359491  0.38549326  0.50414408  1
  Sr  Sr11  1  0.16597521  0.14919493  0.15156779  1
  Co  Co12  1  0.62776838  0.60964872  0.67528790  1
  Co  Co13  1  0.37223162  0.39035128  0.32471210  1
  Co  Co14  1  0.87223162  0.10964872  0.32471210  1
  Co  Co15  1  0.12776838  0.89035128  0.67528790  1
  Co  Co16  1  0.00000000  0.50000000  0.00000000  1
  Co  Co17  1  0.50000000  0.00000000  0.00000000  1
  P  P18  1  0.43768003  0.39746551  0.62646248  1
  P  P19  1  0.20872000  0.93166575  0.95702034  1
  P  P20  1  0.79128000  0.06833425  0.04297966  1
  P  P21  1  0.70872000  0.56833425  0.95702034  1
  P  P22  1  0.06231997  0.89746551  0.37353752  1
  P  P23  1  0.93768003  0.10253449  0.62646248  1
  P  P24  1  0.29128000  0.43166575  0.04297966  1
  P  P25  1  0.49142921  0.07374024  0.28652178  1
  P  P26  1  0.99142921  0.42625976  0.28652178  1
  P  P27  1  0.00857079  0.57374024  0.71347822  1
  P  P28  1  0.56231997  0.60253449  0.37353752  1
  P  P29  1  0.50857079  0.92625976  0.71347822  1
  O  O30  1  0.88511540  0.31390582  0.31600493  1
  O  O31  1  0.86809214  0.08261183  0.93594258  1
  O  O32  1  0.64787866  0.13014151  0.29110105  1
  O  O33  1  0.13641614  0.86613185  0.49665145  1
  O  O34  1  0.35571606  0.84600725  0.97845684  1
  O  O35  1  0.89885903  0.95734792  0.65688700  1
  O  O36  1  0.23783649  0.57598928  0.05863742  1
  O  O37  1  0.11488460  0.68609418  0.68399507  1
  O  O38  1  0.47584666  0.96253660  0.37358307  1
  O  O39  1  0.63190786  0.58261183  0.06405742  1
  O  O40  1  0.61488460  0.81390582  0.68399507  1
  O  O41  1  0.64428394  0.15399275  0.02154316  1
  O  O42  1  0.11068430  0.87828378  0.85040365  1
  O  O43  1  0.97584666  0.53746340  0.37358307  1
  O  O44  1  0.38931570  0.37828378  0.14959635  1
  O  O45  1  0.73783649  0.92401072  0.05863742  1
  O  O46  1  0.38511540  0.18609418  0.31600493  1
  O  O47  1  0.88779994  0.20699265  0.70730429  1
  O  O48  1  0.52415334  0.03746340  0.62641693  1
  O  O49  1  0.13190786  0.91738817  0.06405742  1
  O  O50  1  0.11059871  0.10427400  0.63897277  1
  O  O51  1  0.02415334  0.46253660  0.62641693  1
  O  O52  1  0.38940129  0.60427400  0.36102723  1
  O  O53  1  0.88940129  0.89572600  0.36102723  1
  O  O54  1  0.76216351  0.42401072  0.94136258  1
  O  O55  1  0.36809214  0.41738817  0.93594258  1
  O  O56  1  0.60114097  0.45734792  0.34311300  1
  O  O57  1  0.61068430  0.62171622  0.85040365  1
  O  O58  1  0.86358386  0.13386815  0.50334855  1
  O  O59  1  0.26216351  0.07598928  0.94136258  1
  O  O60  1  0.10114097  0.04265208  0.34311300  1
  O  O61  1  0.88931570  0.12171622  0.14959635  1
  O  O62  1  0.63641614  0.63386815  0.49665145  1
  O  O63  1  0.36358386  0.36613185  0.50334855  1
  O  O64  1  0.43173453  0.02014732  0.16528225  1
  O  O65  1  0.14787866  0.36985849  0.29110105  1
  O  O66  1  0.61220006  0.70699265  0.29269571  1
  O  O67  1  0.85212134  0.63014151  0.70889895  1
  O  O68  1  0.56826547  0.97985268  0.83471775  1
  O  O69  1  0.39885903  0.54265208  0.65688700  1
  O  O70  1  0.11220006  0.79300735  0.29269571  1
  O  O71  1  0.06826547  0.52014732  0.83471775  1
  O  O72  1  0.14428394  0.34600725  0.02154316  1
  O  O73  1  0.85571606  0.65399275  0.97845684  1
  O  O74  1  0.61059871  0.39572600  0.63897277  1
  O  O75  1  0.93173453  0.47985268  0.16528225  1
  O  O76  1  0.38779994  0.29300735  0.70730429  1
  O  O77  1  0.35212134  0.86985849  0.70889895  1
