# generated using pymatgen
data_ZnCu(SiO3)2
_symmetry_space_group_name_H-M   'P 1'
_cell_length_a   5.29372752
_cell_length_b   6.90245849
_cell_length_c   6.90245876
_cell_angle_alpha   86.49980353
_cell_angle_beta   73.76526294
_cell_angle_gamma   73.76526723
_symmetry_Int_Tables_number   1
_chemical_formula_structural   ZnCu(SiO3)2
_chemical_formula_sum   'Zn2 Cu2 Si4 O12'
_cell_volume   232.46061604
_cell_formula_units_Z   2
loop_
 _symmetry_equiv_pos_site_id
 _symmetry_equiv_pos_as_xyz
  1  'x, y, z'
loop_
 _atom_site_type_symbol
 _atom_site_label
 _atom_site_symmetry_multiplicity
 _atom_site_fract_x
 _atom_site_fract_y
 _atom_site_fract_z
 _atom_site_occupancy
  Zn  Zn0  1  0.75000000  0.23806020  0.76193980  1
  Zn  Zn1  1  0.25000100  0.76193980  0.23806120  1
  Cu  Cu2  1  0.24999900  0.10836905  0.89163195  1
  Cu  Cu3  1  0.74999900  0.89163295  0.10836805  1
  Si  Si4  1  0.24613275  0.21175002  0.38288778  1
  Si  Si5  1  0.25386625  0.61711222  0.78824998  1
  Si  Si6  1  0.74613275  0.38288778  0.21175002  1
  Si  Si7  1  0.75386725  0.78824998  0.61711222  1
  O  O8  1  0.49295800  0.31562523  0.37488470  1
  O  O9  1  0.00704200  0.62511430  0.68437577  1
  O  O10  1  0.50704300  0.68437577  0.62511530  1
  O  O11  1  0.99295700  0.37488570  0.31562423  1
  O  O12  1  0.12747207  0.14317658  0.61139288  1
  O  O13  1  0.37252793  0.38860612  0.85682242  1
  O  O14  1  0.87252793  0.85682342  0.38860712  1
  O  O15  1  0.62747107  0.61139288  0.14317758  1
  O  O16  1  0.86881015  0.21183064  0.02598848  1
  O  O17  1  0.63118985  0.97401152  0.78816836  1
  O  O18  1  0.36880915  0.02598848  0.21183164  1
  O  O19  1  0.13119085  0.78816936  0.97401152  1
