# generated using pymatgen
data_Ba4Os6ClO18
_symmetry_space_group_name_H-M   'P 1'
_cell_length_a   8.21654670
_cell_length_b   8.21654698
_cell_length_c   8.21654625
_cell_angle_alpha   109.47122142
_cell_angle_beta   109.47122204
_cell_angle_gamma   109.47121851
_symmetry_Int_Tables_number   1
_chemical_formula_structural   Ba4Os6ClO18
_chemical_formula_sum   'Ba4 Os6 Cl1 O18'
_cell_volume   427.01790297
_cell_formula_units_Z   1
loop_
 _symmetry_equiv_pos_site_id
 _symmetry_equiv_pos_as_xyz
  1  'x, y, z'
loop_
 _atom_site_type_symbol
 _atom_site_label
 _atom_site_symmetry_multiplicity
 _atom_site_fract_x
 _atom_site_fract_y
 _atom_site_fract_z
 _atom_site_occupancy
  Ba  Ba0  1  1.00000000  1.00000000  0.36972869  1
  Ba  Ba1  1  0.36972869  0.00000000  0.00000000  1
  Ba  Ba2  1  0.63027131  0.63027131  0.63027131  1
  Ba  Ba3  1  0.00000000  0.36972869  0.00000000  1
  Os  Os4  1  0.86520476  0.50000000  0.36520476  1
  Os  Os5  1  0.13479524  0.50000000  0.63479524  1
  Os  Os6  1  0.50000000  0.36520476  0.86520476  1
  Os  Os7  1  0.50000000  0.63479524  0.13479524  1
  Os  Os8  1  0.36520476  0.86520476  0.50000000  1
  Os  Os9  1  0.63479524  0.13479524  0.50000000  1
  Cl  Cl10  1  0.00000000  0.00000000  0.00000000  1
  O  O11  1  0.06883792  0.69775452  0.34806882  1
  O  O12  1  0.72076910  0.65193118  0.34968570  1
  O  O13  1  0.93116208  0.27923090  0.62891659  1
  O  O14  1  0.37108341  0.65031430  0.30224548  1
  O  O15  1  0.65193118  0.34968570  0.72076910  1
  O  O16  1  0.62891659  0.93116208  0.27923090  1
  O  O17  1  0.34806882  0.06883792  0.69775452  1
  O  O18  1  0.66100692  1.00000000  0.66100692  1
  O  O19  1  1.00000000  0.66100692  0.66100692  1
  O  O20  1  0.34968570  0.72076910  0.65193118  1
  O  O21  1  0.69775452  0.34806882  0.06883792  1
  O  O22  1  0.66100692  0.66100692  0.00000000  1
  O  O23  1  0.33899308  0.00000000  0.33899308  1
  O  O24  1  0.27923090  0.62891659  0.93116208  1
  O  O25  1  0.30224548  0.37108341  0.65031430  1
  O  O26  1  0.65031430  0.30224548  0.37108341  1
  O  O27  1  0.33899308  0.33899308  1.00000000  1
  O  O28  1  0.00000000  0.33899308  0.33899308  1
