# generated using pymatgen
data_Mg2Sn3O8
_symmetry_space_group_name_H-M   'P 1'
_cell_length_a   5.27806589
_cell_length_b   6.26749865
_cell_length_c   6.24238299
_cell_angle_alpha   120.13318427
_cell_angle_beta   108.02423978
_cell_angle_gamma   89.99999663
_symmetry_Int_Tables_number   1
_chemical_formula_structural   Mg2Sn3O8
_chemical_formula_sum   'Mg2 Sn3 O8'
_cell_volume   166.77251914
_cell_formula_units_Z   1
loop_
 _symmetry_equiv_pos_site_id
 _symmetry_equiv_pos_as_xyz
  1  'x, y, z'
loop_
 _atom_site_type_symbol
 _atom_site_label
 _atom_site_symmetry_multiplicity
 _atom_site_fract_x
 _atom_site_fract_y
 _atom_site_fract_z
 _atom_site_occupancy
  Mg  Mg0  1  0.64503597  0.71425337  0.42850573  1
  Mg  Mg1  1  0.35496473  0.28574811  0.57149522  1
  Sn  Sn2  1  0.49999907  0.99999887  -0.00000026  1
  Sn  Sn3  1  0.00000010  0.73619124  -0.00000085  1
  Sn  Sn4  1  0.00000010  0.26380791  0.99999915  1
  O  O5  1  0.08990240  0.39050811  0.78101722  1
  O  O6  1  0.91009692  0.60949120  0.21898339  1
  O  O7  1  0.07372968  0.89015457  0.78030914  1
  O  O8  1  0.92627029  0.10984472  0.21969044  1
  O  O9  1  0.40880842  0.34627393  0.24041433  1
  O  O10  1  0.40880842  0.89414040  0.24041433  1
  O  O11  1  0.59119146  0.10585880  0.75958558  1
  O  O12  1  0.59119145  0.65372578  0.75958558  1
