# generated using pymatgen
data_Cs3NaPb4
_symmetry_space_group_name_H-M   'P 1'
_cell_length_a   7.38883799
_cell_length_b   9.63192888
_cell_length_c   11.36189602
_cell_angle_alpha   90.00000000
_cell_angle_beta   90.00000000
_cell_angle_gamma   112.55434890
_symmetry_Int_Tables_number   1
_chemical_formula_structural   Cs3NaPb4
_chemical_formula_sum   'Cs6 Na2 Pb8'
_cell_volume   746.76628203
_cell_formula_units_Z   2
loop_
 _symmetry_equiv_pos_site_id
 _symmetry_equiv_pos_as_xyz
  1  'x, y, z'
loop_
 _atom_site_type_symbol
 _atom_site_label
 _atom_site_symmetry_multiplicity
 _atom_site_fract_x
 _atom_site_fract_y
 _atom_site_fract_z
 _atom_site_occupancy
  Cs  Cs0  1  0.38797907  0.77595815  0.55418263  1
  Cs  Cs1  1  0.38797907  0.77595815  0.94581737  1
  Cs  Cs2  1  0.61202093  0.22404185  0.44581737  1
  Cs  Cs3  1  0.61202093  0.22404185  0.05418263  1
  Cs  Cs4  1  0.23271265  0.46542531  0.25000000  1
  Cs  Cs5  1  0.76728735  0.53457469  0.75000000  1
  Na  Na6  1  0.00000000  0.00000000  0.50000000  1
  Na  Na7  1  0.00000000  0.00000000  0.00000000  1
  Pb  Pb8  1  0.17727675  0.90437873  0.25000000  1
  Pb  Pb9  1  0.17228189  0.34456378  0.88553426  1
  Pb  Pb10  1  0.17228189  0.34456378  0.61446574  1
  Pb  Pb11  1  0.27289803  0.09562127  0.75000000  1
  Pb  Pb12  1  0.82272325  0.09562127  0.75000000  1
  Pb  Pb13  1  0.82771811  0.65543622  0.38553426  1
  Pb  Pb14  1  0.72710197  0.90437873  0.25000000  1
  Pb  Pb15  1  0.82771811  0.65543622  0.11446574  1
