# generated using pymatgen
data_Cs2Co2(MoO4)3
_symmetry_space_group_name_H-M   'P 1'
_cell_length_a   11.01709237
_cell_length_b   11.02630662
_cell_length_c   11.02011601
_cell_angle_alpha   90.00000000
_cell_angle_beta   90.00000000
_cell_angle_gamma   90.00000000
_symmetry_Int_Tables_number   1
_chemical_formula_structural   Cs2Co2(MoO4)3
_chemical_formula_sum   'Cs8 Co8 Mo12 O48'
_cell_volume   1338.69987327
_cell_formula_units_Z   4
loop_
 _symmetry_equiv_pos_site_id
 _symmetry_equiv_pos_as_xyz
  1  'x, y, z'
loop_
 _atom_site_type_symbol
 _atom_site_label
 _atom_site_symmetry_multiplicity
 _atom_site_fract_x
 _atom_site_fract_y
 _atom_site_fract_z
 _atom_site_occupancy
  Cs  Cs0  1  0.45746008  0.04240249  0.95781278  1
  Cs  Cs1  1  0.82091633  0.17898977  0.67939787  1
  Cs  Cs2  1  0.17908367  0.67898977  0.82060213  1
  Cs  Cs3  1  0.95746008  0.45759751  0.04218722  1
  Cs  Cs4  1  0.67908367  0.82101023  0.17939787  1
  Cs  Cs5  1  0.32091633  0.32101023  0.32060213  1
  Cs  Cs6  1  0.04253992  0.95759751  0.45781278  1
  Cs  Cs7  1  0.54253992  0.54240249  0.54218722  1
  Co  Co8  1  0.88752586  0.61214277  0.38743910  1
  Co  Co9  1  0.11247414  0.11214277  0.11256090  1
  Co  Co10  1  0.33681256  0.66278302  0.16239629  1
  Co  Co11  1  0.83681256  0.83721698  0.83760371  1
  Co  Co12  1  0.16318744  0.33721698  0.66239629  1
  Co  Co13  1  0.66318744  0.16278302  0.33760371  1
  Co  Co14  1  0.61247414  0.38785723  0.88743910  1
  Co  Co15  1  0.38752586  0.88785723  0.61256090  1
  Mo  Mo16  1  0.19872164  0.62398161  0.47351341  1
  Mo  Mo17  1  0.87731050  0.52642057  0.69753699  1
  Mo  Mo18  1  0.30127836  0.37601839  0.97351341  1
  Mo  Mo19  1  0.80127836  0.12398161  0.02648659  1
  Mo  Mo20  1  0.47397144  0.19850413  0.62336725  1
  Mo  Mo21  1  0.02602856  0.80149587  0.12336725  1
  Mo  Mo22  1  0.69872164  0.87601839  0.52648659  1
  Mo  Mo23  1  0.62268950  0.47357943  0.19753699  1
  Mo  Mo24  1  0.97397144  0.30149587  0.37663275  1
  Mo  Mo25  1  0.52602856  0.69850413  0.87663275  1
  Mo  Mo26  1  0.37731050  0.97357943  0.30246301  1
  Mo  Mo27  1  0.12268950  0.02642057  0.80246301  1
  O  O28  1  0.98349495  0.45770716  0.32931825  1
  O  O29  1  0.39703973  0.81948736  0.25469876  1
  O  O30  1  0.94502625  0.77544023  0.98329403  1
  O  O31  1  0.54870185  0.28787449  0.73778371  1
  O  O32  1  0.21236352  0.26190380  0.04909152  1
  O  O33  1  0.32986740  0.98411393  0.45892623  1
  O  O34  1  0.05497375  0.27544023  0.51670597  1
  O  O35  1  0.25338668  0.39461633  0.81888540  1
  O  O36  1  0.48223936  0.55327931  0.22464764  1
  O  O37  1  0.23681842  0.95155780  0.71286377  1
  O  O38  1  0.54221441  0.82979969  0.51577347  1
  O  O39  1  0.67013260  0.48411393  0.04107377  1
  O  O40  1  0.74661332  0.89461633  0.68111460  1
  O  O41  1  0.01650505  0.95770716  0.17068175  1
  O  O42  1  0.22612420  0.48319697  0.55215221  1
  O  O43  1  0.75338668  0.10538367  0.18111460  1
  O  O44  1  0.51650505  0.54229284  0.82931825  1
  O  O45  1  0.73681842  0.54844220  0.28713623  1
  O  O46  1  0.95129815  0.71212551  0.23778371  1
  O  O47  1  0.98223936  0.94672069  0.77535236  1
  O  O48  1  0.77387580  0.98319697  0.94784779  1
  O  O49  1  0.17013260  0.01588607  0.95892623  1
  O  O50  1  0.24661332  0.60538367  0.31888540  1
  O  O51  1  0.45778559  0.32979969  0.98422653  1
  O  O52  1  0.17988298  0.75298087  0.10245395  1
  O  O53  1  0.04870185  0.21212551  0.26221629  1
  O  O54  1  0.44502625  0.72455977  0.01670597  1
  O  O55  1  0.32011702  0.24701913  0.60245395  1
  O  O56  1  0.45129815  0.78787449  0.76221629  1
  O  O57  1  0.26318158  0.04844220  0.21286377  1
  O  O58  1  0.67988298  0.74701913  0.89754605  1
  O  O59  1  0.95778559  0.17020031  0.01577347  1
  O  O60  1  0.78763648  0.76190380  0.45090848  1
  O  O61  1  0.01776064  0.44672069  0.72464764  1
  O  O62  1  0.71236352  0.23809620  0.95090848  1
  O  O63  1  0.04221441  0.67020031  0.48422653  1
  O  O64  1  0.55497375  0.22455977  0.48329403  1
  O  O65  1  0.28763648  0.73809620  0.54909152  1
  O  O66  1  0.89703973  0.68051264  0.74530124  1
  O  O67  1  0.51776064  0.05327931  0.27535236  1
  O  O68  1  0.76318158  0.45155780  0.78713623  1
  O  O69  1  0.10296027  0.18051264  0.75469876  1
  O  O70  1  0.82986740  0.51588607  0.54107377  1
  O  O71  1  0.48349495  0.04229284  0.67068175  1
  O  O72  1  0.27387580  0.51680303  0.05215221  1
  O  O73  1  0.82011702  0.25298087  0.39754605  1
  O  O74  1  0.72612420  0.01680303  0.44784779  1
  O  O75  1  0.60296027  0.31948736  0.24530124  1
