# generated using pymatgen
data_Cs4K2Cu(SiO4)2
_symmetry_space_group_name_H-M   'P 1'
_cell_length_a   6.17012664
_cell_length_b   10.57938830
_cell_length_c   10.57938830
_cell_angle_alpha   90.00000000
_cell_angle_beta   90.00000000
_cell_angle_gamma   90.00000000
_symmetry_Int_Tables_number   1
_chemical_formula_structural   Cs4K2Cu(SiO4)2
_chemical_formula_sum   'Cs8 K4 Cu2 Si4 O16'
_cell_volume   690.58190246
_cell_formula_units_Z   2
loop_
 _symmetry_equiv_pos_site_id
 _symmetry_equiv_pos_as_xyz
  1  'x, y, z'
loop_
 _atom_site_type_symbol
 _atom_site_label
 _atom_site_symmetry_multiplicity
 _atom_site_fract_x
 _atom_site_fract_y
 _atom_site_fract_z
 _atom_site_occupancy
  Cs  Cs0  1  0.00000000  0.86305505  0.38351152  1
  Cs  Cs1  1  0.00000000  0.13694495  0.61648848  1
  Cs  Cs2  1  0.00000000  0.38351152  0.86305505  1
  Cs  Cs3  1  0.50000000  0.63694495  0.88351152  1
  Cs  Cs4  1  0.00000000  0.61648848  0.13694495  1
  Cs  Cs5  1  0.50000000  0.11648848  0.36305505  1
  Cs  Cs6  1  0.50000000  0.36305505  0.11648848  1
  Cs  Cs7  1  0.50000000  0.88351152  0.63694495  1
  K  K8  1  0.50000000  0.10285475  0.89714525  1
  K  K9  1  0.00000000  0.39714525  0.39714525  1
  K  K10  1  0.00000000  0.60285475  0.60285475  1
  K  K11  1  0.50000000  0.89714525  0.10285475  1
  Cu  Cu12  1  0.50000000  0.50000000  0.50000000  1
  Cu  Cu13  1  0.00000000  0.00000000  0.00000000  1
  Si  Si14  1  0.00000000  0.82377577  0.82377577  1
  Si  Si15  1  0.50000000  0.67622423  0.32377577  1
  Si  Si16  1  0.00000000  0.17622423  0.17622423  1
  Si  Si17  1  0.50000000  0.32377577  0.67622423  1
  O  O18  1  0.20723325  0.89753074  0.89753074  1
  O  O19  1  0.79276675  0.10246926  0.10246926  1
  O  O20  1  0.00000000  0.67100291  0.85201661  1
  O  O21  1  0.29276675  0.39753074  0.60246926  1
  O  O22  1  0.50000000  0.35201661  0.82899709  1
  O  O23  1  0.70723325  0.39753074  0.60246926  1
  O  O24  1  0.29276675  0.60246926  0.39753074  1
  O  O25  1  0.50000000  0.17100291  0.64798339  1
  O  O26  1  0.00000000  0.85201661  0.67100291  1
  O  O27  1  0.79276675  0.89753074  0.89753074  1
  O  O28  1  0.00000000  0.32899709  0.14798339  1
  O  O29  1  0.20723325  0.10246926  0.10246926  1
  O  O30  1  0.50000000  0.82899709  0.35201661  1
  O  O31  1  0.70723325  0.60246926  0.39753074  1
  O  O32  1  0.00000000  0.14798339  0.32899709  1
  O  O33  1  0.50000000  0.64798339  0.17100291  1
