# generated using pymatgen
data_Na2BeH4
_symmetry_space_group_name_H-M   'P 1'
_cell_length_a   4.99306949
_cell_length_b   5.07872829
_cell_length_c   6.85350187
_cell_angle_alpha   98.52291065
_cell_angle_beta   90.00000000
_cell_angle_gamma   90.00000000
_symmetry_Int_Tables_number   1
_chemical_formula_structural   Na2BeH4
_chemical_formula_sum   'Na4 Be2 H8'
_cell_volume   171.87487395
_cell_formula_units_Z   2
loop_
 _symmetry_equiv_pos_site_id
 _symmetry_equiv_pos_as_xyz
  1  'x, y, z'
loop_
 _atom_site_type_symbol
 _atom_site_label
 _atom_site_symmetry_multiplicity
 _atom_site_fract_x
 _atom_site_fract_y
 _atom_site_fract_z
 _atom_site_occupancy
  Na  Na0  1  0.25000000  0.73046331  0.02508169  1
  Na  Na1  1  0.75000000  0.26953669  0.97491831  1
  Na  Na2  1  0.75000000  0.26487040  0.47527341  1
  Na  Na3  1  0.25000000  0.73512960  0.52472659  1
  Be  Be4  1  0.25000000  0.27728173  0.22192824  1
  Be  Be5  1  0.75000000  0.72271827  0.77807176  1
  H  H6  1  0.75000000  0.93825532  0.66237763  1
  H  H7  1  0.75000000  0.81448995  0.98665974  1
  H  H8  1  0.52077253  0.55353529  0.73430656  1
  H  H9  1  0.25000000  0.06174468  0.33762237  1
  H  H10  1  0.97922747  0.55353529  0.73430656  1
  H  H11  1  0.02077253  0.44646471  0.26569344  1
  H  H12  1  0.47922747  0.44646471  0.26569344  1
  H  H13  1  0.25000000  0.18551005  0.01334026  1
