# generated using pymatgen
data_K7Th6F31
_symmetry_space_group_name_H-M   'P 1'
_cell_length_a   9.64349822
_cell_length_b   9.64349792
_cell_length_c   9.64349767
_cell_angle_alpha   107.29487769
_cell_angle_beta   107.29487711
_cell_angle_gamma   107.29488124
_symmetry_Int_Tables_number   1
_chemical_formula_structural   K7Th6F31
_chemical_formula_sum   'K7 Th6 F31'
_cell_volume   740.78772050
_cell_formula_units_Z   1
loop_
 _symmetry_equiv_pos_site_id
 _symmetry_equiv_pos_as_xyz
  1  'x, y, z'
loop_
 _atom_site_type_symbol
 _atom_site_label
 _atom_site_symmetry_multiplicity
 _atom_site_fract_x
 _atom_site_fract_y
 _atom_site_fract_z
 _atom_site_occupancy
  K  K0  1  0.18642147  0.57799803  0.72209602  1
  K  K1  1  0.27787235  0.81408797  0.42384474  1
  K  K2  1  0.42384474  0.27787235  0.81408797  1
  K  K3  1  0.50021047  0.50021047  0.50021047  1
  K  K4  1  0.57799803  0.72209602  0.18642147  1
  K  K5  1  0.72209602  0.18642147  0.57799803  1
  K  K6  1  0.81408797  0.42384474  0.27787235  1
  Th  Th7  1  0.03858543  0.12407131  0.36745332  1
  Th  Th8  1  0.12407131  0.36745332  0.03858543  1
  Th  Th9  1  0.64013350  0.96027249  0.87596743  1
  Th  Th10  1  0.36745332  0.03858543  0.12407131  1
  Th  Th11  1  0.87596743  0.64013350  0.96027249  1
  Th  Th12  1  0.96027249  0.87596743  0.64013350  1
  F  F13  1  0.21384039  0.95312835  0.84346703  1
  F  F14  1  0.05239329  0.70362596  0.52593967  1
  F  F15  1  0.04753195  0.15868332  0.78773054  1
  F  F16  1  0.01978913  0.55160578  0.14693771  1
  F  F17  1  0.29865966  0.47622822  0.94725675  1
  F  F18  1  0.45074099  0.85261505  0.98047291  1
  F  F19  1  0.15868332  0.78773054  0.04753195  1
  F  F20  1  0.09673924  0.30789818  0.25372535  1
  F  F21  1  0.14693771  0.01978913  0.55160578  1
  F  F22  1  0.26046393  0.33422144  0.57148948  1
  F  F23  1  0.43010182  0.74061628  0.66703526  1
  F  F24  1  0.33422144  0.57148948  0.26046393  1
  F  F25  1  0.47622822  0.94725675  0.29865966  1
  F  F26  1  0.25372535  0.09673924  0.30789818  1
  F  F27  1  0.67798727  0.73566222  0.89999130  1
  F  F28  1  0.30789818  0.25372535  0.09673924  1
  F  F29  1  0.73566222  0.89999130  0.67798727  1
  F  F30  1  0.52593967  0.05239329  0.70362596  1
  F  F31  1  0.66703526  0.43010182  0.74061628  1
  F  F32  1  0.97440700  0.97440700  0.97440700  1
  F  F33  1  0.57148948  0.26046393  0.33422144  1
  F  F34  1  0.74061628  0.66703526  0.43010182  1
  F  F35  1  0.85261505  0.98047291  0.45074099  1
  F  F36  1  0.89999130  0.67798727  0.73566222  1
  F  F37  1  0.84346703  0.21384039  0.95312835  1
  F  F38  1  0.55160578  0.14693771  0.01978913  1
  F  F39  1  0.70362596  0.52593967  0.05239329  1
  F  F40  1  0.98047291  0.45074099  0.85261505  1
  F  F41  1  0.95312835  0.84346703  0.21384039  1
  F  F42  1  0.94725675  0.29865966  0.47622822  1
  F  F43  1  0.78773054  0.04753195  0.15868332  1
