# generated using pymatgen
data_Dy7In(CoGe3)4
_symmetry_space_group_name_H-M   'P 1'
_cell_length_a   4.20159799
_cell_length_b   10.41227390
_cell_length_c   10.41227390
_cell_angle_alpha   90.00000000
_cell_angle_beta   90.00000000
_cell_angle_gamma   90.00000000
_symmetry_Int_Tables_number   1
_chemical_formula_structural   Dy7In(CoGe3)4
_chemical_formula_sum   'Dy7 In1 Co4 Ge12'
_cell_volume   455.51812743
_cell_formula_units_Z   1
loop_
 _symmetry_equiv_pos_site_id
 _symmetry_equiv_pos_as_xyz
  1  'x, y, z'
loop_
 _atom_site_type_symbol
 _atom_site_label
 _atom_site_symmetry_multiplicity
 _atom_site_fract_x
 _atom_site_fract_y
 _atom_site_fract_z
 _atom_site_occupancy
  Dy  Dy0  1  0.50000000  0.32299285  0.32578765  1
  Dy  Dy1  1  0.50000000  0.67421235  0.32299285  1
  Dy  Dy2  1  0.50000000  0.00000000  0.50000000  1
  Dy  Dy3  1  0.50000000  0.67700715  0.67421235  1
  Dy  Dy4  1  0.50000000  0.32578765  0.67700715  1
  Dy  Dy5  1  0.50000000  0.50000000  0.00000000  1
  Dy  Dy6  1  0.00000000  0.00000000  0.00000000  1
  In  In7  1  0.00000000  0.50000000  0.50000000  1
  Co  Co8  1  0.00000000  0.11792058  0.72063496  1
  Co  Co9  1  0.00000000  0.88207942  0.27936504  1
  Co  Co10  1  0.00000000  0.72063496  0.88207942  1
  Co  Co11  1  0.00000000  0.27936504  0.11792058  1
  Ge  Ge12  1  0.00000000  0.28572088  0.88713562  1
  Ge  Ge13  1  0.00000000  0.48708542  0.21355048  1
  Ge  Ge14  1  0.00000000  0.71427912  0.11286438  1
  Ge  Ge15  1  0.50000000  0.19500025  0.06546253  1
  Ge  Ge16  1  0.50000000  0.06546253  0.80499975  1
  Ge  Ge17  1  0.50000000  0.93453747  0.19500025  1
  Ge  Ge18  1  0.00000000  0.51291458  0.78644952  1
  Ge  Ge19  1  0.50000000  0.80499975  0.93453747  1
  Ge  Ge20  1  0.00000000  0.21355048  0.51291458  1
  Ge  Ge21  1  0.00000000  0.11286438  0.28572088  1
  Ge  Ge22  1  0.00000000  0.88713562  0.71427912  1
  Ge  Ge23  1  0.00000000  0.78644952  0.48708542  1
