# generated using pymatgen
data_ReSeCl
_symmetry_space_group_name_H-M   'P 1'
_cell_length_a   9.39523472
_cell_length_b   9.39523427
_cell_length_c   11.02333696
_cell_angle_alpha   90.00000000
_cell_angle_beta   90.00000000
_cell_angle_gamma   101.54739083
_symmetry_Int_Tables_number   1
_chemical_formula_structural   ReSeCl
_chemical_formula_sum   'Re12 Se12 Cl12'
_cell_volume   953.33996610
_cell_formula_units_Z   12
loop_
 _symmetry_equiv_pos_site_id
 _symmetry_equiv_pos_as_xyz
  1  'x, y, z'
loop_
 _atom_site_type_symbol
 _atom_site_label
 _atom_site_symmetry_multiplicity
 _atom_site_fract_x
 _atom_site_fract_y
 _atom_site_fract_z
 _atom_site_occupancy
  Re  Re0  1  0.12647676  0.87352324  0.00000000  1
  Re  Re1  1  0.06335367  0.06631176  0.84415373  1
  Re  Re2  1  0.14071476  0.14394720  0.06929202  1
  Re  Re3  1  0.37352324  0.62647676  0.50000000  1
  Re  Re4  1  0.35928524  0.35605280  0.56929202  1
  Re  Re5  1  0.43664633  0.43368824  0.34415373  1
  Re  Re6  1  0.56631176  0.56335367  0.65584627  1
  Re  Re7  1  0.64394720  0.64071476  0.43070798  1
  Re  Re8  1  0.62904914  0.37095086  0.50000000  1
  Re  Re9  1  0.85605280  0.85928524  0.93070798  1
  Re  Re10  1  0.93368824  0.93664633  0.15584627  1
  Re  Re11  1  0.87095086  0.12904914  0.00000000  1
  Se  Se12  1  0.04415436  0.80270569  0.78427895  1
  Se  Se13  1  0.19729431  0.95584564  0.21572105  1
  Se  Se14  1  0.07389127  0.32380233  0.91664492  1
  Se  Se15  1  0.30270569  0.54415436  0.71572105  1
  Se  Se16  1  0.45584564  0.69729431  0.28427895  1
  Se  Se17  1  0.42610873  0.17619767  0.41664492  1
  Se  Se18  1  0.67619767  0.92610873  0.08335508  1
  Se  Se19  1  0.54572823  0.30266059  0.71537344  1
  Se  Se20  1  0.69733941  0.45427177  0.28462656  1
  Se  Se21  1  0.82380233  0.57389127  0.58335508  1
  Se  Se22  1  0.80266059  0.04572823  0.78462656  1
  Se  Se23  1  0.95427177  0.19733941  0.21537344  1
  Cl  Cl24  1  0.21115685  0.78884315  0.50000000  1
  Cl  Cl25  1  0.18372369  0.43355272  0.41887385  1
  Cl  Cl26  1  0.15769107  0.15253071  0.63938558  1
  Cl  Cl27  1  0.28884315  0.71115685  0.00000000  1
  Cl  Cl28  1  0.34230893  0.34746929  0.13938558  1
  Cl  Cl29  1  0.31627631  0.06644728  0.91887385  1
  Cl  Cl30  1  0.56644728  0.81627631  0.58112615  1
  Cl  Cl31  1  0.65253071  0.65769107  0.86061442  1
  Cl  Cl32  1  0.70584850  0.29415150  0.00000000  1
  Cl  Cl33  1  0.84746929  0.84230893  0.36061442  1
  Cl  Cl34  1  0.79415150  0.20584850  0.50000000  1
  Cl  Cl35  1  0.93355272  0.68372369  0.08112615  1
