# generated using pymatgen
data_KPPbS4
_symmetry_space_group_name_H-M   'P 1'
_cell_length_a   6.56846451
_cell_length_b   6.70813450
_cell_length_c   17.11370475
_cell_angle_alpha   90.00000000
_cell_angle_beta   90.00000000
_cell_angle_gamma   90.00000000
_symmetry_Int_Tables_number   1
_chemical_formula_structural   KPPbS4
_chemical_formula_sum   'K4 P4 Pb4 S16'
_cell_volume   754.06651266
_cell_formula_units_Z   4
loop_
 _symmetry_equiv_pos_site_id
 _symmetry_equiv_pos_as_xyz
  1  'x, y, z'
loop_
 _atom_site_type_symbol
 _atom_site_label
 _atom_site_symmetry_multiplicity
 _atom_site_fract_x
 _atom_site_fract_y
 _atom_site_fract_z
 _atom_site_occupancy
  K  K0  1  -0.00093813  0.25000000  0.79100195  1
  K  K1  1  0.50093813  0.25000000  0.29100195  1
  K  K2  1  0.00093813  0.75000000  0.20899805  1
  K  K3  1  0.49906187  0.75000000  0.70899805  1
  P  P4  1  0.71806610  0.75000000  0.40113478  1
  P  P5  1  0.78193390  0.75000000  0.90113478  1
  P  P6  1  0.21806610  0.25000000  0.09886522  1
  P  P7  1  0.28193390  0.25000000  0.59886522  1
  Pb  Pb8  1  0.21396648  0.75000000  0.47976459  1
  Pb  Pb9  1  0.78603352  0.25000000  0.52023541  1
  Pb  Pb10  1  0.28603352  0.75000000  0.97976459  1
  Pb  Pb11  1  0.71396648  0.25000000  0.02023541  1
  S  S12  1  0.15255981  0.25000000  0.98074888  1
  S  S13  1  0.45839678  0.75000000  0.33562038  1
  S  S14  1  0.34744019  0.25000000  0.48074888  1
  S  S15  1  0.10715661  0.49502169  0.62344035  1
  S  S16  1  0.39284339  0.49502169  0.12344035  1
  S  S17  1  0.60715661  0.99502169  0.87655965  1
  S  S18  1  0.10715661  0.00497831  0.62344035  1
  S  S19  1  0.89284339  0.50497831  0.37655965  1
  S  S20  1  0.65255981  0.75000000  0.51925112  1
  S  S21  1  0.60715661  0.50497831  0.87655965  1
  S  S22  1  0.84744019  0.75000000  0.01925112  1
  S  S23  1  0.95839678  0.25000000  0.16437962  1
  S  S24  1  0.54160322  0.25000000  0.66437962  1
  S  S25  1  0.39284339  0.00497831  0.12344035  1
  S  S26  1  0.89284339  0.99502169  0.37655965  1
  S  S27  1  0.04160322  0.75000000  0.83562038  1
