# generated using pymatgen
data_CsTbZnTe3
_symmetry_space_group_name_H-M   'P 1'
_cell_length_a   4.44044100
_cell_length_b   8.93329534
_cell_length_c   11.78424365
_cell_angle_alpha   90.13294119
_cell_angle_beta   90.00929433
_cell_angle_gamma   104.34273701
_symmetry_Int_Tables_number   1
_chemical_formula_structural   CsTbZnTe3
_chemical_formula_sum   'Cs2 Tb2 Zn2 Te6'
_cell_volume   452.88333736
_cell_formula_units_Z   2
loop_
 _symmetry_equiv_pos_site_id
 _symmetry_equiv_pos_as_xyz
  1  'x, y, z'
loop_
 _atom_site_type_symbol
 _atom_site_label
 _atom_site_symmetry_multiplicity
 _atom_site_fract_x
 _atom_site_fract_y
 _atom_site_fract_z
 _atom_site_occupancy
  Tb  Tb0  1  0.00059191  0.99921867  0.99913826  1
  Tb  Tb1  1  0.99659993  0.99829695  0.49948813  1
  Cs  Cs2  1  0.25422590  0.50835868  0.24879289  1
  Cs  Cs3  1  0.74714096  0.48881471  0.75040194  1
  Zn  Zn4  1  0.53921574  0.07655980  0.25102462  1
  Zn  Zn5  1  0.46535553  0.92169129  0.74871506  1
  Te  Te6  1  0.06101504  0.11474257  0.74949578  1
  Te  Te7  1  0.61824069  0.23878584  0.44286526  1
  Te  Te8  1  0.61997563  0.23820795  0.05875754  1
  Te  Te9  1  0.94178754  0.88383157  0.24946075  1
  Te  Te10  1  0.38205348  0.75980873  0.94063684  1
  Te  Te11  1  0.37977065  0.75821024  0.55777295  1
