# generated using pymatgen
data_K3Sn2S3BrO12
_symmetry_space_group_name_H-M   'P 1'
_cell_length_a   10.42461934
_cell_length_b   10.55687269
_cell_length_c   7.60670612
_cell_angle_alpha   90.00000000
_cell_angle_beta   90.00000000
_cell_angle_gamma   120.18902083
_symmetry_Int_Tables_number   1
_chemical_formula_structural   K3Sn2S3BrO12
_chemical_formula_sum   'K6 Sn4 S6 Br2 O24'
_cell_volume   723.58974590
_cell_formula_units_Z   2
loop_
 _symmetry_equiv_pos_site_id
 _symmetry_equiv_pos_as_xyz
  1  'x, y, z'
loop_
 _atom_site_type_symbol
 _atom_site_label
 _atom_site_symmetry_multiplicity
 _atom_site_fract_x
 _atom_site_fract_y
 _atom_site_fract_z
 _atom_site_occupancy
  K  K0  1  0.34972702  0.67624249  0.02383348  1
  K  K1  1  0.33526606  0.66888592  0.50205520  1
  K  K2  1  0.25138851  0.26034924  0.26268115  1
  K  K3  1  0.74861149  0.73965076  0.76268115  1
  K  K4  1  0.65027298  0.32375751  0.52383348  1
  K  K5  1  0.66473394  0.33111408  0.00205520  1
  Sn  Sn6  1  0.25194117  0.97158525  0.79872522  1
  Sn  Sn7  1  0.03295793  0.26129420  0.77377927  1
  Sn  Sn8  1  0.96704207  0.73870580  0.27377927  1
  Sn  Sn9  1  0.74805883  0.02841475  0.29872522  1
  S  S10  1  0.03627580  0.62441991  0.75547976  1
  S  S11  1  0.58618680  0.97395155  0.75271150  1
  S  S12  1  0.36370437  0.40677507  0.76351209  1
  S  S13  1  0.63629563  0.59322493  0.26351209  1
  S  S14  1  0.41381320  0.02604845  0.25271150  1
  S  S15  1  0.96372420  0.37558009  0.25547976  1
  Br  Br16  1  0.99797635  0.99863474  0.99954262  1
  Br  Br17  1  0.00202365  0.00136526  0.49954262  1
  O  O18  1  0.10110397  0.73442475  0.90804414  1
  O  O19  1  0.08572900  0.71543524  0.59147770  1
  O  O20  1  0.10629681  0.53057943  0.76297840  1
  O  O21  1  0.12579121  0.46244403  0.27038173  1
  O  O22  1  0.35727370  0.86733299  0.26138021  1
  O  O23  1  0.41592599  0.88995034  0.75699809  1
  O  O24  1  0.26016665  0.36139822  0.92270179  1
  O  O25  1  0.25635909  0.35288766  0.60947992  1
  O  O26  1  0.62810462  0.93450943  0.57889397  1
  O  O27  1  0.45458726  0.56790921  0.75851564  1
  O  O28  1  0.63682667  0.91947672  0.89909219  1
  O  O29  1  0.54474674  0.66278456  0.26723592  1
  O  O30  1  0.45525326  0.33721544  0.76723592  1
  O  O31  1  0.36317333  0.08052328  0.39909219  1
  O  O32  1  0.54541274  0.43209079  0.25851564  1
  O  O33  1  0.37189538  0.06549057  0.07889397  1
  O  O34  1  0.74364091  0.64711234  0.10947992  1
  O  O35  1  0.73983335  0.63860178  0.42270179  1
  O  O36  1  0.58407401  0.11004966  0.25699809  1
  O  O37  1  0.64272630  0.13266701  0.76138021  1
  O  O38  1  0.87420879  0.53755597  0.77038173  1
  O  O39  1  0.89370319  0.46942057  0.26297840  1
  O  O40  1  0.91427100  0.28456476  0.09147770  1
  O  O41  1  0.89889603  0.26557525  0.40804414  1
