# generated using pymatgen
data_NaCaSiHO4
_symmetry_space_group_name_H-M   'P 1'
_cell_length_a   5.77287413
_cell_length_b   7.10884247
_cell_length_c   5.53657034
_cell_angle_alpha   90.00000000
_cell_angle_beta   122.38677651
_cell_angle_gamma   90.00000000
_symmetry_Int_Tables_number   1
_chemical_formula_structural   NaCaSiHO4
_chemical_formula_sum   'Na2 Ca2 Si2 H2 O8'
_cell_volume   191.86976660
_cell_formula_units_Z   2
loop_
 _symmetry_equiv_pos_site_id
 _symmetry_equiv_pos_as_xyz
  1  'x, y, z'
loop_
 _atom_site_type_symbol
 _atom_site_label
 _atom_site_symmetry_multiplicity
 _atom_site_fract_x
 _atom_site_fract_y
 _atom_site_fract_z
 _atom_site_occupancy
  Na  Na0  1  0.36179935  0.76745323  0.62232044  1
  Na  Na1  1  0.63820065  0.26745323  0.37767956  1
  Ca  Ca2  1  0.99738107  0.51173217  0.99145386  1
  Ca  Ca3  1  0.00261893  0.01173217  0.00854614  1
  Si  Si4  1  0.65910761  0.75484219  0.28533356  1
  Si  Si5  1  0.34089239  0.25484219  0.71466644  1
  H  H6  1  0.96405291  0.00117689  0.49446634  1
  H  H7  1  0.03594709  0.50117689  0.50553366  1
  O  O8  1  0.32652801  0.76226697  0.12958632  1
  O  O9  1  0.67347199  0.26226697  0.87041368  1
  O  O10  1  0.76604584  0.75877582  0.06361253  1
  O  O11  1  0.23395416  0.25877582  0.93638747  1
  O  O12  1  0.79491567  0.57495293  0.50492930  1
  O  O13  1  0.20508433  0.07495293  0.49507070  1
  O  O14  1  0.79130379  0.95179980  0.49318739  1
  O  O15  1  0.20869621  0.45179980  0.50681261  1
