# generated using pymatgen
data_Yb2(SeO4)3
_symmetry_space_group_name_H-M   'P 1'
_cell_length_a   9.56402547
_cell_length_b   9.87727639
_cell_length_c   13.39415567
_cell_angle_alpha   90.00000000
_cell_angle_beta   91.37531682
_cell_angle_gamma   90.00000000
_symmetry_Int_Tables_number   1
_chemical_formula_structural   Yb2(SeO4)3
_chemical_formula_sum   'Yb8 Se12 O48'
_cell_volume   1264.93481012
_cell_formula_units_Z   4
loop_
 _symmetry_equiv_pos_site_id
 _symmetry_equiv_pos_as_xyz
  1  'x, y, z'
loop_
 _atom_site_type_symbol
 _atom_site_label
 _atom_site_symmetry_multiplicity
 _atom_site_fract_x
 _atom_site_fract_y
 _atom_site_fract_z
 _atom_site_occupancy
  Yb  Yb0  1  0.24908596  0.46530219  0.11670767  1
  Yb  Yb1  1  0.25091404  0.96530219  0.38329233  1
  Yb  Yb2  1  0.74908596  0.03469781  0.61670767  1
  Yb  Yb3  1  0.75091404  0.53469781  0.88329233  1
  Yb  Yb4  1  0.24817828  0.53389000  0.61759930  1
  Yb  Yb5  1  0.74817828  0.96611000  0.11759930  1
  Yb  Yb6  1  0.75182172  0.46611000  0.38240070  1
  Yb  Yb7  1  0.25182172  0.03389000  0.88240070  1
  Se  Se8  1  0.89198009  0.88329046  0.85676545  1
  Se  Se9  1  0.60801991  0.38329046  0.64323455  1
  Se  Se10  1  0.10801991  0.11670954  0.14323455  1
  Se  Se11  1  0.39628485  0.87988313  0.65145765  1
  Se  Se12  1  0.96312906  0.75295642  0.50512931  1
  Se  Se13  1  0.46312906  0.74704358  0.00512931  1
  Se  Se14  1  0.53687094  0.25295642  0.99487069  1
  Se  Se15  1  0.03687094  0.24704358  0.49487069  1
  Se  Se16  1  0.60371515  0.12011687  0.34854235  1
  Se  Se17  1  0.89628485  0.62011687  0.15145765  1
  Se  Se18  1  0.10371515  0.37988313  0.84854235  1
  Se  Se19  1  0.39198009  0.61670954  0.35676545  1
  O  O20  1  0.37366866  0.71612741  0.67785024  1
  O  O21  1  0.40735889  0.87060702  0.92981298  1
  O  O22  1  0.87366866  0.78387259  0.17785024  1
  O  O23  1  0.36330492  0.50476160  0.26593120  1
  O  O24  1  0.05968609  0.89160310  0.89356899  1
  O  O25  1  0.44031391  0.39160310  0.60643101  1
  O  O26  1  0.86330492  0.99523840  0.76593120  1
  O  O27  1  0.56278454  0.91799814  0.67968140  1
  O  O28  1  0.29173328  0.97598957  0.71997826  1
  O  O29  1  0.67358387  0.33152897  0.94680508  1
  O  O30  1  0.70826672  0.02401043  0.28002174  1
  O  O31  1  0.56546061  0.81024770  0.09672598  1
  O  O32  1  0.59264111  0.12939298  0.07018702  1
  O  O33  1  0.14529305  0.27289067  0.18347095  1
  O  O34  1  0.09264111  0.37060702  0.57018702  1
  O  O35  1  0.94741221  0.13802466  0.56351345  1
  O  O36  1  0.93721546  0.41799814  0.82031860  1
  O  O37  1  0.94031391  0.10839690  0.10643101  1
  O  O38  1  0.06546061  0.68975230  0.59672598  1
  O  O39  1  0.93453939  0.31024770  0.40327402  1
  O  O40  1  0.05258779  0.86197534  0.43648655  1
  O  O41  1  0.28951158  0.57905156  0.45221908  1
  O  O42  1  0.90735889  0.62939298  0.42981298  1
  O  O43  1  0.85470695  0.72710933  0.81652905  1
  O  O44  1  0.64529305  0.22710933  0.68347095  1
  O  O45  1  0.17358387  0.16847103  0.44680508  1
  O  O46  1  0.55258779  0.63802466  0.93648655  1
  O  O47  1  0.62633134  0.28387259  0.32214976  1
  O  O48  1  0.63961324  0.09104017  0.46905636  1
  O  O49  1  0.55968609  0.60839690  0.39356899  1
  O  O50  1  0.12633134  0.21612741  0.82214976  1
  O  O51  1  0.71048842  0.42094844  0.54778092  1
  O  O52  1  0.82641613  0.83152897  0.55319492  1
  O  O53  1  0.36038676  0.90895983  0.53094364  1
  O  O54  1  0.78951158  0.92094844  0.95221908  1
  O  O55  1  0.63669508  0.49523840  0.73406880  1
  O  O56  1  0.79173328  0.52401043  0.21997826  1
  O  O57  1  0.44741221  0.36197534  0.06351345  1
  O  O58  1  0.06278454  0.58200186  0.17968140  1
  O  O59  1  0.13669508  0.00476160  0.23406880  1
  O  O60  1  0.35470695  0.77289067  0.31652905  1
  O  O61  1  0.43453939  0.18975230  0.90327402  1
  O  O62  1  0.86038676  0.59104017  0.03094364  1
  O  O63  1  0.43721546  0.08200186  0.32031860  1
  O  O64  1  0.13961324  0.40895983  0.96905636  1
  O  O65  1  0.32641613  0.66847103  0.05319492  1
  O  O66  1  0.21048842  0.07905156  0.04778092  1
  O  O67  1  0.20826672  0.47598957  0.78002174  1
