# generated using pymatgen
data_BaMo2P3O14
_symmetry_space_group_name_H-M   'P 1'
_cell_length_a   8.33156946
_cell_length_b   8.33156888
_cell_length_c   8.79983179
_cell_angle_alpha   82.31182435
_cell_angle_beta   82.31182488
_cell_angle_gamma   72.73367097
_symmetry_Int_Tables_number   1
_chemical_formula_structural   BaMo2P3O14
_chemical_formula_sum   'Ba2 Mo4 P6 O28'
_cell_volume   575.20668653
_cell_formula_units_Z   2
loop_
 _symmetry_equiv_pos_site_id
 _symmetry_equiv_pos_as_xyz
  1  'x, y, z'
loop_
 _atom_site_type_symbol
 _atom_site_label
 _atom_site_symmetry_multiplicity
 _atom_site_fract_x
 _atom_site_fract_y
 _atom_site_fract_z
 _atom_site_occupancy
  Ba  Ba0  1  0.03797095  0.96307429  0.49456816  1
  Ba  Ba1  1  0.96307429  0.03797095  0.99456816  1
  Mo  Mo2  1  0.48989247  0.19585381  0.32603403  1
  Mo  Mo3  1  0.19585381  0.48989247  0.82603403  1
  Mo  Mo4  1  0.48843394  0.80990293  0.15304164  1
  Mo  Mo5  1  0.80990293  0.48843394  0.65304164  1
  P  P6  1  0.88693899  0.68136627  0.30244867  1
  P  P7  1  0.68136627  0.88693899  0.80244867  1
  P  P8  1  0.43422497  0.57488319  0.49388212  1
  P  P9  1  0.34321057  0.10179141  0.69263011  1
  P  P10  1  0.57488319  0.43422497  0.99388212  1
  P  P11  1  0.10179141  0.34321057  0.19263011  1
  O  O12  1  0.08440731  0.68489593  0.88651349  1
  O  O13  1  0.74865038  0.70179936  0.77167458  1
  O  O14  1  0.59020437  0.58010544  0.07449097  1
  O  O15  1  0.63295946  0.90758163  0.97686139  1
  O  O16  1  0.04191909  0.18874296  0.24757152  1
  O  O17  1  0.94705923  0.50908247  0.21968727  1
  O  O18  1  0.25117845  0.36381505  0.26240913  1
  O  O19  1  0.90758163  0.63295946  0.47686139  1
  O  O20  1  0.13472836  0.34760660  0.01326609  1
  O  O21  1  0.27894703  0.59372933  0.61820113  1
  O  O22  1  0.50908247  0.94705923  0.71968727  1
  O  O23  1  0.18874296  0.04191909  0.74757152  1
  O  O24  1  0.86448201  0.30348569  0.56613649  1
  O  O25  1  0.30348569  0.86448201  0.06613649  1
  O  O26  1  0.34760660  0.13472836  0.51326609  1
  O  O27  1  0.44063255  0.03587072  0.23610108  1
  O  O28  1  0.03587072  0.44063255  0.73610108  1
  O  O29  1  0.68489593  0.08440731  0.38651349  1
  O  O30  1  0.80213791  0.98982667  0.74072794  1
  O  O31  1  0.36381505  0.25117845  0.76240913  1
  O  O32  1  0.72418691  0.37750251  0.86904336  1
  O  O33  1  0.37750251  0.72418691  0.36904336  1
  O  O34  1  0.48528153  0.40499726  0.42401083  1
  O  O35  1  0.40499726  0.48528153  0.92401083  1
  O  O36  1  0.98982667  0.80213791  0.24072794  1
  O  O37  1  0.58010544  0.59020437  0.57449097  1
  O  O38  1  0.70179936  0.74865038  0.27167458  1
  O  O39  1  0.59372933  0.27894703  0.11820113  1
