# generated using pymatgen
data_Cs3Sc2Cl9
_symmetry_space_group_name_H-M   'P 1'
_cell_length_a   9.73731242
_cell_length_b   9.73731245
_cell_length_c   9.73731210
_cell_angle_alpha   84.19408078
_cell_angle_beta   84.19408077
_cell_angle_gamma   84.19408450
_symmetry_Int_Tables_number   1
_chemical_formula_structural   Cs3Sc2Cl9
_chemical_formula_sum   'Cs6 Sc4 Cl18'
_cell_volume   909.93389348
_cell_formula_units_Z   2
loop_
 _symmetry_equiv_pos_site_id
 _symmetry_equiv_pos_as_xyz
  1  'x, y, z'
loop_
 _atom_site_type_symbol
 _atom_site_label
 _atom_site_symmetry_multiplicity
 _atom_site_fract_x
 _atom_site_fract_y
 _atom_site_fract_z
 _atom_site_occupancy
  Cs  Cs0  1  0.41408205  0.75000000  0.08591795  1
  Cs  Cs1  1  0.91408205  0.58591795  0.25000000  1
  Cs  Cs2  1  0.08591795  0.41408205  0.75000000  1
  Cs  Cs3  1  0.25000000  0.91408205  0.58591795  1
  Cs  Cs4  1  0.75000000  0.08591795  0.41408205  1
  Cs  Cs5  1  0.58591795  0.25000000  0.91408205  1
  Sc  Sc6  1  0.65295700  0.65295700  0.65295700  1
  Sc  Sc7  1  0.15295700  0.15295700  0.15295700  1
  Sc  Sc8  1  0.84704300  0.84704300  0.84704300  1
  Sc  Sc9  1  0.34704300  0.34704300  0.34704300  1
  Cl  Cl10  1  0.60244159  0.89755841  0.75000000  1
  Cl  Cl11  1  0.89755841  0.75000000  0.60244159  1
  Cl  Cl12  1  0.07174824  0.74556568  0.90981608  1
  Cl  Cl13  1  0.75443432  0.42825176  0.59018392  1
  Cl  Cl14  1  0.57174824  0.40981608  0.24556568  1
  Cl  Cl15  1  0.90981608  0.07174824  0.74556568  1
  Cl  Cl16  1  0.75000000  0.60244159  0.89755841  1
  Cl  Cl17  1  0.09018392  0.92825176  0.25443432  1
  Cl  Cl18  1  0.74556568  0.90981608  0.07174824  1
  Cl  Cl19  1  0.25000000  0.39755841  0.10244159  1
  Cl  Cl20  1  0.39755841  0.10244159  0.25000000  1
  Cl  Cl21  1  0.92825176  0.25443432  0.09018392  1
  Cl  Cl22  1  0.10244159  0.25000000  0.39755841  1
  Cl  Cl23  1  0.24556568  0.57174824  0.40981608  1
  Cl  Cl24  1  0.25443432  0.09018392  0.92825176  1
  Cl  Cl25  1  0.59018392  0.75443432  0.42825176  1
  Cl  Cl26  1  0.42825176  0.59018392  0.75443432  1
  Cl  Cl27  1  0.40981608  0.24556568  0.57174824  1
