# generated using pymatgen
data_NaB9Se8
_symmetry_space_group_name_H-M   'P 1'
_cell_length_a   17.23554704
_cell_length_b   17.23554683
_cell_length_c   9.03849655
_cell_angle_alpha   90.00000000
_cell_angle_beta   90.00000000
_cell_angle_gamma   120.00000040
_symmetry_Int_Tables_number   1
_chemical_formula_structural   NaB9Se8
_chemical_formula_sum   'Na6 B54 Se48'
_cell_volume   2325.28915144
_cell_formula_units_Z   6
loop_
 _symmetry_equiv_pos_site_id
 _symmetry_equiv_pos_as_xyz
  1  'x, y, z'
loop_
 _atom_site_type_symbol
 _atom_site_label
 _atom_site_symmetry_multiplicity
 _atom_site_fract_x
 _atom_site_fract_y
 _atom_site_fract_z
 _atom_site_occupancy
  Na  Na0  1  0.34070682  0.14696741  0.80097869  1
  Na  Na1  1  0.80626058  0.65929318  0.80097869  1
  Na  Na2  1  0.14696741  0.80626058  0.19902131  1
  Na  Na3  1  0.19373942  0.34070682  0.19902131  1
  Na  Na4  1  0.85303259  0.19373942  0.80097869  1
  Na  Na5  1  0.65929318  0.85303259  0.19902131  1
  B  B6  1  0.98507756  0.93439076  0.85103319  1
  B  B7  1  0.32878041  0.56825801  0.98240402  1
  B  B8  1  0.56825801  0.23947760  0.01759598  1
  B  B9  1  0.02515128  0.10596582  0.96399696  1
  B  B10  1  0.56256303  0.79724743  0.74764657  1
  B  B11  1  0.27395154  0.66789489  0.16748333  1
  B  B12  1  0.23544097  0.57264527  0.05439212  1
  B  B13  1  0.01492244  0.06560924  0.14896681  1
  B  B14  1  0.23206353  0.09451572  0.26675164  1
  B  B15  1  0.33552159  0.72735493  0.86955952  1
  B  B16  1  0.72604846  0.33210511  0.83251667  1
  B  B17  1  0.42448584  0.89762454  0.28920388  1
  B  B18  1  0.06560924  0.05068680  0.85103319  1
  B  B19  1  0.91918546  0.02515128  0.03600304  1
  B  B20  1  0.72735493  0.39183334  0.13044048  1
  B  B21  1  0.57551416  0.10237546  0.71079612  1
  B  B22  1  0.27264507  0.60816666  0.86955952  1
  B  B23  1  0.52686131  0.42448584  0.71079612  1
  B  B24  1  0.13754781  0.23206353  0.73324836  1
  B  B25  1  0.66447841  0.27264507  0.13044048  1
  B  B26  1  0.20275257  0.76531560  0.74764657  1
  B  B27  1  0.60605664  0.27395154  0.83251667  1
  B  B28  1  0.76531560  0.56256303  0.25235343  1
  B  B29  1  0.57264527  0.33720430  0.94560788  1
  B  B30  1  0.79724743  0.23468440  0.25235343  1
  B  B31  1  0.23947760  0.67121959  0.98240402  1
  B  B32  1  0.10237546  0.52686131  0.28920388  1
  B  B33  1  0.93439076  0.94931320  0.14896681  1
  B  B34  1  0.97484872  0.89403418  0.03600304  1
  B  B35  1  0.47313869  0.57551416  0.28920388  1
  B  B36  1  0.39394336  0.72604846  0.16748333  1
  B  B37  1  0.33720430  0.76455903  0.05439212  1
  B  B38  1  0.76052240  0.32878041  0.01759598  1
  B  B39  1  0.23468440  0.43743697  0.74764657  1
  B  B40  1  0.05068680  0.98507756  0.14896681  1
  B  B41  1  0.86245219  0.76793647  0.26675164  1
  B  B42  1  0.39183334  0.66447841  0.86955952  1
  B  B43  1  0.43743697  0.20275257  0.25235343  1
  B  B44  1  0.67121959  0.43174199  0.01759598  1
  B  B45  1  0.89403418  0.91918546  0.96399696  1
  B  B46  1  0.33210511  0.60605664  0.16748333  1
  B  B47  1  0.43174199  0.76052240  0.98240402  1
  B  B48  1  0.89762454  0.47313869  0.71079612  1
  B  B49  1  0.94931320  0.01492244  0.85103319  1
  B  B50  1  0.90548428  0.13754781  0.26675164  1
  B  B51  1  0.08081454  0.97484872  0.96399696  1
  B  B52  1  0.60816666  0.33552159  0.13044048  1
  B  B53  1  0.42735473  0.66279570  0.05439212  1
  B  B54  1  0.76455903  0.42735473  0.94560788  1
  B  B55  1  0.66789489  0.39394336  0.83251667  1
  B  B56  1  0.09451572  0.86245219  0.73324836  1
  B  B57  1  0.10596582  0.08081454  0.03600304  1
  B  B58  1  0.76793647  0.90548428  0.73324836  1
  B  B59  1  0.66279570  0.23544097  0.94560788  1
  Se  Se60  1  0.46607622  0.34860351  0.88472255  1
  Se  Se61  1  0.87402855  0.02021282  0.68466027  1
  Se  Se62  1  0.65262218  0.46402154  0.66604980  1
  Se  Se63  1  0.97978718  0.85381574  0.68466027  1
  Se  Se64  1  0.23213795  0.16876571  0.10044962  1
  Se  Se65  1  0.52747025  0.32356608  0.30110541  1
  Se  Se66  1  0.12597145  0.97978718  0.31533973  1
  Se  Se67  1  0.19865098  0.33658464  0.60290888  1
  Se  Se68  1  0.88252729  0.53392378  0.88472255  1
  Se  Se69  1  0.14618426  0.12597145  0.68466027  1
  Se  Se70  1  0.34737782  0.53597846  0.33395020  1
  Se  Se71  1  0.55115898  0.54942714  0.40901525  1
  Se  Se72  1  0.85381574  0.87402855  0.31533973  1
  Se  Se73  1  0.86206633  0.19865098  0.39709112  1
  Se  Se74  1  0.44884102  0.45057286  0.59098475  1
  Se  Se75  1  0.81139936  0.34737782  0.66604980  1
  Se  Se76  1  0.31035261  0.44780920  0.91777661  1
  Se  Se77  1  0.13745659  0.68964739  0.91777661  1
  Se  Se78  1  0.13793367  0.80134902  0.60290888  1
  Se  Se79  1  0.68964739  0.55219080  0.08222339  1
  Se  Se80  1  0.93662776  0.76786205  0.10044962  1
  Se  Se81  1  0.44780920  0.13745659  0.08222339  1
  Se  Se82  1  0.46402154  0.81139936  0.33395020  1
  Se  Se83  1  0.33658464  0.13793367  0.39709112  1
  Se  Se84  1  0.20390418  0.52747025  0.69889459  1
  Se  Se85  1  0.53597846  0.18860064  0.66604980  1
  Se  Se86  1  0.47252975  0.67643392  0.69889459  1
  Se  Se87  1  0.67643392  0.20390418  0.30110541  1
  Se  Se88  1  0.06337224  0.23213795  0.89955038  1
  Se  Se89  1  0.86254341  0.31035261  0.08222339  1
  Se  Se90  1  0.34860351  0.88252729  0.11527745  1
  Se  Se91  1  0.00173184  0.55115898  0.59098475  1
  Se  Se92  1  0.02021282  0.14618426  0.31533973  1
  Se  Se93  1  0.76786205  0.83123429  0.89955038  1
  Se  Se94  1  0.99826816  0.44884102  0.40901525  1
  Se  Se95  1  0.45057286  0.00173184  0.40901525  1
  Se  Se96  1  0.65139649  0.11747271  0.88472255  1
  Se  Se97  1  0.80134902  0.66341536  0.39709112  1
  Se  Se98  1  0.66341536  0.86206633  0.60290888  1
  Se  Se99  1  0.18860064  0.65262218  0.33395020  1
  Se  Se100  1  0.16876571  0.93662776  0.89955038  1
  Se  Se101  1  0.11747271  0.46607622  0.11527745  1
  Se  Se102  1  0.79609582  0.47252975  0.30110541  1
  Se  Se103  1  0.54942714  0.99826816  0.59098475  1
  Se  Se104  1  0.55219080  0.86254341  0.91777661  1
  Se  Se105  1  0.83123429  0.06337224  0.10044962  1
  Se  Se106  1  0.53392378  0.65139649  0.11527745  1
  Se  Se107  1  0.32356608  0.79609582  0.69889459  1
