# generated using pymatgen
data_La4Te3N2
_symmetry_space_group_name_H-M   'P 1'
_cell_length_a   7.52503111
_cell_length_b   11.70592430
_cell_length_c   11.87123160
_cell_angle_alpha   90.00000000
_cell_angle_beta   90.00000000
_cell_angle_gamma   90.00000000
_symmetry_Int_Tables_number   1
_chemical_formula_structural   La4Te3N2
_chemical_formula_sum   'La16 Te12 N8'
_cell_volume   1045.70645505
_cell_formula_units_Z   4
loop_
 _symmetry_equiv_pos_site_id
 _symmetry_equiv_pos_as_xyz
  1  'x, y, z'
loop_
 _atom_site_type_symbol
 _atom_site_label
 _atom_site_symmetry_multiplicity
 _atom_site_fract_x
 _atom_site_fract_y
 _atom_site_fract_z
 _atom_site_occupancy
  La  La0  1  0.64720014  0.10918356  0.05015006  1
  La  La1  1  0.85279986  0.60918356  0.94984994  1
  La  La2  1  0.22412247  0.02965606  0.25000000  1
  La  La3  1  0.27587753  0.52965606  0.75000000  1
  La  La4  1  0.77587753  0.97034394  0.75000000  1
  La  La5  1  0.35279986  0.89081644  0.55015006  1
  La  La6  1  0.35279986  0.89081644  0.94984994  1
  La  La7  1  0.91079076  0.34132592  0.75000000  1
  La  La8  1  0.72412247  0.47034394  0.25000000  1
  La  La9  1  0.14720014  0.39081644  0.05015006  1
  La  La10  1  0.08920924  0.65867408  0.25000000  1
  La  La11  1  0.58920924  0.84132592  0.25000000  1
  La  La12  1  0.85279986  0.60918356  0.55015006  1
  La  La13  1  0.64720014  0.10918356  0.44984994  1
  La  La14  1  0.41079076  0.15867408  0.75000000  1
  La  La15  1  0.14720014  0.39081644  0.44984994  1
  Te  Te16  1  0.93302222  0.86445699  0.42278118  1
  Te  Te17  1  0.06697778  0.13554301  0.92278118  1
  Te  Te18  1  0.43302222  0.63554301  0.42278118  1
  Te  Te19  1  0.41836985  0.27044622  0.25000000  1
  Te  Te20  1  0.56697778  0.36445699  0.57721882  1
  Te  Te21  1  0.93302222  0.86445699  0.07721882  1
  Te  Te22  1  0.08163015  0.77044622  0.75000000  1
  Te  Te23  1  0.56697778  0.36445699  0.92278118  1
  Te  Te24  1  0.06697778  0.13554301  0.57721882  1
  Te  Te25  1  0.58163015  0.72955378  0.75000000  1
  Te  Te26  1  0.43302222  0.63554301  0.07721882  1
  Te  Te27  1  0.91836985  0.22955378  0.25000000  1
  N  N28  1  0.05452344  0.46608898  0.62177080  1
  N  N29  1  0.55452344  0.03391102  0.87822920  1
  N  N30  1  0.44547656  0.96608898  0.37822920  1
  N  N31  1  0.94547656  0.53391102  0.37822920  1
  N  N32  1  0.44547656  0.96608898  0.12177080  1
  N  N33  1  0.94547656  0.53391102  0.12177080  1
  N  N34  1  0.55452344  0.03391102  0.62177080  1
  N  N35  1  0.05452344  0.46608898  0.87822920  1
