# generated using pymatgen
data_V2GaSn2
_symmetry_space_group_name_H-M   'P 1'
_cell_length_a   5.60917043
_cell_length_b   6.75201423
_cell_length_c   9.83975713
_cell_angle_alpha   90.00000000
_cell_angle_beta   106.56039686
_cell_angle_gamma   90.00000000
_symmetry_Int_Tables_number   1
_chemical_formula_structural   V2GaSn2
_chemical_formula_sum   'V8 Ga4 Sn8'
_cell_volume   357.20494237
_cell_formula_units_Z   4
loop_
 _symmetry_equiv_pos_site_id
 _symmetry_equiv_pos_as_xyz
  1  'x, y, z'
loop_
 _atom_site_type_symbol
 _atom_site_label
 _atom_site_symmetry_multiplicity
 _atom_site_fract_x
 _atom_site_fract_y
 _atom_site_fract_z
 _atom_site_occupancy
  V  V0  1  0.57391809  0.47178396  0.14783618  1
  V  V1  1  0.42608191  0.52821604  0.85216382  1
  V  V2  1  0.07391809  0.02821604  0.14783618  1
  V  V3  1  0.90883525  0.75000000  0.31767049  1
  V  V4  1  0.40883525  0.75000000  0.31767049  1
  V  V5  1  0.59116475  0.25000000  0.68232951  1
  V  V6  1  0.92608191  0.97178396  0.85216382  1
  V  V7  1  0.09116475  0.25000000  0.68232951  1
  Ga  Ga8  1  0.76814549  0.75000000  0.03629098  1
  Ga  Ga9  1  0.73185451  0.25000000  0.96370902  1
  Ga  Ga10  1  0.23185451  0.25000000  0.96370902  1
  Ga  Ga11  1  0.26814549  0.75000000  0.03629098  1
  Sn  Sn12  1  0.72172829  0.42228432  0.44345658  1
  Sn  Sn13  1  0.38865217  0.92300423  0.77730434  1
  Sn  Sn14  1  0.27827171  0.57771568  0.55654342  1
  Sn  Sn15  1  0.22172829  0.07771568  0.44345658  1
  Sn  Sn16  1  0.77827171  0.92228432  0.55654342  1
  Sn  Sn17  1  0.88865217  0.57699577  0.77730434  1
  Sn  Sn18  1  0.61134783  0.07699577  0.22269566  1
  Sn  Sn19  1  0.11134783  0.42300423  0.22269566  1
