# generated using pymatgen
data_K3Fe2(PO4)3
_symmetry_space_group_name_H-M   'P 1'
_cell_length_a   9.56735186
_cell_length_b   9.56783950
_cell_length_c   15.68210870
_cell_angle_alpha   98.31127313
_cell_angle_beta   99.41344951
_cell_angle_gamma   119.67497071
_symmetry_Int_Tables_number   1
_chemical_formula_structural   K3Fe2(PO4)3
_chemical_formula_sum   'K12 Fe8 P12 O48'
_cell_volume   1187.10085546
_cell_formula_units_Z   4
loop_
 _symmetry_equiv_pos_site_id
 _symmetry_equiv_pos_as_xyz
  1  'x, y, z'
loop_
 _atom_site_type_symbol
 _atom_site_label
 _atom_site_symmetry_multiplicity
 _atom_site_fract_x
 _atom_site_fract_y
 _atom_site_fract_z
 _atom_site_occupancy
  K  K0  1  0.99036879  0.47055835  0.67959045  1
  K  K1  1  0.49263899  0.66336513  0.41917287  1
  K  K2  1  0.47485579  0.72491929  0.75015794  1
  K  K3  1  0.70909750  0.68918661  0.17961020  1
  K  K4  1  0.25572958  0.92643870  0.91918258  1
  K  K5  1  0.00000000  0.50000000  0.00000000  1
  K  K6  1  0.52514421  0.27508071  0.24984206  1
  K  K7  1  0.50736101  0.33663487  0.58082713  1
  K  K8  1  0.00963121  0.52944165  0.32040955  1
  K  K9  1  0.29090250  0.31081339  0.82038980  1
  K  K10  1  0.00000000  0.00000000  0.50000000  1
  K  K11  1  0.74427042  0.07356130  0.08081742  1
  Fe  Fe12  1  0.65659310  0.19052848  0.82382988  1
  Fe  Fe13  1  0.13331590  0.16725549  0.32382884  1
  Fe  Fe14  1  0.34340690  0.80947152  0.17617012  1
  Fe  Fe15  1  0.75434847  0.72297420  0.96590319  1
  Fe  Fe16  1  0.25705415  0.78843944  0.53408294  1
  Fe  Fe17  1  0.74294585  0.21156056  0.46591706  1
  Fe  Fe18  1  0.86668410  0.83274451  0.67617116  1
  Fe  Fe19  1  0.24565153  0.27702580  0.03409681  1
  P  P20  1  0.66197712  0.01115487  0.62196162  1
  P  P21  1  0.83018830  0.60051386  0.48145006  1
  P  P22  1  0.11080745  0.96000267  0.12195895  1
  P  P23  1  0.77338031  0.57657424  0.80991579  1
  P  P24  1  0.16981170  0.39948614  0.51854994  1
  P  P25  1  0.38090910  0.65126416  0.98147533  1
  P  P26  1  0.61909090  0.34873584  0.01852467  1
  P  P27  1  0.88919255  0.03999733  0.87804105  1
  P  P28  1  0.33802288  0.98884513  0.37803838  1
  P  P29  1  0.22661969  0.42342576  0.19008421  1
  P  P30  1  0.73334825  0.03656632  0.30990366  1
  P  P31  1  0.26665175  0.96343368  0.69009634  1
  O  O32  1  0.19861153  0.37593646  0.27950513  1
  O  O33  1  0.40356585  0.08083364  0.77952993  1
  O  O34  1  0.21821845  0.30813831  0.44806692  1
  O  O35  1  0.92068945  0.87903338  0.08224281  1
  O  O36  1  0.01760467  0.72038178  0.48710935  1
  O  O37  1  0.76143111  0.40508749  0.79756470  1
  O  O38  1  0.29673186  0.83842728  0.41773054  1
  O  O39  1  0.76680246  0.21609000  0.33019434  1
  O  O40  1  0.77943061  0.92809022  0.93175595  1
  O  O41  1  0.80686483  0.44361876  0.51122246  1
  O  O42  1  0.89247760  0.03615219  0.29755864  1
  O  O43  1  0.27827917  0.44026665  0.61257968  1
  O  O44  1  0.26671647  0.46948791  0.98713713  1
  O  O45  1  0.80138847  0.62406354  0.72049487  1
  O  O46  1  0.63995076  0.22985681  0.94804441  1
  O  O47  1  0.68944131  0.97669073  0.39425737  1
  O  O48  1  0.16351215  0.07485964  0.21603055  1
  O  O49  1  0.70326814  0.16157272  0.58226946  1
  O  O50  1  0.31055869  0.02330927  0.60574263  1
  O  O51  1  0.56758857  0.70436930  0.01119849  1
  O  O52  1  0.50364819  0.15227589  0.43176772  1
  O  O53  1  0.83648785  0.92514036  0.78396945  1
  O  O54  1  0.67246057  0.33436376  0.11255624  1
  O  O55  1  0.35881327  0.94745750  0.28396151  1
  O  O56  1  0.49635181  0.84772411  0.56823228  1
  O  O57  1  0.19313517  0.55638124  0.48877754  1
  O  O58  1  0.91759621  0.70482502  0.89428058  1
  O  O59  1  0.19356731  0.02089650  0.37674272  1
  O  O60  1  0.73328353  0.53051209  0.01286287  1
  O  O61  1  0.36004924  0.77014319  0.05195559  1
  O  O62  1  0.08240379  0.29517498  0.10571942  1
  O  O63  1  0.23319754  0.78391000  0.66980566  1
  O  O64  1  0.10752240  0.96384781  0.70244136  1
  O  O65  1  0.72172083  0.55973335  0.38742032  1
  O  O66  1  0.38587194  0.43658992  0.16981529  1
  O  O67  1  0.23856889  0.59491251  0.20243530  1
  O  O68  1  0.43241143  0.29563070  0.98880151  1
  O  O69  1  0.80643269  0.97910350  0.62325728  1
  O  O70  1  0.07931055  0.12096662  0.91775719  1
  O  O71  1  0.14412814  0.81681371  0.12323669  1
  O  O72  1  0.78178155  0.69186169  0.55193308  1
  O  O73  1  0.22056939  0.07190978  0.06824405  1
  O  O74  1  0.64118673  0.05254250  0.71603849  1
  O  O75  1  0.61412806  0.56341008  0.83018471  1
  O  O76  1  0.59643415  0.91916636  0.22047007  1
  O  O77  1  0.85587186  0.18318629  0.87676331  1
  O  O78  1  0.32753943  0.66563624  0.88744376  1
  O  O79  1  0.98239533  0.27961822  0.51289065  1
