# generated using pymatgen
data_Sr2CoTeO6
_symmetry_space_group_name_H-M   'P 1'
_cell_length_a   5.68777800
_cell_length_b   5.72201190
_cell_length_c   8.01482084
_cell_angle_alpha   89.84835677
_cell_angle_beta   90.00000000
_cell_angle_gamma   90.00000000
_symmetry_Int_Tables_number   1
_chemical_formula_structural   Sr2CoTeO6
_chemical_formula_sum   'Sr4 Co2 Te2 O12'
_cell_volume   260.84570605
_cell_formula_units_Z   2
loop_
 _symmetry_equiv_pos_site_id
 _symmetry_equiv_pos_as_xyz
  1  'x, y, z'
loop_
 _atom_site_type_symbol
 _atom_site_label
 _atom_site_symmetry_multiplicity
 _atom_site_fract_x
 _atom_site_fract_y
 _atom_site_fract_z
 _atom_site_occupancy
  Sr  Sr0  1  0.48576014  0.49552571  0.74998877  1
  Sr  Sr1  1  0.01423986  0.99552571  0.24998877  1
  Sr  Sr2  1  0.51423986  0.50447429  0.25001123  1
  Sr  Sr3  1  0.98576014  0.00447429  0.75001123  1
  Co  Co4  1  0.00000000  0.50000000  0.00000000  1
  Co  Co5  1  0.50000000  0.00000000  0.50000000  1
  Te  Te6  1  0.50000000  0.00000000  0.00000000  1
  Te  Te7  1  0.00000000  0.50000000  0.50000000  1
  O  O8  1  0.22218590  0.24270195  0.53268310  1
  O  O9  1  0.74073463  0.28001536  0.53437407  1
  O  O10  1  0.75926537  0.78001536  0.03437407  1
  O  O11  1  0.99165569  0.43697884  0.26017884  1
  O  O12  1  0.24073463  0.21998464  0.96562593  1
  O  O13  1  0.72218590  0.25729805  0.96731690  1
  O  O14  1  0.77781410  0.75729805  0.46731690  1
  O  O15  1  0.27781410  0.74270195  0.03268310  1
  O  O16  1  0.50834431  0.93697884  0.76017884  1
  O  O17  1  0.00834431  0.56302116  0.73982116  1
  O  O18  1  0.25926537  0.71998464  0.46562593  1
  O  O19  1  0.49165569  0.06302116  0.23982116  1
