# generated using pymatgen
data_BaH5ClO3
_symmetry_space_group_name_H-M   'P 1'
_cell_length_a   4.56018390
_cell_length_b   4.56018390
_cell_length_c   11.68673708
_cell_angle_alpha   90.00000000
_cell_angle_beta   90.00000000
_cell_angle_gamma   90.00000000
_symmetry_Int_Tables_number   1
_chemical_formula_structural   BaH5ClO3
_chemical_formula_sum   'Ba2 H10 Cl2 O6'
_cell_volume   243.02893716
_cell_formula_units_Z   2
loop_
 _symmetry_equiv_pos_site_id
 _symmetry_equiv_pos_as_xyz
  1  'x, y, z'
loop_
 _atom_site_type_symbol
 _atom_site_label
 _atom_site_symmetry_multiplicity
 _atom_site_fract_x
 _atom_site_fract_y
 _atom_site_fract_z
 _atom_site_occupancy
  Ba  Ba0  1  0.75000000  0.75000000  0.82089327  1
  Ba  Ba1  1  0.25000000  0.25000000  0.17910673  1
  H  H2  1  0.93147687  0.25000000  0.63052647  1
  H  H3  1  0.56852313  0.25000000  0.63052647  1
  H  H4  1  0.25000000  0.93147687  0.63052647  1
  H  H5  1  0.25000000  0.56852313  0.63052647  1
  H  H6  1  0.06852313  0.75000000  0.36947353  1
  H  H7  1  0.43147687  0.75000000  0.36947353  1
  H  H8  1  0.75000000  0.06852313  0.36947353  1
  H  H9  1  0.75000000  0.43147687  0.36947353  1
  H  H10  1  0.25000000  0.25000000  0.49120814  1
  H  H11  1  0.75000000  0.75000000  0.50879186  1
  Cl  Cl12  1  0.25000000  0.25000000  0.90653780  1
  Cl  Cl13  1  0.75000000  0.75000000  0.09346220  1
  O  O14  1  0.75000000  0.25000000  0.68167481  1
  O  O15  1  0.25000000  0.75000000  0.68167481  1
  O  O16  1  0.25000000  0.75000000  0.31832519  1
  O  O17  1  0.75000000  0.25000000  0.31832519  1
  O  O18  1  0.25000000  0.25000000  0.57418754  1
  O  O19  1  0.75000000  0.75000000  0.42581246  1
