# generated using pymatgen
data_Na3GdI6
_symmetry_space_group_name_H-M   'P 1'
_cell_length_a   7.86606442
_cell_length_b   7.89485782
_cell_length_c   7.89485737
_cell_angle_alpha   119.75564544
_cell_angle_beta   99.73461074
_cell_angle_gamma   99.73460745
_symmetry_Int_Tables_number   1
_chemical_formula_structural   Na3GdI6
_chemical_formula_sum   'Na3 Gd1 I6'
_cell_volume   400.75184803
_cell_formula_units_Z   1
loop_
 _symmetry_equiv_pos_site_id
 _symmetry_equiv_pos_as_xyz
  1  'x, y, z'
loop_
 _atom_site_type_symbol
 _atom_site_label
 _atom_site_symmetry_multiplicity
 _atom_site_fract_x
 _atom_site_fract_y
 _atom_site_fract_z
 _atom_site_occupancy
  Na  Na0  1  0.00000000  0.33284132  0.66715868  1
  Na  Na1  1  0.50000000  0.82851959  0.17148041  1
  Na  Na2  1  0.00000000  0.66708466  0.33291534  1
  Gd  Gd3  1  1.00000000  0.00016214  0.99983786  1
  I  I4  1  0.24007173  0.76314147  0.76468597  1
  I  I5  1  0.24364089  0.40109806  0.08238908  1
  I  I6  1  0.24474860  0.08135591  0.39952811  1
  I  I7  1  0.75635911  0.91761092  0.59890194  1
  I  I8  1  0.75525140  0.60047189  0.91864409  1
  I  I9  1  0.75992827  0.23531403  0.23685853  1
