# generated using pymatgen
data_Nd3CuSiSe7
_symmetry_space_group_name_H-M   'P 1'
_cell_length_a   10.61917963
_cell_length_b   10.61917939
_cell_length_c   6.08214974
_cell_angle_alpha   90.00000000
_cell_angle_beta   90.00000000
_cell_angle_gamma   120.00000073
_symmetry_Int_Tables_number   1
_chemical_formula_structural   Nd3CuSiSe7
_chemical_formula_sum   'Nd6 Cu2 Si2 Se14'
_cell_volume   593.97704493
_cell_formula_units_Z   2
loop_
 _symmetry_equiv_pos_site_id
 _symmetry_equiv_pos_as_xyz
  1  'x, y, z'
loop_
 _atom_site_type_symbol
 _atom_site_label
 _atom_site_symmetry_multiplicity
 _atom_site_fract_x
 _atom_site_fract_y
 _atom_site_fract_z
 _atom_site_occupancy
  Nd  Nd0  1  0.77122422  0.12708069  0.24869384  1
  Nd  Nd1  1  0.35585647  0.22877578  0.24869384  1
  Nd  Nd2  1  0.87291931  0.64414353  0.24869384  1
  Nd  Nd3  1  0.12708069  0.35585647  0.74869384  1
  Nd  Nd4  1  0.22877578  0.87291931  0.74869384  1
  Nd  Nd5  1  0.64414353  0.77122422  0.74869384  1
  Cu  Cu6  1  0.00000000  0.00000000  0.72043390  1
  Cu  Cu7  1  0.00000000  0.00000000  0.22043390  1
  Si  Si8  1  0.66666700  0.33333300  0.83564832  1
  Si  Si9  1  0.33333300  0.66666700  0.33564832  1
  Se  Se10  1  0.66666700  0.33333300  0.46229360  1
  Se  Se11  1  0.83453775  0.09071512  0.73441053  1
  Se  Se12  1  0.90928488  0.74382263  0.73441053  1
  Se  Se13  1  0.58413947  0.47874697  0.98290369  1
  Se  Se14  1  0.47874697  0.89460750  0.48290369  1
  Se  Se15  1  0.52125303  0.10539250  0.98290369  1
  Se  Se16  1  0.33333300  0.66666700  0.96229360  1
  Se  Se17  1  0.74382263  0.83453775  0.23441053  1
  Se  Se18  1  0.25617737  0.16546225  0.73441053  1
  Se  Se19  1  0.10539250  0.58413947  0.48290369  1
  Se  Se20  1  0.16546225  0.90928488  0.23441053  1
  Se  Se21  1  0.41586053  0.52125303  0.48290369  1
  Se  Se22  1  0.89460750  0.41586053  0.98290369  1
  Se  Se23  1  0.09071512  0.25617737  0.23441053  1
