# generated using pymatgen
data_NaMn2O4
_symmetry_space_group_name_H-M   'P 1'
_cell_length_a   5.90861903
_cell_length_b   10.37224164
_cell_length_c   10.38192429
_cell_angle_alpha   89.94377777
_cell_angle_beta   89.99769035
_cell_angle_gamma   89.99933438
_symmetry_Int_Tables_number   1
_chemical_formula_structural   NaMn2O4
_chemical_formula_sum   'Na8 Mn16 O32'
_cell_volume   636.26240487
_cell_formula_units_Z   8
loop_
 _symmetry_equiv_pos_site_id
 _symmetry_equiv_pos_as_xyz
  1  'x, y, z'
loop_
 _atom_site_type_symbol
 _atom_site_label
 _atom_site_symmetry_multiplicity
 _atom_site_fract_x
 _atom_site_fract_y
 _atom_site_fract_z
 _atom_site_occupancy
  Na  Na0  1  0.50617918  0.47276435  0.63011763  1
  Na  Na1  1  0.00619239  0.63016914  0.52757437  1
  Na  Na2  1  0.74376744  0.97258994  0.13013977  1
  Na  Na3  1  0.24381921  0.13005046  0.02738433  1
  Na  Na4  1  0.50620559  0.52732277  0.36989364  1
  Na  Na5  1  0.00615954  0.37001092  0.47247056  1
  Na  Na6  1  0.24381037  0.86974073  0.97262726  1
  Na  Na7  1  0.74382746  0.02743511  0.86989268  1
  Mn  Mn8  1  0.50180914  0.65060020  0.83638167  1
  Mn  Mn9  1  0.99871081  0.64544139  0.83246432  1
  Mn  Mn10  1  0.49864771  0.16750474  0.64541641  1
  Mn  Mn11  1  0.00182648  0.16362427  0.65061029  1
  Mn  Mn12  1  0.00184243  0.83644252  0.34948686  1
  Mn  Mn13  1  0.49866658  0.83256244  0.35471778  1
  Mn  Mn14  1  0.99863846  0.35442290  0.16721611  1
  Mn  Mn15  1  0.50179215  0.34932062  0.16331190  1
  Mn  Mn16  1  0.25133519  0.14551838  0.33252424  1
  Mn  Mn17  1  0.74817418  0.15066947  0.33641513  1
  Mn  Mn18  1  0.24819029  0.66330315  0.15061178  1
  Mn  Mn19  1  0.75134723  0.66723044  0.14536508  1
  Mn  Mn20  1  0.24814226  0.33652718  0.84942127  1
  Mn  Mn21  1  0.75134592  0.33263952  0.85458645  1
  Mn  Mn22  1  0.25131859  0.85461686  0.66737880  1
  Mn  Mn23  1  0.74823418  0.84948163  0.66347164  1
  O  O24  1  0.24770303  0.34070206  0.04397033  1
  O  O25  1  0.75231467  0.33300058  0.04540618  1
  O  O26  1  0.25216004  0.95459157  0.33293955  1
  O  O27  1  0.74796741  0.95595135  0.34052035  1
  O  O28  1  0.25210072  0.04535034  0.66707842  1
  O  O29  1  0.74800737  0.04401719  0.65941509  1
  O  O30  1  0.24782645  0.65925319  0.95570872  1
  O  O31  1  0.75227706  0.66680872  0.95437340  1
  O  O32  1  0.00220200  0.84072483  0.54402240  1
  O  O33  1  0.49777151  0.83316946  0.54546732  1
  O  O34  1  0.99780928  0.45473418  0.83288886  1
  O  O35  1  0.50207714  0.45607193  0.84061156  1
  O  O36  1  0.50205754  0.54382006  0.15940774  1
  O  O37  1  0.99785763  0.54519241  0.16699953  1
  O  O38  1  0.49774334  0.16697858  0.45424721  1
  O  O39  1  0.00215256  0.15942036  0.45575057  1
  O  O40  1  0.50066124  0.14967954  0.20130818  1
  O  O41  1  0.99802501  0.15171713  0.20398121  1
  O  O42  1  0.00083794  0.79857433  0.14988510  1
  O  O43  1  0.49788796  0.79585158  0.15180986  1
  O  O44  1  0.99807600  0.84816020  0.79601965  1
  O  O45  1  0.50062576  0.85030000  0.79860670  1
  O  O46  1  0.49795905  0.20407602  0.84880679  1
  O  O47  1  0.00071989  0.20142364  0.85065418  1
  O  O48  1  0.25201998  0.65162145  0.70388750  1
  O  O49  1  0.74931477  0.64956116  0.70139969  1
  O  O50  1  0.24917387  0.29898295  0.64977756  1
  O  O51  1  0.75207727  0.29633115  0.65177749  1
  O  O52  1  0.25184794  0.34817326  0.29571768  1
  O  O53  1  0.74942913  0.35021110  0.29841193  1
  O  O54  1  0.24926442  0.70145799  0.35083178  1
  O  O55  1  0.75206825  0.70407053  0.34887647  1
