# generated using pymatgen
data_Li4H6Ru
_symmetry_space_group_name_H-M   'P 1'
_cell_length_a   5.75328387
_cell_length_b   5.75328387
_cell_length_c   5.75328418
_cell_angle_alpha   90.07170971
_cell_angle_beta   90.07170971
_cell_angle_gamma   90.07170372
_symmetry_Int_Tables_number   1
_chemical_formula_structural   Li4H6Ru
_chemical_formula_sum   'Li8 H12 Ru2'
_cell_volume   190.43484221
_cell_formula_units_Z   2
loop_
 _symmetry_equiv_pos_site_id
 _symmetry_equiv_pos_as_xyz
  1  'x, y, z'
loop_
 _atom_site_type_symbol
 _atom_site_label
 _atom_site_symmetry_multiplicity
 _atom_site_fract_x
 _atom_site_fract_y
 _atom_site_fract_z
 _atom_site_occupancy
  Li  Li0  1  0.25000000  0.25000000  0.25000000  1
  Li  Li1  1  0.75000000  0.75000000  0.75000000  1
  Li  Li2  1  0.63515241  0.86484759  0.25000000  1
  Li  Li3  1  0.86484759  0.25000000  0.63515241  1
  Li  Li4  1  0.25000000  0.63515241  0.86484759  1
  Li  Li5  1  0.13515241  0.75000000  0.36484759  1
  Li  Li6  1  0.75000000  0.36484759  0.13515241  1
  Li  Li7  1  0.36484759  0.13515241  0.75000000  1
  H  H8  1  0.54760106  0.21134917  0.44014483  1
  H  H9  1  0.21134917  0.44014483  0.54760106  1
  H  H10  1  0.44014483  0.54760106  0.21134917  1
  H  H11  1  0.04760106  0.94014483  0.71134917  1
  H  H12  1  0.94014483  0.71134917  0.04760106  1
  H  H13  1  0.71134917  0.04760106  0.94014483  1
  H  H14  1  0.45239894  0.78865083  0.55985517  1
  H  H15  1  0.78865083  0.55985517  0.45239894  1
  H  H16  1  0.55985517  0.45239894  0.78865083  1
  H  H17  1  0.95239894  0.05985517  0.28865083  1
  H  H18  1  0.05985517  0.28865083  0.95239894  1
  H  H19  1  0.28865083  0.95239894  0.05985517  1
  Ru  Ru20  1  0.50000000  0.50000000  0.50000000  1
  Ru  Ru21  1  0.00000000  0.00000000  0.00000000  1
