# generated using pymatgen
data_Cs3VH8(Cl3O2)2
_symmetry_space_group_name_H-M   'P 1'
_cell_length_a   10.35305409
_cell_length_b   10.35305409
_cell_length_c   10.35305409
_cell_angle_alpha   131.79553172
_cell_angle_beta   60.53200164
_cell_angle_gamma   145.63546344
_symmetry_Int_Tables_number   1
_chemical_formula_structural   Cs3VH8(Cl3O2)2
_chemical_formula_sum   'Cs3 V1 H8 Cl6 O4'
_cell_volume   462.49185796
_cell_formula_units_Z   1
loop_
 _symmetry_equiv_pos_site_id
 _symmetry_equiv_pos_as_xyz
  1  'x, y, z'
loop_
 _atom_site_type_symbol
 _atom_site_label
 _atom_site_symmetry_multiplicity
 _atom_site_fract_x
 _atom_site_fract_y
 _atom_site_fract_z
 _atom_site_occupancy
  Cs  Cs0  1  0.00000000  0.00000000  0.00000000  1
  Cs  Cs1  1  0.68709620  0.50000000  0.18709620  1
  Cs  Cs2  1  0.31290380  0.50000000  0.81290380  1
  V  V3  1  0.50000000  0.00000000  0.50000000  1
  H  H4  1  0.09642997  0.79669754  0.49402309  1
  H  H5  1  0.30267445  0.60240688  0.50597691  1
  H  H6  1  0.90357003  0.39759312  0.70026757  1
  H  H7  1  0.69732555  0.20330246  0.29973243  1
  H  H8  1  0.08716110  0.59373501  0.30343788  1
  H  H9  1  0.29029713  0.78372323  0.69656212  1
  H  H10  1  0.91283890  0.21627677  0.50657390  1
  H  H11  1  0.70970287  0.40626499  0.49342610  1
  Cl  Cl12  1  0.15885939  0.75864078  0.91407756  1
  Cl  Cl13  1  0.84456322  0.24478183  0.08592244  1
  Cl  Cl14  1  0.84114061  0.75521817  0.59978139  1
  Cl  Cl15  1  0.15543678  0.24135922  0.40021861  1
  Cl  Cl16  1  0.50000000  0.28455029  0.78455029  1
  Cl  Cl17  1  0.50000000  0.71544971  0.21544971  1
  O  O18  1  0.18634308  0.76720079  0.41946019  1
  O  O19  1  0.34774061  0.76688289  0.58053981  1
  O  O20  1  0.81365692  0.23311711  0.58085771  1
  O  O21  1  0.65225939  0.23279921  0.41914229  1
