# generated using pymatgen
data_Ta6Co16Ge7
_symmetry_space_group_name_H-M   'P 1'
_cell_length_a   8.03049727
_cell_length_b   8.02977433
_cell_length_c   8.02988012
_cell_angle_alpha   59.98418891
_cell_angle_beta   59.98762954
_cell_angle_gamma   59.98916981
_symmetry_Int_Tables_number   1
_chemical_formula_structural   Ta6Co16Ge7
_chemical_formula_sum   'Ta6 Co16 Ge7'
_cell_volume   366.02585815
_cell_formula_units_Z   1
loop_
 _symmetry_equiv_pos_site_id
 _symmetry_equiv_pos_as_xyz
  1  'x, y, z'
loop_
 _atom_site_type_symbol
 _atom_site_label
 _atom_site_symmetry_multiplicity
 _atom_site_fract_x
 _atom_site_fract_y
 _atom_site_fract_z
 _atom_site_occupancy
  Ta  Ta0  1  0.79998607  0.80002553  0.19995765  1
  Ta  Ta1  1  0.80000240  0.19995766  0.80003691  1
  Ta  Ta2  1  0.19998289  0.20000625  0.80002753  1
  Ta  Ta3  1  0.20000560  0.80001395  0.20001877  1
  Ta  Ta4  1  0.19998494  0.79999406  0.79997931  1
  Ta  Ta5  1  0.80001483  0.19999491  0.19998789  1
  Co  Co6  1  0.61877358  0.14365308  0.61880610  1
  Co  Co7  1  0.50436906  0.16519109  0.16520265  1
  Co  Co8  1  0.38120740  0.38119234  0.85635531  1
  Co  Co9  1  0.83482055  0.83483940  0.49555790  1
  Co  Co10  1  0.16521198  0.16517614  0.50438549  1
  Co  Co11  1  0.83482031  0.49557661  0.83483214  1
  Co  Co12  1  0.16520973  0.50438699  0.16517696  1
  Co  Co13  1  0.61877044  0.61881197  0.14365466  1
  Co  Co14  1  0.16523921  0.16520080  0.16520181  1
  Co  Co15  1  0.38120200  0.85634710  0.38119524  1
  Co  Co16  1  0.61876333  0.61880377  0.61879686  1
  Co  Co17  1  0.85637973  0.38118922  0.38118755  1
  Co  Co18  1  0.38122546  0.38122016  0.38121061  1
  Co  Co19  1  0.83479038  0.83480332  0.83480813  1
  Co  Co20  1  0.14366378  0.61879939  0.61878235  1
  Co  Co21  1  0.49555990  0.83483914  0.83482732  1
  Ge  Ge22  1  0.00009734  0.49996092  0.49995911  1
  Ge  Ge23  1  0.49995792  0.00006917  0.49992294  1
  Ge  Ge24  1  0.49990072  0.50004266  0.49999016  1
  Ge  Ge25  1  0.00005538  0.49998416  -0.00000413  1
  Ge  Ge26  1  0.49997847  0.00002095  0.00006572  1
  Ge  Ge27  1  0.49995598  0.49992452  0.00008942  1
  Ge  Ge28  1  0.00007063  -0.00002524  0.49998764  1
