# generated using pymatgen
data_Li2HIO
_symmetry_space_group_name_H-M   'P 1'
_cell_length_a   10.49190811
_cell_length_b   5.65136945
_cell_length_c   6.67455269
_cell_angle_alpha   90.00000000
_cell_angle_beta   90.00000000
_cell_angle_gamma   90.00000000
_symmetry_Int_Tables_number   1
_chemical_formula_structural   Li2HIO
_chemical_formula_sum   'Li8 H4 I4 O4'
_cell_volume   395.75858420
_cell_formula_units_Z   4
loop_
 _symmetry_equiv_pos_site_id
 _symmetry_equiv_pos_as_xyz
  1  'x, y, z'
loop_
 _atom_site_type_symbol
 _atom_site_label
 _atom_site_symmetry_multiplicity
 _atom_site_fract_x
 _atom_site_fract_y
 _atom_site_fract_z
 _atom_site_occupancy
  Li  Li0  1  0.88932349  0.00022661  0.56081655  1
  Li  Li1  1  0.38932349  0.49977339  0.93918345  1
  Li  Li2  1  0.11067651  0.50022661  0.43918345  1
  Li  Li3  1  0.61067651  0.99977339  0.06081655  1
  Li  Li4  1  0.11067651  0.99977339  0.43918345  1
  Li  Li5  1  0.61067651  0.50022661  0.06081655  1
  Li  Li6  1  0.88932349  0.49977339  0.56081655  1
  Li  Li7  1  0.38932349  0.00022661  0.93918345  1
  H  H8  1  0.54419628  0.25000000  0.77415924  1
  H  H9  1  0.04419628  0.25000000  0.72584076  1
  H  H10  1  0.45580372  0.75000000  0.22584076  1
  H  H11  1  0.95580372  0.75000000  0.27415924  1
  I  I12  1  0.67470657  0.25000000  0.41599278  1
  I  I13  1  0.17470657  0.25000000  0.08400722  1
  I  I14  1  0.32529343  0.75000000  0.58400722  1
  I  I15  1  0.82529343  0.75000000  0.91599278  1
  O  O16  1  0.51884931  0.25000000  0.91597331  1
  O  O17  1  0.01884931  0.25000000  0.58402669  1
  O  O18  1  0.48115069  0.75000000  0.08402669  1
  O  O19  1  0.98115069  0.75000000  0.41597331  1
