# generated using pymatgen
data_MgBiAsO5
_symmetry_space_group_name_H-M   'P 1'
_cell_length_a   7.09421247
_cell_length_b   7.49625372
_cell_length_c   8.97062438
_cell_angle_alpha   90.01090650
_cell_angle_beta   90.00633776
_cell_angle_gamma   89.99429943
_symmetry_Int_Tables_number   1
_chemical_formula_structural   MgBiAsO5
_chemical_formula_sum   'Mg4 Bi4 As4 O20'
_cell_volume   477.05793993
_cell_formula_units_Z   4
loop_
 _symmetry_equiv_pos_site_id
 _symmetry_equiv_pos_as_xyz
  1  'x, y, z'
loop_
 _atom_site_type_symbol
 _atom_site_label
 _atom_site_symmetry_multiplicity
 _atom_site_fract_x
 _atom_site_fract_y
 _atom_site_fract_z
 _atom_site_occupancy
  Mg  Mg0  1  0.08556968  0.69602452  0.06256546  1
  Mg  Mg1  1  0.41441165  0.30395600  0.56254325  1
  Mg  Mg2  1  0.58550290  0.80395791  0.93739157  1
  Mg  Mg3  1  -0.08552077  0.19603858  0.43741223  1
  Bi  Bi4  1  0.03157891  0.46241894  0.72650080  1
  Bi  Bi5  1  0.46840260  0.53755081  0.22644948  1
  Bi  Bi6  1  0.53175037  0.03763261  0.27356343  1
  Bi  Bi7  1  0.96827041  0.96238456  0.77359258  1
  As  As8  1  0.60524946  0.27780082  0.90093350  1
  As  As9  1  0.89476569  0.72200925  0.40102746  1
  As  As10  1  0.10535103  0.22215331  0.09902299  1
  As  As11  1  0.39478176  0.77805807  0.59900990  1
  O  O12  1  0.80527510  0.25727087  0.78714708  1
  O  O13  1  0.69475922  0.74275776  0.28713909  1
  O  O14  1  0.30523311  0.24267461  0.21296368  1
  O  O15  1  0.19483721  0.75723517  0.71296693  1
  O  O16  1  0.42604767  0.32866843  0.78204356  1
  O  O17  1  0.07396566  0.67140300  0.28204012  1
  O  O18  1  0.92598734  0.17134989  0.21791575  1
  O  O19  1  0.57390664  0.82857336  0.71785624  1
  O  O20  1  0.59298221  0.07547909  0.99005181  1
  O  O21  1  0.90683417  0.92472229  0.49023536  1
  O  O22  1  0.09303395  0.42444285  0.00992493  1
  O  O23  1  0.40680786  0.57535333  0.50966241  1
  O  O24  1  0.64394868  0.44929267  0.02560525  1
  O  O25  1  0.85619330  0.55084003  0.52541799  1
  O  O26  1  0.14391091  0.05057627  0.97446018  1
  O  O27  1  0.35612620  0.94932339  0.47454700  1
  O  O28  1  0.87265283  0.76634009  0.92827831  1
  O  O29  1  0.62737807  0.23381462  0.42820888  1
  O  O30  1  0.37273982  0.73355242  0.07173899  1
  O  O31  1  0.12726434  0.26634647  0.57178378  1
