# generated using pymatgen
data_LiMg2H7Ru
_symmetry_space_group_name_H-M   'P 1'
_cell_length_a   4.69631315
_cell_length_b   4.69629007
_cell_length_c   10.69942620
_cell_angle_alpha   90.00000000
_cell_angle_beta   90.00000000
_cell_angle_gamma   120.00016263
_symmetry_Int_Tables_number   1
_chemical_formula_structural   LiMg2H7Ru
_chemical_formula_sum   'Li2 Mg4 H14 Ru2'
_cell_volume   204.36304694
_cell_formula_units_Z   2
loop_
 _symmetry_equiv_pos_site_id
 _symmetry_equiv_pos_as_xyz
  1  'x, y, z'
loop_
 _atom_site_type_symbol
 _atom_site_label
 _atom_site_symmetry_multiplicity
 _atom_site_fract_x
 _atom_site_fract_y
 _atom_site_fract_z
 _atom_site_occupancy
  Li  Li0  1  0.00000259  0.00000517  0.25000000  1
  Li  Li1  1  0.99999741  0.99999483  0.75000000  1
  Mg  Mg2  1  0.33333555  0.66667110  0.42491786  1
  Mg  Mg3  1  0.66666445  0.33332890  0.57508214  1
  Mg  Mg4  1  0.66666445  0.33332890  0.92491786  1
  Mg  Mg5  1  0.33333555  0.66667110  0.07508214  1
  H  H6  1  0.16608384  0.83392539  0.90432094  1
  H  H7  1  0.16607813  0.33215626  0.90431932  1
  H  H8  1  0.66784156  0.83392539  0.90432094  1
  H  H9  1  0.83391616  0.16607461  0.09567906  1
  H  H10  1  0.83392187  0.66784374  0.09568068  1
  H  H11  1  0.33215844  0.16607461  0.09567906  1
  H  H12  1  0.83391616  0.16607461  0.40432094  1
  H  H13  1  0.83392187  0.66784374  0.40431932  1
  H  H14  1  0.33215844  0.16607461  0.40432094  1
  H  H15  1  0.16608384  0.83392539  0.59567906  1
  H  H16  1  0.16607813  0.33215626  0.59568068  1
  H  H17  1  0.66784156  0.83392539  0.59567906  1
  H  H18  1  0.33330587  0.66661174  0.25000000  1
  H  H19  1  0.66669413  0.33338826  0.75000000  1
  Ru  Ru20  1  0.00000000  0.00000000  0.50000000  1
  Ru  Ru21  1  0.00000000  0.00000000  0.00000000  1
