# generated using pymatgen
data_Sr5(InBi3)2
_symmetry_space_group_name_H-M   'P 1'
_cell_length_a   4.81405085
_cell_length_b   7.94895490
_cell_length_c   24.88103928
_cell_angle_alpha   90.02699146
_cell_angle_beta   90.01616611
_cell_angle_gamma   89.98864163
_symmetry_Int_Tables_number   1
_chemical_formula_structural   Sr5(InBi3)2
_chemical_formula_sum   'Sr10 In4 Bi12'
_cell_volume   952.11443504
_cell_formula_units_Z   2
loop_
 _symmetry_equiv_pos_site_id
 _symmetry_equiv_pos_as_xyz
  1  'x, y, z'
loop_
 _atom_site_type_symbol
 _atom_site_label
 _atom_site_symmetry_multiplicity
 _atom_site_fract_x
 _atom_site_fract_y
 _atom_site_fract_z
 _atom_site_occupancy
  Sr  Sr0  1  0.00039944  0.99991885  0.49999671  1
  Sr  Sr1  1  0.00004007  0.77523698  0.74457694  1
  Sr  Sr2  1  0.99991622  0.96988505  0.91176594  1
  Sr  Sr3  1  0.00006477  0.27534897  0.75518439  1
  Sr  Sr4  1  0.99961956  0.46976931  0.58820719  1
  Sr  Sr5  1  0.00021792  0.02976662  0.08829089  1
  Sr  Sr6  1  0.99990969  0.72441780  0.24464781  1
  Sr  Sr7  1  0.99980415  0.49992346  0.00001384  1
  Sr  Sr8  1  0.99959335  0.22447879  0.25530893  1
  Sr  Sr9  1  0.99991005  0.53010753  0.41182627  1
  In  In10  1  0.49961986  0.17479628  0.37956737  1
  In  In11  1  0.50087963  0.82543109  0.62034627  1
  In  In12  1  0.50083608  0.32573095  0.87963777  1
  In  In13  1  0.50022182  0.67474112  0.12045458  1
  Bi  Bi14  1  0.00023340  0.54577807  0.86416583  1
  Bi  Bi15  1  0.49969589  0.69603702  0.50165211  1
  Bi  Bi16  1  0.00035717  0.45438917  0.13594833  1
  Bi  Bi17  1  0.49967242  0.19626098  0.99839330  1
  Bi  Bi18  1  0.49914937  0.30364417  0.49836367  1
  Bi  Bi19  1  0.49962150  0.98600098  0.18838531  1
  Bi  Bi20  1  0.49972299  0.01395030  0.81155345  1
  Bi  Bi21  1  0.49979220  0.80375656  0.00167982  1
  Bi  Bi22  1  0.00036956  0.04576041  0.63589718  1
  Bi  Bi23  1  -0.00009071  0.95445964  0.36408768  1
  Bi  Bi24  1  0.50014300  0.48624662  0.31161376  1
  Bi  Bi25  1  0.50030059  0.51416327  0.68843466  1
