# generated using pymatgen
data_LaTiZnFeO6
_symmetry_space_group_name_H-M   'P 1'
_cell_length_a   5.71697936
_cell_length_b   5.40173577
_cell_length_c   7.72527309
_cell_angle_alpha   89.84043535
_cell_angle_beta   90.00000000
_cell_angle_gamma   90.00000000
_symmetry_Int_Tables_number   1
_chemical_formula_structural   LaTiZnFeO6
_chemical_formula_sum   'La2 Ti2 Zn2 Fe2 O12'
_cell_volume   238.56796017
_cell_formula_units_Z   2
loop_
 _symmetry_equiv_pos_site_id
 _symmetry_equiv_pos_as_xyz
  1  'x, y, z'
loop_
 _atom_site_type_symbol
 _atom_site_label
 _atom_site_symmetry_multiplicity
 _atom_site_fract_x
 _atom_site_fract_y
 _atom_site_fract_z
 _atom_site_occupancy
  La  La0  1  0.05383314  0.98447432  0.25059716  1
  La  La1  1  0.44616686  0.48447432  0.75059716  1
  Ti  Ti2  1  0.53367329  -0.00446481  0.49996354  1
  Ti  Ti3  1  0.96632671  0.49553519  -0.00003646  1
  Zn  Zn4  1  0.41319763  0.48471870  0.25092880  1
  Zn  Zn5  1  0.08680237  -0.01528130  0.75092880  1
  Fe  Fe6  1  0.51685642  -0.00679498  0.00421177  1
  Fe  Fe7  1  0.98314358  0.49320502  0.50421177  1
  O  O8  1  0.02574802  0.62484624  0.75276145  1
  O  O9  1  0.19396700  0.20275218  0.94690116  1
  O  O10  1  0.19130791  0.19867263  0.55265261  1
  O  O11  1  0.30869209  0.69867263  0.05265261  1
  O  O12  1  0.30603300  0.70275218  0.44690116  1
  O  O13  1  0.47425198  0.12484624  0.25276045  1
  O  O14  1  0.49696390  0.92642581  0.74452486  1
  O  O15  1  0.70011013  0.29214016  0.54252016  1
  O  O16  1  0.71360977  0.29722975  0.95493849  1
  O  O17  1  0.78639023  0.79722975  0.45493849  1
  O  O18  1  0.79988987  0.79214016  0.04252016  1
  O  O19  1  0.00303610  0.42642581  0.24452486  1
