# generated using pymatgen
data_Sm2Zr8O19
_symmetry_space_group_name_H-M   'P 1'
_cell_length_a   3.57879629
_cell_length_b   36.73501411
_cell_length_c   35.01411801
_cell_angle_alpha   5.24100323
_cell_angle_beta   59.27116958
_cell_angle_gamma   60.85388457
_symmetry_Int_Tables_number   1
_chemical_formula_structural   Sm2Zr8O19
_chemical_formula_sum   'Sm2 Zr8 O19'
_cell_volume   347.23271274
_cell_formula_units_Z   1
loop_
 _symmetry_equiv_pos_site_id
 _symmetry_equiv_pos_as_xyz
  1  'x, y, z'
loop_
 _atom_site_type_symbol
 _atom_site_label
 _atom_site_symmetry_multiplicity
 _atom_site_fract_x
 _atom_site_fract_y
 _atom_site_fract_z
 _atom_site_occupancy
  Sm  Sm0  1  0.04166385  0.83585417  0.95567903  1
  Sm  Sm1  1  0.95324333  0.86021800  0.04966807  1
  Zr  Zr2  1  0.95673038  0.96242622  0.04676941  1
  Zr  Zr3  1  0.96513393  0.06897309  0.03858855  1
  Zr  Zr4  1  0.97342572  0.17611042  0.02968129  1
  Zr  Zr5  1  0.98586685  0.28753864  0.01572030  1
  Zr  Zr6  1  0.99856418  0.39806367  0.00266363  1
  Zr  Zr7  1  0.00950663  0.50856566  0.98974460  1
  Zr  Zr8  1  0.02179165  0.61745850  0.97856918  1
  Zr  Zr9  1  0.02912045  0.72612707  0.96785211  1
  O  O10  1  0.25044791  0.99863604  0.25171000  1
  O  O11  1  0.24032216  0.09156330  0.26075059  1
  O  O12  1  0.25971295  0.20806348  0.24031235  1
  O  O13  1  0.27700245  0.32270404  0.22206647  1
  O  O14  1  0.26515839  0.41595992  0.23052879  1
  O  O15  1  0.30616411  0.54814040  0.19035348  1
  O  O16  1  0.78679748  0.12933395  0.71379871  1
  O  O17  1  0.17517909  0.63709742  0.32847999  1
  O  O18  1  0.24809884  0.79560700  0.25533369  1
  O  O19  1  0.75258403  0.19900602  0.75113505  1
  O  O20  1  0.69641533  0.25444708  0.80677691  1
  O  O21  1  0.20188920  0.85965037  0.30027141  1
  O  O22  1  0.75337391  0.40085089  0.74874704  1
  O  O23  1  0.72958575  0.48183042  0.77267515  1
  O  O24  1  0.76349690  0.61006302  0.73757405  1
  O  O25  1  0.76799817  0.71486015  0.73177433  1
  O  O26  1  0.77271388  0.81982602  0.72564610  1
  O  O27  1  0.79709455  0.94205892  0.69787432  1
  O  O28  1  0.78667095  0.03224214  0.71023139  1
