# generated using pymatgen
data_KLiNd2(MoO4)4
_symmetry_space_group_name_H-M   'P 1'
_cell_length_a   5.40774260
_cell_length_b   7.06524007
_cell_length_c   19.92222995
_cell_angle_alpha   88.69788722
_cell_angle_beta   86.60230563
_cell_angle_gamma   67.49919219
_symmetry_Int_Tables_number   1
_chemical_formula_structural   KLiNd2(MoO4)4
_chemical_formula_sum   'K2 Li2 Nd4 Mo8 O32'
_cell_volume   701.98789712
_cell_formula_units_Z   2
loop_
 _symmetry_equiv_pos_site_id
 _symmetry_equiv_pos_as_xyz
  1  'x, y, z'
loop_
 _atom_site_type_symbol
 _atom_site_label
 _atom_site_symmetry_multiplicity
 _atom_site_fract_x
 _atom_site_fract_y
 _atom_site_fract_z
 _atom_site_occupancy
  K  K0  1  0.03209480  0.93583649  0.75001666  1
  K  K1  1  0.96790520  0.06416351  0.24998334  1
  Li  Li2  1  0.68984419  0.62062672  0.24999483  1
  Li  Li3  1  0.31015581  0.37937328  0.75000517  1
  Nd  Nd4  1  0.14738233  0.70644041  0.53349344  1
  Nd  Nd5  1  0.85261767  0.29355959  0.46650656  1
  Nd  Nd6  1  0.85395395  0.29352142  0.03350286  1
  Nd  Nd7  1  0.14604605  0.70647858  0.96649714  1
  Mo  Mo8  1  0.45297875  0.12466869  0.90751069  1
  Mo  Mo9  1  0.75821255  0.51042953  0.85092608  1
  Mo  Mo10  1  0.57770580  0.87532705  0.40753655  1
  Mo  Mo11  1  0.26895401  0.48951078  0.35091561  1
  Mo  Mo12  1  0.73104599  0.51048922  0.64908439  1
  Mo  Mo13  1  0.24178745  0.48957047  0.14907392  1
  Mo  Mo14  1  0.42229420  0.12467295  0.59246345  1
  Mo  Mo15  1  0.54702125  0.87533131  0.09248931  1
  O  O16  1  0.69231297  0.81194705  0.17090359  1
  O  O17  1  0.50398329  0.18817031  0.67089060  1
  O  O18  1  0.93168723  0.47867195  0.93153907  1
  O  O19  1  0.67816945  0.08871900  0.39871844  1
  O  O20  1  0.47248407  0.58914502  0.71362208  1
  O  O21  1  0.32183055  0.91128100  0.60128156  1
  O  O22  1  0.22115272  0.03992731  0.95992769  1
  O  O23  1  0.48674248  0.33286440  0.95704460  1
  O  O24  1  0.18027769  0.33285048  0.54293718  1
  O  O25  1  0.98060119  0.27614279  0.67265243  1
  O  O26  1  0.93814938  0.58906923  0.78640413  1
  O  O27  1  0.30768703  0.18805295  0.82909641  1
  O  O28  1  0.41056218  0.52133331  0.43153522  1
  O  O29  1  0.01939881  0.72385721  0.32734757  1
  O  O30  1  0.06185062  0.41093077  0.21359587  1
  O  O31  1  0.77884728  0.96007269  0.04007231  1
  O  O32  1  0.74300869  0.27607302  0.82737160  1
  O  O33  1  0.89537993  0.68989920  0.63397113  1
  O  O34  1  0.73889728  0.03994751  0.54006494  1
  O  O35  1  0.10462007  0.31010080  0.36602887  1
  O  O36  1  0.76685447  0.91124074  0.89871654  1
  O  O37  1  0.06831277  0.52132805  0.06846093  1
  O  O38  1  0.49601671  0.81182969  0.32910940  1
  O  O39  1  0.41448144  0.68993102  0.86602196  1
  O  O40  1  0.25699131  0.72392698  0.17262840  1
  O  O41  1  0.52751593  0.41085498  0.28637792  1
  O  O42  1  0.58943782  0.47866669  0.56846478  1
  O  O43  1  0.58551856  0.31006898  0.13397804  1
  O  O44  1  0.23314553  0.08875926  0.10128346  1
  O  O45  1  0.26110272  0.96005249  0.45993506  1
  O  O46  1  0.81972231  0.66714952  0.45706282  1
  O  O47  1  0.51325752  0.66713560  0.04295540  1
