# generated using pymatgen
data_La2GeO5
_symmetry_space_group_name_H-M   'P 1'
_cell_length_a   7.13828731
_cell_length_b   7.52882183
_cell_length_c   9.68499730
_cell_angle_alpha   90.00000000
_cell_angle_beta   107.45568558
_cell_angle_gamma   90.00000000
_symmetry_Int_Tables_number   1
_chemical_formula_structural   La2GeO5
_chemical_formula_sum   'La8 Ge4 O20'
_cell_volume   496.53036732
_cell_formula_units_Z   4
loop_
 _symmetry_equiv_pos_site_id
 _symmetry_equiv_pos_as_xyz
  1  'x, y, z'
loop_
 _atom_site_type_symbol
 _atom_site_label
 _atom_site_symmetry_multiplicity
 _atom_site_fract_x
 _atom_site_fract_y
 _atom_site_fract_z
 _atom_site_occupancy
  La  La0  1  0.08372502  0.35532389  0.38189728  1
  La  La1  1  0.58372502  0.14467611  0.38189728  1
  La  La2  1  0.76526701  0.62460135  0.97801702  1
  La  La3  1  0.91627498  0.64467611  0.61810272  1
  La  La4  1  0.26526701  0.87539865  0.97801702  1
  La  La5  1  0.23473299  0.37539865  0.02198298  1
  La  La6  1  0.41627498  0.85532389  0.61810272  1
  La  La7  1  0.73473299  0.12460135  0.02198298  1
  Ge  Ge8  1  0.54104063  0.58873540  0.29892433  1
  Ge  Ge9  1  0.04104063  0.91126460  0.29892433  1
  Ge  Ge10  1  0.95895937  0.08873540  0.70107567  1
  Ge  Ge11  1  0.45895937  0.41126460  0.70107567  1
  O  O12  1  0.44744193  0.22674147  0.59160406  1
  O  O13  1  0.99047271  0.86216322  0.10963071  1
  O  O14  1  0.00952729  0.13783678  0.89036929  1
  O  O15  1  0.55102039  0.87668481  0.88667799  1
  O  O16  1  0.55255807  0.77325853  0.40839594  1
  O  O17  1  0.49047271  0.63783678  0.10963071  1
  O  O18  1  0.74899301  0.95483129  0.62988218  1
  O  O19  1  0.44897961  0.12331519  0.11332201  1
  O  O20  1  0.75100699  0.45483129  0.37011782  1
  O  O21  1  0.85507785  0.07665008  0.29157659  1
  O  O22  1  0.05255807  0.72674147  0.40839594  1
  O  O23  1  0.05102039  0.62331519  0.88667799  1
  O  O24  1  0.24899301  0.54516871  0.62988218  1
  O  O25  1  0.94744193  0.27325853  0.59160406  1
  O  O26  1  0.25100699  0.04516871  0.37011782  1
  O  O27  1  0.94897961  0.37668481  0.11332201  1
  O  O28  1  0.14492215  0.92334992  0.70842341  1
  O  O29  1  0.64492215  0.57665008  0.70842341  1
  O  O30  1  0.50952729  0.36216322  0.89036929  1
  O  O31  1  0.35507785  0.42334992  0.29157659  1
