# generated using pymatgen
data_Na2CaSn2(GeO4)3
_symmetry_space_group_name_H-M   'P 1'
_cell_length_a   10.93171720
_cell_length_b   10.93171633
_cell_length_c   10.93171692
_cell_angle_alpha   109.59277873
_cell_angle_beta   109.59277715
_cell_angle_gamma   109.22837855
_symmetry_Int_Tables_number   1
_chemical_formula_structural   Na2CaSn2(GeO4)3
_chemical_formula_sum   'Na8 Ca4 Sn8 Ge12 O48'
_cell_volume   1005.62805289
_cell_formula_units_Z   4
loop_
 _symmetry_equiv_pos_site_id
 _symmetry_equiv_pos_as_xyz
  1  'x, y, z'
loop_
 _atom_site_type_symbol
 _atom_site_label
 _atom_site_symmetry_multiplicity
 _atom_site_fract_x
 _atom_site_fract_y
 _atom_site_fract_z
 _atom_site_occupancy
  Na  Na0  1  0.25000000  0.87609829  0.62609829  1
  Na  Na1  1  0.12390171  0.25000000  0.37390171  1
  Na  Na2  1  0.37609829  0.75000000  0.12609829  1
  Na  Na3  1  0.25000000  0.37609829  0.12609829  1
  Na  Na4  1  0.62390171  0.25000000  0.87390171  1
  Na  Na5  1  0.75000000  0.62390171  0.87390171  1
  Na  Na6  1  0.87609829  0.75000000  0.62609829  1
  Na  Na7  1  0.75000000  0.12390171  0.37390171  1
  Ca  Ca8  1  0.12500000  0.37500000  0.75000000  1
  Ca  Ca9  1  0.62500000  0.87500000  0.75000000  1
  Ca  Ca10  1  0.37500000  0.12500000  0.25000000  1
  Ca  Ca11  1  0.87500000  0.62500000  0.25000000  1
  Sn  Sn12  1  0.00000000  0.50000000  0.00000000  1
  Sn  Sn13  1  0.00000000  0.00000000  0.00000000  1
  Sn  Sn14  1  0.50000000  0.50000000  0.50000000  1
  Sn  Sn15  1  0.50000000  0.00000000  0.50000000  1
  Sn  Sn16  1  0.50000000  0.50000000  0.00000000  1
  Sn  Sn17  1  0.50000000  0.00000000  0.00000000  1
  Sn  Sn18  1  0.00000000  0.50000000  0.50000000  1
  Sn  Sn19  1  0.00000000  0.00000000  0.50000000  1
  Ge  Ge20  1  0.12472031  0.75000000  0.87472031  1
  Ge  Ge21  1  0.12500000  0.87500000  0.25000000  1
  Ge  Ge22  1  0.25000000  0.62472031  0.37472031  1
  Ge  Ge23  1  0.25000000  0.12472031  0.87472031  1
  Ge  Ge24  1  0.37500000  0.62500000  0.75000000  1
  Ge  Ge25  1  0.37527969  0.25000000  0.62527969  1
  Ge  Ge26  1  0.62472031  0.75000000  0.37472031  1
  Ge  Ge27  1  0.75000000  0.37527969  0.62527969  1
  Ge  Ge28  1  0.62500000  0.37500000  0.25000000  1
  Ge  Ge29  1  0.75000000  0.87527969  0.12527969  1
  Ge  Ge30  1  0.87500000  0.12500000  0.75000000  1
  Ge  Ge31  1  0.87527969  0.25000000  0.12527969  1
  O  O32  1  0.10142044  0.98598712  0.68884258  1
  O  O33  1  0.11774424  0.60016199  0.91162475  1
  O  O34  1  0.01643665  0.31226247  0.89398115  1
  O  O35  1  0.08742214  0.70285546  0.68884258  1
  O  O36  1  0.08171868  0.87754450  0.39398115  1
  O  O37  1  0.10016199  0.61774424  0.41162475  1
  O  O38  1  0.18773753  0.48356335  0.60601885  1
  O  O39  1  0.41828132  0.81226247  0.79582582  1
  O  O40  1  0.37754450  0.58171868  0.89398115  1
  O  O41  1  0.29388051  0.31146276  0.91162475  1
  O  O42  1  0.31226247  0.91828132  0.29582582  1
  O  O43  1  0.01401288  0.20285546  0.11543332  1
  O  O44  1  0.18853724  0.20611949  0.58837525  1
  O  O45  1  0.20285546  0.58742214  0.18884258  1
  O  O46  1  0.39983801  0.81146276  0.51758224  1
  O  O47  1  0.29714454  0.48598712  0.38456668  1
  O  O48  1  0.31146276  0.89983801  0.01758224  1
  O  O49  1  0.12245550  0.01643665  0.20417418  1
  O  O50  1  0.39857956  0.08742214  0.88456668  1
  O  O51  1  0.51643665  0.62245550  0.70417418  1
  O  O52  1  0.51401288  0.39857956  0.81115742  1
  O  O53  1  0.38225576  0.29388051  0.48241776  1
  O  O54  1  0.58742214  0.89857956  0.38456668  1
  O  O55  1  0.20611949  0.11774424  0.01758224  1
  O  O56  1  0.79388051  0.88225576  0.98241776  1
  O  O57  1  0.41257786  0.10142044  0.61543332  1
  O  O58  1  0.61774424  0.70611949  0.51758224  1
  O  O59  1  0.48598712  0.60142044  0.18884258  1
  O  O60  1  0.48356335  0.37754450  0.29582582  1
  O  O61  1  0.60142044  0.91257786  0.11543332  1
  O  O62  1  0.87754450  0.98356335  0.79582582  1
  O  O63  1  0.68853724  0.10016199  0.98241776  1
  O  O64  1  0.70285546  0.51401288  0.61543332  1
  O  O65  1  0.60016199  0.18853724  0.48241776  1
  O  O66  1  0.79714454  0.41257786  0.81115742  1
  O  O67  1  0.81146276  0.79388051  0.41162475  1
  O  O68  1  0.98598712  0.79714454  0.88456668  1
  O  O69  1  0.68773753  0.08171868  0.70417418  1
  O  O70  1  0.70611949  0.68853724  0.08837525  1
  O  O71  1  0.62245550  0.41828132  0.10601885  1
  O  O72  1  0.58171868  0.18773753  0.20417418  1
  O  O73  1  0.81226247  0.51643665  0.39398115  1
  O  O74  1  0.89983801  0.38225576  0.58837525  1
  O  O75  1  0.91828132  0.12245550  0.60601885  1
  O  O76  1  0.91257786  0.29714454  0.31115742  1
  O  O77  1  0.88225576  0.39983801  0.08837525  1
  O  O78  1  0.98356335  0.68773753  0.10601885  1
  O  O79  1  0.89857956  0.01401288  0.31115742  1
