# generated using pymatgen
data_Hf6Co16Si7
_symmetry_space_group_name_H-M   'P 1'
_cell_length_a   8.01272929
_cell_length_b   8.01156346
_cell_length_c   8.01250831
_cell_angle_alpha   59.99466829
_cell_angle_beta   59.99854103
_cell_angle_gamma   59.99531759
_symmetry_Int_Tables_number   1
_chemical_formula_structural   Hf6Co16Si7
_chemical_formula_sum   'Hf6 Co16 Si7'
_cell_volume   363.67511300
_cell_formula_units_Z   1
loop_
 _symmetry_equiv_pos_site_id
 _symmetry_equiv_pos_as_xyz
  1  'x, y, z'
loop_
 _atom_site_type_symbol
 _atom_site_label
 _atom_site_symmetry_multiplicity
 _atom_site_fract_x
 _atom_site_fract_y
 _atom_site_fract_z
 _atom_site_occupancy
  Hf  Hf0  1  0.79524923  0.79510035  0.20486472  1
  Hf  Hf1  1  0.79509299  0.20476579  0.79516900  1
  Hf  Hf2  1  0.20498798  0.20472062  0.79520347  1
  Hf  Hf3  1  0.20480223  0.79513478  0.20482185  1
  Hf  Hf4  1  0.20489552  0.79502330  0.79524806  1
  Hf  Hf5  1  0.79520674  0.20466704  0.20495716  1
  Co  Co6  1  0.61972810  0.14078213  0.61976773  1
  Co  Co7  1  0.48746670  0.17089734  0.17078982  1
  Co  Co8  1  0.38030150  0.38033850  0.85906818  1
  Co  Co9  1  0.82914267  0.82927693  0.51240663  1
  Co  Co10  1  0.17081775  0.17089894  0.48743969  1
  Co  Co11  1  0.82911555  0.51261471  0.82912077  1
  Co  Co12  1  0.17083173  0.48750624  0.17080447  1
  Co  Co13  1  0.61973211  0.61981333  0.14072973  1
  Co  Co14  1  0.17082526  0.17090285  0.17079536  1
  Co  Co15  1  0.38025196  0.85922276  0.38028724  1
  Co  Co16  1  0.61967458  0.61975588  0.61971423  1
  Co  Co17  1  0.85918860  0.38028719  0.38028583  1
  Co  Co18  1  0.38022573  0.38026009  0.38026077  1
  Co  Co19  1  0.82910825  0.82923930  0.82911490  1
  Co  Co20  1  0.14081449  0.61977162  0.61973142  1
  Co  Co21  1  0.51249793  0.82924300  0.82911806  1
  Si  Si22  1  0.00010215  0.50003632  0.49974335  1
  Si  Si23  1  0.50011282  -0.00009502  0.50010286  1
  Si  Si24  1  0.49998482  0.49994187  0.50016685  1
  Si  Si25  1  0.00020319  0.49994585  0.00017237  1
  Si  Si26  1  0.50002208  0.00000534  -0.00006741  1
  Si  Si27  1  0.49970880  0.49999258  0.00012605  1
  Si  Si28  1  -0.00009146  -0.00004964  0.50005683  1
