# generated using pymatgen
data_Ti8Bi9
_symmetry_space_group_name_H-M   'P 1'
_cell_length_a   7.48178674
_cell_length_b   10.32017201
_cell_length_c   10.32017201
_cell_angle_alpha   90.00000000
_cell_angle_beta   90.00000000
_cell_angle_gamma   90.00000000
_symmetry_Int_Tables_number   1
_chemical_formula_structural   Ti8Bi9
_chemical_formula_sum   'Ti16 Bi18'
_cell_volume   796.85480681
_cell_formula_units_Z   2
loop_
 _symmetry_equiv_pos_site_id
 _symmetry_equiv_pos_as_xyz
  1  'x, y, z'
loop_
 _atom_site_type_symbol
 _atom_site_label
 _atom_site_symmetry_multiplicity
 _atom_site_fract_x
 _atom_site_fract_y
 _atom_site_fract_z
 _atom_site_occupancy
  Ti  Ti0  1  0.42207859  0.75000000  0.75000000  1
  Ti  Ti1  1  0.85238416  0.75000000  0.10829169  1
  Ti  Ti2  1  0.07994284  0.25000000  0.25000000  1
  Ti  Ti3  1  0.14761584  0.89170831  0.25000000  1
  Ti  Ti4  1  0.14761584  0.60829169  0.25000000  1
  Ti  Ti5  1  0.14761584  0.25000000  0.89170831  1
  Ti  Ti6  1  0.92005716  0.75000000  0.75000000  1
  Ti  Ti7  1  0.85238416  0.75000000  0.39170831  1
  Ti  Ti8  1  0.14761584  0.25000000  0.60829169  1
  Ti  Ti9  1  0.00000000  0.50000000  0.50000000  1
  Ti  Ti10  1  0.85238416  0.10829169  0.75000000  1
  Ti  Ti11  1  0.57792141  0.25000000  0.25000000  1
  Ti  Ti12  1  0.00000000  0.00000000  0.00000000  1
  Ti  Ti13  1  0.85238416  0.39170831  0.75000000  1
  Ti  Ti14  1  0.00000000  0.50000000  0.00000000  1
  Ti  Ti15  1  0.00000000  0.00000000  0.50000000  1
  Bi  Bi16  1  0.65307834  0.91510954  0.91510954  1
  Bi  Bi17  1  0.19218800  0.98707830  0.75000000  1
  Bi  Bi18  1  0.50000000  0.75000000  0.25000000  1
  Bi  Bi19  1  0.34692166  0.41510954  0.41510954  1
  Bi  Bi20  1  0.80781200  0.25000000  0.48707830  1
  Bi  Bi21  1  0.65307834  0.58489046  0.91510954  1
  Bi  Bi22  1  0.80781200  0.01292170  0.25000000  1
  Bi  Bi23  1  0.19218800  0.75000000  0.98707830  1
  Bi  Bi24  1  0.19218800  0.51292170  0.75000000  1
  Bi  Bi25  1  0.19218800  0.75000000  0.51292170  1
  Bi  Bi26  1  0.65307834  0.58489046  0.58489046  1
  Bi  Bi27  1  0.80781200  0.25000000  0.01292170  1
  Bi  Bi28  1  0.50000000  0.25000000  0.75000000  1
  Bi  Bi29  1  0.80781200  0.48707830  0.25000000  1
  Bi  Bi30  1  0.34692166  0.08489046  0.41510954  1
  Bi  Bi31  1  0.34692166  0.08489046  0.08489046  1
  Bi  Bi32  1  0.65307834  0.91510954  0.58489046  1
  Bi  Bi33  1  0.34692166  0.41510954  0.08489046  1
