# generated using pymatgen
data_SiO2
_symmetry_space_group_name_H-M   'P 1'
_cell_length_a   6.60123754
_cell_length_b   6.60123754
_cell_length_c   8.13844213
_cell_angle_alpha   90.00000000
_cell_angle_beta   90.00000000
_cell_angle_gamma   90.00000000
_symmetry_Int_Tables_number   1
_chemical_formula_structural   SiO2
_chemical_formula_sum   'Si8 O16'
_cell_volume   354.64349740
_cell_formula_units_Z   8
loop_
 _symmetry_equiv_pos_site_id
 _symmetry_equiv_pos_as_xyz
  1  'x, y, z'
loop_
 _atom_site_type_symbol
 _atom_site_label
 _atom_site_symmetry_multiplicity
 _atom_site_fract_x
 _atom_site_fract_y
 _atom_site_fract_z
 _atom_site_occupancy
  Si  Si0  1  0.46127201  0.75983165  0.40354000  1
  Si  Si1  1  0.53872799  0.75983165  0.90354000  1
  Si  Si2  1  0.75983165  0.53872799  0.59646000  1
  Si  Si3  1  0.24016835  0.46127201  0.59646000  1
  Si  Si4  1  0.75983165  0.46127201  0.09646000  1
  Si  Si5  1  0.46127201  0.24016835  0.90354000  1
  Si  Si6  1  0.24016835  0.53872799  0.09646000  1
  Si  Si7  1  0.53872799  0.24016835  0.40354000  1
  O  O8  1  0.67545358  0.67545358  0.75000000  1
  O  O9  1  0.66596150  0.30877185  0.56961524  1
  O  O10  1  0.66596150  0.69122815  0.06961524  1
  O  O11  1  0.50000000  0.00000000  0.88681336  1
  O  O12  1  0.69122815  0.33403850  0.93038476  1
  O  O13  1  0.67545358  0.32454642  0.25000000  1
  O  O14  1  0.30877185  0.33403850  0.43038476  1
  O  O15  1  0.33403850  0.69122815  0.56961524  1
  O  O16  1  0.30877185  0.66596150  0.93038476  1
  O  O17  1  0.32454642  0.67545358  0.25000000  1
  O  O18  1  0.32454642  0.32454642  0.75000000  1
  O  O19  1  0.00000000  0.50000000  0.11318664  1
  O  O20  1  0.50000000  0.00000000  0.38681336  1
  O  O21  1  0.69122815  0.66596150  0.43038476  1
  O  O22  1  0.33403850  0.30877185  0.06961524  1
  O  O23  1  0.00000000  0.50000000  0.61318664  1
