# generated using pymatgen
data_Ti2Sn3
_symmetry_space_group_name_H-M   'P 1'
_cell_length_a   5.99211974
_cell_length_b   7.05845957
_cell_length_c   10.48978578
_cell_angle_alpha   89.94361779
_cell_angle_beta   106.63368813
_cell_angle_gamma   89.91332481
_symmetry_Int_Tables_number   1
_chemical_formula_structural   Ti2Sn3
_chemical_formula_sum   'Ti8 Sn12'
_cell_volume   425.10046017
_cell_formula_units_Z   4
loop_
 _symmetry_equiv_pos_site_id
 _symmetry_equiv_pos_as_xyz
  1  'x, y, z'
loop_
 _atom_site_type_symbol
 _atom_site_label
 _atom_site_symmetry_multiplicity
 _atom_site_fract_x
 _atom_site_fract_y
 _atom_site_fract_z
 _atom_site_occupancy
  Ti  Ti0  1  0.08307994  0.45183821  0.16101654  1
  Ti  Ti1  1  0.58622288  0.24987776  0.67280086  1
  Ti  Ti2  1  0.91324163  0.75023619  0.32772853  1
  Ti  Ti3  1  0.41330332  0.74876145  0.32748179  1
  Ti  Ti4  1  0.58123643  0.04788316  0.16115705  1
  Ti  Ti5  1  0.08585536  0.25150702  0.67286418  1
  Ti  Ti6  1  0.92146884  0.54794323  0.84016680  1
  Ti  Ti7  1  0.41821990  0.95372294  0.83750177  1
  Sn  Sn8  1  0.22540065  0.42694215  0.44861615  1
  Sn  Sn9  1  0.87815829  0.92584464  0.75534805  1
  Sn  Sn10  1  0.72350727  0.07580657  0.44731541  1
  Sn  Sn11  1  0.27625089  0.92838891  0.55099500  1
  Sn  Sn12  1  0.77328909  0.75222062  0.04079453  1
  Sn  Sn13  1  0.12149379  0.07258379  0.24205246  1
  Sn  Sn14  1  0.37875018  0.57328339  0.75847306  1
  Sn  Sn15  1  0.72931302  0.25000094  0.95778132  1
  Sn  Sn16  1  0.77385726  0.57470417  0.55265661  1
  Sn  Sn17  1  0.27347395  0.75071371  0.04201516  1
  Sn  Sn18  1  0.22863893  0.24813685  0.95877750  1
  Sn  Sn19  1  0.62611438  0.42694631  0.24202522  1
