# generated using pymatgen
data_CeZn3
_symmetry_space_group_name_H-M   'P 1'
_cell_length_a   4.61896489
_cell_length_b   6.54421806
_cell_length_c   10.37998067
_cell_angle_alpha   90.00000000
_cell_angle_beta   90.00000000
_cell_angle_gamma   90.00000000
_symmetry_Int_Tables_number   1
_chemical_formula_structural   CeZn3
_chemical_formula_sum   'Ce4 Zn12'
_cell_volume   313.76100533
_cell_formula_units_Z   4
loop_
 _symmetry_equiv_pos_site_id
 _symmetry_equiv_pos_as_xyz
  1  'x, y, z'
loop_
 _atom_site_type_symbol
 _atom_site_label
 _atom_site_symmetry_multiplicity
 _atom_site_fract_x
 _atom_site_fract_y
 _atom_site_fract_z
 _atom_site_occupancy
  Ce  Ce0  1  0.75000000  0.75000000  0.64826395  1
  Ce  Ce1  1  0.25000000  0.75000000  0.14826395  1
  Ce  Ce2  1  0.25000000  0.25000000  0.35173605  1
  Ce  Ce3  1  0.75000000  0.25000000  0.85173605  1
  Zn  Zn4  1  0.25000000  0.25000000  0.04988717  1
  Zn  Zn5  1  0.25000000  0.44376690  0.63089351  1
  Zn  Zn6  1  0.75000000  0.55623310  0.36910649  1
  Zn  Zn7  1  0.75000000  0.05623310  0.13089351  1
  Zn  Zn8  1  0.25000000  0.05623310  0.63089351  1
  Zn  Zn9  1  0.25000000  0.94376690  0.86910649  1
  Zn  Zn10  1  0.75000000  0.94376690  0.36910649  1
  Zn  Zn11  1  0.75000000  0.25000000  0.54988717  1
  Zn  Zn12  1  0.75000000  0.75000000  0.95011283  1
  Zn  Zn13  1  0.75000000  0.44376690  0.13089351  1
  Zn  Zn14  1  0.25000000  0.55623310  0.86910649  1
  Zn  Zn15  1  0.25000000  0.75000000  0.45011283  1
