# generated using pymatgen
data_NaCa2Mg2(AsO4)3
_symmetry_space_group_name_H-M   'P 1'
_cell_length_a   10.84603308
_cell_length_b   10.84603288
_cell_length_c   10.84603310
_cell_angle_alpha   109.48114333
_cell_angle_beta   109.45137792
_cell_angle_gamma   109.48114050
_symmetry_Int_Tables_number   1
_chemical_formula_structural   NaCa2Mg2(AsO4)3
_chemical_formula_sum   'Na4 Ca8 Mg8 As12 O48'
_cell_volume   982.17946025
_cell_formula_units_Z   4
loop_
 _symmetry_equiv_pos_site_id
 _symmetry_equiv_pos_as_xyz
  1  'x, y, z'
loop_
 _atom_site_type_symbol
 _atom_site_label
 _atom_site_symmetry_multiplicity
 _atom_site_fract_x
 _atom_site_fract_y
 _atom_site_fract_z
 _atom_site_occupancy
  Na  Na0  1  0.12500000  0.25000000  0.37500000  1
  Na  Na1  1  0.37500000  0.75000000  0.12500000  1
  Na  Na2  1  0.62500000  0.25000000  0.87500000  1
  Na  Na3  1  0.87500000  0.75000000  0.62500000  1
  Ca  Ca4  1  0.12730673  0.37730673  0.75000000  1
  Ca  Ca5  1  0.25000000  0.87730673  0.62730673  1
  Ca  Ca6  1  0.62730673  0.87730673  0.75000000  1
  Ca  Ca7  1  0.25000000  0.37730673  0.12730673  1
  Ca  Ca8  1  0.37269327  0.12269327  0.25000000  1
  Ca  Ca9  1  0.75000000  0.62269327  0.87269327  1
  Ca  Ca10  1  0.87269327  0.62269327  0.25000000  1
  Ca  Ca11  1  0.75000000  0.12269327  0.37269327  1
  Mg  Mg12  1  0.00000000  0.00000000  0.00000000  1
  Mg  Mg13  1  0.50000000  0.50000000  0.50000000  1
  Mg  Mg14  1  0.50000000  0.00000000  0.50000000  1
  Mg  Mg15  1  0.50000000  0.50000000  0.00000000  1
  Mg  Mg16  1  0.50000000  0.00000000  0.00000000  1
  Mg  Mg17  1  0.00000000  0.50000000  0.50000000  1
  Mg  Mg18  1  0.00000000  0.50000000  0.00000000  1
  Mg  Mg19  1  0.00000000  0.00000000  0.50000000  1
  As  As20  1  0.12500000  0.75000000  0.87500000  1
  As  As21  1  0.12485633  0.87485633  0.25000000  1
  As  As22  1  0.25000000  0.12514367  0.87514367  1
  As  As23  1  0.25000000  0.62514367  0.37514367  1
  As  As24  1  0.37514367  0.62514367  0.75000000  1
  As  As25  1  0.37500000  0.25000000  0.62500000  1
  As  As26  1  0.62500000  0.75000000  0.37500000  1
  As  As27  1  0.75000000  0.37485633  0.62485633  1
  As  As28  1  0.62485633  0.37485633  0.25000000  1
  As  As29  1  0.75000000  0.87485633  0.12485633  1
  As  As30  1  0.87514367  0.12514367  0.75000000  1
  As  As31  1  0.87500000  0.25000000  0.12500000  1
  O  O32  1  0.10632380  0.98856040  0.69367617  1
  O  O33  1  0.11490298  0.60094311  0.90609209  1
  O  O34  1  0.01588560  0.30762764  0.89438945  1
  O  O35  1  0.09390791  0.70881089  0.69485102  1
  O  O36  1  0.08676181  0.87850385  0.39438945  1
  O  O37  1  0.10561055  0.62149615  0.41323819  1
  O  O38  1  0.19367617  0.48856040  0.60632380  1
  O  O39  1  0.41323819  0.80762764  0.79174204  1
  O  O40  1  0.29174204  0.30762764  0.91323819  1
  O  O41  1  0.38223660  0.58735236  0.89367620  1
  O  O42  1  0.01395987  0.20881089  0.11490298  1
  O  O43  1  0.30632383  0.91264764  0.29488424  1
  O  O44  1  0.19485102  0.20881089  0.59390791  1
  O  O45  1  0.20511576  0.58735236  0.19367617  1
  O  O46  1  0.39438945  0.80762764  0.51588560  1
  O  O47  1  0.30514898  0.89905689  0.01395987  1
  O  O48  1  0.29488424  0.48856040  0.38223660  1
  O  O49  1  0.11776340  0.01143960  0.20511576  1
  O  O50  1  0.51588560  0.62149615  0.70825796  1
  O  O51  1  0.39367620  0.08735236  0.88223660  1
  O  O52  1  0.51395987  0.39905689  0.80514898  1
  O  O53  1  0.38509702  0.29118911  0.48604013  1
  O  O54  1  0.79174204  0.87850385  0.98411440  1
  O  O55  1  0.40609209  0.10094311  0.61490298  1
  O  O56  1  0.59390791  0.89905689  0.38509702  1
  O  O57  1  0.20825796  0.12149615  0.01588560  1
  O  O58  1  0.61490298  0.70881089  0.51395987  1
  O  O59  1  0.48604013  0.60094311  0.19485102  1
  O  O60  1  0.60632380  0.91264764  0.11776340  1
  O  O61  1  0.48411440  0.37850385  0.29174204  1
  O  O62  1  0.88223660  0.98856040  0.79488424  1
  O  O63  1  0.70511576  0.51143960  0.61776340  1
  O  O64  1  0.69485102  0.10094311  0.98604013  1
  O  O65  1  0.60561055  0.19237236  0.48411440  1
  O  O66  1  0.79488424  0.41264764  0.80632383  1
  O  O67  1  0.80514898  0.79118911  0.40609209  1
  O  O68  1  0.69367617  0.08735236  0.70511576  1
  O  O69  1  0.98604013  0.79118911  0.88509702  1
  O  O70  1  0.61776340  0.41264764  0.10632380  1
  O  O71  1  0.70825796  0.69237236  0.08676181  1
  O  O72  1  0.58676181  0.19237236  0.20825796  1
  O  O73  1  0.80632383  0.51143960  0.39367620  1
  O  O74  1  0.89438945  0.37850385  0.58676181  1
  O  O75  1  0.91323819  0.12149615  0.60561055  1
  O  O76  1  0.90609209  0.29118911  0.30514898  1
  O  O77  1  0.88509702  0.39905689  0.09390791  1
  O  O78  1  0.98411440  0.69237236  0.10561055  1
  O  O79  1  0.89367620  0.01143960  0.30632383  1
