# generated using pymatgen
data_Rb3Ce(PSe4)2
_symmetry_space_group_name_H-M   'P 1'
_cell_length_a   9.68822661
_cell_length_b   10.24438477
_cell_length_c   18.39758532
_cell_angle_alpha   90.00000000
_cell_angle_beta   90.00000000
_cell_angle_gamma   90.85464735
_symmetry_Int_Tables_number   1
_chemical_formula_structural   Rb3Ce(PSe4)2
_chemical_formula_sum   'Rb12 Ce4 P8 Se32'
_cell_volume   1825.75575913
_cell_formula_units_Z   4
loop_
 _symmetry_equiv_pos_site_id
 _symmetry_equiv_pos_as_xyz
  1  'x, y, z'
loop_
 _atom_site_type_symbol
 _atom_site_label
 _atom_site_symmetry_multiplicity
 _atom_site_fract_x
 _atom_site_fract_y
 _atom_site_fract_z
 _atom_site_occupancy
  Rb  Rb0  1  0.39007390  0.36719085  0.29411368  1
  Rb  Rb1  1  0.23710380  0.01691649  0.96473233  1
  Rb  Rb2  1  0.76289620  0.98308351  0.03526767  1
  Rb  Rb3  1  0.90221094  0.35924150  0.21059915  1
  Rb  Rb4  1  0.90221094  0.85924150  0.28940085  1
  Rb  Rb5  1  0.60992610  0.13280915  0.79411368  1
  Rb  Rb6  1  0.76289620  0.48308351  0.46473233  1
  Rb  Rb7  1  0.60992610  0.63280915  0.70588632  1
  Rb  Rb8  1  0.39007390  0.86719085  0.20588632  1
  Rb  Rb9  1  0.23710380  0.51691649  0.53526767  1
  Rb  Rb10  1  0.09778906  0.64075850  0.78940085  1
  Rb  Rb11  1  0.09778906  0.14075850  0.71059915  1
  Ce  Ce12  1  0.27340331  0.97388434  0.48683614  1
  Ce  Ce13  1  0.72659669  0.52611566  0.98683614  1
  Ce  Ce14  1  0.27340331  0.47388434  0.01316386  1
  Ce  Ce15  1  0.72659669  0.02611566  0.51316386  1
  P  P16  1  0.50189775  0.76073222  0.39714979  1
  P  P17  1  0.50189775  0.26073222  0.10285021  1
  P  P18  1  0.02721132  0.22165786  0.40247516  1
  P  P19  1  0.97278868  0.27834214  0.90247516  1
  P  P20  1  0.49810225  0.73926778  0.89714979  1
  P  P21  1  0.97278868  0.77834214  0.59752484  1
  P  P22  1  0.49810225  0.23926778  0.60285021  1
  P  P23  1  0.02721132  0.72165786  0.09752484  1
  Se  Se24  1  0.95998952  0.32500920  0.02184911  1
  Se  Se25  1  0.82612772  0.41011756  0.84607844  1
  Se  Se26  1  0.82612772  0.91011756  0.65392156  1
  Se  Se27  1  0.55601866  0.74975955  0.51543815  1
  Se  Se28  1  0.07333799  0.42618146  0.37530985  1
  Se  Se29  1  0.38363797  0.35518488  0.68241009  1
  Se  Se30  1  0.53191063  0.47721663  0.11911366  1
  Se  Se31  1  0.61636203  0.14481512  0.18241009  1
  Se  Se32  1  0.61636203  0.64481512  0.31758991  1
  Se  Se33  1  0.27540215  0.23116163  0.11226309  1
  Se  Se34  1  0.81031655  0.66426189  0.12755323  1
  Se  Se35  1  0.07333799  0.92618146  0.12469015  1
  Se  Se36  1  0.92666201  0.07381854  0.87530985  1
  Se  Se37  1  0.81031655  0.16426189  0.37244677  1
  Se  Se38  1  0.04001048  0.17499080  0.52184911  1
  Se  Se39  1  0.95998952  0.82500920  0.47815089  1
  Se  Se40  1  0.17387228  0.58988244  0.15392156  1
  Se  Se41  1  0.18968345  0.83573811  0.62755323  1
  Se  Se42  1  0.92666201  0.57381854  0.62469015  1
  Se  Se43  1  0.04001048  0.67499080  0.97815089  1
  Se  Se44  1  0.72459785  0.26883837  0.61226309  1
  Se  Se45  1  0.46808937  0.52278337  0.88088634  1
  Se  Se46  1  0.53191063  0.97721663  0.38088634  1
  Se  Se47  1  0.44398134  0.25024045  0.48456185  1
  Se  Se48  1  0.27540215  0.73116163  0.38773691  1
  Se  Se49  1  0.72459785  0.76883837  0.88773691  1
  Se  Se50  1  0.44398134  0.75024045  0.01543815  1
  Se  Se51  1  0.38363797  0.85518488  0.81758991  1
  Se  Se52  1  0.55601866  0.24975955  0.98456185  1
  Se  Se53  1  0.46808937  0.02278337  0.61911366  1
  Se  Se54  1  0.17387228  0.08988244  0.34607844  1
  Se  Se55  1  0.18968345  0.33573811  0.87244677  1
