# generated using pymatgen
data_Rb4Fe2O5
_symmetry_space_group_name_H-M   'P 1'
_cell_length_a   7.24212030
_cell_length_b   7.37065878
_cell_length_c   9.65728721
_cell_angle_alpha   84.98523044
_cell_angle_beta   67.97839216
_cell_angle_gamma   76.51873098
_symmetry_Int_Tables_number   1
_chemical_formula_structural   Rb4Fe2O5
_chemical_formula_sum   'Rb8 Fe4 O10'
_cell_volume   464.72112787
_cell_formula_units_Z   2
loop_
 _symmetry_equiv_pos_site_id
 _symmetry_equiv_pos_as_xyz
  1  'x, y, z'
loop_
 _atom_site_type_symbol
 _atom_site_label
 _atom_site_symmetry_multiplicity
 _atom_site_fract_x
 _atom_site_fract_y
 _atom_site_fract_z
 _atom_site_occupancy
  Rb  Rb0  1  0.46513039  0.25000000  0.06973922  1
  Rb  Rb1  1  0.53486961  0.75000000  0.93026078  1
  Rb  Rb2  1  0.02055016  0.25000000  0.95889968  1
  Rb  Rb3  1  0.97944984  0.75000000  0.04110032  1
  Rb  Rb4  1  0.46759673  0.88669990  0.35981746  1
  Rb  Rb5  1  0.17258582  0.61330010  0.35981746  1
  Rb  Rb6  1  0.82741418  0.38669990  0.64018254  1
  Rb  Rb7  1  0.53240327  0.11330010  0.64018254  1
  Fe  Fe8  1  0.30548859  0.59530731  0.69092898  1
  Fe  Fe9  1  0.99641758  0.09530731  0.30907102  1
  Fe  Fe10  1  0.69451141  0.40469269  0.30907102  1
  Fe  Fe11  1  0.00358242  0.90469269  0.69092898  1
  O  O12  1  0.20488294  0.95820696  0.15453901  1
  O  O13  1  0.27479492  0.86642671  0.70371351  1
  O  O14  1  0.35942195  0.45820696  0.84546099  1
  O  O15  1  0.72520508  0.13357329  0.29628649  1
  O  O16  1  0.97850843  0.36642671  0.29628649  1
  O  O17  1  0.00000000  0.00000000  0.50000000  1
  O  O18  1  0.64057805  0.54179304  0.15453901  1
  O  O19  1  0.02149157  0.63357329  0.70371351  1
  O  O20  1  0.79511706  0.04179304  0.84546099  1
  O  O21  1  0.50000000  0.50000000  0.50000000  1
