# generated using pymatgen
data_KIrO3
_symmetry_space_group_name_H-M   'P 1'
_cell_length_a   9.58233807
_cell_length_b   9.58233807
_cell_length_c   9.58233807
_cell_angle_alpha   90.00000000
_cell_angle_beta   90.00000000
_cell_angle_gamma   90.00000000
_symmetry_Int_Tables_number   1
_chemical_formula_structural   KIrO3
_chemical_formula_sum   'K12 Ir12 O36'
_cell_volume   879.86180806
_cell_formula_units_Z   12
loop_
 _symmetry_equiv_pos_site_id
 _symmetry_equiv_pos_as_xyz
  1  'x, y, z'
loop_
 _atom_site_type_symbol
 _atom_site_label
 _atom_site_symmetry_multiplicity
 _atom_site_fract_x
 _atom_site_fract_y
 _atom_site_fract_z
 _atom_site_occupancy
  K  K0  1  0.59534821  0.59534821  0.59534821  1
  K  K1  1  0.09534821  0.40465179  0.09534821  1
  K  K2  1  0.90465179  0.90465179  0.59534821  1
  K  K3  1  0.09534821  0.09534821  0.40465179  1
  K  K4  1  0.40465179  0.40465179  0.40465179  1
  K  K5  1  0.59534821  0.90465179  0.90465179  1
  K  K6  1  0.50000000  0.50000000  0.00000000  1
  K  K7  1  0.90465179  0.59534821  0.90465179  1
  K  K8  1  0.00000000  0.00000000  0.00000000  1
  K  K9  1  0.40465179  0.09534821  0.09534821  1
  K  K10  1  0.00000000  0.50000000  0.50000000  1
  K  K11  1  0.50000000  0.00000000  0.50000000  1
  Ir  Ir12  1  0.25000000  0.59122597  0.75000000  1
  Ir  Ir13  1  0.75000000  0.09122597  0.25000000  1
  Ir  Ir14  1  0.09122597  0.25000000  0.75000000  1
  Ir  Ir15  1  0.25000000  0.75000000  0.40877403  1
  Ir  Ir16  1  0.25000000  0.75000000  0.09122597  1
  Ir  Ir17  1  0.75000000  0.25000000  0.59122597  1
  Ir  Ir18  1  0.25000000  0.90877403  0.75000000  1
  Ir  Ir19  1  0.75000000  0.25000000  0.90877403  1
  Ir  Ir20  1  0.59122597  0.75000000  0.25000000  1
  Ir  Ir21  1  0.40877403  0.25000000  0.75000000  1
  Ir  Ir22  1  0.90877403  0.75000000  0.25000000  1
  Ir  Ir23  1  0.75000000  0.40877403  0.25000000  1
  O  O24  1  0.24671187  0.90324571  0.54574515  1
  O  O25  1  0.75328813  0.40324571  0.04574515  1
  O  O26  1  0.54574515  0.25328813  0.59675429  1
  O  O27  1  0.09675429  0.45425485  0.75328813  1
  O  O28  1  0.38668957  0.75000000  0.75000000  1
  O  O29  1  0.74671187  0.09675429  0.04574515  1
  O  O30  1  0.75000000  0.75000000  0.11331043  1
  O  O31  1  0.75000000  0.75000000  0.38668957  1
  O  O32  1  0.75328813  0.09675429  0.45425485  1
  O  O33  1  0.45425485  0.75328813  0.09675429  1
  O  O34  1  0.25328813  0.59675429  0.54574515  1
  O  O35  1  0.74671187  0.40324571  0.45425485  1
  O  O36  1  0.04574515  0.74671187  0.09675429  1
  O  O37  1  0.90324571  0.95425485  0.25328813  1
  O  O38  1  0.95425485  0.24671187  0.59675429  1
  O  O39  1  0.40324571  0.45425485  0.74671187  1
  O  O40  1  0.95425485  0.25328813  0.90324571  1
  O  O41  1  0.04574515  0.75328813  0.40324571  1
  O  O42  1  0.75000000  0.38668957  0.75000000  1
  O  O43  1  0.61331043  0.25000000  0.25000000  1
  O  O44  1  0.25000000  0.25000000  0.61331043  1
  O  O45  1  0.75000000  0.11331043  0.75000000  1
  O  O46  1  0.24671187  0.59675429  0.95425485  1
  O  O47  1  0.25000000  0.61331043  0.25000000  1
  O  O48  1  0.25000000  0.25000000  0.88668957  1
  O  O49  1  0.09675429  0.04574515  0.74671187  1
  O  O50  1  0.59675429  0.95425485  0.24671187  1
  O  O51  1  0.40324571  0.04574515  0.75328813  1
  O  O52  1  0.45425485  0.74671187  0.40324571  1
  O  O53  1  0.25000000  0.88668957  0.25000000  1
  O  O54  1  0.59675429  0.54574515  0.25328813  1
  O  O55  1  0.11331043  0.75000000  0.75000000  1
  O  O56  1  0.90324571  0.54574515  0.24671187  1
  O  O57  1  0.54574515  0.24671187  0.90324571  1
  O  O58  1  0.25328813  0.90324571  0.95425485  1
  O  O59  1  0.88668957  0.25000000  0.25000000  1
