# generated using pymatgen
data_Ba2CaV2CuF14
_symmetry_space_group_name_H-M   'P 1'
_cell_length_a   5.46398594
_cell_length_b   7.57709079
_cell_length_c   15.13675664
_cell_angle_alpha   91.41779924
_cell_angle_beta   90.00000000
_cell_angle_gamma   111.13456813
_symmetry_Int_Tables_number   1
_chemical_formula_structural   Ba2CaV2CuF14
_chemical_formula_sum   'Ba4 Ca2 V4 Cu2 F28'
_cell_volume   584.32013761
_cell_formula_units_Z   2
loop_
 _symmetry_equiv_pos_site_id
 _symmetry_equiv_pos_as_xyz
  1  'x, y, z'
loop_
 _atom_site_type_symbol
 _atom_site_label
 _atom_site_symmetry_multiplicity
 _atom_site_fract_x
 _atom_site_fract_y
 _atom_site_fract_z
 _atom_site_occupancy
  Ba  Ba0  1  0.73716596  0.62863333  0.87591578  1
  Ba  Ba1  1  0.89146737  0.62863333  0.37591578  1
  Ba  Ba2  1  0.10853263  0.37136667  0.62408422  1
  Ba  Ba3  1  0.26283404  0.37136667  0.12408422  1
  Ca  Ca4  1  0.57816092  0.00000000  0.25000000  1
  Ca  Ca5  1  0.42183908  0.00000000  0.75000000  1
  V  V6  1  0.90315900  0.75580531  0.12419991  1
  V  V7  1  0.14735369  0.24419469  0.37580009  1
  V  V8  1  0.85264631  0.75580531  0.62419991  1
  V  V9  1  0.09684100  0.24419469  0.87580009  1
  Cu  Cu10  1  0.50000000  0.00000000  0.00000000  1
  Cu  Cu11  1  0.50000000  0.00000000  0.50000000  1
  F  F12  1  0.11190398  0.71016920  0.54459095  1
  F  F13  1  0.41061905  0.23596384  0.28814651  1
  F  F14  1  0.82534479  0.23596384  0.78814651  1
  F  F15  1  0.29185182  0.16889927  0.48256264  1
  F  F16  1  0.96196499  0.32106343  0.27786532  1
  F  F17  1  0.91484534  0.98679088  0.34523055  1
  F  F18  1  0.38388903  0.89766860  0.38402579  1
  F  F19  1  0.61611097  0.10233140  0.61597421  1
  F  F20  1  0.07194553  0.98679088  0.84523055  1
  F  F21  1  0.12295255  0.83110073  0.01743736  1
  F  F22  1  0.51377957  0.89766860  0.88402579  1
  F  F23  1  0.08515466  0.01320912  0.65476945  1
  F  F24  1  0.03803501  0.67893657  0.72213468  1
  F  F25  1  0.36080811  0.50631360  0.39851811  1
  F  F26  1  0.92805447  0.01320912  0.15476945  1
  F  F27  1  0.85449451  0.49368640  0.10148189  1
  F  F28  1  0.63919189  0.49368640  0.60148189  1
  F  F29  1  0.17465521  0.76403616  0.21185349  1
  F  F30  1  0.88809602  0.28983080  0.45540905  1
  F  F31  1  0.58938095  0.76403616  0.71185349  1
  F  F32  1  0.40173478  0.28983080  0.95540905  1
  F  F33  1  0.48622043  0.10233140  0.11597421  1
  F  F34  1  0.87704745  0.16889927  0.98256264  1
  F  F35  1  0.14550549  0.50631360  0.89851811  1
  F  F36  1  0.35909844  0.32106343  0.77786532  1
  F  F37  1  0.64090156  0.67893657  0.22213468  1
  F  F38  1  0.59826522  0.71016920  0.04459095  1
  F  F39  1  0.70814818  0.83110073  0.51743736  1
