# generated using pymatgen
data_CsCr3O8
_symmetry_space_group_name_H-M   'P 1'
_cell_length_a   5.57320052
_cell_length_b   8.66320576
_cell_length_c   16.86678756
_cell_angle_alpha   90.00000000
_cell_angle_beta   90.00000000
_cell_angle_gamma   90.00000000
_symmetry_Int_Tables_number   1
_chemical_formula_structural   CsCr3O8
_chemical_formula_sum   'Cs4 Cr12 O32'
_cell_volume   814.35857429
_cell_formula_units_Z   4
loop_
 _symmetry_equiv_pos_site_id
 _symmetry_equiv_pos_as_xyz
  1  'x, y, z'
loop_
 _atom_site_type_symbol
 _atom_site_label
 _atom_site_symmetry_multiplicity
 _atom_site_fract_x
 _atom_site_fract_y
 _atom_site_fract_z
 _atom_site_occupancy
  Cs  Cs0  1  0.75000000  0.51432202  0.26974854  1
  Cs  Cs1  1  0.25000000  0.48567798  0.73025146  1
  Cs  Cs2  1  0.25000000  0.01432202  0.23025146  1
  Cs  Cs3  1  0.75000000  0.98567798  0.76974854  1
  Cr  Cr4  1  0.25000000  0.24263752  0.46005300  1
  Cr  Cr5  1  0.75000000  0.04903858  0.39419089  1
  Cr  Cr6  1  0.75000000  0.74263752  0.03994700  1
  Cr  Cr7  1  0.25000000  0.87207845  0.91810280  1
  Cr  Cr8  1  0.75000000  0.75736248  0.53994700  1
  Cr  Cr9  1  0.25000000  0.25736248  0.96005300  1
  Cr  Cr10  1  0.25000000  0.62792155  0.41810280  1
  Cr  Cr11  1  0.25000000  0.95096142  0.60580911  1
  Cr  Cr12  1  0.75000000  0.45096142  0.89419089  1
  Cr  Cr13  1  0.25000000  0.54903858  0.10580911  1
  Cr  Cr14  1  0.75000000  0.37207845  0.58189720  1
  Cr  Cr15  1  0.75000000  0.12792155  0.08189720  1
  O  O16  1  0.25000000  0.07124639  0.67948981  1
  O  O17  1  0.50251817  0.17306872  0.03116869  1
  O  O18  1  0.50066575  0.33972264  0.88607109  1
  O  O19  1  0.49933425  0.66027736  0.11392891  1
  O  O20  1  0.75000000  0.92875361  0.32051019  1
  O  O21  1  0.99933425  0.33972264  0.88607109  1
  O  O22  1  0.25000000  0.06311135  0.89657269  1
  O  O23  1  0.49933425  0.83972264  0.61392891  1
  O  O24  1  0.25000000  0.43688865  0.39657269  1
  O  O25  1  0.00251817  0.82693128  0.96883131  1
  O  O26  1  0.49748183  0.67306872  0.46883131  1
  O  O27  1  0.00066575  0.83972264  0.61392891  1
  O  O28  1  0.49748183  0.82693128  0.96883131  1
  O  O29  1  0.25000000  0.71731210  0.33333148  1
  O  O30  1  0.00251817  0.67306872  0.46883131  1
  O  O31  1  0.50066575  0.16027736  0.38607109  1
  O  O32  1  0.75000000  0.21731210  0.16666852  1
  O  O33  1  0.75000000  0.54342272  0.98054291  1
  O  O34  1  0.25000000  0.04342272  0.51945709  1
  O  O35  1  0.75000000  0.95657728  0.48054291  1
  O  O36  1  0.25000000  0.45657728  0.01945709  1
  O  O37  1  0.75000000  0.93688865  0.10342731  1
  O  O38  1  0.00066575  0.66027736  0.11392891  1
  O  O39  1  0.99933425  0.16027736  0.38607109  1
  O  O40  1  0.50251817  0.32693128  0.53116869  1
  O  O41  1  0.25000000  0.42875361  0.17948981  1
  O  O42  1  0.75000000  0.28268790  0.66666852  1
  O  O43  1  0.99748183  0.17306872  0.03116869  1
  O  O44  1  0.75000000  0.56311135  0.60342731  1
  O  O45  1  0.25000000  0.78268790  0.83333148  1
  O  O46  1  0.99748183  0.32693128  0.53116869  1
  O  O47  1  0.75000000  0.57124639  0.82051019  1
