# generated using pymatgen
data_K2GdF5
_symmetry_space_group_name_H-M   'P 1'
_cell_length_a   10.97779516
_cell_length_b   6.71412187
_cell_length_c   7.45539848
_cell_angle_alpha   90.00000000
_cell_angle_beta   90.00000000
_cell_angle_gamma   90.00000000
_symmetry_Int_Tables_number   1
_chemical_formula_structural   K2GdF5
_chemical_formula_sum   'K8 Gd4 F20'
_cell_volume   549.50949827
_cell_formula_units_Z   4
loop_
 _symmetry_equiv_pos_site_id
 _symmetry_equiv_pos_as_xyz
  1  'x, y, z'
loop_
 _atom_site_type_symbol
 _atom_site_label
 _atom_site_symmetry_multiplicity
 _atom_site_fract_x
 _atom_site_fract_y
 _atom_site_fract_z
 _atom_site_occupancy
  K  K0  1  0.17075912  0.96628589  0.49479702  1
  K  K1  1  0.67075912  0.53371411  0.00520298  1
  K  K2  1  0.82924088  0.03371411  0.99479702  1
  K  K3  1  0.32924088  0.46628589  0.50520298  1
  K  K4  1  0.82924088  0.03371411  0.50520298  1
  K  K5  1  0.32924088  0.46628589  0.99479702  1
  K  K6  1  0.17075912  0.96628589  0.00520298  1
  K  K7  1  0.67075912  0.53371411  0.49479702  1
  Gd  Gd8  1  0.00296609  0.43422124  0.25000000  1
  Gd  Gd9  1  0.50296609  0.06577876  0.25000000  1
  Gd  Gd10  1  0.99703391  0.56577876  0.75000000  1
  Gd  Gd11  1  0.49703391  0.93422124  0.75000000  1
  F  F12  1  0.01098303  0.09945691  0.25000000  1
  F  F13  1  0.51098303  0.40054309  0.25000000  1
  F  F14  1  0.98901697  0.90054309  0.75000000  1
  F  F15  1  0.48901697  0.59945691  0.75000000  1
  F  F16  1  0.92360770  0.64911889  0.46521837  1
  F  F17  1  0.42360770  0.85088111  0.03478163  1
  F  F18  1  0.07639230  0.35088111  0.96521837  1
  F  F19  1  0.57639230  0.14911889  0.53478163  1
  F  F20  1  0.07639230  0.35088111  0.53478163  1
  F  F21  1  0.57639230  0.14911889  0.96521837  1
  F  F22  1  0.92360770  0.64911889  0.03478163  1
  F  F23  1  0.42360770  0.85088111  0.46521837  1
  F  F24  1  0.16958387  0.62924987  0.25000000  1
  F  F25  1  0.66958387  0.87075013  0.25000000  1
  F  F26  1  0.83041613  0.37075013  0.75000000  1
  F  F27  1  0.33041613  0.12924987  0.75000000  1
  F  F28  1  0.80550327  0.33562147  0.25000000  1
  F  F29  1  0.30550327  0.16437853  0.25000000  1
  F  F30  1  0.19449673  0.66437853  0.75000000  1
  F  F31  1  0.69449673  0.83562147  0.75000000  1
