# generated using pymatgen
data_Ba2H6Pt
_symmetry_space_group_name_H-M   'P 1'
_cell_length_a   7.86709679
_cell_length_b   7.86709679
_cell_length_c   6.02918291
_cell_angle_alpha   90.00000000
_cell_angle_beta   90.00000000
_cell_angle_gamma   134.92813504
_symmetry_Int_Tables_number   1
_chemical_formula_structural   Ba2H6Pt
_chemical_formula_sum   'Ba4 H12 Pt2'
_cell_volume   264.19007150
_cell_formula_units_Z   2
loop_
 _symmetry_equiv_pos_site_id
 _symmetry_equiv_pos_as_xyz
  1  'x, y, z'
loop_
 _atom_site_type_symbol
 _atom_site_label
 _atom_site_symmetry_multiplicity
 _atom_site_fract_x
 _atom_site_fract_y
 _atom_site_fract_z
 _atom_site_occupancy
  Ba  Ba0  1  0.14215289  0.85784711  0.50000000  1
  Ba  Ba1  1  0.64215289  0.35784711  0.00000000  1
  Ba  Ba2  1  0.85784711  0.14215289  0.50000000  1
  Ba  Ba3  1  0.35784711  0.64215289  0.00000000  1
  H  H4  1  0.00293369  0.50293369  0.75000000  1
  H  H5  1  0.49706631  0.99706631  0.25000000  1
  H  H6  1  0.99706631  0.49706631  0.25000000  1
  H  H7  1  0.50293369  0.00293369  0.75000000  1
  H  H8  1  0.38514175  0.61485825  0.50000000  1
  H  H9  1  0.88514175  0.11485825  0.00000000  1
  H  H10  1  0.61485825  0.38514175  0.50000000  1
  H  H11  1  0.11485825  0.88514175  0.00000000  1
  H  H12  1  0.30110344  0.30110344  0.69522985  1
  H  H13  1  0.69889656  0.69889656  0.30477015  1
  H  H14  1  0.19889656  0.19889656  0.19522985  1
  H  H15  1  0.80110344  0.80110344  0.80477015  1
  Pt  Pt16  1  0.50000000  0.50000000  0.50000000  1
  Pt  Pt17  1  0.00000000  0.00000000  0.00000000  1
