# generated using pymatgen
data_Ba2InIrO6
_symmetry_space_group_name_H-M   'P 1'
_cell_length_a   5.93630737
_cell_length_b   5.93630719
_cell_length_c   14.83307715
_cell_angle_alpha   90.00000000
_cell_angle_beta   90.00000000
_cell_angle_gamma   120.00000096
_symmetry_Int_Tables_number   1
_chemical_formula_structural   Ba2InIrO6
_chemical_formula_sum   'Ba6 In3 Ir3 O18'
_cell_volume   452.68346271
_cell_formula_units_Z   3
loop_
 _symmetry_equiv_pos_site_id
 _symmetry_equiv_pos_as_xyz
  1  'x, y, z'
loop_
 _atom_site_type_symbol
 _atom_site_label
 _atom_site_symmetry_multiplicity
 _atom_site_fract_x
 _atom_site_fract_y
 _atom_site_fract_z
 _atom_site_occupancy
  Ba  Ba0  1  0.33333300  0.66666700  0.41018644  1
  Ba  Ba1  1  0.66666700  0.33333300  0.90363742  1
  Ba  Ba2  1  0.00000000  0.00000000  0.24848120  1
  Ba  Ba3  1  0.00000000  0.00000000  0.75151880  1
  Ba  Ba4  1  0.66666700  0.33333300  0.58981356  1
  Ba  Ba5  1  0.33333300  0.66666700  0.09636258  1
  In  In6  1  0.66666700  0.33333300  0.34652923  1
  In  In7  1  0.33333300  0.66666700  0.65347077  1
  In  In8  1  0.00000000  0.00000000  0.00000000  1
  Ir  Ir9  1  0.00000000  0.00000000  0.50000000  1
  Ir  Ir10  1  0.66666700  0.33333300  0.15677517  1
  Ir  Ir11  1  0.33333300  0.66666700  0.84322483  1
  O  O12  1  0.82951440  0.65902880  0.08541123  1
  O  O13  1  0.84235627  0.68471254  0.42243693  1
  O  O14  1  0.51278912  0.02557824  0.24219965  1
  O  O15  1  0.97442176  0.48721088  0.24219965  1
  O  O16  1  0.68471254  0.84235627  0.57756307  1
  O  O17  1  0.31528746  0.15764373  0.42243693  1
  O  O18  1  0.15764373  0.84235627  0.57756307  1
  O  O19  1  0.15764373  0.31528746  0.57756307  1
  O  O20  1  0.34097120  0.17048560  0.08541123  1
  O  O21  1  0.84235627  0.15764373  0.42243693  1
  O  O22  1  0.82951440  0.17048560  0.08541123  1
  O  O23  1  0.17048560  0.34097120  0.91458877  1
  O  O24  1  0.17048560  0.82951440  0.91458877  1
  O  O25  1  0.51278912  0.48721088  0.24219965  1
  O  O26  1  0.65902880  0.82951440  0.91458877  1
  O  O27  1  0.02557824  0.51278912  0.75780035  1
  O  O28  1  0.48721088  0.97442176  0.75780035  1
  O  O29  1  0.48721088  0.51278912  0.75780035  1
