# generated using pymatgen
data_Dy7(CuTe4)3
_symmetry_space_group_name_H-M   'P 1'
_cell_length_a   14.31520748
_cell_length_b   42.98034926
_cell_length_c   28.33746807
_cell_angle_alpha   8.59917070
_cell_angle_beta   15.24041197
_cell_angle_gamma   17.44649092
_symmetry_Int_Tables_number   1
_chemical_formula_structural   Dy7(CuTe4)3
_chemical_formula_sum   'Dy7 Cu3 Te12'
_cell_volume   685.28547424
_cell_formula_units_Z   1
loop_
 _symmetry_equiv_pos_site_id
 _symmetry_equiv_pos_as_xyz
  1  'x, y, z'
loop_
 _atom_site_type_symbol
 _atom_site_label
 _atom_site_symmetry_multiplicity
 _atom_site_fract_x
 _atom_site_fract_y
 _atom_site_fract_z
 _atom_site_occupancy
  Dy  Dy0  1  0.41824808  0.99820453  0.42002297  1
  Dy  Dy1  1  0.00028385  0.66785846  0.99663183  1
  Dy  Dy2  1  0.40449126  0.33205125  0.42583456  1
  Dy  Dy3  1  0.59196655  0.33908885  0.56804425  1
  Dy  Dy4  1  0.43137862  0.67092759  0.40371661  1
  Dy  Dy5  1  0.56692938  0.66444166  0.59299827  1
  Dy  Dy6  1  0.58486992  0.99511644  0.58778914  1
  Cu  Cu7  1  0.19096115  0.33390619  0.19156845  1
  Cu  Cu8  1  0.80772320  0.00105976  0.80884924  1
  Cu  Cu9  1  0.80950336  0.33209575  0.81156034  1
  Te  Te10  1  0.12097881  0.98958286  0.14710457  1
  Te  Te11  1  0.29308236  0.00437854  0.28444558  1
  Te  Te12  1  0.11842209  0.34599559  0.11299478  1
  Te  Te13  1  0.29374138  0.32855753  0.29788529  1
  Te  Te14  1  0.14099638  0.66681220  0.12196938  1
  Te  Te15  1  0.28765326  0.66610752  0.29471125  1
  Te  Te16  1  0.70388836  0.33119256  0.71352176  1
  Te  Te17  1  0.88234045  0.33230243  0.86971096  1
  Te  Te18  1  0.70919652  0.66406995  0.71178896  1
  Te  Te19  1  0.87107908  0.67348021  0.86236318  1
  Te  Te20  1  0.71227458  0.00479318  0.69915602  1
  Te  Te21  1  0.86999137  0.99130995  0.88733260  1
