# generated using pymatgen
data_P28Pb5I2
_symmetry_space_group_name_H-M   'P 1'
_cell_length_a   9.87649449
_cell_length_b   18.16804589
_cell_length_c   19.78876447
_cell_angle_alpha   90.00000000
_cell_angle_beta   96.26424100
_cell_angle_gamma   90.00000000
_symmetry_Int_Tables_number   1
_chemical_formula_structural   P28Pb5I2
_chemical_formula_sum   'P112 Pb20 I8'
_cell_volume   3529.62759941
_cell_formula_units_Z   4
loop_
 _symmetry_equiv_pos_site_id
 _symmetry_equiv_pos_as_xyz
  1  'x, y, z'
loop_
 _atom_site_type_symbol
 _atom_site_label
 _atom_site_symmetry_multiplicity
 _atom_site_fract_x
 _atom_site_fract_y
 _atom_site_fract_z
 _atom_site_occupancy
  P  P0  1  0.16915375  0.89989649  0.78281581  1
  P  P1  1  0.83125170  0.90560065  0.76523609  1
  P  P2  1  0.49027321  0.90097585  0.77155629  1
  P  P3  1  0.67842206  0.48661651  0.32876163  1
  P  P4  1  0.23575337  0.86730427  0.47281021  1
  P  P5  1  0.13603183  0.50658766  0.59641933  1
  P  P6  1  0.39668409  0.89144697  0.93356301  1
  P  P7  1  0.38770732  0.96825519  0.35139780  1
  P  P8  1  0.99389605  0.15055429  0.67605783  1
  P  P9  1  0.49389605  0.34944571  0.17605783  1
  P  P10  1  0.48292774  0.50874176  0.60087882  1
  P  P11  1  0.61229268  0.03174481  0.64860220  1
  P  P12  1  0.60060842  0.47579822  0.07058324  1
  P  P13  1  0.21259714  0.52400886  0.85704744  1
  P  P14  1  0.77477674  0.02304144  0.57950913  1
  P  P15  1  0.92394614  0.37038254  0.01095004  1
  P  P16  1  0.09156657  0.35118323  0.16979683  1
  P  P17  1  0.33084625  0.39989649  0.71718419  1
  P  P18  1  0.11229268  0.46825519  0.14860220  1
  P  P19  1  0.83084625  0.10010351  0.21718419  1
  P  P20  1  0.06341855  0.51925226  0.93252737  1
  P  P21  1  0.76424663  0.13269573  0.52718979  1
  P  P22  1  0.99478753  0.51572246  0.67631841  1
  P  P23  1  0.93658145  0.48074774  0.06747263  1
  P  P24  1  0.98292774  0.99125824  0.10087882  1
  P  P25  1  0.59428221  0.19281989  0.56706571  1
  P  P26  1  0.60331591  0.10855303  0.06643699  1
  P  P27  1  0.46326128  0.46583781  0.15202501  1
  P  P28  1  0.07605386  0.62961746  0.98904996  1
  P  P29  1  0.50972679  0.09902415  0.22844371  1
  P  P30  1  0.09428221  0.30718011  0.06706571  1
  P  P31  1  0.10060842  0.02420178  0.57058324  1
  P  P32  1  0.59156657  0.14881677  0.66979683  1
  P  P33  1  0.36396817  0.00658766  0.90358067  1
  P  P34  1  0.63603183  0.99341234  0.09641933  1
  P  P35  1  0.39939158  0.52420178  0.92941676  1
  P  P36  1  0.00972679  0.40097585  0.72844371  1
  P  P37  1  0.89939158  0.97579822  0.42941676  1
  P  P38  1  0.67739047  0.84203211  0.81467018  1
  P  P39  1  0.66874830  0.40560065  0.73476391  1
  P  P40  1  0.99851892  0.84457717  0.82628785  1
  P  P41  1  0.17842206  0.01338349  0.82876163  1
  P  P42  1  0.27477674  0.47695856  0.07950913  1
  P  P43  1  0.32157794  0.51338349  0.67123837  1
  P  P44  1  0.16096877  0.98165390  0.18018175  1
  P  P45  1  0.50521247  0.01572246  0.82368159  1
  P  P46  1  0.08830108  0.13538249  0.51495675  1
  P  P47  1  0.32260953  0.15796789  0.18532982  1
  P  P48  1  0.71259714  0.97599114  0.35704744  1
  P  P49  1  0.19242080  0.48757379  0.39613345  1
  P  P50  1  0.00204315  0.10664620  0.07281015  1
  P  P51  1  0.53673872  0.53416219  0.84797499  1
  P  P52  1  0.41169892  0.63538249  0.98504325  1
  P  P53  1  0.91169892  0.86461751  0.48504325  1
  P  P54  1  0.17739047  0.65796789  0.31467018  1
  P  P55  1  0.43658145  0.01925226  0.56747263  1
  P  P56  1  0.66915375  0.60010351  0.28281581  1
  P  P57  1  0.58830108  0.36461751  0.01495675  1
  P  P58  1  0.72522326  0.52304144  0.92049087  1
  P  P59  1  0.42394614  0.12961746  0.51095004  1
  P  P60  1  0.55591454  0.69532119  0.92634462  1
  P  P61  1  0.22522326  0.97695856  0.42049087  1
  P  P62  1  0.83903123  0.01834610  0.81981825  1
  P  P63  1  0.90571779  0.69281989  0.93293429  1
  P  P64  1  0.10331591  0.39144697  0.56643699  1
  P  P65  1  0.05591454  0.80467881  0.42634462  1
  P  P66  1  0.03673872  0.96583781  0.34797499  1
  P  P67  1  0.14977223  0.34137048  0.66686999  1
  P  P68  1  0.77226841  0.30523720  0.06051725  1
  P  P69  1  0.90843343  0.64881677  0.83020317  1
  P  P70  1  0.40571779  0.80718011  0.43293429  1
  P  P71  1  0.33903123  0.48165390  0.31981825  1
  P  P72  1  0.50148108  0.34457717  0.67371215  1
  P  P73  1  0.50204315  0.39335380  0.57281015  1
  P  P74  1  0.49851892  0.65542283  0.32628785  1
  P  P75  1  0.30757920  0.98757379  0.10386655  1
  P  P76  1  0.50610395  0.65055429  0.82394217  1
  P  P77  1  0.40843343  0.85118323  0.33020317  1
  P  P78  1  0.82260953  0.34203211  0.68532982  1
  P  P79  1  0.22773159  0.69476280  0.93948275  1
  P  P80  1  0.33125170  0.59439935  0.26523609  1
  P  P81  1  0.49478753  0.98427754  0.17631841  1
  P  P82  1  0.00521247  0.48427754  0.32368159  1
  P  P83  1  0.44408546  0.30467881  0.07365538  1
  P  P84  1  0.64977223  0.15862952  0.16686999  1
  P  P85  1  0.01707226  0.00874176  0.89912118  1
  P  P86  1  0.94408546  0.19532119  0.57365538  1
  P  P87  1  0.69242080  0.01242621  0.89613345  1
  P  P88  1  0.35022777  0.84137048  0.83313001  1
  P  P89  1  0.88770732  0.53174481  0.85139780  1
  P  P90  1  0.86396817  0.49341234  0.40358067  1
  P  P91  1  0.99027321  0.59902415  0.27155629  1
  P  P92  1  0.82157794  0.98661651  0.17123837  1
  P  P93  1  0.00610395  0.84944571  0.32394217  1
  P  P94  1  0.78740286  0.47599114  0.14295256  1
  P  P95  1  0.26424663  0.36730427  0.02718979  1
  P  P96  1  0.99795685  0.89335380  0.92718985  1
  P  P97  1  0.96326128  0.03416219  0.65202501  1
  P  P98  1  0.49795685  0.60664620  0.42718985  1
  P  P99  1  0.51707226  0.49125824  0.39912118  1
  P  P100  1  0.89668409  0.60855303  0.43356301  1
  P  P101  1  0.28740286  0.02400886  0.64295256  1
  P  P102  1  0.56341855  0.98074774  0.43252737  1
  P  P103  1  0.57605386  0.87038254  0.48904996  1
  P  P104  1  0.00148108  0.15542283  0.17371215  1
  P  P105  1  0.16874830  0.09439935  0.23476391  1
  P  P106  1  0.80757920  0.51242621  0.60386655  1
  P  P107  1  0.66096877  0.51834610  0.68018175  1
  P  P108  1  0.85022777  0.65862952  0.33313001  1
  P  P109  1  0.27226841  0.19476280  0.56051725  1
  P  P110  1  0.73575337  0.63269573  0.97281021  1
  P  P111  1  0.72773159  0.80523720  0.43948275  1
  Pb  Pb112  1  0.19014360  0.79607221  0.23538874  1
  Pb  Pb113  1  0.69014360  0.70392779  0.73538874  1
  Pb  Pb114  1  0.70804347  0.87163267  0.95711883  1
  Pb  Pb115  1  0.19552241  0.66509654  0.79628700  1
  Pb  Pb116  1  0.69522700  0.63970614  0.12739549  1
  Pb  Pb117  1  0.28086926  0.33446512  0.47626491  1
  Pb  Pb118  1  0.30477300  0.36029386  0.87260451  1
  Pb  Pb119  1  0.20804347  0.62836733  0.45711883  1
  Pb  Pb120  1  0.78086926  0.16553488  0.97626491  1
  Pb  Pb121  1  0.30985640  0.29607221  0.26461126  1
  Pb  Pb122  1  0.80477300  0.13970614  0.37260451  1
  Pb  Pb123  1  0.21913074  0.83446512  0.02373509  1
  Pb  Pb124  1  0.30447759  0.16509654  0.70371300  1
  Pb  Pb125  1  0.79195653  0.37163267  0.54288117  1
  Pb  Pb126  1  0.29195653  0.12836733  0.04288117  1
  Pb  Pb127  1  0.80447759  0.33490346  0.20371300  1
  Pb  Pb128  1  0.19522700  0.86029386  0.62739549  1
  Pb  Pb129  1  0.69552241  0.83490346  0.29628700  1
  Pb  Pb130  1  0.80985640  0.20392779  0.76461126  1
  Pb  Pb131  1  0.71913074  0.66553488  0.52373509  1
  I  I132  1  0.59486992  0.26668826  0.37636901  1
  I  I133  1  0.09486992  0.23331174  0.87636901  1
  I  I134  1  0.40513008  0.73331174  0.62363099  1
  I  I135  1  0.47903533  0.77258161  0.13383885  1
  I  I136  1  0.02096467  0.27258161  0.36616115  1
  I  I137  1  0.97903533  0.72741839  0.63383885  1
  I  I138  1  0.90513008  0.76668826  0.12363099  1
  I  I139  1  0.52096467  0.22741839  0.86616115  1
