# generated using pymatgen
data_EuIn2Au
_symmetry_space_group_name_H-M   'P 1'
_cell_length_a   4.70800639
_cell_length_b   6.04342508
_cell_length_c   7.68697693
_cell_angle_alpha   89.93897262
_cell_angle_beta   89.93129406
_cell_angle_gamma   112.52151076
_symmetry_Int_Tables_number   1
_chemical_formula_structural   EuIn2Au
_chemical_formula_sum   'Eu2 In4 Au2'
_cell_volume   202.03314917
_cell_formula_units_Z   2
loop_
 _symmetry_equiv_pos_site_id
 _symmetry_equiv_pos_as_xyz
  1  'x, y, z'
loop_
 _atom_site_type_symbol
 _atom_site_label
 _atom_site_symmetry_multiplicity
 _atom_site_fract_x
 _atom_site_fract_y
 _atom_site_fract_z
 _atom_site_occupancy
  Eu  Eu0  1  0.92219871  0.84610432  0.25006803  1
  Eu  Eu1  1  0.07781496  0.15396651  0.74993471  1
  In  In2  1  0.36543194  0.73094446  0.55094089  1
  In  In3  1  0.63447426  0.26894856  0.44920069  1
  In  In4  1  0.36531954  0.73082694  0.94852003  1
  In  In5  1  0.63470799  0.26911386  0.05131849  1
  Au  Au6  1  0.21004464  0.42117539  0.25042207  1
  Au  Au7  1  0.79000796  0.57891996  0.74959507  1
