# generated using pymatgen
data_Hf3(MnGa3)2
_symmetry_space_group_name_H-M   'P 1'
_cell_length_a   5.41719867
_cell_length_b   7.74600316
_cell_length_c   8.77839705
_cell_angle_alpha   90.00428116
_cell_angle_beta   89.97803533
_cell_angle_gamma   89.99908764
_symmetry_Int_Tables_number   1
_chemical_formula_structural   Hf3(MnGa3)2
_chemical_formula_sum   'Hf6 Mn4 Ga12'
_cell_volume   368.35589089
_cell_formula_units_Z   2
loop_
 _symmetry_equiv_pos_site_id
 _symmetry_equiv_pos_as_xyz
  1  'x, y, z'
loop_
 _atom_site_type_symbol
 _atom_site_label
 _atom_site_symmetry_multiplicity
 _atom_site_fract_x
 _atom_site_fract_y
 _atom_site_fract_z
 _atom_site_occupancy
  Hf  Hf0  1  0.25011828  0.15459658  0.96821503  1
  Hf  Hf1  1  0.75032809  0.84517837  0.46822178  1
  Hf  Hf2  1  0.24980612  0.71793430  0.25002406  1
  Hf  Hf3  1  0.24962923  0.15489654  0.53188252  1
  Hf  Hf4  1  0.74982983  0.84529146  0.03172010  1
  Hf  Hf5  1  0.75019362  0.28213316  0.74995550  1
  Mn  Mn6  1  -0.00006689  0.49991692  0.50010577  1
  Mn  Mn7  1  0.00012233  0.49991899  0.00007680  1
  Mn  Mn8  1  0.50012645  0.49996302  0.99987420  1
  Mn  Mn9  1  0.49999626  0.49991046  0.49996425  1
  Ga  Ga10  1  0.24977915  0.43793452  0.75006539  1
  Ga  Ga11  1  0.24935273  0.36623026  0.24999303  1
  Ga  Ga12  1  0.01107462  0.04182611  0.24964716  1
  Ga  Ga13  1  0.24988312  0.76418953  0.56355687  1
  Ga  Ga14  1  0.75020201  0.56219115  0.24995360  1
  Ga  Ga15  1  0.75015472  0.23577954  0.43643327  1
  Ga  Ga16  1  0.51116173  0.95807898  0.74978164  1
  Ga  Ga17  1  0.75071828  0.63380660  0.74998875  1
  Ga  Ga18  1  0.25007791  0.76408372  0.93661791  1
  Ga  Ga19  1  0.74987895  0.23578068  0.06335423  1
  Ga  Ga20  1  0.98886618  0.95827963  0.75032693  1
  Ga  Ga21  1  0.48876728  0.04207947  0.25024122  1
