# generated using pymatgen
data_Cs3Nb2S11
_symmetry_space_group_name_H-M   'P 1'
_cell_length_a   8.36765952
_cell_length_b   12.35045277
_cell_length_c   20.12138106
_cell_angle_alpha   102.47907920
_cell_angle_beta   90.00000000
_cell_angle_gamma   90.00000000
_symmetry_Int_Tables_number   1
_chemical_formula_structural   Cs3Nb2S11
_chemical_formula_sum   'Cs12 Nb8 S44'
_cell_volume   2030.30509261
_cell_formula_units_Z   4
loop_
 _symmetry_equiv_pos_site_id
 _symmetry_equiv_pos_as_xyz
  1  'x, y, z'
loop_
 _atom_site_type_symbol
 _atom_site_label
 _atom_site_symmetry_multiplicity
 _atom_site_fract_x
 _atom_site_fract_y
 _atom_site_fract_z
 _atom_site_occupancy
  Cs  Cs0  1  0.31865762  0.00578468  0.83837689  1
  Cs  Cs1  1  0.68134238  0.99421532  0.16162311  1
  Cs  Cs2  1  0.65924863  0.53672963  0.14223406  1
  Cs  Cs3  1  0.18147255  0.22647425  0.11864575  1
  Cs  Cs4  1  0.15924863  0.46327037  0.35776594  1
  Cs  Cs5  1  0.81865762  0.99421532  0.66162311  1
  Cs  Cs6  1  0.81852745  0.77352575  0.88135425  1
  Cs  Cs7  1  0.68147255  0.77352575  0.38135425  1
  Cs  Cs8  1  0.34075137  0.46327037  0.85776594  1
  Cs  Cs9  1  0.18134238  0.00578468  0.33837689  1
  Cs  Cs10  1  0.31852745  0.22647425  0.61864575  1
  Cs  Cs11  1  0.84075137  0.53672963  0.64223406  1
  Nb  Nb12  1  0.85533524  0.29185625  0.84120181  1
  Nb  Nb13  1  0.35533524  0.70814375  0.65879819  1
  Nb  Nb14  1  0.72231152  0.19523458  0.99403544  1
  Nb  Nb15  1  0.27768848  0.80476542  0.00596456  1
  Nb  Nb16  1  0.64466476  0.29185625  0.34120181  1
  Nb  Nb17  1  0.14466476  0.70814375  0.15879819  1
  Nb  Nb18  1  0.22231152  0.80476542  0.50596456  1
  Nb  Nb19  1  0.77768848  0.19523458  0.49403544  1
  S  S20  1  0.52878760  0.08675269  0.45497196  1
  S  S21  1  0.37184729  0.63587089  0.03977695  1
  S  S22  1  0.12815271  0.63587089  0.53977695  1
  S  S23  1  0.62048286  0.00103376  0.98580472  1
  S  S24  1  0.98472073  0.25317091  0.95056381  1
  S  S25  1  0.88936290  0.21044105  0.28323714  1
  S  S26  1  0.27854216  0.52443131  0.67991293  1
  S  S27  1  0.77679006  0.11432809  0.34274578  1
  S  S28  1  0.44980489  0.25027723  0.96992201  1
  S  S29  1  0.43973040  0.23803055  0.27028198  1
  S  S30  1  0.57946646  0.48063185  0.40541775  1
  S  S31  1  0.56026960  0.76196945  0.72971802  1
  S  S32  1  0.37951714  0.99896624  0.01419528  1
  S  S33  1  0.55019511  0.74972277  0.03007799  1
  S  S34  1  0.92053354  0.48063185  0.90541775  1
  S  S35  1  0.51527927  0.25317091  0.45056381  1
  S  S36  1  0.42053354  0.51936815  0.59458225  1
  S  S37  1  0.24682084  0.74983169  0.89330977  1
  S  S38  1  0.02878760  0.91324731  0.04502804  1
  S  S39  1  0.07946646  0.51936815  0.09458225  1
  S  S40  1  0.01527927  0.74682909  0.04943619  1
  S  S41  1  0.77854216  0.47556869  0.82008707  1
  S  S42  1  0.47121240  0.91324731  0.54502804  1
  S  S43  1  0.72145784  0.47556869  0.32008707  1
  S  S44  1  0.87951714  0.00103376  0.48580472  1
  S  S45  1  0.11063710  0.78955895  0.71676286  1
  S  S46  1  0.72320994  0.11432809  0.84274578  1
  S  S47  1  0.62815271  0.36412911  0.96022305  1
  S  S48  1  0.61063710  0.21044105  0.78323714  1
  S  S49  1  0.38936290  0.78955895  0.21676286  1
  S  S50  1  0.27679006  0.88567191  0.15725422  1
  S  S51  1  0.87184729  0.36412911  0.46022305  1
  S  S52  1  0.06026960  0.23803055  0.77028198  1
  S  S53  1  0.74682084  0.25016831  0.60669023  1
  S  S54  1  0.05019511  0.25027723  0.46992201  1
  S  S55  1  0.48472073  0.74682909  0.54943619  1
  S  S56  1  0.12048286  0.99896624  0.51419528  1
  S  S57  1  0.22320994  0.88567191  0.65725422  1
  S  S58  1  0.97121240  0.08675269  0.95497196  1
  S  S59  1  0.94980489  0.74972277  0.53007799  1
  S  S60  1  0.75317916  0.25016831  0.10669023  1
  S  S61  1  0.93973040  0.76196945  0.22971802  1
  S  S62  1  0.25317916  0.74983169  0.39330977  1
  S  S63  1  0.22145784  0.52443131  0.17991293  1
