# generated using pymatgen
data_AlBiSeCl4
_symmetry_space_group_name_H-M   'P 1'
_cell_length_a   10.37758283
_cell_length_b   10.37758304
_cell_length_c   10.37758349
_cell_angle_alpha   107.62477995
_cell_angle_beta   107.62478031
_cell_angle_gamma   113.23078859
_symmetry_Int_Tables_number   1
_chemical_formula_structural   AlBiSeCl4
_chemical_formula_sum   'Al4 Bi4 Se4 Cl16'
_cell_volume   857.53586072
_cell_formula_units_Z   4
loop_
 _symmetry_equiv_pos_site_id
 _symmetry_equiv_pos_as_xyz
  1  'x, y, z'
loop_
 _atom_site_type_symbol
 _atom_site_label
 _atom_site_symmetry_multiplicity
 _atom_site_fract_x
 _atom_site_fract_y
 _atom_site_fract_z
 _atom_site_occupancy
  Al  Al0  1  0.14208952  0.01679693  0.73012668  1
  Al  Al1  1  0.98320307  0.71332975  0.12529259  1
  Al  Al2  1  0.28667025  0.41196285  0.26987332  1
  Al  Al3  1  0.58803715  0.85791048  0.87470741  1
  Bi  Bi4  1  0.78551754  0.18862846  0.71553719  1
  Bi  Bi5  1  0.47309127  0.06998035  0.28446281  1
  Bi  Bi6  1  0.81137154  0.52690873  0.59688908  1
  Bi  Bi7  1  0.93001965  0.21448246  0.40311092  1
  Se  Se8  1  0.56518628  0.26681371  0.59105635  1
  Se  Se9  1  0.02587008  0.43481372  0.70162744  1
  Se  Se10  1  0.67575736  0.97412992  0.40894365  1
  Se  Se11  1  0.73318629  0.32424264  0.29837256  1
  Cl  Cl12  1  0.50380246  0.91417613  0.69152038  1
  Cl  Cl13  1  0.22265575  0.81228207  0.30847962  1
  Cl  Cl14  1  0.22560016  0.18178262  0.25854667  1
  Cl  Cl15  1  0.18281989  0.16348239  0.61809891  1
  Cl  Cl16  1  0.18897917  0.40532389  0.05345226  1
  Cl  Cl17  1  0.92323595  0.96705348  0.74145333  1
  Cl  Cl18  1  0.81821738  0.07676405  0.04381754  1
  Cl  Cl19  1  0.08582387  0.77734425  0.58962632  1
  Cl  Cl20  1  0.86447309  0.81102083  0.21634472  1
  Cl  Cl21  1  0.83651761  0.45461652  0.01933750  1
  Cl  Cl22  1  0.35187163  0.13552691  0.94654774  1
  Cl  Cl23  1  0.03294652  0.77439984  0.95618246  1
  Cl  Cl24  1  0.54538348  0.56472098  0.38190109  1
  Cl  Cl25  1  0.18771793  0.49619754  0.41037368  1
  Cl  Cl26  1  0.59467611  0.64812837  0.78365528  1
  Cl  Cl27  1  0.43527902  0.81718011  0.98066250  1
