# generated using pymatgen
data_TmCuPbSe3
_symmetry_space_group_name_H-M   'P 1'
_cell_length_a   4.04807275
_cell_length_b   10.53932265
_cell_length_c   13.65540693
_cell_angle_alpha   90.00000000
_cell_angle_beta   90.00000000
_cell_angle_gamma   90.00000000
_symmetry_Int_Tables_number   1
_chemical_formula_structural   TmCuPbSe3
_chemical_formula_sum   'Tm4 Cu4 Pb4 Se12'
_cell_volume   582.59352780
_cell_formula_units_Z   4
loop_
 _symmetry_equiv_pos_site_id
 _symmetry_equiv_pos_as_xyz
  1  'x, y, z'
loop_
 _atom_site_type_symbol
 _atom_site_label
 _atom_site_symmetry_multiplicity
 _atom_site_fract_x
 _atom_site_fract_y
 _atom_site_fract_z
 _atom_site_occupancy
  Tm  Tm0  1  0.25000000  0.50686748  0.25566396  1
  Tm  Tm1  1  0.75000000  0.99313252  0.75566396  1
  Tm  Tm2  1  0.75000000  0.49313252  0.74433604  1
  Tm  Tm3  1  0.25000000  0.00686748  0.24433604  1
  Cu  Cu4  1  0.75000000  0.25198285  0.21971213  1
  Cu  Cu5  1  0.25000000  0.24801715  0.71971213  1
  Cu  Cu6  1  0.25000000  0.74801715  0.78028787  1
  Cu  Cu7  1  0.75000000  0.75198285  0.28028787  1
  Pb  Pb8  1  0.25000000  0.76853578  0.49534668  1
  Pb  Pb9  1  0.25000000  0.26853578  0.00465332  1
  Pb  Pb10  1  0.75000000  0.73146422  0.99534668  1
  Pb  Pb11  1  0.75000000  0.23146422  0.50465332  1
  Se  Se12  1  0.25000000  0.55529731  0.88590107  1
  Se  Se13  1  0.25000000  0.92987130  0.89146872  1
  Se  Se14  1  0.75000000  0.24535287  0.82831007  1
  Se  Se15  1  0.25000000  0.42987130  0.60853128  1
  Se  Se16  1  0.25000000  0.25464713  0.32831007  1
  Se  Se17  1  0.75000000  0.44470269  0.11409893  1
  Se  Se18  1  0.75000000  0.94470269  0.38590107  1
  Se  Se19  1  0.75000000  0.07012870  0.10853128  1
  Se  Se20  1  0.75000000  0.57012870  0.39146872  1
  Se  Se21  1  0.75000000  0.74535287  0.67168993  1
  Se  Se22  1  0.25000000  0.05529731  0.61409893  1
  Se  Se23  1  0.25000000  0.75464713  0.17168993  1
