# generated using pymatgen
data_Pr3Ga10Ni
_symmetry_space_group_name_H-M   'P 1'
_cell_length_a   4.31959588
_cell_length_b   4.26801583
_cell_length_c   15.39924057
_cell_angle_alpha   90.00000000
_cell_angle_beta   90.00000000
_cell_angle_gamma   90.00000000
_symmetry_Int_Tables_number   1
_chemical_formula_structural   Pr3Ga10Ni
_chemical_formula_sum   'Pr3 Ga10 Ni1'
_cell_volume   283.90199443
_cell_formula_units_Z   1
loop_
 _symmetry_equiv_pos_site_id
 _symmetry_equiv_pos_as_xyz
  1  'x, y, z'
loop_
 _atom_site_type_symbol
 _atom_site_label
 _atom_site_symmetry_multiplicity
 _atom_site_fract_x
 _atom_site_fract_y
 _atom_site_fract_z
 _atom_site_occupancy
  Pr  Pr0  1  0.50000000  0.00000000  0.50000000  1
  Pr  Pr1  1  0.00000000  0.00000000  0.24706958  1
  Pr  Pr2  1  0.00000000  0.00000000  0.75293042  1
  Ga  Ga3  1  0.50000000  0.50000000  0.18291100  1
  Ga  Ga4  1  0.50000000  0.50000000  0.81708900  1
  Ga  Ga5  1  0.50000000  0.50000000  0.34202220  1
  Ga  Ga6  1  0.50000000  0.50000000  0.65797780  1
  Ga  Ga7  1  0.00000000  0.50000000  0.41913230  1
  Ga  Ga8  1  0.00000000  0.50000000  0.58086770  1
  Ga  Ga9  1  0.00000000  0.50000000  0.08482938  1
  Ga  Ga10  1  0.00000000  0.50000000  0.91517062  1
  Ga  Ga11  1  0.50000000  0.00000000  0.08369606  1
  Ga  Ga12  1  0.50000000  0.00000000  0.91630394  1
  Ni  Ni13  1  0.00000000  0.00000000  0.00000000  1
