# generated using pymatgen
data_BaH5BrO3
_symmetry_space_group_name_H-M   'P 1'
_cell_length_a   4.64538215
_cell_length_b   4.64538215
_cell_length_c   11.87757287
_cell_angle_alpha   90.00000000
_cell_angle_beta   90.00000000
_cell_angle_gamma   90.00000000
_symmetry_Int_Tables_number   1
_chemical_formula_structural   BaH5BrO3
_chemical_formula_sum   'Ba2 H10 Br2 O6'
_cell_volume   256.31297836
_cell_formula_units_Z   2
loop_
 _symmetry_equiv_pos_site_id
 _symmetry_equiv_pos_as_xyz
  1  'x, y, z'
loop_
 _atom_site_type_symbol
 _atom_site_label
 _atom_site_symmetry_multiplicity
 _atom_site_fract_x
 _atom_site_fract_y
 _atom_site_fract_z
 _atom_site_occupancy
  Ba  Ba0  1  0.75000000  0.75000000  0.81196334  1
  Ba  Ba1  1  0.25000000  0.25000000  0.18803666  1
  H  H2  1  0.92934677  0.25000000  0.62718674  1
  H  H3  1  0.57065323  0.25000000  0.62718674  1
  H  H4  1  0.25000000  0.92934677  0.62718674  1
  H  H5  1  0.25000000  0.57065323  0.62718674  1
  H  H6  1  0.07065323  0.75000000  0.37281326  1
  H  H7  1  0.42934677  0.75000000  0.37281326  1
  H  H8  1  0.75000000  0.07065323  0.37281326  1
  H  H9  1  0.75000000  0.42934677  0.37281326  1
  H  H10  1  0.25000000  0.25000000  0.48989715  1
  H  H11  1  0.75000000  0.75000000  0.51010285  1
  Br  Br12  1  0.25000000  0.25000000  0.90529889  1
  Br  Br13  1  0.75000000  0.75000000  0.09470111  1
  O  O14  1  0.75000000  0.25000000  0.67673864  1
  O  O15  1  0.25000000  0.75000000  0.67673864  1
  O  O16  1  0.25000000  0.75000000  0.32326136  1
  O  O17  1  0.75000000  0.25000000  0.32326136  1
  O  O18  1  0.25000000  0.25000000  0.57174013  1
  O  O19  1  0.75000000  0.75000000  0.42825987  1
