# generated using pymatgen
data_KP(HO)2
_symmetry_space_group_name_H-M   'P 1'
_cell_length_a   5.25589012
_cell_length_b   5.25589012
_cell_length_c   7.28888929
_cell_angle_alpha   72.49110972
_cell_angle_beta   107.50889028
_cell_angle_gamma   89.70130646
_symmetry_Int_Tables_number   1
_chemical_formula_structural   KP(HO)2
_chemical_formula_sum   'K2 P2 H4 O4'
_cell_volume   182.10899065
_cell_formula_units_Z   2
loop_
 _symmetry_equiv_pos_site_id
 _symmetry_equiv_pos_as_xyz
  1  'x, y, z'
loop_
 _atom_site_type_symbol
 _atom_site_label
 _atom_site_symmetry_multiplicity
 _atom_site_fract_x
 _atom_site_fract_y
 _atom_site_fract_z
 _atom_site_occupancy
  K  K0  1  0.35697795  0.35697795  0.75000000  1
  K  K1  1  0.64302205  0.64302205  0.25000000  1
  P  P2  1  0.81780452  0.81780452  0.75000000  1
  P  P3  1  0.18219548  0.18219548  0.25000000  1
  H  H4  1  0.81092248  0.06947042  0.60084208  1
  H  H5  1  0.06947042  0.81092248  0.89915792  1
  H  H6  1  0.18907752  0.93052958  0.39915792  1
  H  H7  1  0.93052958  0.18907752  0.10084208  1
  O  O8  1  0.83271820  0.59426311  0.66002117  1
  O  O9  1  0.59426311  0.83271820  0.83997883  1
  O  O10  1  0.16728180  0.40573689  0.33997883  1
  O  O11  1  0.40573689  0.16728180  0.16002117  1
