# generated using pymatgen
data_KHCO3
_symmetry_space_group_name_H-M   'P 1'
_cell_length_a   15.31005969
_cell_length_b   5.71983206
_cell_length_c   3.77137164
_cell_angle_alpha   90.00000000
_cell_angle_beta   105.28095219
_cell_angle_gamma   90.00000000
_symmetry_Int_Tables_number   1
_chemical_formula_structural   KHCO3
_chemical_formula_sum   'K4 H4 C4 O12'
_cell_volume   318.58626662
_cell_formula_units_Z   4
loop_
 _symmetry_equiv_pos_site_id
 _symmetry_equiv_pos_as_xyz
  1  'x, y, z'
loop_
 _atom_site_type_symbol
 _atom_site_label
 _atom_site_symmetry_multiplicity
 _atom_site_fract_x
 _atom_site_fract_y
 _atom_site_fract_z
 _atom_site_occupancy
  K  K0  1  0.66484507  0.47709055  0.29371144  1
  K  K1  1  0.83515493  0.97709055  0.70628856  1
  K  K2  1  0.33515493  0.52290945  0.70628856  1
  K  K3  1  0.16484507  0.02290945  0.29371144  1
  H  H4  1  0.51322036  0.81066002  0.54138338  1
  H  H5  1  0.98677964  0.31066002  0.45861662  1
  H  H6  1  0.48677964  0.18933998  0.45861662  1
  H  H7  1  0.01322036  0.68933998  0.54138338  1
  C  C8  1  0.61863842  0.98546159  0.85233414  1
  C  C9  1  0.88136158  0.48546159  0.14766586  1
  C  C10  1  0.38136158  0.01453841  0.14766586  1
  C  C11  1  0.11863842  0.51453841  0.85233414  1
  O  O12  1  0.69309071  0.96688207  0.09396458  1
  O  O13  1  0.80690929  0.46688207  0.90603542  1
  O  O14  1  0.30690929  0.03311793  0.90603542  1
  O  O15  1  0.19309071  0.53311793  0.09396458  1
  O  O16  1  0.58106441  0.17936659  0.72302295  1
  O  O17  1  0.91893559  0.67936659  0.27697705  1
  O  O18  1  0.41893559  0.82063341  0.27697705  1
  O  O19  1  0.08106441  0.32063341  0.72302295  1
  O  O20  1  0.57614546  0.78127125  0.72214259  1
  O  O21  1  0.92385454  0.28127125  0.27785741  1
  O  O22  1  0.42385454  0.21872875  0.27785741  1
  O  O23  1  0.07614546  0.71872875  0.72214259  1
