# generated using pymatgen
data_ScCuSe2
_symmetry_space_group_name_H-M   'P 1'
_cell_length_a   14.93572788
_cell_length_b   7.78126254
_cell_length_c   9.29908264
_cell_angle_alpha   89.96041375
_cell_angle_beta   54.05091450
_cell_angle_gamma   58.57536817
_symmetry_Int_Tables_number   1
_chemical_formula_structural   ScCuSe2
_chemical_formula_sum   'Sc8 Cu8 Se16'
_cell_volume   669.65264873
_cell_formula_units_Z   8
loop_
 _symmetry_equiv_pos_site_id
 _symmetry_equiv_pos_as_xyz
  1  'x, y, z'
loop_
 _atom_site_type_symbol
 _atom_site_label
 _atom_site_symmetry_multiplicity
 _atom_site_fract_x
 _atom_site_fract_y
 _atom_site_fract_z
 _atom_site_occupancy
  Sc  Sc0  1  0.25585401  0.24453116  0.00524307  1
  Sc  Sc1  1  0.00222696  0.73983310  0.50113634  1
  Sc  Sc2  1  0.50209040  0.25584972  0.50131987  1
  Sc  Sc3  1  0.24400967  0.75621970  0.99484368  1
  Sc  Sc4  1  0.75599033  0.24378030  0.00515632  1
  Sc  Sc5  1  0.49790960  0.74415028  0.49868013  1
  Sc  Sc6  1  0.99777304  0.26016690  0.49886366  1
  Sc  Sc7  1  0.74414599  0.75546884  0.99475693  1
  Cu  Cu8  1  0.27319317  0.22603315  0.33383847  1
  Cu  Cu9  1  0.02385311  0.72531432  0.83469737  1
  Cu  Cu10  1  0.22673611  0.77305271  0.66613939  1
  Cu  Cu11  1  0.47626245  0.77353180  0.16496466  1
  Cu  Cu12  1  0.52373755  0.22646820  0.83503534  1
  Cu  Cu13  1  0.77326389  0.22694729  0.33386061  1
  Cu  Cu14  1  0.97614689  0.27468568  0.16530263  1
  Cu  Cu15  1  0.72680683  0.77396685  0.66616153  1
  Se  Se16  1  0.03704387  0.45789113  0.67133176  1
  Se  Se17  1  0.28848389  0.46679567  0.16971384  1
  Se  Se18  1  0.21156201  0.04384379  0.83037747  1
  Se  Se19  1  0.03805904  0.96380192  0.66208041  1
  Se  Se20  1  0.46199610  0.03998897  0.33797343  1
  Se  Se21  1  0.28480312  0.95725905  0.16652425  1
  Se  Se22  1  0.21494738  0.52724986  0.83356222  1
  Se  Se23  1  0.46309118  0.53200157  0.32844693  1
  Se  Se24  1  0.53690882  0.46799843  0.67155307  1
  Se  Se25  1  0.78505262  0.47275014  0.16643778  1
  Se  Se26  1  0.71519688  0.04274095  0.83347575  1
  Se  Se27  1  0.53800390  0.96001103  0.66202657  1
  Se  Se28  1  0.96194096  0.03619808  0.33791959  1
  Se  Se29  1  0.78843799  0.95615621  0.16962253  1
  Se  Se30  1  0.71151611  0.53320433  0.83028616  1
  Se  Se31  1  0.96295613  0.54210887  0.32866824  1
