# generated using pymatgen
data_Sr6La2Ta3Al5O24
_symmetry_space_group_name_H-M   'P 1'
_cell_length_a   5.51595451
_cell_length_b   5.51593123
_cell_length_c   22.09691696
_cell_angle_alpha   89.99790480
_cell_angle_beta   119.95239746
_cell_angle_gamma   120.00124988
_symmetry_Int_Tables_number   1
_chemical_formula_structural   Sr6La2Ta3Al5O24
_chemical_formula_sum   'Sr6 La2 Ta3 Al5 O24'
_cell_volume   475.73821102
_cell_formula_units_Z   1
loop_
 _symmetry_equiv_pos_site_id
 _symmetry_equiv_pos_as_xyz
  1  'x, y, z'
loop_
 _atom_site_type_symbol
 _atom_site_label
 _atom_site_symmetry_multiplicity
 _atom_site_fract_x
 _atom_site_fract_y
 _atom_site_fract_z
 _atom_site_occupancy
  Sr  Sr0  1  0.50165632  0.75082219  0.56312541  1
  Sr  Sr1  1  0.51838714  0.25916716  0.69441380  1
  Sr  Sr2  1  0.49995065  0.74997478  0.31248983  1
  Sr  Sr3  1  0.50001135  0.25001263  0.43750628  1
  Sr  Sr4  1  0.48153599  0.74075104  0.05558344  1
  Sr  Sr5  1  0.49831091  0.24914636  0.18687089  1
  La  La6  1  0.51804961  0.75917454  0.81914790  1
  La  La7  1  0.48263750  0.24150028  0.93085585  1
  Ta  Ta8  1  0.00206575  0.50104547  0.62576332  1
  Ta  Ta9  1  0.00000486  0.50000562  0.37500054  1
  Ta  Ta10  1  0.99799518  0.49902032  0.12423134  1
  Al  Al11  1  0.99994740  0.49994800  0.87499957  1
  Al  Al12  1  0.00874239  0.00437423  0.75326810  1
  Al  Al13  1  0.00160684  0.00080664  0.50059964  1
  Al  Al14  1  -0.00158836  -0.00078883  0.24940200  1
  Al  Al15  1  0.99128472  0.99565010  0.99673313  1
  O  O16  1  0.98898076  0.74845334  0.93435220  1
  O  O17  1  0.01073844  0.75976397  0.81575758  1
  O  O18  1  0.00790143  0.75692793  0.69120729  1
  O  O19  1  0.01097263  0.25151309  0.81564289  1
  O  O20  1  0.49671443  0.74725322  0.93432040  1
  O  O21  1  0.00089963  0.75491149  0.56181797  1
  O  O22  1  0.00017361  0.75474032  0.43873223  1
  O  O23  1  0.50305095  0.25088843  0.81554440  1
  O  O24  1  0.00064754  0.24622165  0.56171424  1
  O  O25  1  0.51391291  0.75667241  0.69111715  1
  O  O26  1  0.00014815  0.75502598  0.31137445  1
  O  O27  1  0.98795719  0.24054889  0.93437894  1
  O  O28  1  -0.00063922  0.75379739  0.18828604  1
  O  O29  1  0.49241592  0.24602128  0.56160980  1
  O  O30  1  -0.00019112  0.24524216  0.31126615  1
  O  O31  1  0.50953071  0.75434126  0.43870481  1
  O  O32  1  0.99288575  0.74979936  0.05897619  1
  O  O33  1  0.00801336  0.25140009  0.69130313  1
  O  O34  1  0.49045627  0.24511171  0.31114763  1
  O  O35  1  0.50766014  0.75333420  0.18826620  1
  O  O36  1  0.99989613  0.24555173  0.43877041  1
  O  O37  1  0.48620212  0.24311575  0.05861002  1
  O  O38  1  -0.00103768  0.24567009  0.18831231  1
  O  O39  1  0.99211166  0.24308373  0.05879653  1
