# generated using pymatgen
data_Co3(AsO4)2
_symmetry_space_group_name_H-M   'P 1'
_cell_length_a   5.90870785
_cell_length_b   9.80516588
_cell_length_c   10.45863494
_cell_angle_alpha   90.00000000
_cell_angle_beta   93.25869327
_cell_angle_gamma   90.00000000
_symmetry_Int_Tables_number   1
_chemical_formula_structural   Co3(AsO4)2
_chemical_formula_sum   'Co12 As8 O32'
_cell_volume   604.95026221
_cell_formula_units_Z   4
loop_
 _symmetry_equiv_pos_site_id
 _symmetry_equiv_pos_as_xyz
  1  'x, y, z'
loop_
 _atom_site_type_symbol
 _atom_site_label
 _atom_site_symmetry_multiplicity
 _atom_site_fract_x
 _atom_site_fract_y
 _atom_site_fract_z
 _atom_site_occupancy
  Co  Co0  1  0.11116827  0.86586466  0.46407777  1
  Co  Co1  1  0.35869963  0.12347984  0.05911229  1
  Co  Co2  1  0.35869963  0.37652016  0.55911229  1
  Co  Co3  1  0.64657089  0.36213496  0.28417254  1
  Co  Co4  1  0.88883173  0.36586466  0.03592223  1
  Co  Co5  1  0.11116827  0.63413534  0.96407777  1
  Co  Co6  1  0.64657089  0.13786504  0.78417254  1
  Co  Co7  1  0.88883173  0.13413534  0.53592223  1
  Co  Co8  1  0.64130037  0.62347984  0.44088771  1
  Co  Co9  1  0.35342911  0.63786504  0.71582746  1
  Co  Co10  1  0.35342911  0.86213496  0.21582746  1
  Co  Co11  1  0.64130037  0.87652016  0.94088771  1
  As  As12  1  0.87422694  0.44327552  0.70532013  1
  As  As13  1  0.63153034  0.65542821  0.11788862  1
  As  As14  1  0.87422694  0.05672448  0.20532013  1
  As  As15  1  0.12577306  0.55672448  0.29467987  1
  As  As16  1  0.36846966  0.34457179  0.88211138  1
  As  As17  1  0.36846966  0.15542821  0.38211138  1
  As  As18  1  0.12577306  0.94327552  0.79467987  1
  As  As19  1  0.63153034  0.84457179  0.61788862  1
  O  O20  1  0.86791804  0.23310673  0.19442817  1
  O  O21  1  0.37138911  0.48881794  0.37643921  1
  O  O22  1  0.88783282  0.49538837  0.36623012  1
  O  O23  1  0.11216718  0.99538837  0.13376988  1
  O  O24  1  0.36715816  0.51983072  0.88157016  1
  O  O25  1  0.13208196  0.73310673  0.30557183  1
  O  O26  1  0.63284184  0.01983072  0.61842984  1
  O  O27  1  0.39720083  0.74432280  0.04665641  1
  O  O28  1  0.62861089  0.51118206  0.62356079  1
  O  O29  1  0.60279917  0.24432280  0.45334359  1
  O  O30  1  0.62861089  0.98881794  0.12356079  1
  O  O31  1  0.61339710  0.72336873  0.26968110  1
  O  O32  1  0.37138911  0.01118206  0.87643921  1
  O  O33  1  0.11756027  0.50901066  0.13539851  1
  O  O34  1  0.84081407  0.76984517  0.53205757  1
  O  O35  1  0.15918593  0.23015483  0.46794243  1
  O  O36  1  0.38660290  0.22336873  0.23031890  1
  O  O37  1  0.63284184  0.48016928  0.11842984  1
  O  O38  1  0.84081407  0.73015483  0.03205757  1
  O  O39  1  0.36715816  0.98016928  0.38157016  1
  O  O40  1  0.88243973  0.49098934  0.86460149  1
  O  O41  1  0.13208196  0.76689327  0.80557183  1
  O  O42  1  0.88243973  0.00901066  0.36460149  1
  O  O43  1  0.61339710  0.77663127  0.76968110  1
  O  O44  1  0.11216718  0.50461163  0.63376988  1
  O  O45  1  0.15918593  0.26984517  0.96794243  1
  O  O46  1  0.38660290  0.27663127  0.73031890  1
  O  O47  1  0.86791804  0.26689327  0.69442817  1
  O  O48  1  0.88783282  0.00461163  0.86623012  1
  O  O49  1  0.11756027  0.99098934  0.63539851  1
  O  O50  1  0.39720083  0.75567720  0.54665641  1
  O  O51  1  0.60279917  0.25567720  0.95334359  1
