# generated using pymatgen
data_EuSeClO3
_symmetry_space_group_name_H-M   'P 1'
_cell_length_a   7.21336565
_cell_length_b   7.39811957
_cell_length_c   9.10792881
_cell_angle_alpha   90.00000000
_cell_angle_beta   90.00000000
_cell_angle_gamma   90.00000000
_symmetry_Int_Tables_number   1
_chemical_formula_structural   EuSeClO3
_chemical_formula_sum   'Eu4 Se4 Cl4 O12'
_cell_volume   486.04773204
_cell_formula_units_Z   4
loop_
 _symmetry_equiv_pos_site_id
 _symmetry_equiv_pos_as_xyz
  1  'x, y, z'
loop_
 _atom_site_type_symbol
 _atom_site_label
 _atom_site_symmetry_multiplicity
 _atom_site_fract_x
 _atom_site_fract_y
 _atom_site_fract_z
 _atom_site_occupancy
  Eu  Eu0  1  0.25000000  0.61072857  0.04078504  1
  Eu  Eu1  1  0.25000000  0.11072857  0.45921496  1
  Eu  Eu2  1  0.75000000  0.38927143  0.95921496  1
  Eu  Eu3  1  0.75000000  0.88927143  0.54078504  1
  Se  Se4  1  0.25000000  0.21112259  0.86856363  1
  Se  Se5  1  0.75000000  0.78887741  0.13143637  1
  Se  Se6  1  0.25000000  0.71112259  0.63143637  1
  Se  Se7  1  0.75000000  0.28887741  0.36856363  1
  Cl  Cl8  1  0.25000000  0.45009290  0.31981896  1
  Cl  Cl9  1  0.75000000  0.54990710  0.68018104  1
  Cl  Cl10  1  0.75000000  0.04990710  0.81981896  1
  Cl  Cl11  1  0.25000000  0.95009290  0.18018104  1
  O  O12  1  0.07478640  0.85355230  0.56844178  1
  O  O13  1  0.75000000  0.24625119  0.18420071  1
  O  O14  1  0.25000000  0.25374881  0.68420071  1
  O  O15  1  0.92521360  0.14644770  0.43155822  1
  O  O16  1  0.57478640  0.64644770  0.06844178  1
  O  O17  1  0.57478640  0.14644770  0.43155822  1
  O  O18  1  0.42521360  0.85355230  0.56844178  1
  O  O19  1  0.07478640  0.35355230  0.93155822  1
  O  O20  1  0.25000000  0.75374881  0.81579929  1
  O  O21  1  0.75000000  0.74625119  0.31579929  1
  O  O22  1  0.42521360  0.35355230  0.93155822  1
  O  O23  1  0.92521360  0.64644770  0.06844178  1
