# generated using pymatgen
data_Li4H3ClO3
_symmetry_space_group_name_H-M   'P 1'
_cell_length_a   5.51162429
_cell_length_b   7.55249030
_cell_length_c   6.33844580
_cell_angle_alpha   90.00000000
_cell_angle_beta   94.38257811
_cell_angle_gamma   90.00000000
_symmetry_Int_Tables_number   1
_chemical_formula_structural   Li4H3ClO3
_chemical_formula_sum   'Li8 H6 Cl2 O6'
_cell_volume   263.07576407
_cell_formula_units_Z   2
loop_
 _symmetry_equiv_pos_site_id
 _symmetry_equiv_pos_as_xyz
  1  'x, y, z'
loop_
 _atom_site_type_symbol
 _atom_site_label
 _atom_site_symmetry_multiplicity
 _atom_site_fract_x
 _atom_site_fract_y
 _atom_site_fract_z
 _atom_site_occupancy
  Li  Li0  1  0.07190156  0.25000000  0.91775809  1
  Li  Li1  1  0.92809844  0.75000000  0.08224191  1
  Li  Li2  1  0.39048880  0.25000000  0.66830993  1
  Li  Li3  1  0.60951120  0.75000000  0.33169007  1
  Li  Li4  1  0.64668494  0.48454224  0.85685476  1
  Li  Li5  1  0.35331506  0.98454224  0.14314524  1
  Li  Li6  1  0.35331506  0.51545776  0.14314524  1
  Li  Li7  1  0.64668494  0.01545776  0.85685476  1
  H  H8  1  0.82143660  0.25000000  0.61899693  1
  H  H9  1  0.17856340  0.75000000  0.38100307  1
  H  H10  1  0.80827469  0.46415588  0.22836607  1
  H  H11  1  0.19172531  0.96415588  0.77163393  1
  H  H12  1  0.19172531  0.53584412  0.77163393  1
  H  H13  1  0.80827469  0.03584412  0.22836607  1
  Cl  Cl14  1  0.17815254  0.25000000  0.31755728  1
  Cl  Cl15  1  0.82184746  0.75000000  0.68244272  1
  O  O16  1  0.74834184  0.25000000  0.75405137  1
  O  O17  1  0.25165816  0.75000000  0.24594863  1
  O  O18  1  0.28936753  0.44513994  0.84703824  1
  O  O19  1  0.71063247  0.94513994  0.15296176  1
  O  O20  1  0.71063247  0.55486006  0.15296176  1
  O  O21  1  0.28936753  0.05486006  0.84703824  1
