# generated using pymatgen
data_Ni4B3
_symmetry_space_group_name_H-M   'P 1'
_cell_length_a   2.99196307
_cell_length_b   6.57076773
_cell_length_c   11.91040694
_cell_angle_alpha   90.00000000
_cell_angle_beta   90.00000000
_cell_angle_gamma   90.00000000
_symmetry_Int_Tables_number   1
_chemical_formula_structural   Ni4B3
_chemical_formula_sum   'Ni16 B12'
_cell_volume   234.15257842
_cell_formula_units_Z   4
loop_
 _symmetry_equiv_pos_site_id
 _symmetry_equiv_pos_as_xyz
  1  'x, y, z'
loop_
 _atom_site_type_symbol
 _atom_site_label
 _atom_site_symmetry_multiplicity
 _atom_site_fract_x
 _atom_site_fract_y
 _atom_site_fract_z
 _atom_site_occupancy
  Ni  Ni0  1  0.25000000  0.51059110  0.64868887  1
  Ni  Ni1  1  0.75000000  0.62308158  0.80021708  1
  Ni  Ni2  1  0.25000000  0.12308158  0.69978292  1
  Ni  Ni3  1  0.75000000  0.24964298  0.04900416  1
  Ni  Ni4  1  0.25000000  0.98940890  0.14868887  1
  Ni  Ni5  1  0.75000000  0.66606849  0.12451340  1
  Ni  Ni6  1  0.25000000  0.75035702  0.95099584  1
  Ni  Ni7  1  0.75000000  0.01059110  0.85131113  1
  Ni  Ni8  1  0.75000000  0.48940890  0.35131113  1
  Ni  Ni9  1  0.25000000  0.74964298  0.45099584  1
  Ni  Ni10  1  0.25000000  0.16606849  0.37548660  1
  Ni  Ni11  1  0.75000000  0.83393151  0.62451340  1
  Ni  Ni12  1  0.75000000  0.87691842  0.30021708  1
  Ni  Ni13  1  0.75000000  0.25035702  0.54900416  1
  Ni  Ni14  1  0.25000000  0.33393151  0.87548660  1
  Ni  Ni15  1  0.25000000  0.37691842  0.19978292  1
  B  B16  1  0.75000000  0.32164564  0.74125257  1
  B  B17  1  0.25000000  0.06265494  0.97502602  1
  B  B18  1  0.75000000  0.52238500  0.96171169  1
  B  B19  1  0.75000000  0.93734506  0.02497398  1
  B  B20  1  0.75000000  0.56265494  0.52497398  1
  B  B21  1  0.25000000  0.47761500  0.03828831  1
  B  B22  1  0.25000000  0.67835436  0.25874743  1
  B  B23  1  0.25000000  0.02238500  0.53828831  1
  B  B24  1  0.75000000  0.97761500  0.46171169  1
  B  B25  1  0.75000000  0.17835436  0.24125257  1
  B  B26  1  0.25000000  0.82164564  0.75874743  1
  B  B27  1  0.25000000  0.43734506  0.47502602  1
