# generated using pymatgen
data_Mg2H4Ru
_symmetry_space_group_name_H-M   'P 1'
_cell_length_a   5.48604207
_cell_length_b   5.48604207
_cell_length_c   4.81599715
_cell_angle_alpha   90.00000000
_cell_angle_beta   90.00000000
_cell_angle_gamma   79.26992079
_symmetry_Int_Tables_number   1
_chemical_formula_structural   Mg2H4Ru
_chemical_formula_sum   'Mg4 H8 Ru2'
_cell_volume   142.41107407
_cell_formula_units_Z   2
loop_
 _symmetry_equiv_pos_site_id
 _symmetry_equiv_pos_as_xyz
  1  'x, y, z'
loop_
 _atom_site_type_symbol
 _atom_site_label
 _atom_site_symmetry_multiplicity
 _atom_site_fract_x
 _atom_site_fract_y
 _atom_site_fract_z
 _atom_site_occupancy
  Mg  Mg0  1  0.06916489  0.64803197  0.25000000  1
  Mg  Mg1  1  0.35196803  0.93083511  0.75000000  1
  Mg  Mg2  1  0.93083511  0.35196803  0.75000000  1
  Mg  Mg3  1  0.64803197  0.06916489  0.25000000  1
  H  H4  1  0.35373186  0.86960799  0.25000000  1
  H  H5  1  0.13039201  0.64626814  0.75000000  1
  H  H6  1  0.64626814  0.13039201  0.75000000  1
  H  H7  1  0.86960799  0.35373186  0.25000000  1
  H  H8  1  0.27801391  0.27801391  0.01529916  1
  H  H9  1  0.72198609  0.72198609  0.98470084  1
  H  H10  1  0.27801391  0.27801391  0.48470084  1
  H  H11  1  0.72198609  0.72198609  0.51529916  1
  Ru  Ru12  1  0.13187759  0.13187759  0.25000000  1
  Ru  Ru13  1  0.86812241  0.86812241  0.75000000  1
