# generated using pymatgen
data_Rb8Fe2O7
_symmetry_space_group_name_H-M   'P 1'
_cell_length_a   7.03468668
_cell_length_b   7.07376864
_cell_length_c   17.74373904
_cell_angle_alpha   90.00000000
_cell_angle_beta   90.00000000
_cell_angle_gamma   118.99420401
_symmetry_Int_Tables_number   1
_chemical_formula_structural   Rb8Fe2O7
_chemical_formula_sum   'Rb16 Fe4 O14'
_cell_volume   772.29702219
_cell_formula_units_Z   2
loop_
 _symmetry_equiv_pos_site_id
 _symmetry_equiv_pos_as_xyz
  1  'x, y, z'
loop_
 _atom_site_type_symbol
 _atom_site_label
 _atom_site_symmetry_multiplicity
 _atom_site_fract_x
 _atom_site_fract_y
 _atom_site_fract_z
 _atom_site_occupancy
  Rb  Rb0  1  0.44811757  0.23265164  0.28917323  1
  Rb  Rb1  1  0.99627600  0.63926298  0.41857192  1
  Rb  Rb2  1  0.94811757  0.23265164  0.21082677  1
  Rb  Rb3  1  0.55188243  0.76734836  0.71082677  1
  Rb  Rb4  1  0.54694555  0.78175068  0.30972994  1
  Rb  Rb5  1  0.00372400  0.36073702  0.58142808  1
  Rb  Rb6  1  0.45305445  0.21824932  0.69027006  1
  Rb  Rb7  1  0.45672775  0.22819923  0.49436270  1
  Rb  Rb8  1  0.04694555  0.78175068  0.19027006  1
  Rb  Rb9  1  0.95672775  0.22819923  0.00563730  1
  Rb  Rb10  1  0.50372400  0.36073702  0.91857192  1
  Rb  Rb11  1  0.04327225  0.77180077  0.99436270  1
  Rb  Rb12  1  0.54327225  0.77180077  0.50563730  1
  Rb  Rb13  1  0.49627600  0.63926298  0.08142808  1
  Rb  Rb14  1  0.95305445  0.21824932  0.80972994  1
  Rb  Rb15  1  0.05188243  0.76734836  0.78917323  1
  Fe  Fe16  1  0.49966982  0.85793711  0.90287002  1
  Fe  Fe17  1  0.99966982  0.85793711  0.59712998  1
  Fe  Fe18  1  0.00033018  0.14206289  0.40287002  1
  Fe  Fe19  1  0.50033018  0.14206289  0.09712998  1
  O  O20  1  0.99764228  0.04285187  0.67654120  1
  O  O21  1  0.74233202  0.58131698  0.60113805  1
  O  O22  1  0.75766798  0.41868302  0.10113805  1
  O  O23  1  0.24233202  0.58131698  0.89886195  1
  O  O24  1  0.49764228  0.04285187  0.82345880  1
  O  O25  1  0.26035031  0.83535120  0.60434979  1
  O  O26  1  0.23964969  0.16464880  0.10434979  1
  O  O27  1  0.25766798  0.41868302  0.39886195  1
  O  O28  1  0.50000000  0.00000000  0.00000000  1
  O  O29  1  0.73964969  0.16464880  0.39565021  1
  O  O30  1  0.00235772  0.95714813  0.32345880  1
  O  O31  1  0.50235772  0.95714813  0.17654120  1
  O  O32  1  0.00000000  0.00000000  0.50000000  1
  O  O33  1  0.76035031  0.83535120  0.89565021  1
