# generated using pymatgen
data_CrF5
_symmetry_space_group_name_H-M   'P 1'
_cell_length_a   5.61279331
_cell_length_b   7.66678671
_cell_length_c   7.98263014
_cell_angle_alpha   90.00000000
_cell_angle_beta   90.00000000
_cell_angle_gamma   90.00000000
_symmetry_Int_Tables_number   1
_chemical_formula_structural   CrF5
_chemical_formula_sum   'Cr4 F20'
_cell_volume   343.50925188
_cell_formula_units_Z   4
loop_
 _symmetry_equiv_pos_site_id
 _symmetry_equiv_pos_as_xyz
  1  'x, y, z'
loop_
 _atom_site_type_symbol
 _atom_site_label
 _atom_site_symmetry_multiplicity
 _atom_site_fract_x
 _atom_site_fract_y
 _atom_site_fract_z
 _atom_site_occupancy
  Cr  Cr0  1  0.25000000  0.58694600  0.25767619  1
  Cr  Cr1  1  0.25000000  0.08694600  0.74232381  1
  Cr  Cr2  1  0.75000000  0.91305400  0.25767619  1
  Cr  Cr3  1  0.75000000  0.41305400  0.74232381  1
  F  F4  1  0.75000000  0.47327033  0.53286307  1
  F  F5  1  0.25000000  0.21700923  0.91999067  1
  F  F6  1  0.25000000  0.71700923  0.08000933  1
  F  F7  1  0.25000000  0.02672967  0.53286307  1
  F  F8  1  0.00000000  0.25000000  0.66277581  1
  F  F9  1  0.25000000  0.52672967  0.46713693  1
  F  F10  1  0.75000000  0.97327033  0.46713693  1
  F  F11  1  0.02591806  0.44460067  0.19278039  1
  F  F12  1  0.52591806  0.55539933  0.80721961  1
  F  F13  1  0.97408194  0.55539933  0.80721961  1
  F  F14  1  0.47408194  0.44460067  0.19278039  1
  F  F15  1  0.75000000  0.28299077  0.91999067  1
  F  F16  1  0.50000000  0.25000000  0.66277581  1
  F  F17  1  0.47408194  0.94460067  0.80721961  1
  F  F18  1  0.75000000  0.78299077  0.08000933  1
  F  F19  1  0.52591806  0.05539933  0.19278039  1
  F  F20  1  0.97408194  0.05539933  0.19278039  1
  F  F21  1  0.00000000  0.75000000  0.33722419  1
  F  F22  1  0.50000000  0.75000000  0.33722419  1
  F  F23  1  0.02591806  0.94460067  0.80721961  1
