# generated using pymatgen
data_K2ZnCl4
_symmetry_space_group_name_H-M   'P 1'
_cell_length_a   14.63476355
_cell_length_b   14.63476304
_cell_length_c   27.29891729
_cell_angle_alpha   90.04597813
_cell_angle_beta   90.04597815
_cell_angle_gamma   119.08090562
_symmetry_Int_Tables_number   1
_chemical_formula_structural   K2ZnCl4
_chemical_formula_sum   'K48 Zn24 Cl96'
_cell_volume   5109.69577914
_cell_formula_units_Z   24
loop_
 _symmetry_equiv_pos_site_id
 _symmetry_equiv_pos_as_xyz
  1  'x, y, z'
loop_
 _atom_site_type_symbol
 _atom_site_label
 _atom_site_symmetry_multiplicity
 _atom_site_fract_x
 _atom_site_fract_y
 _atom_site_fract_z
 _atom_site_occupancy
  K  K0  1  0.33036137  0.89334016  0.66975769  1
  K  K1  1  0.83114290  0.39458232  0.66561440  1
  K  K2  1  0.93145592  0.86581854  0.99925551  1
  K  K3  1  0.91206659  0.34427972  0.83514904  1
  K  K4  1  0.19441022  0.03393053  0.79062502  1
  K  K5  1  0.87172740  0.43452733  0.00145294  1
  K  K6  1  0.39929690  0.33660039  0.33228927  1
  K  K7  1  0.37770544  0.43599510  0.49773194  1
  K  K8  1  0.21180059  0.55514400  0.37972031  1
  K  K9  1  0.34427972  0.91206659  0.33514904  1
  K  K10  1  0.89900985  0.83897183  0.66524882  1
  K  K11  1  0.43452733  0.87172740  0.50145294  1
  K  K12  1  0.73445161  0.05564055  0.38056911  1
  K  K13  1  0.33660039  0.39929690  0.83228927  1
  K  K14  1  0.74512068  0.57439873  0.45665118  1
  K  K15  1  0.39458232  0.83114290  0.16561440  1
  K  K16  1  0.93188678  0.36935644  0.49958792  1
  K  K17  1  0.89334016  0.33036137  0.16975769  1
  K  K18  1  0.57439873  0.74512068  0.95665118  1
  K  K19  1  0.54134351  0.22160697  0.54250485  1
  K  K20  1  0.21355359  0.05007503  0.45726722  1
  K  K21  1  0.06356942  0.21927340  0.61922623  1
  K  K22  1  0.19160094  0.52165604  0.70879360  1
  K  K23  1  0.52557243  0.70194700  0.28969108  1
  K  K24  1  0.89249367  0.82844758  0.33005914  1
  K  K25  1  0.21927340  0.06356942  0.11922623  1
  K  K26  1  0.70194700  0.52557243  0.78969108  1
  K  K27  1  0.07759031  0.74056356  0.54368416  1
  K  K28  1  0.52165604  0.19160094  0.20879360  1
  K  K29  1  0.05564055  0.73445161  0.88056911  1
  K  K30  1  0.22160697  0.54134351  0.04250485  1
  K  K31  1  0.39520534  0.82977708  0.83168445  1
  K  K32  1  0.86581854  0.93145592  0.49925551  1
  K  K33  1  0.74056356  0.07759031  0.04368416  1
  K  K34  1  0.40820947  0.33843430  0.66629080  1
  K  K35  1  0.54586084  0.72002775  0.61986534  1
  K  K36  1  0.83897183  0.89900985  0.16524882  1
  K  K37  1  0.55514400  0.21180059  0.87972031  1
  K  K38  1  0.03393053  0.19441022  0.29062502  1
  K  K39  1  0.82844758  0.89249367  0.83005914  1
  K  K40  1  0.43599510  0.37770544  0.99773194  1
  K  K41  1  0.05007503  0.21355359  0.95726722  1
  K  K42  1  0.33843430  0.40820947  0.16629080  1
  K  K43  1  0.70254797  0.03671121  0.71021371  1
  K  K44  1  0.03671121  0.70254797  0.21021371  1
  K  K45  1  0.82977708  0.39520534  0.33168445  1
  K  K46  1  0.36935644  0.93188678  0.99958792  1
  K  K47  1  0.72002775  0.54586084  0.11986534  1
  Zn  Zn48  1  0.04009547  0.20511548  0.75945348  1
  Zn  Zn49  1  0.03523043  0.70578865  0.73961950  1
  Zn  Zn50  1  0.72340985  0.05893442  0.90343878  1
  Zn  Zn51  1  0.53712406  0.70331069  0.75821704  1
  Zn  Zn52  1  0.05014378  0.71342266  0.07162489  1
  Zn  Zn53  1  0.21306162  0.05027235  0.92876524  1
  Zn  Zn54  1  0.05575705  0.22446622  0.09606881  1
  Zn  Zn55  1  0.56482858  0.73116398  0.09454654  1
  Zn  Zn56  1  0.20511548  0.04009547  0.25945348  1
  Zn  Zn57  1  0.21375918  0.53855867  0.57113472  1
  Zn  Zn58  1  0.22446622  0.05575705  0.59606881  1
  Zn  Zn59  1  0.05027235  0.21306162  0.42876524  1
  Zn  Zn60  1  0.73116398  0.56482858  0.59454654  1
  Zn  Zn61  1  0.53773211  0.20023912  0.74165973  1
  Zn  Zn62  1  0.71342266  0.05014378  0.57162489  1
  Zn  Zn63  1  0.05893442  0.72340985  0.40343878  1
  Zn  Zn64  1  0.53855867  0.21375918  0.07113472  1
  Zn  Zn65  1  0.70331069  0.53712406  0.25821704  1
  Zn  Zn66  1  0.71668981  0.54217037  0.92657040  1
  Zn  Zn67  1  0.54217037  0.71668981  0.42657040  1
  Zn  Zn68  1  0.20023912  0.53773211  0.24165973  1
  Zn  Zn69  1  0.56106221  0.22819417  0.40524730  1
  Zn  Zn70  1  0.22819417  0.56106221  0.90524730  1
  Zn  Zn71  1  0.70578865  0.03523043  0.23961950  1
  Cl  Cl72  1  0.53534879  0.99015242  0.25185844  1
  Cl  Cl73  1  0.01612928  0.82933655  0.11346590  1
  Cl  Cl74  1  0.31211503  0.98165929  0.55736365  1
  Cl  Cl75  1  0.34869890  0.52490061  0.94226445  1
  Cl  Cl76  1  0.99303655  0.18665354  0.50716574  1
  Cl  Cl77  1  0.00308701  0.31859244  0.38653136  1
  Cl  Cl78  1  0.98165929  0.31211503  0.05736365  1
  Cl  Cl79  1  0.06786120  0.44371061  0.93617959  1
  Cl  Cl80  1  0.56918120  0.76044310  0.17576603  1
  Cl  Cl81  1  0.49413343  0.03027426  0.75588356  1
  Cl  Cl82  1  0.48900239  0.18831075  0.99173383  1
  Cl  Cl83  1  0.20063769  0.30668302  0.72217055  1
  Cl  Cl84  1  0.56423320  0.24392570  0.66142180  1
  Cl  Cl85  1  0.52327016  0.84386978  0.05371519  1
  Cl  Cl86  1  0.28652078  0.21940302  0.56297690  1
  Cl  Cl87  1  0.55920810  0.44077198  0.88704498  1
  Cl  Cl88  1  0.25370492  0.93149877  0.22045214  1
  Cl  Cl89  1  0.06497839  0.75564372  0.66004472  1
  Cl  Cl90  1  0.24228515  0.42421215  0.28053296  1
  Cl  Cl91  1  0.75585826  0.22127085  0.57753787  1
  Cl  Cl92  1  0.44371061  0.06786120  0.43617959  1
  Cl  Cl93  1  0.43920742  0.05358491  0.10880892  1
  Cl  Cl94  1  0.55081460  0.95893200  0.92178698  1
  Cl  Cl95  1  0.30668302  0.20063769  0.22217055  1
  Cl  Cl96  1  0.19293539  0.81323800  0.77825905  1
  Cl  Cl97  1  0.77397847  0.22226059  0.93500752  1
  Cl  Cl98  1  0.76044310  0.56918120  0.67576603  1
  Cl  Cl99  1  0.73769514  0.41705232  0.21991926  1
  Cl  Cl100  1  0.83500280  0.50562135  0.88784369  1
  Cl  Cl101  1  0.98951158  0.03408893  0.74409284  1
  Cl  Cl102  1  0.68650232  0.99136955  0.49323468  1
  Cl  Cl103  1  0.45022711  0.56373701  0.07209156  1
  Cl  Cl104  1  0.84386978  0.52327016  0.55371519  1
  Cl  Cl105  1  0.55972459  0.24413876  0.32304676  1
  Cl  Cl106  1  0.95704275  0.05055056  0.39060887  1
  Cl  Cl107  1  0.31859244  0.00308701  0.88653136  1
  Cl  Cl108  1  0.55517852  0.94937163  0.61115826  1
  Cl  Cl109  1  0.07375958  0.76623995  0.32361712  1
  Cl  Cl110  1  0.95930510  0.05459392  0.07187940  1
  Cl  Cl111  1  0.71106818  0.26976566  0.08438405  1
  Cl  Cl112  1  0.81311897  0.99160195  0.94710394  1
  Cl  Cl113  1  0.41705232  0.73769514  0.71991926  1
  Cl  Cl114  1  0.94937163  0.55517852  0.11115826  1
  Cl  Cl115  1  0.22127085  0.75585826  0.07753787  1
  Cl  Cl116  1  0.82933655  0.01612928  0.61346590  1
  Cl  Cl117  1  0.99136955  0.68650232  0.99323468  1
  Cl  Cl118  1  0.18665354  0.99303655  0.00716574  1
  Cl  Cl119  1  0.49467643  0.32505910  0.11139103  1
  Cl  Cl120  1  0.44077198  0.55920810  0.38704498  1
  Cl  Cl121  1  0.42421215  0.24228515  0.78053296  1
  Cl  Cl122  1  0.22317214  0.26560374  0.41999841  1
  Cl  Cl123  1  0.21940302  0.28652078  0.06297690  1
  Cl  Cl124  1  0.74930607  0.56250610  0.33830317  1
  Cl  Cl125  1  0.72350919  0.25972238  0.42968231  1
  Cl  Cl126  1  0.50562135  0.83500280  0.38784369  1
  Cl  Cl127  1  0.26560374  0.22317214  0.91999841  1
  Cl  Cl128  1  0.76145994  0.72614216  0.56849889  1
  Cl  Cl129  1  0.72614216  0.76145994  0.06849889  1
  Cl  Cl130  1  0.75564372  0.06497839  0.16004472  1
  Cl  Cl131  1  0.18831075  0.48900239  0.49173383  1
  Cl  Cl132  1  0.76820253  0.71495731  0.91594380  1
  Cl  Cl133  1  0.69333718  0.81278811  0.71974738  1
  Cl  Cl134  1  0.74579516  0.92066443  0.27964974  1
  Cl  Cl135  1  0.24835771  0.06749094  0.33965914  1
  Cl  Cl136  1  0.68847871  0.49098012  0.00593684  1
  Cl  Cl137  1  0.56373701  0.45022711  0.57209156  1
  Cl  Cl138  1  0.49703198  0.53422573  0.74527758  1
  Cl  Cl139  1  0.05055056  0.95704275  0.89060887  1
  Cl  Cl140  1  0.06749094  0.24835771  0.83965914  1
  Cl  Cl141  1  0.99015242  0.53534879  0.75185844  1
  Cl  Cl142  1  0.69804817  0.30499325  0.77904541  1
  Cl  Cl143  1  0.03027426  0.49413343  0.25588356  1
  Cl  Cl144  1  0.92066443  0.74579516  0.77964974  1
  Cl  Cl145  1  0.25972238  0.72350919  0.92968231  1
  Cl  Cl146  1  0.99160195  0.81311897  0.44710394  1
  Cl  Cl147  1  0.81323800  0.19293539  0.27825905  1
  Cl  Cl148  1  0.30499325  0.69804817  0.27904541  1
  Cl  Cl149  1  0.22226059  0.77397847  0.43500752  1
  Cl  Cl150  1  0.25676973  0.06987890  0.67673357  1
  Cl  Cl151  1  0.05358491  0.43920742  0.60880892  1
  Cl  Cl152  1  0.53422573  0.49703198  0.24527758  1
  Cl  Cl153  1  0.76623995  0.07375958  0.82361712  1
  Cl  Cl154  1  0.93149877  0.25370492  0.72045214  1
  Cl  Cl155  1  0.06987890  0.25676973  0.17673357  1
  Cl  Cl156  1  0.49098012  0.68847871  0.50593684  1
  Cl  Cl157  1  0.56250610  0.74930607  0.83830317  1
  Cl  Cl158  1  0.24413876  0.55972459  0.82304676  1
  Cl  Cl159  1  0.81278811  0.69333718  0.21974738  1
  Cl  Cl160  1  0.24392570  0.56423320  0.16142180  1
  Cl  Cl161  1  0.71495731  0.76820253  0.41594380  1
  Cl  Cl162  1  0.95893200  0.55081460  0.42178698  1
  Cl  Cl163  1  0.03408893  0.98951158  0.24409284  1
  Cl  Cl164  1  0.32505910  0.49467643  0.61139103  1
  Cl  Cl165  1  0.26976566  0.71106818  0.58438405  1
  Cl  Cl166  1  0.52490061  0.34869890  0.44226445  1
  Cl  Cl167  1  0.05459392  0.95930510  0.57187940  1
