# generated using pymatgen
data_PH8IN4
_symmetry_space_group_name_H-M   'P 1'
_cell_length_a   8.50250448
_cell_length_b   8.50251180
_cell_length_c   5.22290779
_cell_angle_alpha   89.99981708
_cell_angle_beta   89.99981845
_cell_angle_gamma   90.55682869
_symmetry_Int_Tables_number   1
_chemical_formula_structural   PH8IN4
_chemical_formula_sum   'P2 H16 I2 N8'
_cell_volume   377.55998634
_cell_formula_units_Z   2
loop_
 _symmetry_equiv_pos_site_id
 _symmetry_equiv_pos_as_xyz
  1  'x, y, z'
loop_
 _atom_site_type_symbol
 _atom_site_label
 _atom_site_symmetry_multiplicity
 _atom_site_fract_x
 _atom_site_fract_y
 _atom_site_fract_z
 _atom_site_occupancy
  P  P0  1  0.75000200  0.24999932  0.49861635  1
  P  P1  1  0.24999716  0.75000086  0.50144328  1
  H  H2  1  0.46803026  0.67536090  0.26893431  1
  H  H3  1  0.96894209  0.32668855  0.26672661  1
  H  H4  1  0.53105831  0.17331015  0.26673029  1
  H  H5  1  0.03196730  0.82463968  0.26893395  1
  H  H6  1  0.53194590  0.32458060  0.73101491  1
  H  H7  1  0.03107752  0.67337265  0.73329715  1
  H  H8  1  0.46892041  0.82662974  0.73329400  1
  H  H9  1  0.96805586  0.17541976  0.73101408  1
  H  H10  1  0.67541952  0.46805609  0.73101174  1
  H  H11  1  0.32662847  0.96892147  0.73330008  1
  H  H12  1  0.17337019  0.53108083  0.73329768  1
  H  H13  1  0.82458074  0.03194513  0.73101005  1
  H  H14  1  0.32463941  0.53196872  0.26893227  1
  H  H15  1  0.67331192  0.03105646  0.26673066  1
  H  H16  1  0.82668812  0.46894161  0.26673128  1
  H  H17  1  0.17535960  0.96803075  0.26893344  1
  I  I18  1  0.74999824  0.75000801  0.99989170  1
  I  I19  1  0.25000935  0.24998686  0.99989659  1
  N  N20  1  0.12898204  0.62898106  0.64678646  1
  N  N21  1  0.63016782  0.36983134  0.64324596  1
  N  N22  1  0.86982885  0.13016818  0.64324297  1
  N  N23  1  0.37102055  0.87101750  0.64678831  1
  N  N24  1  0.87100507  0.37100957  0.35318211  1
  N  N25  1  0.36977340  0.63022955  0.35691485  1
  N  N26  1  0.13022950  0.86977202  0.35691767  1
  N  N27  1  0.62899039  0.12899263  0.35318127  1
