# generated using pymatgen
data_Gd2Be2GeO7
_symmetry_space_group_name_H-M   'P 1'
_cell_length_a   4.86829352
_cell_length_b   7.51922272
_cell_length_c   7.51505212
_cell_angle_alpha   89.95807589
_cell_angle_beta   89.93997216
_cell_angle_gamma   90.06263191
_symmetry_Int_Tables_number   1
_chemical_formula_structural   Gd2Be2GeO7
_chemical_formula_sum   'Gd4 Be4 Ge2 O14'
_cell_volume   275.09397995
_cell_formula_units_Z   2
loop_
 _symmetry_equiv_pos_site_id
 _symmetry_equiv_pos_as_xyz
  1  'x, y, z'
loop_
 _atom_site_type_symbol
 _atom_site_label
 _atom_site_symmetry_multiplicity
 _atom_site_fract_x
 _atom_site_fract_y
 _atom_site_fract_z
 _atom_site_occupancy
  Gd  Gd0  1  0.50461618  0.65863133  0.15874886  1
  Gd  Gd1  1  0.50444750  0.34131753  0.84139586  1
  Gd  Gd2  1  0.49503071  0.84129594  0.65869175  1
  Gd  Gd3  1  0.49575862  0.15869311  0.34130487  1
  Be  Be4  1  0.95358634  0.13444679  0.63494731  1
  Be  Be5  1  0.04638075  0.36558241  0.13454021  1
  Be  Be6  1  0.95357122  0.86488757  0.36548327  1
  Be  Be7  1  0.04644887  0.63496523  0.86519344  1
  Ge  Ge8  1  0.00010615  0.99963551  0.99950754  1
  Ge  Ge9  1  0.00014059  0.50071522  0.49997194  1
  O  O10  1  0.28026346  0.85763667  0.35850997  1
  O  O11  1  0.21207861  0.41939501  0.32764975  1
  O  O12  1  0.78841266  0.32754788  0.58117068  1
  O  O13  1  0.71954048  0.35864736  0.14151590  1
  O  O14  1  0.78820974  0.91866052  0.17224248  1
  O  O15  1  0.21209377  0.58113063  0.67174258  1
  O  O16  1  0.81801731  0.99974466  0.50021996  1
  O  O17  1  0.28038032  0.14131415  0.64203485  1
  O  O18  1  0.18256544  0.50029113  0.99983470  1
  O  O19  1  0.71989235  0.64216494  0.85810064  1
  O  O20  1  0.21169962  0.17243724  0.08077367  1
  O  O21  1  0.78726056  0.08088254  0.82824335  1
  O  O22  1  0.21214497  0.82835366  0.91900422  1
  O  O23  1  0.78735377  0.67162298  0.41917219  1
