# generated using pymatgen
data_Ce5Sn3
_symmetry_space_group_name_H-M   'P 1'
_cell_length_a   6.10403234
_cell_length_b   9.30389695
_cell_length_c   9.30044559
_cell_angle_alpha   83.88662922
_cell_angle_beta   70.87566243
_cell_angle_gamma   70.84748400
_symmetry_Int_Tables_number   1
_chemical_formula_structural   Ce5Sn3
_chemical_formula_sum   'Ce10 Sn6'
_cell_volume   471.41119770
_cell_formula_units_Z   2
loop_
 _symmetry_equiv_pos_site_id
 _symmetry_equiv_pos_as_xyz
  1  'x, y, z'
loop_
 _atom_site_type_symbol
 _atom_site_label
 _atom_site_symmetry_multiplicity
 _atom_site_fract_x
 _atom_site_fract_y
 _atom_site_fract_z
 _atom_site_occupancy
  Ce  Ce0  1  0.72148001  0.86174927  0.69513668  1
  Ce  Ce1  1  0.22190078  0.69447080  0.86182972  1
  Ce  Ce2  1  0.08353115  0.13814373  0.69477005  1
  Ce  Ce3  1  0.91635329  0.86205966  0.30504771  1
  Ce  Ce4  1  0.77845247  0.30484155  0.13838110  1
  Ce  Ce5  1  0.25038490  0.49986479  0.49992507  1
  Ce  Ce6  1  0.41605733  0.30591587  0.86195385  1
  Ce  Ce7  1  0.58348380  0.69482687  0.13831952  1
  Ce  Ce8  1  0.27856135  0.13812790  0.30468456  1
  Ce  Ce9  1  0.74979802  0.49999092  0.49986266  1
  Sn  Sn10  1  0.83922247  0.50002003  0.82070578  1
  Sn  Sn11  1  0.33916745  0.82098857  0.49999036  1
  Sn  Sn12  1  0.25005840  0.00000524  -0.00002037  1
  Sn  Sn13  1  0.66089890  0.17911902  0.50000683  1
  Sn  Sn14  1  0.16062367  0.49989225  0.17939257  1
  Sn  Sn15  1  0.75002602  -0.00001646  0.00001390  1
