# generated using pymatgen
data_LiV(SiO3)2
_symmetry_space_group_name_H-M   'P 1'
_cell_length_a   5.36719042
_cell_length_b   8.75797878
_cell_length_c   9.41868206
_cell_angle_alpha   90.00000000
_cell_angle_beta   102.87694550
_cell_angle_gamma   90.00000000
_symmetry_Int_Tables_number   1
_chemical_formula_structural   LiV(SiO3)2
_chemical_formula_sum   'Li4 V4 Si8 O24'
_cell_volume   431.59782442
_cell_formula_units_Z   4
loop_
 _symmetry_equiv_pos_site_id
 _symmetry_equiv_pos_as_xyz
  1  'x, y, z'
loop_
 _atom_site_type_symbol
 _atom_site_label
 _atom_site_symmetry_multiplicity
 _atom_site_fract_x
 _atom_site_fract_y
 _atom_site_fract_z
 _atom_site_occupancy
  Li  Li0  1  0.51259340  0.48978285  0.24794182  1
  Li  Li1  1  0.98740660  0.98978285  0.75205818  1
  Li  Li2  1  0.01259340  0.01021715  0.24794182  1
  Li  Li3  1  0.48740660  0.51021715  0.75205818  1
  V  V4  1  0.98463434  0.34641419  0.74952955  1
  V  V5  1  0.01536566  0.65358581  0.25047045  1
  V  V6  1  0.48463434  0.15358581  0.74952955  1
  V  V7  1  0.51536566  0.84641419  0.25047045  1
  Si  Si8  1  0.79149091  0.66109174  0.54830832  1
  Si  Si9  1  0.70850909  0.16109174  0.45169168  1
  Si  Si10  1  0.23262091  0.66119586  0.95184217  1
  Si  Si11  1  0.29149091  0.83890826  0.54830832  1
  Si  Si12  1  0.20850909  0.33890826  0.45169168  1
  Si  Si13  1  0.73262091  0.83880414  0.95184217  1
  Si  Si14  1  0.26737909  0.16119586  0.04815783  1
  Si  Si15  1  0.76737909  0.33880414  0.04815783  1
  O  O16  1  0.30441962  0.99351796  0.12000888  1
  O  O17  1  0.19787047  0.16636405  0.86833653  1
  O  O18  1  0.69558038  0.00648204  0.87999112  1
  O  O19  1  0.22441791  0.83506668  0.36802005  1
  O  O20  1  0.02331506  0.23233350  0.10718778  1
  O  O21  1  0.52331506  0.26766650  0.10718778  1
  O  O22  1  0.73081268  0.99776313  0.37510442  1
  O  O23  1  0.91489114  0.27356766  0.39644990  1
  O  O24  1  0.23081268  0.50223687  0.37510442  1
  O  O25  1  0.77558209  0.16493332  0.63197995  1
  O  O26  1  0.76918732  0.49776313  0.62489558  1
  O  O27  1  0.08510886  0.72643234  0.60355010  1
  O  O28  1  0.97668494  0.76766650  0.89281222  1
  O  O29  1  0.19558038  0.49351796  0.87999112  1
  O  O30  1  0.69787047  0.33363595  0.86833653  1
  O  O31  1  0.30212953  0.66636405  0.13166347  1
  O  O32  1  0.47668494  0.73233350  0.89281222  1
  O  O33  1  0.80212953  0.83363595  0.13166347  1
  O  O34  1  0.58510886  0.77356766  0.60355010  1
  O  O35  1  0.72441791  0.66493332  0.36802005  1
  O  O36  1  0.27558209  0.33506668  0.63197995  1
  O  O37  1  0.41489114  0.22643234  0.39644990  1
  O  O38  1  0.26918732  0.00223687  0.62489558  1
  O  O39  1  0.80441962  0.50648204  0.12000888  1
