# generated using pymatgen
data_Ca19In8N7
_symmetry_space_group_name_H-M   'P 1'
_cell_length_a   10.43828550
_cell_length_b   10.44116198
_cell_length_c   10.44084741
_cell_angle_alpha   90.01844072
_cell_angle_beta   119.98773755
_cell_angle_gamma   119.99618232
_symmetry_Int_Tables_number   1
_chemical_formula_structural   Ca19In8N7
_chemical_formula_sum   'Ca19 In8 N7'
_cell_volume   804.70073373
_cell_formula_units_Z   1
loop_
 _symmetry_equiv_pos_site_id
 _symmetry_equiv_pos_as_xyz
  1  'x, y, z'
loop_
 _atom_site_type_symbol
 _atom_site_label
 _atom_site_symmetry_multiplicity
 _atom_site_fract_x
 _atom_site_fract_y
 _atom_site_fract_z
 _atom_site_occupancy
  Ca  Ca0  1  0.32671166  0.49994095  0.49969417  1
  Ca  Ca1  1  0.67329677  0.49990219  0.17321905  1
  Ca  Ca2  1  0.00009465  0.50009003  0.82683786  1
  Ca  Ca3  1  0.00059577  0.83357031  0.16661808  1
  Ca  Ca4  1  0.67341230  0.50006406  0.50023879  1
  Ca  Ca5  1  0.00009052  0.49985797  0.17322846  1
  Ca  Ca6  1  0.66698033  0.83329566  0.83339935  1
  Ca  Ca7  1  0.32696137  0.82686156  0.50000919  1
  Ca  Ca8  1  0.33314632  0.16625236  0.16653803  1
  Ca  Ca9  1  0.99957584  0.16617945  0.83315922  1
  Ca  Ca10  1  0.67337021  0.17316017  0.17345645  1
  Ca  Ca11  1  0.00011471  0.50009606  0.50002910  1
  Ca  Ca12  1  0.00001498  0.82685222  0.50012479  1
  Ca  Ca13  1  0.99988022  0.16620908  0.16644108  1
  Ca  Ca14  1  0.32684404  0.50015613  0.82676961  1
  Ca  Ca15  1  0.32678220  0.82696406  0.82691249  1
  Ca  Ca16  1  0.67327618  0.17330041  0.50025279  1
  Ca  Ca17  1  0.99981664  0.83353507  0.83332469  1
  Ca  Ca18  1  0.00004562  0.17331580  0.49990476  1
  In  In19  1  0.65043462  0.17478622  0.82527813  1
  In  In20  1  0.65074954  0.82576978  0.47578057  1
  In  In21  1  0.34918753  0.17464128  0.82521996  1
  In  In22  1  0.34936558  0.17445467  0.52393971  1
  In  In23  1  0.65026982  0.82521390  0.17491821  1
  In  In24  1  0.64978292  0.47534489  0.82488488  1
  In  In25  1  0.34957597  0.52439578  0.17483816  1
  In  In26  1  0.34949791  0.82552975  0.17503154  1
  N  N27  1  0.00008038  0.32632285  0.67379734  1
  N  N28  1  0.99991816  0.67365070  0.67362013  1
  N  N29  1  0.99999500  0.32636697  0.32627467  1
  N  N30  1  0.99999362  0.67373932  0.32618577  1
  N  N31  1  0.34752208  0.67393631  0.67375878  1
  N  N32  1  0.65266221  0.32632222  0.32639862  1
  N  N33  1  0.99995633  0.99991979  0.99991456  1
