# generated using pymatgen
data_Ce12InPt7
_symmetry_space_group_name_H-M   'P 1'
_cell_length_a   11.09021592
_cell_length_b   11.09021516
_cell_length_c   11.09021540
_cell_angle_alpha   99.69788761
_cell_angle_beta   114.56803734
_cell_angle_gamma   114.56803445
_symmetry_Int_Tables_number   1
_chemical_formula_structural   Ce12InPt7
_chemical_formula_sum   'Ce24 In2 Pt14'
_cell_volume   1027.68403017
_cell_formula_units_Z   2
loop_
 _symmetry_equiv_pos_site_id
 _symmetry_equiv_pos_as_xyz
  1  'x, y, z'
loop_
 _atom_site_type_symbol
 _atom_site_label
 _atom_site_symmetry_multiplicity
 _atom_site_fract_x
 _atom_site_fract_y
 _atom_site_fract_z
 _atom_site_occupancy
  Ce  Ce0  1  0.72071970  0.28567216  0.14737041  1
  Ce  Ce1  1  0.84926646  0.67463323  0.17463323  1
  Ce  Ce2  1  0.72071970  0.57334929  0.43504754  1
  Ce  Ce3  1  0.27928030  0.42665071  0.56495246  1
  Ce  Ce4  1  0.13830175  0.56495246  0.28567216  1
  Ce  Ce5  1  0.13830175  0.78567216  0.06495246  1
  Ce  Ce6  1  0.27928030  0.35262959  0.21432784  1
  Ce  Ce7  1  0.27928030  0.06495246  0.92665071  1
  Ce  Ce8  1  0.86169825  0.92665071  0.64737041  1
  Ce  Ce9  1  0.50000000  0.35377454  0.85377454  1
  Ce  Ce10  1  0.15073354  0.32536677  0.82536677  1
  Ce  Ce11  1  0.50000000  0.64622546  0.14622546  1
  Ce  Ce12  1  0.50000000  0.14622546  0.64622546  1
  Ce  Ce13  1  0.86169825  0.14737041  0.42665071  1
  Ce  Ce14  1  0.13830175  0.85262959  0.57334929  1
  Ce  Ce15  1  0.27928030  0.71432784  0.85262959  1
  Ce  Ce16  1  0.86169825  0.21432784  0.93504754  1
  Ce  Ce17  1  0.72071970  0.64737041  0.78567216  1
  Ce  Ce18  1  0.13830175  0.07334929  0.35262959  1
  Ce  Ce19  1  0.50000000  0.17463323  0.32536677  1
  Ce  Ce20  1  0.50000000  0.82536677  0.67463323  1
  Ce  Ce21  1  0.72071970  0.93504754  0.07334929  1
  Ce  Ce22  1  0.50000000  0.85377454  0.35377454  1
  Ce  Ce23  1  0.86169825  0.43504754  0.71432784  1
  In  In24  1  0.00000000  0.50000000  0.50000000  1
  In  In25  1  0.00000000  0.00000000  0.00000000  1
  Pt  Pt26  1  0.15152918  0.51844954  0.01844954  1
  Pt  Pt27  1  0.50000000  0.63307964  0.48155046  1
  Pt  Pt28  1  0.50000000  0.36692036  0.51844954  1
  Pt  Pt29  1  0.50000000  0.37409517  0.12590483  1
  Pt  Pt30  1  0.75180966  0.12590483  0.62590483  1
  Pt  Pt31  1  0.84847082  0.86692036  0.36692036  1
  Pt  Pt32  1  0.84847082  0.48155046  0.98155046  1
  Pt  Pt33  1  0.15152918  0.13307964  0.63307964  1
  Pt  Pt34  1  0.50000000  0.01844954  0.86692036  1
  Pt  Pt35  1  0.50000000  0.62590483  0.87409517  1
  Pt  Pt36  1  0.24819034  0.87409517  0.37409517  1
  Pt  Pt37  1  0.00000000  0.25000000  0.25000000  1
  Pt  Pt38  1  0.00000000  0.75000000  0.75000000  1
  Pt  Pt39  1  0.50000000  0.98155046  0.13307964  1
