# generated using pymatgen
data_CuAs2Pb6Cl7O6
_symmetry_space_group_name_H-M   'P 1'
_cell_length_a   8.20846690
_cell_length_b   8.20846688
_cell_length_c   8.20846730
_cell_angle_alpha   75.58999195
_cell_angle_beta   75.58999198
_cell_angle_gamma   75.58998913
_symmetry_Int_Tables_number   1
_chemical_formula_structural   CuAs2Pb6Cl7O6
_chemical_formula_sum   'Cu1 As2 Pb6 Cl7 O6'
_cell_volume   508.42001872
_cell_formula_units_Z   1
loop_
 _symmetry_equiv_pos_site_id
 _symmetry_equiv_pos_as_xyz
  1  'x, y, z'
loop_
 _atom_site_type_symbol
 _atom_site_label
 _atom_site_symmetry_multiplicity
 _atom_site_fract_x
 _atom_site_fract_y
 _atom_site_fract_z
 _atom_site_occupancy
  Cu  Cu0  1  0.62720030  0.62720030  0.62720030  1
  As  As1  1  0.23817410  0.23817410  0.23817410  1
  As  As2  1  0.76451616  0.76451616  0.76451616  1
  Pb  Pb3  1  0.12472374  0.83052457  0.36262288  1
  Pb  Pb4  1  0.16368581  0.62819641  0.87747600  1
  Pb  Pb5  1  0.36262288  0.12472374  0.83052457  1
  Pb  Pb6  1  0.62819641  0.87747600  0.16368581  1
  Pb  Pb7  1  0.83052457  0.36262288  0.12472374  1
  Pb  Pb8  1  0.87747600  0.16368581  0.62819641  1
  Cl  Cl9  1  0.00085746  0.00085746  0.00085746  1
  Cl  Cl10  1  0.15925646  0.45304636  0.63300256  1
  Cl  Cl11  1  0.45304636  0.63300256  0.15925646  1
  Cl  Cl12  1  0.38640447  0.82931846  0.55129740  1
  Cl  Cl13  1  0.63300256  0.15925646  0.45304636  1
  Cl  Cl14  1  0.55129740  0.38640447  0.82931846  1
  Cl  Cl15  1  0.82931846  0.55129740  0.38640447  1
  O  O16  1  0.06147481  0.13152021  0.35759203  1
  O  O17  1  0.13152021  0.35759203  0.06147481  1
  O  O18  1  0.35759203  0.06147481  0.13152021  1
  O  O19  1  0.64268011  0.94386119  0.86023549  1
  O  O20  1  0.86023549  0.64268011  0.94386119  1
  O  O21  1  0.94386119  0.86023549  0.64268011  1
