# generated using pymatgen
data_LiSn5Rh3
_symmetry_space_group_name_H-M   'P 1'
_cell_length_a   5.46885950
_cell_length_b   9.91133364
_cell_length_c   12.96388917
_cell_angle_alpha   90.00000000
_cell_angle_beta   90.00000000
_cell_angle_gamma   90.00000000
_symmetry_Int_Tables_number   1
_chemical_formula_structural   LiSn5Rh3
_chemical_formula_sum   'Li4 Sn20 Rh12'
_cell_volume   702.69064448
_cell_formula_units_Z   4
loop_
 _symmetry_equiv_pos_site_id
 _symmetry_equiv_pos_as_xyz
  1  'x, y, z'
loop_
 _atom_site_type_symbol
 _atom_site_label
 _atom_site_symmetry_multiplicity
 _atom_site_fract_x
 _atom_site_fract_y
 _atom_site_fract_z
 _atom_site_occupancy
  Li  Li0  1  0.59783327  0.10871268  0.25000000  1
  Li  Li1  1  0.59783327  0.39128732  0.75000000  1
  Li  Li2  1  0.40216673  0.60871268  0.25000000  1
  Li  Li3  1  0.40216673  0.89128732  0.75000000  1
  Sn  Sn4  1  0.86642322  0.12694418  0.06295868  1
  Sn  Sn5  1  0.62585867  0.82631652  0.11284005  1
  Sn  Sn6  1  0.13357678  0.87305582  0.56295868  1
  Sn  Sn7  1  0.62585867  0.67368348  0.61284005  1
  Sn  Sn8  1  0.86642322  0.12694418  0.43704132  1
  Sn  Sn9  1  0.13357678  0.62694418  0.06295868  1
  Sn  Sn10  1  0.37414133  0.32631652  0.11284005  1
  Sn  Sn11  1  0.62585867  0.82631652  0.38715995  1
  Sn  Sn12  1  0.13357678  0.87305582  0.93704132  1
  Sn  Sn13  1  0.37414133  0.17368348  0.88715995  1
  Sn  Sn14  1  0.62585867  0.67368348  0.88715995  1
  Sn  Sn15  1  0.37414133  0.32631652  0.38715995  1
  Sn  Sn16  1  0.37414133  0.17368348  0.61284005  1
  Sn  Sn17  1  0.86642322  0.37305582  0.93704132  1
  Sn  Sn18  1  0.84280030  0.42410675  0.25000000  1
  Sn  Sn19  1  0.15719970  0.57589325  0.75000000  1
  Sn  Sn20  1  0.13357678  0.62694418  0.43704132  1
  Sn  Sn21  1  0.84280030  0.07589325  0.75000000  1
  Sn  Sn22  1  0.15719970  0.92410675  0.25000000  1
  Sn  Sn23  1  0.86642322  0.37305582  0.56295868  1
  Rh  Rh24  1  0.64677410  0.55228199  0.42164430  1
  Rh  Rh25  1  0.35322590  0.44771801  0.92164430  1
  Rh  Rh26  1  0.64677410  0.55228199  0.07835570  1
  Rh  Rh27  1  0.64677410  0.94771801  0.92164430  1
  Rh  Rh28  1  0.09464633  0.30540362  0.75000000  1
  Rh  Rh29  1  0.35322590  0.05228199  0.07835570  1
  Rh  Rh30  1  0.35322590  0.05228199  0.42164430  1
  Rh  Rh31  1  0.64677410  0.94771801  0.57835570  1
  Rh  Rh32  1  0.90535367  0.80540362  0.75000000  1
  Rh  Rh33  1  0.90535367  0.69459638  0.25000000  1
  Rh  Rh34  1  0.35322590  0.44771801  0.57835570  1
  Rh  Rh35  1  0.09464633  0.19459638  0.25000000  1
