# generated using pymatgen
data_Pu2O3
_symmetry_space_group_name_H-M   'P 1'
_cell_length_a   9.42948856
_cell_length_b   9.43599034
_cell_length_c   9.43080680
_cell_angle_alpha   109.39778930
_cell_angle_beta   109.35794055
_cell_angle_gamma   109.45586472
_symmetry_Int_Tables_number   1
_chemical_formula_structural   Pu2O3
_chemical_formula_sum   'Pu16 O24'
_cell_volume   647.56097750
_cell_formula_units_Z   8
loop_
 _symmetry_equiv_pos_site_id
 _symmetry_equiv_pos_as_xyz
  1  'x, y, z'
loop_
 _atom_site_type_symbol
 _atom_site_label
 _atom_site_symmetry_multiplicity
 _atom_site_fract_x
 _atom_site_fract_y
 _atom_site_fract_z
 _atom_site_occupancy
  Pu  Pu0  1  0.22524912  0.75024853  0.97466290  1
  Pu  Pu1  1  0.97472420  0.22530170  0.75013670  1
  Pu  Pu2  1  0.77472857  0.24975065  0.02530341  1
  Pu  Pu3  1  0.24986528  0.02532024  0.77480506  1
  Pu  Pu4  1  0.72398221  0.74971576  0.47420218  1
  Pu  Pu5  1  0.75016027  0.97472736  0.22522514  1
  Pu  Pu6  1  0.25025577  0.52582133  0.27594668  1
  Pu  Pu7  1  0.74973572  0.47415605  0.72405857  1
  Pu  Pu8  1  0.99997805  0.49999370  0.49997722  1
  Pu  Pu9  1  0.27600409  0.25029819  0.52579769  1
  Pu  Pu10  1  0.52578201  0.27600008  0.25023162  1
  Pu  Pu11  1  0.47421828  0.72400622  0.74978017  1
  Pu  Pu12  1  0.02531722  0.77473709  0.24984762  1
  Pu  Pu13  1  0.99996571  0.00000065  0.99996915  1
  Pu  Pu14  1  0.50002280  0.00000686  0.50001213  1
  Pu  Pu15  1  0.50001288  0.49999941  0.00002146  1
  O  O16  1  0.25951998  0.99139412  0.52643649  1
  O  O17  1  0.75940070  0.23256378  0.26798561  1
  O  O18  1  0.23251079  0.26794751  0.75929887  1
  O  O19  1  0.50816210  0.76856671  0.53525058  1
  O  O20  1  0.76846069  0.53530269  0.50829226  1
  O  O21  1  0.26431800  0.02717730  0.03536901  1
  O  O22  1  0.03544819  0.26425152  0.02717076  1
  O  O23  1  0.47360705  0.74047737  0.00867854  1
  O  O24  1  0.73203078  0.24066679  0.76744596  1
  O  O25  1  0.46475024  0.49180260  0.23149196  1
  O  O26  1  0.02722466  0.03525771  0.26424850  1
  O  O27  1  0.76751158  0.73203181  0.24069118  1
  O  O28  1  0.99127442  0.52642204  0.25944289  1
  O  O29  1  0.73566502  0.97281946  0.96466634  1
  O  O30  1  0.23152717  0.46471126  0.49174881  1
  O  O31  1  0.53524342  0.50818400  0.76848672  1
  O  O32  1  0.00872111  0.47357105  0.74052387  1
  O  O33  1  0.97278397  0.96469244  0.73572703  1
  O  O34  1  0.74048092  0.00860463  0.47357316  1
  O  O35  1  0.96450425  0.73567502  0.97277601  1
  O  O36  1  0.26795321  0.75931877  0.23251958  1
  O  O37  1  0.49183579  0.23144373  0.46477875  1
  O  O38  1  0.52641606  0.25954884  0.99135750  1
  O  O39  1  0.24064772  0.76748504  0.73206190  1
