# generated using pymatgen
data_Tb2Mn3Si5
_symmetry_space_group_name_H-M   'P 1'
_cell_length_a   5.45613071
_cell_length_b   10.59245261
_cell_length_c   10.59245261
_cell_angle_alpha   90.00000000
_cell_angle_beta   90.00000000
_cell_angle_gamma   90.00000000
_symmetry_Int_Tables_number   1
_chemical_formula_structural   Tb2Mn3Si5
_chemical_formula_sum   'Tb8 Mn12 Si20'
_cell_volume   612.17815099
_cell_formula_units_Z   4
loop_
 _symmetry_equiv_pos_site_id
 _symmetry_equiv_pos_as_xyz
  1  'x, y, z'
loop_
 _atom_site_type_symbol
 _atom_site_label
 _atom_site_symmetry_multiplicity
 _atom_site_fract_x
 _atom_site_fract_y
 _atom_site_fract_z
 _atom_site_occupancy
  Tb  Tb0  1  0.00000000  0.92540535  0.76394988  1
  Tb  Tb1  1  0.50000000  0.42540535  0.73605012  1
  Tb  Tb2  1  0.50000000  0.26394988  0.42540535  1
  Tb  Tb3  1  0.00000000  0.07459465  0.23605012  1
  Tb  Tb4  1  0.50000000  0.57459465  0.26394988  1
  Tb  Tb5  1  0.00000000  0.76394988  0.07459465  1
  Tb  Tb6  1  0.00000000  0.23605012  0.92540535  1
  Tb  Tb7  1  0.50000000  0.73605012  0.57459465  1
  Mn  Mn8  1  0.50000000  0.12155917  0.85434400  1
  Mn  Mn9  1  0.00000000  0.37844083  0.35434400  1
  Mn  Mn10  1  0.00000000  0.62155917  0.64565600  1
  Mn  Mn11  1  0.50000000  0.85434400  0.87844083  1
  Mn  Mn12  1  0.00000000  0.35434400  0.62155917  1
  Mn  Mn13  1  0.25000000  0.50000000  0.00000000  1
  Mn  Mn14  1  0.00000000  0.64565600  0.37844083  1
  Mn  Mn15  1  0.50000000  0.14565600  0.12155917  1
  Mn  Mn16  1  0.50000000  0.87844083  0.14565600  1
  Mn  Mn17  1  0.75000000  0.50000000  0.00000000  1
  Mn  Mn18  1  0.75000000  0.00000000  0.50000000  1
  Mn  Mn19  1  0.25000000  0.00000000  0.50000000  1
  Si  Si20  1  0.26476063  0.00000000  0.00000000  1
  Si  Si21  1  0.75000000  0.32518767  0.17481233  1
  Si  Si22  1  0.00000000  0.52346794  0.18430142  1
  Si  Si23  1  0.00000000  0.18430142  0.47653206  1
  Si  Si24  1  0.50000000  0.68430142  0.02346794  1
  Si  Si25  1  0.50000000  0.02346794  0.31569858  1
  Si  Si26  1  0.00000000  0.81569858  0.52346794  1
  Si  Si27  1  0.25000000  0.32518767  0.17481233  1
  Si  Si28  1  0.75000000  0.82518767  0.32518767  1
  Si  Si29  1  0.50000000  0.97653206  0.68430142  1
  Si  Si30  1  0.23523937  0.50000000  0.50000000  1
  Si  Si31  1  0.25000000  0.82518767  0.32518767  1
  Si  Si32  1  0.25000000  0.67481233  0.82518767  1
  Si  Si33  1  0.75000000  0.67481233  0.82518767  1
  Si  Si34  1  0.76476063  0.50000000  0.50000000  1
  Si  Si35  1  0.00000000  0.47653206  0.81569858  1
  Si  Si36  1  0.25000000  0.17481233  0.67481233  1
  Si  Si37  1  0.73523937  0.00000000  0.00000000  1
  Si  Si38  1  0.50000000  0.31569858  0.97653206  1
  Si  Si39  1  0.75000000  0.17481233  0.67481233  1
