# generated using pymatgen
data_CsLi(H2N)2
_symmetry_space_group_name_H-M   'P 1'
_cell_length_a   6.50275440
_cell_length_b   6.50275456
_cell_length_c   8.51075896
_cell_angle_alpha   90.00000000
_cell_angle_beta   90.00000000
_cell_angle_gamma   119.99999918
_symmetry_Int_Tables_number   1
_chemical_formula_structural   CsLi(H2N)2
_chemical_formula_sum   'Cs3 Li3 H12 N6'
_cell_volume   311.66902321
_cell_formula_units_Z   3
loop_
 _symmetry_equiv_pos_site_id
 _symmetry_equiv_pos_as_xyz
  1  'x, y, z'
loop_
 _atom_site_type_symbol
 _atom_site_label
 _atom_site_symmetry_multiplicity
 _atom_site_fract_x
 _atom_site_fract_y
 _atom_site_fract_z
 _atom_site_occupancy
  Cs  Cs0  1  0.50000000  0.50000000  0.83333300  1
  Cs  Cs1  1  0.50000000  0.00000000  0.50000000  1
  Cs  Cs2  1  0.00000000  0.50000000  0.16666700  1
  Li  Li3  1  0.00000000  0.00000000  0.33333300  1
  Li  Li4  1  0.00000000  0.00000000  0.00000000  1
  Li  Li5  1  0.00000000  0.00000000  0.66666700  1
  H  H6  1  0.39405064  0.08817108  0.12134408  1
  H  H7  1  0.91182892  0.30587956  0.78801108  1
  H  H8  1  0.69412044  0.60594936  0.45467808  1
  H  H9  1  0.60594936  0.91182892  0.12134408  1
  H  H10  1  0.08817108  0.69412044  0.78801108  1
  H  H11  1  0.30587956  0.39405064  0.45467808  1
  H  H12  1  0.08817108  0.39405064  0.54532192  1
  H  H13  1  0.30587956  0.91182892  0.87865592  1
  H  H14  1  0.60594936  0.69412044  0.21198892  1
  H  H15  1  0.91182892  0.60594936  0.54532192  1
  H  H16  1  0.69412044  0.08817108  0.87865592  1
  H  H17  1  0.39405064  0.30587956  0.21198892  1
  N  N18  1  0.14060221  0.85939779  0.83333300  1
  N  N19  1  0.14060221  0.28120441  0.50000000  1
  N  N20  1  0.71879559  0.85939779  0.16666700  1
  N  N21  1  0.85939779  0.14060221  0.83333300  1
  N  N22  1  0.85939779  0.71879559  0.50000000  1
  N  N23  1  0.28120441  0.14060221  0.16666700  1
