# generated using pymatgen
data_Hg4Pb2N6O19
_symmetry_space_group_name_H-M   'P 1'
_cell_length_a   11.22209549
_cell_length_b   11.22431050
_cell_length_c   11.22234674
_cell_angle_alpha   60.01447220
_cell_angle_beta   60.01409291
_cell_angle_gamma   60.01006226
_symmetry_Int_Tables_number   1
_chemical_formula_structural   Hg4Pb2N6O19
_chemical_formula_sum   'Hg8 Pb4 N12 O38'
_cell_volume   999.83668809
_cell_formula_units_Z   2
loop_
 _symmetry_equiv_pos_site_id
 _symmetry_equiv_pos_as_xyz
  1  'x, y, z'
loop_
 _atom_site_type_symbol
 _atom_site_label
 _atom_site_symmetry_multiplicity
 _atom_site_fract_x
 _atom_site_fract_y
 _atom_site_fract_z
 _atom_site_occupancy
  Hg  Hg0  1  0.36159967  0.04608118  0.04621407  1
  Hg  Hg1  1  0.04617550  0.04610190  0.04618450  1
  Hg  Hg2  1  0.95381223  0.63842767  0.95373610  1
  Hg  Hg3  1  0.95394496  0.95385834  0.63840265  1
  Hg  Hg4  1  0.63843343  0.95384239  0.95381708  1
  Hg  Hg5  1  0.04604843  0.36157134  0.04631630  1
  Hg  Hg6  1  0.95379917  0.95387336  0.95387958  1
  Hg  Hg7  1  0.04615629  0.04609534  0.36157544  1
  Pb  Pb8  1  0.99985243  0.50012715  0.50004459  1
  Pb  Pb9  1  0.49979392  0.50010689  0.00013135  1
  Pb  Pb10  1  0.50001246  0.00022374  0.49980129  1
  Pb  Pb11  1  0.50020685  0.49991239  0.50007449  1
  N  N12  1  0.13438737  0.61547119  0.13472750  1
  N  N13  1  0.86552960  0.38454573  0.86530827  1
  N  N14  1  0.86544635  0.38456412  0.38460977  1
  N  N15  1  0.38447135  0.86545805  0.86546840  1
  N  N16  1  0.38456573  0.86526520  0.38457760  1
  N  N17  1  0.61545264  0.61544056  0.13471761  1
  N  N18  1  0.86556935  0.86533974  0.38454094  1
  N  N19  1  0.61553427  0.13458920  0.61541640  1
  N  N20  1  0.13455579  0.61542429  0.61539030  1
  N  N21  1  0.38456655  0.38460964  0.86526798  1
  N  N22  1  0.13442321  0.13469182  0.61544144  1
  N  N23  1  0.61546428  0.13460719  0.13453632  1
  O  O24  1  0.65500227  0.19323641  0.99684397  1
  O  O25  1  0.65497810  0.65500494  0.99676387  1
  O  O26  1  0.21526776  0.21523711  0.53476008  1
  O  O27  1  0.80674704  0.00298943  0.34519507  1
  O  O28  1  0.65502137  0.19320364  0.65487029  1
  O  O29  1  0.99693841  0.65492637  0.65489327  1
  O  O30  1  0.00300123  0.34501585  0.80688487  1
  O  O31  1  0.00305343  0.34507258  0.34509742  1
  O  O32  1  0.78475330  0.46518122  0.46530437  1
  O  O33  1  0.53469507  0.21532912  0.21528851  1
  O  O34  1  0.21525499  0.53474876  0.21532964  1
  O  O35  1  0.34509420  0.80689598  0.34504323  1
  O  O36  1  0.65496009  0.65488004  0.19322500  1
  O  O37  1  0.53474109  0.53474480  0.21521854  1
  O  O38  1  0.21525923  0.53469447  0.53473874  1
  O  O39  1  0.80678826  0.34505817  0.34503426  1
  O  O40  1  0.19328239  0.99690320  0.65491423  1
  O  O41  1  0.46522352  0.46520820  0.78478269  1
  O  O42  1  0.34500348  0.34511517  0.00313783  1
  O  O43  1  0.19327067  0.65498207  0.99682432  1
  O  O44  1  0.34503375  0.00308264  0.80679569  1
  O  O45  1  0.34508333  0.00306305  0.34513369  1
  O  O46  1  0.80670704  0.34502505  0.00318690  1
  O  O47  1  0.34504801  0.80677357  0.00303109  1
  O  O48  1  0.46523747  0.78472824  0.46527184  1
  O  O49  1  0.78472543  0.78467501  0.46525681  1
  O  O50  1  0.12506565  0.12499986  0.12503422  1
  O  O51  1  0.53474053  0.21525729  0.53468899  1
  O  O52  1  0.46518115  0.78477330  0.78463406  1
  O  O53  1  0.34506598  0.34509766  0.80680764  1
  O  O54  1  0.00294747  0.80681273  0.34508502  1
  O  O55  1  0.65497667  0.99690365  0.19325355  1
  O  O56  1  0.87497658  0.87501319  0.87493423  1
  O  O57  1  0.19324135  0.65497706  0.65487971  1
  O  O58  1  0.99696247  0.65493693  0.19317459  1
  O  O59  1  0.99708985  0.19310683  0.65487490  1
  O  O60  1  0.65502360  0.99688815  0.65489116  1
  O  O61  1  0.78475595  0.46522984  0.78473570  1
