# generated using pymatgen
data_Gd2Al6Si4Au
_symmetry_space_group_name_H-M   'P 1'
_cell_length_a   16.93883536
_cell_length_b   16.93883545
_cell_length_c   16.93883538
_cell_angle_alpha   14.36396172
_cell_angle_beta   14.36396054
_cell_angle_gamma   14.36396022
_symmetry_Int_Tables_number   1
_chemical_formula_structural   Gd2Al6Si4Au
_chemical_formula_sum   'Gd2 Al6 Si4 Au1'
_cell_volume   260.39664134
_cell_formula_units_Z   1
loop_
 _symmetry_equiv_pos_site_id
 _symmetry_equiv_pos_as_xyz
  1  'x, y, z'
loop_
 _atom_site_type_symbol
 _atom_site_label
 _atom_site_symmetry_multiplicity
 _atom_site_fract_x
 _atom_site_fract_y
 _atom_site_fract_z
 _atom_site_occupancy
  Gd  Gd0  1  0.56561565  0.56561565  0.56561565  1
  Gd  Gd1  1  0.43438435  0.43438435  0.43438435  1
  Al  Al2  1  0.18540781  0.18540781  0.18540781  1
  Al  Al3  1  0.05240790  0.05240790  0.05240790  1
  Al  Al4  1  0.81459219  0.81459219  0.81459219  1
  Al  Al5  1  0.94759210  0.94759210  0.94759210  1
  Al  Al6  1  0.68330598  0.68330598  0.68330598  1
  Al  Al7  1  0.31669402  0.31669402  0.31669402  1
  Si  Si8  1  0.73387513  0.73387513  0.73387513  1
  Si  Si9  1  0.26612487  0.26612487  0.26612487  1
  Si  Si10  1  0.13543318  0.13543318  0.13543318  1
  Si  Si11  1  0.86456682  0.86456682  0.86456682  1
  Au  Au12  1  0.00000000  0.00000000  0.00000000  1
