# generated using pymatgen
data_NaHSO4
_symmetry_space_group_name_H-M   'P 1'
_cell_length_a   8.90224921
_cell_length_b   7.60294918
_cell_length_c   5.18827529
_cell_angle_alpha   90.00000000
_cell_angle_beta   100.25745425
_cell_angle_gamma   90.00000000
_symmetry_Int_Tables_number   1
_chemical_formula_structural   NaHSO4
_chemical_formula_sum   'Na4 H4 S4 O16'
_cell_volume   345.54744532
_cell_formula_units_Z   4
loop_
 _symmetry_equiv_pos_site_id
 _symmetry_equiv_pos_as_xyz
  1  'x, y, z'
loop_
 _atom_site_type_symbol
 _atom_site_label
 _atom_site_symmetry_multiplicity
 _atom_site_fract_x
 _atom_site_fract_y
 _atom_site_fract_z
 _atom_site_occupancy
  Na  Na0  1  0.29851612  0.99073126  0.28540914  1
  Na  Na1  1  0.79851612  0.50926874  0.78540914  1
  Na  Na2  1  0.70148388  0.00926874  0.71459086  1
  Na  Na3  1  0.20148388  0.49073126  0.21459086  1
  H  H4  1  0.12702503  0.03852618  0.74639120  1
  H  H5  1  0.62702503  0.46147382  0.24639120  1
  H  H6  1  0.87297497  0.96147382  0.25360880  1
  H  H7  1  0.37297497  0.53852618  0.75360880  1
  S  S8  1  0.06378806  0.77374091  0.65929027  1
  S  S9  1  0.56378806  0.72625909  0.15929027  1
  S  S10  1  0.93621194  0.22625909  0.34070973  1
  S  S11  1  0.43621194  0.27374091  0.84070973  1
  O  O12  1  0.16562650  0.75683771  0.46705437  1
  O  O13  1  0.66562650  0.74316229  0.96705437  1
  O  O14  1  0.83437350  0.24316229  0.53294563  1
  O  O15  1  0.33437350  0.25683771  0.03294563  1
  O  O16  1  0.90799824  0.82988504  0.54145308  1
  O  O17  1  0.40799824  0.67011496  0.04145308  1
  O  O18  1  0.09200176  0.17011496  0.45854692  1
  O  O19  1  0.59200176  0.32988504  0.95854692  1
  O  O20  1  0.13350291  0.92868705  0.85556963  1
  O  O21  1  0.63350291  0.57131295  0.35556963  1
  O  O22  1  0.86649709  0.07131295  0.14443037  1
  O  O23  1  0.36649709  0.42868705  0.64443037  1
  O  O24  1  0.06210772  0.62015353  0.82572312  1
  O  O25  1  0.56210772  0.87984647  0.32572312  1
  O  O26  1  0.93789228  0.37984647  0.17427688  1
  O  O27  1  0.43789228  0.12015353  0.67427688  1
