# generated using pymatgen
data_Sm2Th8O19
_symmetry_space_group_name_H-M   'P 1'
_cell_length_a   3.91437818
_cell_length_b   39.19046828
_cell_length_c   37.38972583
_cell_angle_alpha   5.20395178
_cell_angle_beta   58.43561838
_cell_angle_gamma   60.03940354
_symmetry_Int_Tables_number   1
_chemical_formula_structural   Sm2Th8O19
_chemical_formula_sum   'Sm2 Th8 O19'
_cell_volume   425.11596935
_cell_formula_units_Z   1
loop_
 _symmetry_equiv_pos_site_id
 _symmetry_equiv_pos_as_xyz
  1  'x, y, z'
loop_
 _atom_site_type_symbol
 _atom_site_label
 _atom_site_symmetry_multiplicity
 _atom_site_fract_x
 _atom_site_fract_y
 _atom_site_fract_z
 _atom_site_occupancy
  Sm  Sm0  1  0.02570605  0.82056484  0.97429395  1
  Sm  Sm1  1  0.97429395  0.87943516  0.02570605  1
  Th  Th2  1  0.00558058  0.00446446  0.99441942  1
  Th  Th3  1  0.00248099  0.10198479  0.99751901  1
  Th  Th4  1  0.00049569  0.20039655  0.99950431  1
  Th  Th5  1  0.99996240  0.39996992  0.00003760  1
  Th  Th6  1  0.00003760  0.30003008  0.99996240  1
  Th  Th7  1  0.99950431  0.49960345  0.00049569  1
  Th  Th8  1  0.99441942  0.69553554  0.00558058  1
  Th  Th9  1  0.99751901  0.59801521  0.00248099  1
  O  O10  1  0.25022799  0.00018239  0.24977201  1
  O  O11  1  0.25000000  0.10000000  0.25000000  1
  O  O12  1  0.24977201  0.19981761  0.25022799  1
  O  O13  1  0.24966342  0.29973074  0.25033658  1
  O  O14  1  0.24218324  0.39374659  0.25781676  1
  O  O15  1  0.25810098  0.50648079  0.24189902  1
  O  O16  1  0.72766823  0.98213459  0.77233177  1
  O  O17  1  0.75000000  0.10000000  0.75000000  1
  O  O18  1  0.24189902  0.69351921  0.25810098  1
  O  O19  1  0.77233177  0.21786541  0.72766823  1
  O  O20  1  0.25781676  0.80625341  0.24218324  1
  O  O21  1  0.75007040  0.30005632  0.74992960  1
  O  O22  1  0.25033658  0.90026926  0.24966342  1
  O  O23  1  0.75180560  0.40144448  0.74819440  1
  O  O24  1  0.74999327  0.49999461  0.75000673  1
  O  O25  1  0.75000000  0.60000000  0.75000000  1
  O  O26  1  0.75000673  0.70000539  0.74999327  1
  O  O27  1  0.74819440  0.79855552  0.75180560  1
  O  O28  1  0.74992960  0.89994368  0.75007040  1
