# generated using pymatgen
data_Ca2AlH10IO8
_symmetry_space_group_name_H-M   'P 1'
_cell_length_a   9.91268035
_cell_length_b   9.82320025
_cell_length_c   10.04124457
_cell_angle_alpha   33.99116221
_cell_angle_beta   33.91566972
_cell_angle_gamma   34.60685075
_symmetry_Int_Tables_number   1
_chemical_formula_structural   Ca2AlH10IO8
_chemical_formula_sum   'Ca2 Al1 H10 I1 O8'
_cell_volume   274.95710489
_cell_formula_units_Z   1
loop_
 _symmetry_equiv_pos_site_id
 _symmetry_equiv_pos_as_xyz
  1  'x, y, z'
loop_
 _atom_site_type_symbol
 _atom_site_label
 _atom_site_symmetry_multiplicity
 _atom_site_fract_x
 _atom_site_fract_y
 _atom_site_fract_z
 _atom_site_occupancy
  Ca  Ca0  1  0.32050865  0.30174294  0.31811028  1
  Ca  Ca1  1  0.69084554  0.68565422  0.68171735  1
  Al  Al2  1  0.00475046  0.99436063  0.00150966  1
  H  H3  1  0.10170573  0.29492557  0.22441520  1
  H  H4  1  0.33790955  0.00489574  0.28237898  1
  H  H5  1  0.18965938  0.76087174  0.25596504  1
  H  H6  1  0.28263926  0.20133017  0.71946919  1
  H  H7  1  0.73582963  0.30036770  0.16997009  1
  H  H8  1  0.27322084  0.70199077  0.82153577  1
  H  H9  1  0.71729645  0.80157281  0.27601211  1
  H  H10  1  0.81750491  0.23236535  0.74442562  1
  H  H11  1  0.66424312  0.84689001  0.86591434  1
  H  H12  1  0.97099752  0.71346451  0.68755795  1
  I  I13  1  0.53210846  0.54134676  0.42489961  1
  O  O14  1  0.26040390  0.19086763  0.23216751  1
  O  O15  1  0.09890183  0.72862900  0.28019261  1
  O  O16  1  0.29366811  0.08903950  0.72528144  1
  O  O17  1  0.73527836  0.28827650  0.08373510  1
  O  O18  1  0.27507027  0.70292715  0.91599286  1
  O  O19  1  0.71677176  0.89637099  0.28133157  1
  O  O20  1  0.91409746  0.25659457  0.72169229  1
  O  O21  1  0.78998881  0.80551576  0.72242542  1
