# generated using pymatgen
data_BaSn2(HO2)2
_symmetry_space_group_name_H-M   'P 1'
_cell_length_a   7.66501772
_cell_length_b   5.89411722
_cell_length_c   7.30907675
_cell_angle_alpha   90.00000000
_cell_angle_beta   108.12881137
_cell_angle_gamma   90.00000000
_symmetry_Int_Tables_number   1
_chemical_formula_structural   BaSn2(HO2)2
_chemical_formula_sum   'Ba2 Sn4 H4 O8'
_cell_volume   313.82123192
_cell_formula_units_Z   2
loop_
 _symmetry_equiv_pos_site_id
 _symmetry_equiv_pos_as_xyz
  1  'x, y, z'
loop_
 _atom_site_type_symbol
 _atom_site_label
 _atom_site_symmetry_multiplicity
 _atom_site_fract_x
 _atom_site_fract_y
 _atom_site_fract_z
 _atom_site_occupancy
  Ba  Ba0  1  0.56823049  0.49421098  0.81065091  1
  Ba  Ba1  1  0.43176951  0.99421098  0.18934909  1
  Sn  Sn2  1  0.85391425  0.50404482  0.34790173  1
  Sn  Sn3  1  0.14608575  0.00404482  0.65209827  1
  Sn  Sn4  1  0.11129767  0.50344560  0.91187584  1
  Sn  Sn5  1  0.88870233  0.00344560  0.08812416  1
  H  H6  1  0.52017320  0.50597211  0.36734974  1
  H  H7  1  0.47982680  0.00597211  0.63265026  1
  H  H8  1  0.21287437  0.50219827  0.29089685  1
  H  H9  1  0.78712563  0.00219827  0.70910315  1
  O  O10  1  0.27717443  0.25007714  0.85917377  1
  O  O11  1  0.72282557  0.75007714  0.14082623  1
  O  O12  1  0.72127253  0.25103048  0.14970173  1
  O  O13  1  0.27872747  0.75103048  0.85029827  1
  O  O14  1  0.64010968  0.52000586  0.47023940  1
  O  O15  1  0.35989032  0.02000586  0.52976060  1
  O  O16  1  0.29089264  0.50901474  0.20681699  1
  O  O17  1  0.70910736  0.00901474  0.79318301  1
