# generated using pymatgen
data_CdH2SeO5
_symmetry_space_group_name_H-M   'P 1'
_cell_length_a   7.93896678
_cell_length_b   7.81794412
_cell_length_c   8.56871492
_cell_angle_alpha   90.00000000
_cell_angle_beta   122.76182257
_cell_angle_gamma   90.00000000
_symmetry_Int_Tables_number   1
_chemical_formula_structural   CdH2SeO5
_chemical_formula_sum   'Cd4 H8 Se4 O20'
_cell_volume   447.22979410
_cell_formula_units_Z   4
loop_
 _symmetry_equiv_pos_site_id
 _symmetry_equiv_pos_as_xyz
  1  'x, y, z'
loop_
 _atom_site_type_symbol
 _atom_site_label
 _atom_site_symmetry_multiplicity
 _atom_site_fract_x
 _atom_site_fract_y
 _atom_site_fract_z
 _atom_site_occupancy
  Cd  Cd0  1  0.21125141  0.26270011  0.75750927  1
  Cd  Cd1  1  0.78874859  0.76270011  0.74249073  1
  Cd  Cd2  1  0.78874859  0.73729989  0.24249073  1
  Cd  Cd3  1  0.21125141  0.23729989  0.25750927  1
  H  H4  1  0.20272404  0.50551906  0.01379161  1
  H  H5  1  0.79727596  0.00551906  0.48620839  1
  H  H6  1  0.79727596  0.49448094  0.98620839  1
  H  H7  1  0.20272404  0.99448094  0.51379161  1
  H  H8  1  0.41817686  0.42419197  0.11741437  1
  H  H9  1  0.58182314  0.92419197  0.38258563  1
  H  H10  1  0.58182314  0.57580803  0.88258563  1
  H  H11  1  0.41817686  0.07580803  0.61741437  1
  Se  Se12  1  0.26327205  0.88265167  0.01655317  1
  Se  Se13  1  0.73672795  0.38265167  0.48344683  1
  Se  Se14  1  0.73672795  0.11734833  0.98344683  1
  Se  Se15  1  0.26327205  0.61734833  0.51655317  1
  O  O16  1  0.11829878  0.00975812  0.83481199  1
  O  O17  1  0.88170122  0.50975812  0.66518801  1
  O  O18  1  0.88170122  0.99024188  0.16518801  1
  O  O19  1  0.11829878  0.49024188  0.33481199  1
  O  O20  1  0.34706694  0.99075468  0.21670870  1
  O  O21  1  0.65293306  0.49075468  0.28329130  1
  O  O22  1  0.65293306  0.00924532  0.78329130  1
  O  O23  1  0.34706694  0.50924532  0.71670870  1
  O  O24  1  0.45676503  0.80208478  0.01631152  1
  O  O25  1  0.54323497  0.30208478  0.48368848  1
  O  O26  1  0.54323497  0.19791522  0.98368848  1
  O  O27  1  0.45676503  0.69791522  0.51631152  1
  O  O28  1  0.10893661  0.72339604  0.99683966  1
  O  O29  1  0.89106339  0.22339604  0.50316034  1
  O  O30  1  0.89106339  0.27660396  0.00316034  1
  O  O31  1  0.10893661  0.77660396  0.49683966  1
  O  O32  1  0.27253500  0.39299386  0.03965125  1
  O  O33  1  0.72746500  0.89299386  0.46034875  1
  O  O34  1  0.72746500  0.60700614  0.96034875  1
  O  O35  1  0.27253500  0.10700614  0.53965125  1
