# generated using pymatgen
data_TlB5O8
_symmetry_space_group_name_H-M   'P 1'
_cell_length_a   7.67020909
_cell_length_b   12.06016521
_cell_length_c   14.95563286
_cell_angle_alpha   90.00000000
_cell_angle_beta   90.00000000
_cell_angle_gamma   90.00000000
_symmetry_Int_Tables_number   1
_chemical_formula_structural   TlB5O8
_chemical_formula_sum   'Tl8 B40 O64'
_cell_volume   1383.45569489
_cell_formula_units_Z   8
loop_
 _symmetry_equiv_pos_site_id
 _symmetry_equiv_pos_as_xyz
  1  'x, y, z'
loop_
 _atom_site_type_symbol
 _atom_site_label
 _atom_site_symmetry_multiplicity
 _atom_site_fract_x
 _atom_site_fract_y
 _atom_site_fract_z
 _atom_site_occupancy
  Tl  Tl0  1  0.56651903  0.29198637  0.87755870  1
  Tl  Tl1  1  0.56651903  0.20801363  0.37755870  1
  Tl  Tl2  1  0.43348097  0.70801363  0.12244130  1
  Tl  Tl3  1  0.06651903  0.20801363  0.12244130  1
  Tl  Tl4  1  0.06651903  0.29198637  0.62244130  1
  Tl  Tl5  1  0.43348097  0.79198637  0.62244130  1
  Tl  Tl6  1  0.93348097  0.70801363  0.37755870  1
  Tl  Tl7  1  0.93348097  0.79198637  0.87755870  1
  B  B8  1  0.45454548  0.72570925  0.37355033  1
  B  B9  1  0.69080085  0.42997396  0.54434133  1
  B  B10  1  0.52277661  0.97321273  0.84357571  1
  B  B11  1  0.47722339  0.47321273  0.65642429  1
  B  B12  1  0.92020942  0.89962149  0.21325930  1
  B  B13  1  0.97722339  0.02678727  0.34357571  1
  B  B14  1  0.59667873  0.90551964  0.41838228  1
  B  B15  1  0.92020942  0.60037851  0.71325930  1
  B  B16  1  0.45454548  0.77429075  0.87355033  1
  B  B17  1  0.19080085  0.07002604  0.45565867  1
  B  B18  1  0.90332127  0.40551964  0.41838228  1
  B  B19  1  0.57979058  0.10037851  0.71325930  1
  B  B20  1  0.07979058  0.10037851  0.78674070  1
  B  B21  1  0.02277661  0.52678727  0.15642429  1
  B  B22  1  0.54545452  0.22570925  0.12644967  1
  B  B23  1  0.80919915  0.92997396  0.54434133  1
  B  B24  1  0.04545452  0.22570925  0.37355033  1
  B  B25  1  0.69080085  0.07002604  0.04434133  1
  B  B26  1  0.90332127  0.09448036  0.91838228  1
  B  B27  1  0.80919915  0.57002604  0.04434133  1
  B  B28  1  0.40332127  0.40551964  0.08161772  1
  B  B29  1  0.95454548  0.72570925  0.12644967  1
  B  B30  1  0.02277661  0.97321273  0.65642429  1
  B  B31  1  0.04545452  0.27429075  0.87355033  1
  B  B32  1  0.40332127  0.09448036  0.58161772  1
  B  B33  1  0.42020942  0.89962149  0.28674070  1
  B  B34  1  0.47722339  0.02678727  0.15642429  1
  B  B35  1  0.30919915  0.92997396  0.95565867  1
  B  B36  1  0.09667873  0.90551964  0.08161772  1
  B  B37  1  0.19080085  0.42997396  0.95565867  1
  B  B38  1  0.09667873  0.59448036  0.58161772  1
  B  B39  1  0.52277661  0.52678727  0.34357571  1
  B  B40  1  0.07979058  0.39962149  0.28674070  1
  B  B41  1  0.30919915  0.57002604  0.45565867  1
  B  B42  1  0.59667873  0.59448036  0.91838228  1
  B  B43  1  0.42020942  0.60037851  0.78674070  1
  B  B44  1  0.54545452  0.27429075  0.62644967  1
  B  B45  1  0.95454548  0.77429075  0.62644967  1
  B  B46  1  0.97722339  0.47321273  0.84357571  1
  B  B47  1  0.57979058  0.39962149  0.21325930  1
  O  O48  1  0.32364744  0.82077883  0.93538041  1
  O  O49  1  0.92138836  0.20599641  0.92632048  1
  O  O50  1  0.86935946  0.70622037  0.69635349  1
  O  O51  1  0.59669439  0.50965967  0.59226194  1
  O  O52  1  0.38951577  0.55634665  0.70306854  1
  O  O53  1  0.44595040  0.36433113  0.67203349  1
  O  O54  1  0.30081026  0.46826916  0.02357278  1
  O  O55  1  0.69918974  0.96826916  0.47642722  1
  O  O56  1  0.13064054  0.29377963  0.30364651  1
  O  O57  1  0.17635256  0.32077883  0.93538041  1
  O  O58  1  0.36935946  0.79377963  0.30364651  1
  O  O59  1  0.01244085  0.53707145  0.65051265  1
  O  O60  1  0.82364744  0.82077883  0.56461959  1
  O  O61  1  0.90330561  0.49034033  0.09226194  1
  O  O62  1  0.17635256  0.17922117  0.43538041  1
  O  O63  1  0.30081026  0.03173084  0.52357278  1
  O  O64  1  0.44595040  0.13566887  0.17203349  1
  O  O65  1  0.69918974  0.53173084  0.97642722  1
  O  O66  1  0.63064054  0.20622037  0.69635349  1
  O  O67  1  0.36935946  0.70622037  0.80364651  1
  O  O68  1  0.09669439  0.99034033  0.40773806  1
  O  O69  1  0.11048423  0.05634665  0.70306854  1
  O  O70  1  0.11048423  0.44365335  0.20306854  1
  O  O71  1  0.67635256  0.32077883  0.56461959  1
  O  O72  1  0.61048423  0.44365335  0.29693146  1
  O  O73  1  0.05404960  0.86433113  0.67203349  1
  O  O74  1  0.94595040  0.36433113  0.82796651  1
  O  O75  1  0.94595040  0.13566887  0.32796651  1
  O  O76  1  0.48755915  0.03707145  0.65051265  1
  O  O77  1  0.57861164  0.70599641  0.92632048  1
  O  O78  1  0.59669439  0.99034033  0.09226194  1
  O  O79  1  0.40330561  0.00965967  0.90773806  1
  O  O80  1  0.42138836  0.29400359  0.07367952  1
  O  O81  1  0.98755915  0.03707145  0.84948735  1
  O  O82  1  0.13064054  0.20622037  0.80364651  1
  O  O83  1  0.92138836  0.29400359  0.42632048  1
  O  O84  1  0.19918974  0.96826916  0.02357278  1
  O  O85  1  0.05404960  0.63566887  0.17203349  1
  O  O86  1  0.51244085  0.96292855  0.34948735  1
  O  O87  1  0.48755915  0.46292855  0.15051265  1
  O  O88  1  0.01244085  0.96292855  0.15051265  1
  O  O89  1  0.51244085  0.53707145  0.84948735  1
  O  O90  1  0.80081026  0.46826916  0.47642722  1
  O  O91  1  0.67635256  0.17922117  0.06461959  1
  O  O92  1  0.63064054  0.29377963  0.19635349  1
  O  O93  1  0.19918974  0.53173084  0.52357278  1
  O  O94  1  0.40330561  0.49034033  0.40773806  1
  O  O95  1  0.42138836  0.20599641  0.57367952  1
  O  O96  1  0.57861164  0.79400359  0.42632048  1
  O  O97  1  0.80081026  0.03173084  0.97642722  1
  O  O98  1  0.82364744  0.67922117  0.06461959  1
  O  O99  1  0.07861164  0.70599641  0.57367952  1
  O  O100  1  0.09669439  0.50965967  0.90773806  1
  O  O101  1  0.32364744  0.67922117  0.43538041  1
  O  O102  1  0.88951577  0.94365335  0.29693146  1
  O  O103  1  0.07861164  0.79400359  0.07367952  1
  O  O104  1  0.88951577  0.55634665  0.79693146  1
  O  O105  1  0.61048423  0.05634665  0.79693146  1
  O  O106  1  0.55404960  0.86433113  0.82796651  1
  O  O107  1  0.90330561  0.00965967  0.59226194  1
  O  O108  1  0.55404960  0.63566887  0.32796651  1
  O  O109  1  0.86935946  0.79377963  0.19635349  1
  O  O110  1  0.98755915  0.46292855  0.34948735  1
  O  O111  1  0.38951577  0.94365335  0.20306854  1
