# generated using pymatgen
data_La10Ga5Br4
_symmetry_space_group_name_H-M   'P 1'
_cell_length_a   8.20772694
_cell_length_b   8.20772728
_cell_length_c   17.29007197
_cell_angle_alpha   103.73040759
_cell_angle_beta   103.73040815
_cell_angle_gamma   90.00000184
_symmetry_Int_Tables_number   1
_chemical_formula_structural   La10Ga5Br4
_chemical_formula_sum   'La20 Ga10 Br8'
_cell_volume   1097.19626997
_cell_formula_units_Z   2
loop_
 _symmetry_equiv_pos_site_id
 _symmetry_equiv_pos_as_xyz
  1  'x, y, z'
loop_
 _atom_site_type_symbol
 _atom_site_label
 _atom_site_symmetry_multiplicity
 _atom_site_fract_x
 _atom_site_fract_y
 _atom_site_fract_z
 _atom_site_occupancy
  La  La0  1  0.62931423  0.12931423  0.59264728  1
  La  La1  1  0.90206395  0.40206395  0.14641007  1
  La  La2  1  0.24434612  0.74434612  0.14641007  1
  La  La3  1  0.87068577  0.03666695  0.40735272  1
  La  La4  1  0.53666695  0.37068577  0.40735272  1
  La  La5  1  0.09793605  0.59793605  0.85358993  1
  La  La6  1  0.40206395  0.24434612  0.14641007  1
  La  La7  1  0.12931423  0.96333305  0.59264728  1
  La  La8  1  0.15377645  0.15377645  0.30755290  1
  La  La9  1  0.46333305  0.62931423  0.59264728  1
  La  La10  1  0.34622355  0.34622355  0.69244710  1
  La  La11  1  0.03666695  0.53666695  0.40735272  1
  La  La12  1  0.25565388  0.09793605  0.85358993  1
  La  La13  1  0.84622355  0.84622355  0.69244710  1
  La  La14  1  0.75565388  0.25565388  0.85358993  1
  La  La15  1  0.96333305  0.46333305  0.59264728  1
  La  La16  1  0.37068577  0.87068577  0.40735272  1
  La  La17  1  0.74434612  0.90206395  0.14641007  1
  La  La18  1  0.65377645  0.65377645  0.30755290  1
  La  La19  1  0.59793605  0.75565388  0.85358993  1
  Ga  Ga20  1  0.98721252  0.24261769  0.72983020  1
  Ga  Ga21  1  0.74261769  0.48721252  0.72983020  1
  Ga  Ga22  1  0.75738231  0.25738231  0.27016980  1
  Ga  Ga23  1  0.24261769  0.74261769  0.72983020  1
  Ga  Ga24  1  0.25738231  0.51278748  0.27016980  1
  Ga  Ga25  1  0.75000000  0.75000000  0.50000000  1
  Ga  Ga26  1  0.48721252  0.98721252  0.72983020  1
  Ga  Ga27  1  0.01278748  0.75738231  0.27016980  1
  Ga  Ga28  1  0.25000000  0.25000000  0.50000000  1
  Ga  Ga29  1  0.51278748  0.01278748  0.27016980  1
  Br  Br30  1  0.55580456  0.55580456  0.11160911  1
  Br  Br31  1  0.35719095  0.85719095  0.00000000  1
  Br  Br32  1  0.14280905  0.35719095  0.00000000  1
  Br  Br33  1  0.64280905  0.14280905  0.00000000  1
  Br  Br34  1  0.94419544  0.94419544  0.88839089  1
  Br  Br35  1  0.05580456  0.05580456  0.11160911  1
  Br  Br36  1  0.85719095  0.64280905  0.00000000  1
  Br  Br37  1  0.44419544  0.44419544  0.88839089  1
