# generated using pymatgen
data_K2Co2(MoO4)3
_symmetry_space_group_name_H-M   'P 1'
_cell_length_a   7.10596861
_cell_length_b   9.16318523
_cell_length_c   19.29318828
_cell_angle_alpha   90.00000000
_cell_angle_beta   92.14139397
_cell_angle_gamma   90.00000000
_symmetry_Int_Tables_number   1
_chemical_formula_structural   K2Co2(MoO4)3
_chemical_formula_sum   'K8 Co8 Mo12 O48'
_cell_volume   1255.36599777
_cell_formula_units_Z   4
loop_
 _symmetry_equiv_pos_site_id
 _symmetry_equiv_pos_as_xyz
  1  'x, y, z'
loop_
 _atom_site_type_symbol
 _atom_site_label
 _atom_site_symmetry_multiplicity
 _atom_site_fract_x
 _atom_site_fract_y
 _atom_site_fract_z
 _atom_site_occupancy
  K  K0  1  0.23483669  0.97838027  0.72427025  1
  K  K1  1  0.76516331  0.02161973  0.27572975  1
  K  K2  1  0.71830269  0.45618505  0.90771810  1
  K  K3  1  0.73483669  0.52161973  0.22427025  1
  K  K4  1  0.78169731  0.95618505  0.59228190  1
  K  K5  1  0.28169731  0.54381495  0.09228190  1
  K  K6  1  0.21830269  0.04381495  0.40771810  1
  K  K7  1  0.26516331  0.47838027  0.77572975  1
  Co  Co8  1  0.91132592  0.34724874  0.63538058  1
  Co  Co9  1  0.36619761  0.42459990  0.44028856  1
  Co  Co10  1  0.86619761  0.07540010  0.94028856  1
  Co  Co11  1  0.13380239  0.92459990  0.05971144  1
  Co  Co12  1  0.41132592  0.15275126  0.13538058  1
  Co  Co13  1  0.58867408  0.84724874  0.86461942  1
  Co  Co14  1  0.63380239  0.57540010  0.55971144  1
  Co  Co15  1  0.08867408  0.65275126  0.36461942  1
  Mo  Mo16  1  0.22169394  0.34278386  0.27109344  1
  Mo  Mo17  1  0.37484141  0.16308971  0.96039765  1
  Mo  Mo18  1  0.87484141  0.33691029  0.46039765  1
  Mo  Mo19  1  0.90242249  0.23209321  0.09804238  1
  Mo  Mo20  1  0.27830606  0.84278386  0.22890656  1
  Mo  Mo21  1  0.77830606  0.65721614  0.72890656  1
  Mo  Mo22  1  0.62515859  0.83691029  0.03960235  1
  Mo  Mo23  1  0.72169394  0.15721614  0.77109344  1
  Mo  Mo24  1  0.09757751  0.76790679  0.90195762  1
  Mo  Mo25  1  0.59757751  0.73209321  0.40195762  1
  Mo  Mo26  1  0.12515859  0.66308971  0.53960235  1
  Mo  Mo27  1  0.40242249  0.26790679  0.59804238  1
  O  O28  1  0.91556361  0.23677084  0.54007121  1
  O  O29  1  0.84669900  0.93982011  0.03801487  1
  O  O30  1  0.34416994  0.24981041  0.50628690  1
  O  O31  1  0.38354519  0.62019853  0.38816423  1
  O  O32  1  0.65583006  0.75018959  0.49371310  1
  O  O33  1  0.04281294  0.58976075  0.87373538  1
  O  O34  1  0.88354519  0.87980147  0.88816423  1
  O  O35  1  0.84416994  0.25018959  0.00628690  1
  O  O36  1  0.64664501  0.70100868  0.10288339  1
  O  O37  1  0.07075292  0.45677715  0.43484002  1
  O  O38  1  0.29640084  0.83122124  0.85450932  1
  O  O39  1  0.14343310  0.80363702  0.14931198  1
  O  O40  1  0.35656690  0.30363702  0.35068802  1
  O  O41  1  0.87415206  0.16024164  0.69662253  1
  O  O42  1  0.57075292  0.04322285  0.93484002  1
  O  O43  1  0.65330100  0.43982011  0.46198513  1
  O  O44  1  0.85656690  0.19636298  0.85068802  1
  O  O45  1  0.14664501  0.79899132  0.60288339  1
  O  O46  1  0.45718706  0.08976075  0.62626462  1
  O  O47  1  0.41556361  0.26322916  0.04007121  1
  O  O48  1  0.20359916  0.33122124  0.64549068  1
  O  O49  1  0.45431467  0.70890950  0.23930134  1
  O  O50  1  0.60516894  0.98254137  0.77954739  1
  O  O51  1  0.95431467  0.79109050  0.73930134  1
  O  O52  1  0.11645481  0.12019853  0.11183577  1
  O  O53  1  0.62584794  0.66024164  0.80337747  1
  O  O54  1  0.39483106  0.01745863  0.22045261  1
  O  O55  1  0.64343310  0.69636298  0.64931198  1
  O  O56  1  0.08443639  0.76322916  0.45992879  1
  O  O57  1  0.10516894  0.51745863  0.27954739  1
  O  O58  1  0.12584794  0.83975836  0.30337747  1
  O  O59  1  0.58443639  0.73677084  0.95992879  1
  O  O60  1  0.37415206  0.33975836  0.19662253  1
  O  O61  1  0.79640084  0.66877876  0.35450932  1
  O  O62  1  0.61645481  0.37980147  0.61183577  1
  O  O63  1  0.70359916  0.16877876  0.14549068  1
  O  O64  1  0.35335499  0.29899132  0.89711661  1
  O  O65  1  0.04568533  0.20890950  0.26069866  1
  O  O66  1  0.89483106  0.48254137  0.72045261  1
  O  O67  1  0.54281294  0.91023925  0.37373538  1
  O  O68  1  0.85335499  0.20100868  0.39711661  1
  O  O69  1  0.15330100  0.06017989  0.96198513  1
  O  O70  1  0.92924708  0.54322285  0.56515998  1
  O  O71  1  0.42924708  0.95677715  0.06515998  1
  O  O72  1  0.34669900  0.56017989  0.53801487  1
  O  O73  1  0.15583006  0.74981041  0.99371310  1
  O  O74  1  0.95718706  0.41023925  0.12626462  1
  O  O75  1  0.54568533  0.29109050  0.76069866  1
