# generated using pymatgen
data_NaFe8F24
_symmetry_space_group_name_H-M   'P 1'
_cell_length_a   22.03457754
_cell_length_b   14.65916254
_cell_length_c   9.66030216
_cell_angle_alpha   28.82880689
_cell_angle_beta   53.67637866
_cell_angle_gamma   40.08806205
_symmetry_Int_Tables_number   1
_chemical_formula_structural   NaFe8F24
_chemical_formula_sum   'Na2 Fe16 F48'
_cell_volume   937.94089031
_cell_formula_units_Z   2
loop_
 _symmetry_equiv_pos_site_id
 _symmetry_equiv_pos_as_xyz
  1  'x, y, z'
loop_
 _atom_site_type_symbol
 _atom_site_label
 _atom_site_symmetry_multiplicity
 _atom_site_fract_x
 _atom_site_fract_y
 _atom_site_fract_z
 _atom_site_occupancy
  Na  Na0  1  0.31400289  0.99529923  0.25441343  1
  Na  Na1  1  0.81099711  0.50470077  0.74558657  1
  Fe  Fe2  1  0.00203121  0.99442499  0.00287178  1
  Fe  Fe3  1  0.25042962  -0.00032799  0.99701518  1
  Fe  Fe4  1  0.12247536  0.00146093  0.50127027  1
  Fe  Fe5  1  0.12296879  0.50557501  0.99712822  1
  Fe  Fe6  1  0.00252464  0.49853907  0.49872973  1
  Fe  Fe7  1  0.50307852  0.00069535  0.99551233  1
  Fe  Fe8  1  0.37627876  -0.00255267  0.50311962  1
  Fe  Fe9  1  0.37565934  0.49463600  0.00755037  1
  Fe  Fe10  1  0.24996036  0.50328293  0.49569065  1
  Fe  Fe11  1  0.74934066  0.00536400  0.99244963  1
  Fe  Fe12  1  0.62155037  0.00851862  0.49589468  1
  Fe  Fe13  1  0.62192148  0.49930465  0.00448767  1
  Fe  Fe14  1  0.50344963  0.49148138  0.50410532  1
  Fe  Fe15  1  0.87503964  0.99671707  0.50430935  1
  Fe  Fe16  1  0.87457038  0.50032799  0.00298482  1
  Fe  Fe17  1  0.74872124  0.50255267  0.49688038  1
  F  F18  1  0.00875870  0.28814821  0.17406677  1
  F  F19  1  0.04322622  0.07313153  0.68080493  1
  F  F20  1  0.15406946  0.21523604  0.24452269  1
  F  F21  1  0.08177378  0.42686847  0.31919507  1
  F  F22  1  0.11624130  0.21185179  0.82593323  1
  F  F23  1  0.25861503  0.27988210  0.17998541  1
  F  F24  1  0.02883586  0.71477948  0.24683816  1
  F  F25  1  0.29203250  0.07610636  0.67623944  1
  F  F26  1  0.22394357  0.28153144  0.76030526  1
  F  F27  1  0.40040506  0.21738492  0.24727636  1
  F  F28  1  0.13447181  0.78657940  0.17743099  1
  F  F29  1  0.32937107  0.43011743  0.32046733  1
  F  F30  1  0.16966400  0.56694571  0.68470172  1
  F  F31  1  0.35906601  0.21982289  0.82259302  1
  F  F32  1  0.09616414  0.78522052  0.75316184  1
  F  F33  1  0.50808566  0.29184591  0.16852728  1
  F  F34  1  0.27644929  0.71561547  0.24942322  1
  F  F35  1  0.54394851  0.08078613  0.66216272  1
  F  F36  1  0.20804933  0.93612916  0.31114546  1
  F  F37  1  0.46968277  0.29793380  0.74335368  1
  F  F38  1  0.24128341  0.71767510  0.81544029  1
  F  F39  1  0.65531723  0.20206620  0.25664632  1
  F  F40  1  0.38002454  0.79595161  0.17884740  1
  F  F41  1  0.58105149  0.41921387  0.33783728  1
  F  F42  1  0.41643002  0.57863973  0.67476698  1
  F  F43  1  0.61691434  0.20815409  0.83147272  1
  F  F44  1  0.34395898  0.79387060  0.73570489  1
  F  F45  1  0.76593399  0.28017711  0.17740698  1
  F  F46  1  0.52241388  0.71191748  0.25967628  1
  F  F47  1  0.79562893  0.06988257  0.67953267  1
  F  F48  1  0.44707371  0.93166754  0.32663440  1
  F  F49  1  0.72459494  0.28261508  0.75272364  1
  F  F50  1  0.48407749  0.72000335  0.82143617  1
  F  F51  1  0.90105643  0.21846856  0.23969474  1
  F  F52  1  0.64092251  0.77999665  0.17856383  1
  F  F53  1  0.83296750  0.42389364  0.32376056  1
  F  F54  1  0.67792629  0.56833246  0.67336560  1
  F  F55  1  0.86638497  0.22011790  0.82001459  1
  F  F56  1  0.60258612  0.78808252  0.74032372  1
  F  F57  1  0.78104102  0.70612940  0.26429511  1
  F  F58  1  0.70856998  0.92136027  0.32523302  1
  F  F59  1  0.97093054  0.28476396  0.75547731  1
  F  F60  1  0.74497546  0.70404839  0.82115260  1
  F  F61  1  0.88371659  0.78232490  0.18455971  1
  F  F62  1  0.91695067  0.56387084  0.68885454  1
  F  F63  1  0.84855071  0.78438453  0.75057678  1
  F  F64  1  0.95533600  0.93305429  0.31529828  1
  F  F65  1  0.99052819  0.71342060  0.82256901  1
