# generated using pymatgen
data_NaAlSi3O8
_symmetry_space_group_name_H-M   'P 1'
_cell_length_a   7.82918148
_cell_length_b   7.54327096
_cell_length_c   7.25189033
_cell_angle_alpha   79.35496587
_cell_angle_beta   107.05937547
_cell_angle_gamma   65.26307933
_symmetry_Int_Tables_number   1
_chemical_formula_structural   NaAlSi3O8
_chemical_formula_sum   'Na2 Al2 Si6 O16'
_cell_volume   347.76726046
_cell_formula_units_Z   2
loop_
 _symmetry_equiv_pos_site_id
 _symmetry_equiv_pos_as_xyz
  1  'x, y, z'
loop_
 _atom_site_type_symbol
 _atom_site_label
 _atom_site_symmetry_multiplicity
 _atom_site_fract_x
 _atom_site_fract_y
 _atom_site_fract_z
 _atom_site_occupancy
  Na  Na0  1  0.73923584  0.28471876  0.85318977  1
  Na  Na1  1  0.26076416  0.71528124  0.14681023  1
  Al  Al2  1  0.81962105  0.83813547  0.79056915  1
  Al  Al3  1  0.18037895  0.16186453  0.20943085  1
  Si  Si4  1  0.17576619  0.18484254  0.76309475  1
  Si  Si5  1  0.82423381  0.81515746  0.23690525  1
  Si  Si6  1  0.19373416  0.58344292  0.68134852  1
  Si  Si7  1  0.80626584  0.41655708  0.31865148  1
  Si  Si8  1  0.43218738  0.80345318  0.63882079  1
  Si  Si9  1  0.56781262  0.19654682  0.36117921  1
  O  O10  1  0.86186544  0.87122942  0.03129288  1
  O  O11  1  0.13813456  0.12877058  0.96870712  1
  O  O12  1  0.40415928  0.59949786  0.71794795  1
  O  O13  1  0.59584072  0.40050214  0.28205205  1
  O  O14  1  0.07261140  0.69858029  0.80754096  1
  O  O15  1  0.92738860  0.30141971  0.19245904  1
  O  O16  1  0.32738870  0.96982388  0.74401575  1
  O  O17  1  0.67261130  0.03017612  0.25598425  1
  O  O18  1  0.67886964  0.71157642  0.72994859  1
  O  O19  1  0.32113036  0.28842358  0.27005141  1
  O  O20  1  0.28170176  0.33184473  0.76372140  1
  O  O21  1  0.71829824  0.66815527  0.23627860  1
  O  O22  1  0.68530748  0.09496484  0.61064983  1
  O  O23  1  0.31469252  0.90503516  0.38935017  1
  O  O24  1  0.94863059  0.31319167  0.56743406  1
  O  O25  1  0.05136941  0.68680833  0.43256594  1
