# generated using pymatgen
data_Mg6AlBi
_symmetry_space_group_name_H-M   'P 1'
_cell_length_a   6.33133319
_cell_length_b   6.54449539
_cell_length_c   5.26361282
_cell_angle_alpha   90.00000000
_cell_angle_beta   90.00000000
_cell_angle_gamma   121.12012053
_symmetry_Int_Tables_number   1
_chemical_formula_structural   Mg6AlBi
_chemical_formula_sum   'Mg6 Al1 Bi1'
_cell_volume   186.71210853
_cell_formula_units_Z   1
loop_
 _symmetry_equiv_pos_site_id
 _symmetry_equiv_pos_as_xyz
  1  'x, y, z'
loop_
 _atom_site_type_symbol
 _atom_site_label
 _atom_site_symmetry_multiplicity
 _atom_site_fract_x
 _atom_site_fract_y
 _atom_site_fract_z
 _atom_site_occupancy
  Mg  Mg0  1  0.66775031  0.33302425  0.25000000  1
  Mg  Mg1  1  0.66775031  0.83472506  0.25000000  1
  Mg  Mg2  1  0.33338495  0.17663708  0.75000000  1
  Mg  Mg3  1  0.33338495  0.65674887  0.75000000  1
  Mg  Mg4  1  0.83858100  0.16929100  0.75000000  1
  Mg  Mg5  1  0.82824142  0.66412121  0.75000000  1
  Al  Al6  1  0.16496163  0.33248032  0.25000000  1
  Bi  Bi7  1  0.16594541  0.83297221  0.25000000  1
