# generated using pymatgen
data_KCa(H2N)3
_symmetry_space_group_name_H-M   'P 1'
_cell_length_a   6.68393355
_cell_length_b   11.87149352
_cell_length_c   6.61161963
_cell_angle_alpha   90.00000000
_cell_angle_beta   106.55554981
_cell_angle_gamma   90.00000000
_symmetry_Int_Tables_number   1
_chemical_formula_structural   KCa(H2N)3
_chemical_formula_sum   'K4 Ca4 H24 N12'
_cell_volume   502.87189315
_cell_formula_units_Z   4
loop_
 _symmetry_equiv_pos_site_id
 _symmetry_equiv_pos_as_xyz
  1  'x, y, z'
loop_
 _atom_site_type_symbol
 _atom_site_label
 _atom_site_symmetry_multiplicity
 _atom_site_fract_x
 _atom_site_fract_y
 _atom_site_fract_z
 _atom_site_occupancy
  K  K0  1  0.26228081  0.90805391  0.86709420  1
  K  K1  1  0.26228081  0.59194609  0.36709420  1
  K  K2  1  0.73771919  0.40805391  0.63290580  1
  K  K3  1  0.73771919  0.09194609  0.13290580  1
  Ca  Ca4  1  0.18209919  0.23785870  0.91575849  1
  Ca  Ca5  1  0.18209919  0.26214130  0.41575849  1
  Ca  Ca6  1  0.81790081  0.73785870  0.58424151  1
  Ca  Ca7  1  0.81790081  0.76214130  0.08424151  1
  H  H8  1  0.03731199  0.58286252  0.91329991  1
  H  H9  1  0.03731199  0.91713748  0.41329991  1
  H  H10  1  0.12542067  0.48940476  0.67580890  1
  H  H11  1  0.21775050  0.66995854  0.90460982  1
  H  H12  1  0.12542067  0.01059524  0.17580890  1
  H  H13  1  0.21775050  0.83004146  0.40460982  1
  H  H14  1  0.34360795  0.42769644  0.76795491  1
  H  H15  1  0.41914315  0.71553481  0.70345390  1
  H  H16  1  0.47998634  0.10836981  0.65529421  1
  H  H17  1  0.34360795  0.07230356  0.26795491  1
  H  H18  1  0.52001366  0.60836981  0.84470579  1
  H  H19  1  0.41914315  0.78446519  0.20345390  1
  H  H20  1  0.58085685  0.21553481  0.79654610  1
  H  H21  1  0.47998634  0.39162919  0.15529421  1
  H  H22  1  0.65639205  0.92769644  0.73204509  1
  H  H23  1  0.52001366  0.89163019  0.34470579  1
  H  H24  1  0.58085685  0.28446519  0.29654610  1
  H  H25  1  0.65639205  0.57230356  0.23204509  1
  H  H26  1  0.78224950  0.16995854  0.59539018  1
  H  H27  1  0.87457933  0.98940476  0.82419110  1
  H  H28  1  0.78224950  0.33004146  0.09539018  1
  H  H29  1  0.87457933  0.51059524  0.32419110  1
  H  H30  1  0.96268801  0.08286252  0.58670009  1
  H  H31  1  0.96268801  0.41713748  0.08670009  1
  N  N32  1  0.06910602  0.66767149  0.92121852  1
  N  N33  1  0.06910602  0.83232851  0.42121852  1
  N  N34  1  0.19614422  0.41350644  0.66809860  1
  N  N35  1  0.19614422  0.08649356  0.16809860  1
  N  N36  1  0.43975498  0.17588854  0.73308945  1
  N  N37  1  0.43975498  0.32411146  0.23308945  1
  N  N38  1  0.56024502  0.67588854  0.76691055  1
  N  N39  1  0.56024502  0.82411146  0.26691055  1
  N  N40  1  0.80385578  0.91350644  0.83190140  1
  N  N41  1  0.80385578  0.58649356  0.33190140  1
  N  N42  1  0.93089398  0.16767149  0.57878148  1
  N  N43  1  0.93089398  0.33232851  0.07878148  1
