# generated using pymatgen
data_CdH3NO5
_symmetry_space_group_name_H-M   'P 1'
_cell_length_a   13.72254891
_cell_length_b   9.03622790
_cell_length_c   7.14149317
_cell_angle_alpha   90.00000000
_cell_angle_beta   90.00000000
_cell_angle_gamma   90.00000000
_symmetry_Int_Tables_number   1
_chemical_formula_structural   CdH3NO5
_chemical_formula_sum   'Cd8 H24 N8 O40'
_cell_volume   885.54571954
_cell_formula_units_Z   8
loop_
 _symmetry_equiv_pos_site_id
 _symmetry_equiv_pos_as_xyz
  1  'x, y, z'
loop_
 _atom_site_type_symbol
 _atom_site_label
 _atom_site_symmetry_multiplicity
 _atom_site_fract_x
 _atom_site_fract_y
 _atom_site_fract_z
 _atom_site_occupancy
  Cd  Cd0  1  0.74147116  0.50420161  0.35467775  1
  Cd  Cd1  1  0.24147116  0.99579839  0.64532225  1
  Cd  Cd2  1  0.25852884  0.00420161  0.14532225  1
  Cd  Cd3  1  0.75852884  0.49579839  0.85467775  1
  Cd  Cd4  1  0.25852884  0.49579839  0.64532225  1
  Cd  Cd5  1  0.75852884  0.00420161  0.35467775  1
  Cd  Cd6  1  0.74147116  0.99579839  0.85467775  1
  Cd  Cd7  1  0.24147116  0.50420161  0.14532225  1
  H  H8  1  0.59235615  0.39778642  0.61723620  1
  H  H9  1  0.09235615  0.10221358  0.38276380  1
  H  H10  1  0.40764385  0.89778642  0.88276380  1
  H  H11  1  0.90764385  0.60221358  0.11723620  1
  H  H12  1  0.40764385  0.60221358  0.38276380  1
  H  H13  1  0.90764385  0.89778642  0.61723620  1
  H  H14  1  0.59235615  0.10221358  0.11723620  1
  H  H15  1  0.09235615  0.39778642  0.88276380  1
  H  H16  1  0.67672091  0.27162926  0.60686300  1
  H  H17  1  0.17672091  0.22837074  0.39313700  1
  H  H18  1  0.32327909  0.77162926  0.89313700  1
  H  H19  1  0.82327909  0.72837074  0.10686300  1
  H  H20  1  0.32327909  0.72837074  0.39313700  1
  H  H21  1  0.82327909  0.77162926  0.60686300  1
  H  H22  1  0.67672091  0.22837074  0.10686300  1
  H  H23  1  0.17672091  0.27162926  0.89313700  1
  H  H24  1  0.89335380  0.59281966  0.59307782  1
  H  H25  1  0.39335380  0.90718034  0.40692218  1
  H  H26  1  0.10664620  0.09281966  0.90692218  1
  H  H27  1  0.60664620  0.40718034  0.09307782  1
  H  H28  1  0.10664620  0.40718034  0.40692218  1
  H  H29  1  0.60664620  0.09281966  0.59307782  1
  H  H30  1  0.89335380  0.90718034  0.09307782  1
  H  H31  1  0.39335380  0.59281966  0.90692218  1
  N  N32  1  0.91801936  0.25228789  0.36648381  1
  N  N33  1  0.41801936  0.24771211  0.63351619  1
  N  N34  1  0.08198064  0.75228789  0.13351619  1
  N  N35  1  0.58198064  0.74771211  0.86648381  1
  N  N36  1  0.08198064  0.74771211  0.63351619  1
  N  N37  1  0.58198064  0.75228789  0.36648381  1
  N  N38  1  0.91801936  0.24771211  0.86648381  1
  N  N39  1  0.41801936  0.25228789  0.13351619  1
  O  O40  1  0.95664550  0.12555466  0.38062847  1
  O  O41  1  0.45664550  0.37444534  0.61937153  1
  O  O42  1  0.04335450  0.62555466  0.11937153  1
  O  O43  1  0.54335450  0.87444534  0.88062847  1
  O  O44  1  0.04335450  0.87444534  0.61937153  1
  O  O45  1  0.54335450  0.62555466  0.38062847  1
  O  O46  1  0.95664550  0.37444534  0.88062847  1
  O  O47  1  0.45664550  0.12555466  0.11937153  1
  O  O48  1  0.96544780  0.37041924  0.37311022  1
  O  O49  1  0.46544780  0.12958076  0.62688978  1
  O  O50  1  0.03455220  0.87041924  0.12688978  1
  O  O51  1  0.53455220  0.62958076  0.87311022  1
  O  O52  1  0.03455220  0.62958076  0.62688978  1
  O  O53  1  0.53455220  0.87041924  0.37311022  1
  O  O54  1  0.96544780  0.12958076  0.87311022  1
  O  O55  1  0.46544780  0.37041924  0.12688978  1
  O  O56  1  0.82416389  0.25798487  0.34355619  1
  O  O57  1  0.32416389  0.24201513  0.65644381  1
  O  O58  1  0.17583611  0.75798487  0.15644381  1
  O  O59  1  0.67583611  0.74201513  0.84355619  1
  O  O60  1  0.17583611  0.74201513  0.65644381  1
  O  O61  1  0.67583611  0.75798487  0.34355619  1
  O  O62  1  0.82416389  0.24201513  0.84355619  1
  O  O63  1  0.32416389  0.25798487  0.15644381  1
  O  O64  1  0.66446919  0.38772139  0.61091753  1
  O  O65  1  0.16446919  0.11227861  0.38908247  1
  O  O66  1  0.33553081  0.88772139  0.88908247  1
  O  O67  1  0.83553081  0.61227861  0.11091753  1
  O  O68  1  0.33553081  0.61227861  0.38908247  1
  O  O69  1  0.83553081  0.88772139  0.61091753  1
  O  O70  1  0.66446919  0.11227861  0.11091753  1
  O  O71  1  0.16446919  0.38772139  0.88908247  1
  O  O72  1  0.82216885  0.60880602  0.60003642  1
  O  O73  1  0.32216885  0.89119398  0.39996358  1
  O  O74  1  0.17783115  0.10880602  0.89996358  1
  O  O75  1  0.67783115  0.39119398  0.10003642  1
  O  O76  1  0.17783115  0.39119398  0.39996358  1
  O  O77  1  0.67783115  0.10880602  0.60003642  1
  O  O78  1  0.82216885  0.89119398  0.10003642  1
  O  O79  1  0.32216885  0.60880602  0.89996358  1
