# generated using pymatgen
data_Ho(IO3)3
_symmetry_space_group_name_H-M   'P 1'
_cell_length_a   6.02264790
_cell_length_b   8.77329499
_cell_length_c   15.14707300
_cell_angle_alpha   96.91561889
_cell_angle_beta   90.00000000
_cell_angle_gamma   90.00000000
_symmetry_Int_Tables_number   1
_chemical_formula_structural   Ho(IO3)3
_chemical_formula_sum   'Ho4 I12 O36'
_cell_volume   794.52522323
_cell_formula_units_Z   4
loop_
 _symmetry_equiv_pos_site_id
 _symmetry_equiv_pos_as_xyz
  1  'x, y, z'
loop_
 _atom_site_type_symbol
 _atom_site_label
 _atom_site_symmetry_multiplicity
 _atom_site_fract_x
 _atom_site_fract_y
 _atom_site_fract_z
 _atom_site_occupancy
  Ho  Ho0  1  0.71957177  0.45827439  0.60335851  1
  Ho  Ho1  1  0.28042823  0.54172561  0.39664149  1
  Ho  Ho2  1  0.21957177  0.04172561  0.89664149  1
  Ho  Ho3  1  0.78042823  0.95827439  0.10335851  1
  I  I4  1  0.64824736  0.83412281  0.47879645  1
  I  I5  1  0.18909260  0.72019833  0.64533541  1
  I  I6  1  0.14824736  0.66587719  0.02120355  1
  I  I7  1  0.85175264  0.33412281  0.97879645  1
  I  I8  1  0.40405486  0.38217693  0.80119044  1
  I  I9  1  0.09594514  0.88217693  0.30119044  1
  I  I10  1  0.90405486  0.11782307  0.69880956  1
  I  I11  1  0.31090740  0.22019833  0.14533541  1
  I  I12  1  0.81090740  0.27980167  0.35466459  1
  I  I13  1  0.35175264  0.16587719  0.52120355  1
  I  I14  1  0.59594514  0.61782307  0.19880956  1
  I  I15  1  0.68909260  0.77980167  0.85466459  1
  O  O16  1  0.81768033  0.91309120  0.25638440  1
  O  O17  1  0.11806637  0.64382424  0.53097802  1
  O  O18  1  0.18231967  0.08690880  0.74361560  1
  O  O19  1  0.87741135  0.13757299  0.01192195  1
  O  O20  1  0.50570504  0.77415208  0.13496608  1
  O  O21  1  0.03056710  0.27371221  0.88132589  1
  O  O22  1  0.49429496  0.22584792  0.86503392  1
  O  O23  1  0.61806637  0.85617576  0.96902198  1
  O  O24  1  0.46943290  0.77371221  0.38132589  1
  O  O25  1  0.07150170  0.41145703  0.05916134  1
  O  O26  1  0.44408593  0.86823262  0.80748010  1
  O  O27  1  0.92849830  0.58854297  0.94083866  1
  O  O28  1  0.96943290  0.72628779  0.11867411  1
  O  O29  1  0.37741135  0.36242701  0.48807805  1
  O  O30  1  0.38193363  0.14382424  0.03097802  1
  O  O31  1  0.99429496  0.27415208  0.63496608  1
  O  O32  1  0.58562854  0.45400429  0.11051574  1
  O  O33  1  0.57150170  0.08854297  0.44083866  1
  O  O34  1  0.31768033  0.58690880  0.24361560  1
  O  O35  1  0.12258865  0.86242701  0.98807805  1
  O  O36  1  0.39956574  0.57706751  0.67107001  1
  O  O37  1  0.89956574  0.92293249  0.82892999  1
  O  O38  1  0.68231967  0.41309120  0.75638440  1
  O  O39  1  0.88193363  0.35617576  0.46902198  1
  O  O40  1  0.10043426  0.07706751  0.17107001  1
  O  O41  1  0.62258865  0.63757299  0.51192195  1
  O  O42  1  0.05591407  0.36823262  0.30748010  1
  O  O43  1  0.91437146  0.95400429  0.61051574  1
  O  O44  1  0.60043426  0.42293249  0.32892999  1
  O  O45  1  0.08562854  0.04599571  0.38948426  1
  O  O46  1  0.94408593  0.63176738  0.69251990  1
  O  O47  1  0.42849830  0.91145703  0.55916134  1
  O  O48  1  0.41437146  0.54599571  0.88948426  1
  O  O49  1  0.53056710  0.22628779  0.61867411  1
  O  O50  1  0.55591407  0.13176738  0.19251990  1
  O  O51  1  0.00570504  0.72584792  0.36503392  1
