# generated using pymatgen
data_KAlP4(H2O7)2
_symmetry_space_group_name_H-M   'P 1'
_cell_length_a   4.95590007
_cell_length_b   7.55831441
_cell_length_c   7.86991822
_cell_angle_alpha   98.31788350
_cell_angle_beta   96.34165622
_cell_angle_gamma   73.91791740
_symmetry_Int_Tables_number   1
_chemical_formula_structural   KAlP4(H2O7)2
_chemical_formula_sum   'K1 Al1 P4 H4 O14'
_cell_volume   279.50817460
_cell_formula_units_Z   1
loop_
 _symmetry_equiv_pos_site_id
 _symmetry_equiv_pos_as_xyz
  1  'x, y, z'
loop_
 _atom_site_type_symbol
 _atom_site_label
 _atom_site_symmetry_multiplicity
 _atom_site_fract_x
 _atom_site_fract_y
 _atom_site_fract_z
 _atom_site_occupancy
  K  K0  1  0.00000000  0.00000000  0.00000000  1
  Al  Al1  1  0.00000000  0.50000000  0.00000000  1
  P  P2  1  0.58055028  0.39533680  0.22515265  1
  P  P3  1  0.41944972  0.60466320  0.77484735  1
  P  P4  1  0.68689672  0.76366258  0.31602975  1
  P  P5  1  0.31310328  0.23633742  0.68397025  1
  H  H6  1  0.87240856  0.21772604  0.41072552  1
  H  H7  1  0.12759144  0.78227396  0.58927448  1
  H  H8  1  0.68620882  0.00199457  0.62150900  1
  H  H9  1  0.31379118  0.99800543  0.37849100  1
  O  O10  1  0.83424686  0.83531850  0.47813196  1
  O  O11  1  0.16575314  0.16468150  0.52186804  1
  O  O12  1  0.83827758  0.71995953  0.15119276  1
  O  O13  1  0.16172242  0.28004047  0.84880724  1
  O  O14  1  0.76021542  0.37190926  0.07386576  1
  O  O15  1  0.23978458  0.62809074  0.92613424  1
  O  O16  1  0.62103278  0.57395442  0.35385748  1
  O  O17  1  0.37896722  0.42604558  0.64614252  1
  O  O18  1  0.72750500  0.58838313  0.82199619  1
  O  O19  1  0.27249500  0.41161687  0.17800381  1
  O  O20  1  0.69247148  0.22729716  0.33200085  1
  O  O21  1  0.30752852  0.77270284  0.66799915  1
  O  O22  1  0.60980190  0.09748347  0.72170437  1
  O  O23  1  0.39019810  0.90251653  0.27829563  1
