# generated using pymatgen
data_SrLaTl(AsO4)2
_symmetry_space_group_name_H-M   'P 1'
_cell_length_a   7.48540176
_cell_length_b   7.48540201
_cell_length_c   13.80521381
_cell_angle_alpha   90.00000000
_cell_angle_beta   90.00000000
_cell_angle_gamma   119.99999888
_symmetry_Int_Tables_number   1
_chemical_formula_structural   SrLaTl(AsO4)2
_chemical_formula_sum   'Sr3 La3 Tl3 As6 O24'
_cell_volume   669.89080731
_cell_formula_units_Z   3
loop_
 _symmetry_equiv_pos_site_id
 _symmetry_equiv_pos_as_xyz
  1  'x, y, z'
loop_
 _atom_site_type_symbol
 _atom_site_label
 _atom_site_symmetry_multiplicity
 _atom_site_fract_x
 _atom_site_fract_y
 _atom_site_fract_z
 _atom_site_occupancy
  Sr  Sr0  1  0.50348743  0.99974405  0.41490281  1
  Sr  Sr1  1  0.49625661  0.49651257  0.74823581  1
  Sr  Sr2  1  0.00025595  0.50374339  0.08156881  1
  La  La3  1  0.50044016  0.00064083  0.91775584  1
  La  La4  1  0.50020067  0.49955984  0.25108884  1
  La  La5  1  0.99935917  0.49979933  0.58442184  1
  Tl  Tl6  1  0.00270613  0.01312950  0.14064671  1
  Tl  Tl7  1  0.01042337  0.99729387  0.47397971  1
  Tl  Tl8  1  0.98687050  0.98957663  0.80731371  1
  As  As9  1  0.48996040  0.00030225  0.16348286  1
  As  As10  1  0.48883178  -0.00000086  0.66992565  1
  As  As11  1  0.51116737  0.51116822  0.00325865  1
  As  As12  1  0.51034186  0.51003960  0.49681586  1
  As  As13  1  0.00000086  0.48883263  0.33659165  1
  As  As14  1  0.99969775  0.48965814  0.83014886  1
  O  O15  1  0.14044315  0.69703507  0.41160253  1
  O  O16  1  0.15239491  0.69827107  0.90280904  1
  O  O17  1  0.29253861  0.87589710  0.08045325  1
  O  O18  1  0.28650205  0.86419426  0.59022298  1
  O  O19  1  0.13580574  0.42230779  0.25688998  1
  O  O20  1  0.12410290  0.41664151  0.74712025  1
  O  O21  1  0.30172893  0.45412384  0.56947604  1
  O  O22  1  0.30296493  0.44340807  0.07826953  1
  O  O23  1  0.54587616  0.84760509  0.23614204  1
  O  O24  1  0.55659193  0.85955685  0.74493553  1
  O  O25  1  0.58335849  0.70746139  0.41378725  1
  O  O26  1  0.57769221  0.71349795  0.92355698  1
  O  O27  1  0.44291268  0.30155341  0.42226434  1
  O  O28  1  0.45922716  0.30388649  0.93033019  1
  O  O29  1  0.41896472  0.13398105  0.24198562  1
  O  O30  1  0.41597778  0.12390104  0.75351817  1
  O  O31  1  0.70792326  0.58402222  0.08685117  1
  O  O32  1  0.71501634  0.58103528  0.57531862  1
  O  O33  1  0.84465932  0.54077284  0.26366419  1
  O  O34  1  0.85864073  0.55708732  0.75559834  1
  O  O35  1  0.69844659  0.14135927  0.08893134  1
  O  O36  1  0.69611351  0.15534068  0.59699719  1
  O  O37  1  0.87609896  0.29207674  0.42018517  1
  O  O38  1  0.86601895  0.28498366  0.90865262  1
