# generated using pymatgen
data_Re3(SCl)7
_symmetry_space_group_name_H-M   'P 1'
_cell_length_a   9.74097383
_cell_length_b   9.74097399
_cell_length_c   22.76368570
_cell_angle_alpha   90.00000000
_cell_angle_beta   90.00000000
_cell_angle_gamma   120.00000302
_symmetry_Int_Tables_number   1
_chemical_formula_structural   Re3(SCl)7
_chemical_formula_sum   'Re12 S28 Cl28'
_cell_volume   1870.58720474
_cell_formula_units_Z   4
loop_
 _symmetry_equiv_pos_site_id
 _symmetry_equiv_pos_as_xyz
  1  'x, y, z'
loop_
 _atom_site_type_symbol
 _atom_site_label
 _atom_site_symmetry_multiplicity
 _atom_site_fract_x
 _atom_site_fract_y
 _atom_site_fract_z
 _atom_site_occupancy
  Re  Re0  1  0.85624259  0.03146649  0.57198943  1
  Re  Re1  1  0.17522390  0.14375741  0.57198943  1
  Re  Re2  1  0.63725141  0.47885681  0.33496217  1
  Re  Re3  1  0.14375741  0.17522390  0.07198943  1
  Re  Re4  1  0.96853351  0.82477610  0.57198943  1
  Re  Re5  1  0.03146649  0.85624259  0.07198943  1
  Re  Re6  1  0.82477610  0.96853351  0.07198943  1
  Re  Re7  1  0.52114319  0.15839460  0.33496217  1
  Re  Re8  1  0.36274859  0.84160540  0.83496217  1
  Re  Re9  1  0.84160540  0.36274859  0.33496217  1
  Re  Re10  1  0.47885681  0.63725141  0.83496217  1
  Re  Re11  1  0.15839460  0.52114319  0.83496217  1
  S  S12  1  0.74126426  0.68488230  0.06590866  1
  S  S13  1  0.07241153  0.71872602  0.84229723  1
  S  S14  1  0.92758847  0.64631449  0.34229723  1
  S  S15  1  0.29910305  0.46518612  0.76279277  1
  S  S16  1  0.71872602  0.07241153  0.34229723  1
  S  S17  1  0.16529314  0.96329214  0.64510149  1
  S  S18  1  0.66666700  0.33333300  0.41312035  1
  S  S19  1  0.03670786  0.20200100  0.64510149  1
  S  S20  1  0.83391693  0.53481388  0.26279277  1
  S  S21  1  0.96329214  0.16529314  0.14510149  1
  S  S22  1  0.46518612  0.29910305  0.26279277  1
  S  S23  1  0.31511770  0.05638196  0.06590866  1
  S  S24  1  0.83470686  0.79799900  0.14510149  1
  S  S25  1  0.00000000  0.00000000  0.99502639  1
  S  S26  1  0.33333300  0.66666700  0.91312035  1
  S  S27  1  0.35368551  0.28127398  0.34229723  1
  S  S28  1  0.70089695  0.16608307  0.26279277  1
  S  S29  1  0.28127398  0.35368551  0.84229723  1
  S  S30  1  0.64631449  0.92758847  0.84229723  1
  S  S31  1  0.68488230  0.74126426  0.56590866  1
  S  S32  1  0.20200100  0.03670786  0.14510149  1
  S  S33  1  0.53481388  0.83391693  0.76279277  1
  S  S34  1  0.00000000  0.00000000  0.49502639  1
  S  S35  1  0.16608307  0.70089695  0.76279277  1
  S  S36  1  0.79799900  0.83470686  0.64510149  1
  S  S37  1  0.25873574  0.94361804  0.56590866  1
  S  S38  1  0.05638196  0.31511770  0.56590866  1
  S  S39  1  0.94361804  0.25873574  0.06590866  1
  Cl  Cl40  1  0.65922267  0.94979824  0.99139312  1
  Cl  Cl41  1  0.67522762  0.08231091  0.62557148  1
  Cl  Cl42  1  0.38636151  0.02309635  0.90892688  1
  Cl  Cl43  1  0.61363849  0.63673484  0.40892688  1
  Cl  Cl44  1  0.70942543  0.05020176  0.49139312  1
  Cl  Cl45  1  0.59291670  0.91768909  0.12557148  1
  Cl  Cl46  1  0.93377540  0.34709788  0.77321759  1
  Cl  Cl47  1  0.41332248  0.06622460  0.77321759  1
  Cl  Cl48  1  0.02309635  0.38636151  0.40892688  1
  Cl  Cl49  1  0.00000000  0.00000000  0.73363950  1
  Cl  Cl50  1  0.05020176  0.70942543  0.99139312  1
  Cl  Cl51  1  0.34709788  0.93377540  0.27321759  1
  Cl  Cl52  1  0.40708330  0.32477238  0.62557148  1
  Cl  Cl53  1  0.63673484  0.61363849  0.90892688  1
  Cl  Cl54  1  0.29057457  0.34077733  0.99139312  1
  Cl  Cl55  1  0.58667752  0.65290212  0.27321759  1
  Cl  Cl56  1  0.91768909  0.59291670  0.62557148  1
  Cl  Cl57  1  0.66666700  0.33333300  0.17474427  1
  Cl  Cl58  1  0.32477238  0.40708330  0.12557148  1
  Cl  Cl59  1  0.00000000  0.00000000  0.23363950  1
  Cl  Cl60  1  0.94979824  0.65922267  0.49139312  1
  Cl  Cl61  1  0.36326516  0.97690365  0.40892688  1
  Cl  Cl62  1  0.08231091  0.67522762  0.12557148  1
  Cl  Cl63  1  0.34077733  0.29057457  0.49139312  1
  Cl  Cl64  1  0.06622460  0.41332248  0.27321759  1
  Cl  Cl65  1  0.97690365  0.36326516  0.90892688  1
  Cl  Cl66  1  0.65290212  0.58667752  0.77321759  1
  Cl  Cl67  1  0.33333300  0.66666700  0.67474427  1
