# generated using pymatgen
data_Na4VP2O9
_symmetry_space_group_name_H-M   'P 1'
_cell_length_a   7.08910422
_cell_length_b   14.67030656
_cell_length_c   16.20830144
_cell_angle_alpha   90.00000000
_cell_angle_beta   90.00000000
_cell_angle_gamma   90.00000000
_symmetry_Int_Tables_number   1
_chemical_formula_structural   Na4VP2O9
_chemical_formula_sum   'Na32 V8 P16 O72'
_cell_volume   1685.65252494
_cell_formula_units_Z   8
loop_
 _symmetry_equiv_pos_site_id
 _symmetry_equiv_pos_as_xyz
  1  'x, y, z'
loop_
 _atom_site_type_symbol
 _atom_site_label
 _atom_site_symmetry_multiplicity
 _atom_site_fract_x
 _atom_site_fract_y
 _atom_site_fract_z
 _atom_site_occupancy
  Na  Na0  1  0.00336246  0.13871178  0.38158145  1
  Na  Na1  1  0.26916514  0.49432661  0.00447572  1
  Na  Na2  1  0.25589563  0.24533278  0.52546014  1
  Na  Na3  1  0.76916514  0.00567339  0.00447572  1
  Na  Na4  1  0.99663754  0.86128822  0.61841855  1
  Na  Na5  1  0.50336246  0.36128822  0.38158145  1
  Na  Na6  1  0.75589563  0.25466722  0.52546014  1
  Na  Na7  1  0.23083486  0.99432661  0.99552428  1
  Na  Na8  1  0.26916514  0.99432661  0.49552428  1
  Na  Na9  1  0.31460640  0.52425992  0.77512034  1
  Na  Na10  1  0.68539360  0.47574008  0.22487966  1
  Na  Na11  1  0.74410437  0.25466722  0.02546014  1
  Na  Na12  1  0.73083486  0.50567339  0.99552428  1
  Na  Na13  1  0.18539360  0.52425992  0.27512034  1
  Na  Na14  1  0.75589563  0.75466722  0.97453986  1
  Na  Na15  1  0.99663754  0.36128822  0.88158145  1
  Na  Na16  1  0.25589563  0.74533278  0.97453986  1
  Na  Na17  1  0.18539360  0.02425992  0.22487966  1
  Na  Na18  1  0.31460640  0.02425992  0.72487966  1
  Na  Na19  1  0.23083486  0.49432661  0.50447572  1
  Na  Na20  1  0.81460640  0.47574008  0.72487966  1
  Na  Na21  1  0.49663754  0.13871178  0.88158145  1
  Na  Na22  1  0.24410437  0.74533278  0.47453986  1
  Na  Na23  1  0.49663754  0.63871178  0.61841855  1
  Na  Na24  1  0.81460640  0.97574008  0.77512034  1
  Na  Na25  1  0.74410437  0.75466722  0.47453986  1
  Na  Na26  1  0.24410437  0.24533278  0.02546014  1
  Na  Na27  1  0.76916514  0.50567339  0.49552428  1
  Na  Na28  1  0.68539360  0.97574008  0.27512034  1
  Na  Na29  1  0.73083486  0.00567339  0.50447572  1
  Na  Na30  1  0.00336246  0.63871178  0.11841855  1
  Na  Na31  1  0.50336246  0.86128822  0.11841855  1
  V  V32  1  0.27555021  0.75865460  0.26608704  1
  V  V33  1  0.72444979  0.24134540  0.73391296  1
  V  V34  1  0.77555021  0.74134540  0.26608704  1
  V  V35  1  0.27555021  0.25865460  0.23391296  1
  V  V36  1  0.22444979  0.25865460  0.73391296  1
  V  V37  1  0.77555021  0.24134540  0.23391296  1
  V  V38  1  0.22444979  0.75865460  0.76608704  1
  V  V39  1  0.72444979  0.74134540  0.76608704  1
  P  P40  1  0.99894787  0.63888260  0.62727164  1
  P  P41  1  0.49894787  0.86111740  0.62727164  1
  P  P42  1  0.49823945  0.60804628  0.38064766  1
  P  P43  1  0.50105213  0.63888260  0.12727164  1
  P  P44  1  0.99894787  0.13888260  0.87272836  1
  P  P45  1  0.99823945  0.89195372  0.38064766  1
  P  P46  1  0.50176055  0.39195372  0.61935234  1
  P  P47  1  0.00176055  0.10804628  0.61935234  1
  P  P48  1  0.00105213  0.86111740  0.12727164  1
  P  P49  1  0.50105213  0.13888260  0.37272836  1
  P  P50  1  0.49894787  0.36111740  0.87272836  1
  P  P51  1  0.00105213  0.36111740  0.37272836  1
  P  P52  1  0.49823945  0.10804628  0.11935234  1
  P  P53  1  0.50176055  0.89195372  0.88064766  1
  P  P54  1  0.99823945  0.39195372  0.11935234  1
  P  P55  1  0.00176055  0.60804628  0.88064766  1
  O  O56  1  0.67974872  0.66367778  0.35807002  1
  O  O57  1  0.81915953  0.83654252  0.35314098  1
  O  O58  1  0.82025128  0.16367778  0.64192998  1
  O  O59  1  0.68102332  0.34221632  0.81967594  1
  O  O60  1  0.18102332  0.65778368  0.68032406  1
  O  O61  1  0.68101537  0.15066488  0.31669194  1
  O  O62  1  0.31915953  0.66345748  0.35314098  1
  O  O63  1  0.00392454  0.20155951  0.23874775  1
  O  O64  1  0.18084047  0.66345748  0.85314098  1
  O  O65  1  0.99123086  0.20733198  0.94478247  1
  O  O66  1  0.49607546  0.20155951  0.73874775  1
  O  O67  1  0.50408870  0.98605815  0.83979571  1
  O  O68  1  0.99607546  0.79844049  0.76125225  1
  O  O69  1  0.00828154  0.10218113  0.52406694  1
  O  O70  1  0.68084047  0.33654252  0.64685902  1
  O  O71  1  0.31897668  0.15778368  0.31967594  1
  O  O72  1  0.81897668  0.84221632  0.18032406  1
  O  O73  1  0.50828154  0.89781887  0.97593306  1
  O  O74  1  0.99607546  0.29844049  0.73874775  1
  O  O75  1  0.50408870  0.48605815  0.66020429  1
  O  O76  1  0.32025128  0.83632222  0.85807002  1
  O  O77  1  0.49591130  0.01394185  0.16020429  1
  O  O78  1  0.50392454  0.79844049  0.26125225  1
  O  O79  1  0.81915953  0.33654252  0.14685902  1
  O  O80  1  0.49591130  0.51394185  0.33979571  1
  O  O81  1  0.50029244  0.53914404  0.09840809  1
  O  O82  1  0.18101537  0.34933512  0.31669194  1
  O  O83  1  0.49171846  0.10218113  0.02406694  1
  O  O84  1  0.31898463  0.34933512  0.81669194  1
  O  O85  1  0.17974872  0.83632222  0.35807002  1
  O  O86  1  0.31897668  0.65778368  0.18032406  1
  O  O87  1  0.18084047  0.16345748  0.64685902  1
  O  O88  1  0.81898463  0.65066488  0.68330806  1
  O  O89  1  0.17974872  0.33632222  0.14192998  1
  O  O90  1  0.18101537  0.84933512  0.18330806  1
  O  O91  1  0.32025128  0.33632222  0.64192998  1
  O  O92  1  0.82025128  0.66367778  0.85807002  1
  O  O93  1  0.81898463  0.15066488  0.81669194  1
  O  O94  1  0.00876914  0.29266802  0.44478247  1
  O  O95  1  0.49123086  0.79266802  0.55521753  1
  O  O96  1  0.99171846  0.39781887  0.02406694  1
  O  O97  1  0.31915953  0.16345748  0.14685902  1
  O  O98  1  0.00828154  0.60218113  0.97593306  1
  O  O99  1  0.99591130  0.98605815  0.33979571  1
  O  O100  1  0.50392454  0.29844049  0.23874775  1
  O  O101  1  0.50029244  0.03914404  0.40159191  1
  O  O102  1  0.99123086  0.70733198  0.55521753  1
  O  O103  1  0.67974872  0.16367778  0.14192998  1
  O  O104  1  0.50828154  0.39781887  0.52406694  1
  O  O105  1  0.68084047  0.83654252  0.85314098  1
  O  O106  1  0.68102332  0.84221632  0.68032406  1
  O  O107  1  0.81897668  0.34221632  0.31967594  1
  O  O108  1  0.99970756  0.53914404  0.59840809  1
  O  O109  1  0.00876914  0.79266802  0.05521753  1
  O  O110  1  0.00029244  0.96085596  0.09840809  1
  O  O111  1  0.00408870  0.51394185  0.83979571  1
  O  O112  1  0.18102332  0.15778368  0.81967594  1
  O  O113  1  0.49970756  0.96085596  0.59840809  1
  O  O114  1  0.49607546  0.70155951  0.76125225  1
  O  O115  1  0.00408870  0.01394185  0.66020429  1
  O  O116  1  0.00392454  0.70155951  0.26125225  1
  O  O117  1  0.31898463  0.84933512  0.68330806  1
  O  O118  1  0.99970756  0.03914404  0.90159191  1
  O  O119  1  0.49970756  0.46085596  0.90159191  1
  O  O120  1  0.68101537  0.65066488  0.18330806  1
  O  O121  1  0.50876914  0.70733198  0.05521753  1
  O  O122  1  0.99171846  0.89781887  0.47593306  1
  O  O123  1  0.50876914  0.20733198  0.44478247  1
  O  O124  1  0.49171846  0.60218113  0.47593306  1
  O  O125  1  0.49123086  0.29266802  0.94478247  1
  O  O126  1  0.00029244  0.46085596  0.40159191  1
  O  O127  1  0.99591130  0.48605815  0.16020429  1
