# generated using pymatgen
data_MgPH16NO10
_symmetry_space_group_name_H-M   'P 1'
_cell_length_a   6.12932368
_cell_length_b   7.03711308
_cell_length_c   11.36648662
_cell_angle_alpha   90.00000000
_cell_angle_beta   90.00000000
_cell_angle_gamma   90.00000000
_symmetry_Int_Tables_number   1
_chemical_formula_structural   MgPH16NO10
_chemical_formula_sum   'Mg2 P2 H32 N2 O20'
_cell_volume   490.26775574
_cell_formula_units_Z   2
loop_
 _symmetry_equiv_pos_site_id
 _symmetry_equiv_pos_as_xyz
  1  'x, y, z'
loop_
 _atom_site_type_symbol
 _atom_site_label
 _atom_site_symmetry_multiplicity
 _atom_site_fract_x
 _atom_site_fract_y
 _atom_site_fract_z
 _atom_site_occupancy
  Mg  Mg0  1  0.34826397  0.50000000  0.12578793  1
  Mg  Mg1  1  0.65173603  -0.00000000  0.62578793  1
  P  P2  1  0.02261885  0.50000000  0.50034447  1
  P  P3  1  0.97738115  -0.00000000  0.00034447  1
  H  H4  1  0.70393316  0.50000000  0.29687843  1
  H  H5  1  0.29606684  0.00000000  0.79687843  1
  H  H6  1  0.79339874  0.50000000  0.16609139  1
  H  H7  1  0.20660126  -0.00000000  0.66609139  1
  H  H8  1  0.96896235  0.38415095  0.01021490  1
  H  H9  1  0.96896235  0.61584905  0.01021490  1
  H  H10  1  0.03103765  0.11584905  0.51021490  1
  H  H11  1  0.03103765  0.88415095  0.51021490  1
  H  H12  1  0.19539065  0.29821701  0.31828490  1
  H  H13  1  0.19539065  0.70178299  0.31828490  1
  H  H14  1  0.80460935  0.20178299  0.81828490  1
  H  H15  1  0.80460935  0.79821701  0.81828490  1
  H  H16  1  0.14125973  0.18271463  0.19840451  1
  H  H17  1  0.14125973  0.81728537  0.19840451  1
  H  H18  1  0.85874027  0.31728537  0.69840451  1
  H  H19  1  0.85874027  0.68271463  0.69840451  1
  H  H20  1  0.35300132  0.18277719  0.98607989  1
  H  H21  1  0.35300132  0.81722281  0.98607989  1
  H  H22  1  0.64699868  0.31722281  0.48607989  1
  H  H23  1  0.64699868  0.68277719  0.48607989  1
  H  H24  1  0.60105602  0.25102887  0.99404206  1
  H  H25  1  0.60105602  0.74897113  0.99404206  1
  H  H26  1  0.39894398  0.24897113  0.49404206  1
  H  H27  1  0.39894398  0.75102887  0.49404206  1
  H  H28  1  0.25703178  0.50000000  0.71149379  1
  H  H29  1  0.74296822  -0.00000000  0.21149379  1
  H  H30  1  0.37471073  0.50000000  0.85001844  1
  H  H31  1  0.62528927  0.00000000  0.35001844  1
  H  H32  1  0.49900059  0.38100354  0.74218674  1
  H  H33  1  0.49900059  0.61899646  0.74218674  1
  H  H34  1  0.50099941  0.11899646  0.24218674  1
  H  H35  1  0.50099941  0.88100354  0.24218674  1
  N  N36  1  0.40386711  0.50000000  0.76090839  1
  N  N37  1  0.59613289  0.00000000  0.26090839  1
  O  O38  1  0.01224742  0.50000000  0.63749778  1
  O  O39  1  0.98775258  0.00000000  0.13749778  1
  O  O40  1  0.78661241  0.50000000  0.44875698  1
  O  O41  1  0.21338759  -0.00000000  0.94875698  1
  O  O42  1  0.14345204  0.31758947  0.45701401  1
  O  O43  1  0.14345204  0.68241053  0.45701401  1
  O  O44  1  0.85654796  0.18241053  0.95701401  1
  O  O45  1  0.85654796  0.81758947  0.95701401  1
  O  O46  1  0.65746337  0.50000000  0.21267337  1
  O  O47  1  0.34253663  0.00000000  0.71267337  1
  O  O48  1  0.02461884  0.50000000  0.05273296  1
  O  O49  1  0.97538116  0.00000000  0.55273296  1
  O  O50  1  0.24460642  0.27731546  0.23418295  1
  O  O51  1  0.24460642  0.72268454  0.23418295  1
  O  O52  1  0.75539358  0.22268454  0.73418295  1
  O  O53  1  0.75539358  0.77731546  0.73418295  1
  O  O54  1  0.44790368  0.29629116  0.00589808  1
  O  O55  1  0.44790368  0.70370884  0.00589808  1
  O  O56  1  0.55209632  0.20370884  0.50589808  1
  O  O57  1  0.55209632  0.79629116  0.50589808  1
