# generated using pymatgen
data_K10Co4O9
_symmetry_space_group_name_H-M   'P 1'
_cell_length_a   6.81673956
_cell_length_b   9.13905530
_cell_length_c   9.17122370
_cell_angle_alpha   119.18361092
_cell_angle_beta   109.64798746
_cell_angle_gamma   91.50392124
_symmetry_Int_Tables_number   1
_chemical_formula_structural   K10Co4O9
_chemical_formula_sum   'K10 Co4 O9'
_cell_volume   457.04179747
_cell_formula_units_Z   1
loop_
 _symmetry_equiv_pos_site_id
 _symmetry_equiv_pos_as_xyz
  1  'x, y, z'
loop_
 _atom_site_type_symbol
 _atom_site_label
 _atom_site_symmetry_multiplicity
 _atom_site_fract_x
 _atom_site_fract_y
 _atom_site_fract_z
 _atom_site_occupancy
  K  K0  1  0.08806034  0.22229493  0.93804248  1
  K  K1  1  0.05768573  0.59924967  0.34032376  1
  K  K2  1  0.26283907  0.05038930  0.51052643  1
  K  K3  1  0.45804084  0.49019161  0.67618762  1
  K  K4  1  0.55680192  0.93841453  0.81461017  1
  K  K5  1  0.45002927  0.07011596  0.17817268  1
  K  K6  1  0.55013754  0.51494591  0.32843840  1
  K  K7  1  0.74038431  0.93281995  0.47385042  1
  K  K8  1  0.92394736  0.40099506  0.65439174  1
  K  K9  1  0.90855347  0.77830578  0.06643632  1
  Co  Co10  1  0.03754281  0.78789230  0.74211681  1
  Co  Co11  1  0.66031114  0.34784762  0.95395806  1
  Co  Co12  1  0.37277831  0.67475717  0.06531846  1
  Co  Co13  1  0.96413302  0.21489861  0.26111541  1
  O  O14  1  0.13522855  0.92768137  0.68202877  1
  O  O15  1  0.26321102  0.70644460  0.86916324  1
  O  O16  1  0.22751084  0.31187826  0.30039581  1
  O  O17  1  0.30959708  0.74898485  0.26204122  1
  O  O18  1  0.67299728  0.23571095  0.73306619  1
  O  O19  1  0.77090526  0.68986604  0.69650443  1
  O  O20  1  0.62382340  0.57771474  0.07513477  1
  O  O21  1  0.71705639  0.26707289  0.11682909  1
  O  O22  1  0.87412504  0.08722790  0.33764771  1
