# generated using pymatgen
data_K2TeH6SeO10
_symmetry_space_group_name_H-M   'P 1'
_cell_length_a   6.72287847
_cell_length_b   6.72287847
_cell_length_c   14.10299634
_cell_angle_alpha   75.33571704
_cell_angle_beta   104.66428296
_cell_angle_gamma   121.86741801
_symmetry_Int_Tables_number   1
_chemical_formula_structural   K2TeH6SeO10
_chemical_formula_sum   'K4 Te2 H12 Se2 O20'
_cell_volume   518.13555016
_cell_formula_units_Z   2
loop_
 _symmetry_equiv_pos_site_id
 _symmetry_equiv_pos_as_xyz
  1  'x, y, z'
loop_
 _atom_site_type_symbol
 _atom_site_label
 _atom_site_symmetry_multiplicity
 _atom_site_fract_x
 _atom_site_fract_y
 _atom_site_fract_z
 _atom_site_occupancy
  K  K0  1  0.86483611  0.56475924  0.64443246  1
  K  K1  1  0.56475924  0.86483611  0.85556754  1
  K  K2  1  0.13516389  0.43524076  0.35556754  1
  K  K3  1  0.43524076  0.13516389  0.14443246  1
  Te  Te4  1  0.00000000  0.50000000  0.00000000  1
  Te  Te5  1  0.50000000  0.00000000  0.50000000  1
  H  H6  1  0.11919254  0.92526102  0.93297075  1
  H  H7  1  0.92526102  0.11919254  0.56702925  1
  H  H8  1  0.88080746  0.07473898  0.06702925  1
  H  H9  1  0.07473898  0.88080746  0.43297075  1
  H  H10  1  0.05741265  0.37510616  0.86359569  1
  H  H11  1  0.37510616  0.05741265  0.63640431  1
  H  H12  1  0.94258735  0.62489384  0.13640431  1
  H  H13  1  0.62489384  0.94258735  0.36359569  1
  H  H14  1  0.62048944  0.40490593  0.89099213  1
  H  H15  1  0.40490593  0.62048944  0.60900787  1
  H  H16  1  0.37951056  0.59509407  0.10900787  1
  H  H17  1  0.59509407  0.37951056  0.39099213  1
  Se  Se18  1  0.22083048  0.22083048  0.75000000  1
  Se  Se19  1  0.77916952  0.77916952  0.25000000  1
  O  O20  1  0.28880223  0.48408385  0.05764561  1
  O  O21  1  0.48408385  0.28880223  0.44235439  1
  O  O22  1  0.71119777  0.51591615  0.94235439  1
  O  O23  1  0.51591615  0.71119777  0.55764561  1
  O  O24  1  0.93694565  0.47613734  0.13279680  1
  O  O25  1  0.47613734  0.93694565  0.36720320  1
  O  O26  1  0.06305435  0.52386266  0.86720320  1
  O  O27  1  0.52386266  0.06305435  0.63279680  1
  O  O28  1  0.18468793  0.84467236  0.99144246  1
  O  O29  1  0.84467236  0.18468793  0.50855754  1
  O  O30  1  0.81531207  0.15532764  0.00855754  1
  O  O31  1  0.15532764  0.81531207  0.49144246  1
  O  O32  1  0.48625943  0.24789600  0.79896061  1
  O  O33  1  0.24789600  0.48625943  0.70103939  1
  O  O34  1  0.51374057  0.75210400  0.20103939  1
  O  O35  1  0.75210400  0.51374057  0.29896061  1
  O  O36  1  0.10751056  0.04558562  0.66163664  1
  O  O37  1  0.04558562  0.10751056  0.83836336  1
  O  O38  1  0.89248944  0.95441438  0.33836336  1
  O  O39  1  0.95441438  0.89248944  0.16163664  1
