# generated using pymatgen
data_Na10Zn7Sn7H24(S13O6)2
_symmetry_space_group_name_H-M   'P 1'
_cell_length_a   12.77243825
_cell_length_b   12.77243832
_cell_length_c   12.77243775
_cell_angle_alpha   59.96478196
_cell_angle_beta   59.96478180
_cell_angle_gamma   59.96477999
_symmetry_Int_Tables_number   1
_chemical_formula_structural   Na10Zn7Sn7H24(S13O6)2
_chemical_formula_sum   'Na10 Zn7 Sn7 H24 S26 O12'
_cell_volume   1472.17495362
_cell_formula_units_Z   1
loop_
 _symmetry_equiv_pos_site_id
 _symmetry_equiv_pos_as_xyz
  1  'x, y, z'
loop_
 _atom_site_type_symbol
 _atom_site_label
 _atom_site_symmetry_multiplicity
 _atom_site_fract_x
 _atom_site_fract_y
 _atom_site_fract_z
 _atom_site_occupancy
  Na  Na0  1  0.25022147  0.25022147  0.25022147  1
  Na  Na1  1  0.35573427  0.35573427  0.35573427  1
  Na  Na2  1  0.34961409  0.35123071  0.93966159  1
  Na  Na3  1  0.35123071  0.93966159  0.34961409  1
  Na  Na4  1  0.93966159  0.34961409  0.35123071  1
  Na  Na5  1  0.43209045  0.85814712  0.85727293  1
  Na  Na6  1  0.85814712  0.85727293  0.43209045  1
  Na  Na7  1  0.75026758  0.75026758  0.75026758  1
  Na  Na8  1  0.85727293  0.43209045  0.85814712  1
  Na  Na9  1  0.85479068  0.85479068  0.85479068  1
  Zn  Zn10  1  0.07554697  0.07554697  0.07554697  1
  Zn  Zn11  1  0.07651844  0.07597672  0.77545139  1
  Zn  Zn12  1  0.07597672  0.77545139  0.07651844  1
  Zn  Zn13  1  0.77545139  0.07651844  0.07597672  1
  Zn  Zn14  1  0.25958376  0.58087632  0.57809271  1
  Zn  Zn15  1  0.57809271  0.25958376  0.58087632  1
  Zn  Zn16  1  0.58087632  0.57809271  0.25958376  1
  Sn  Sn17  1  0.25009180  0.24884272  0.75078583  1
  Sn  Sn18  1  0.24884272  0.75078583  0.25009180  1
  Sn  Sn19  1  0.75078583  0.25009180  0.24884272  1
  Sn  Sn20  1  0.23788700  0.75133150  0.76010511  1
  Sn  Sn21  1  0.57338804  0.57338804  0.57338804  1
  Sn  Sn22  1  0.76010511  0.23788700  0.75133150  1
  Sn  Sn23  1  0.75133150  0.76010511  0.23788700  1
  H  H24  1  0.07625508  0.09738702  0.35204589  1
  H  H25  1  0.09738702  0.35204589  0.07625508  1
  H  H26  1  0.07619025  0.47325525  0.09774800  1
  H  H27  1  0.09774800  0.07619025  0.47325525  1
  H  H28  1  0.35204589  0.07625508  0.09738702  1
  H  H29  1  0.07707386  0.35254176  0.47349685  1
  H  H30  1  0.10024380  0.47388676  0.35203987  1
  H  H31  1  0.47325525  0.09774800  0.07619025  1
  H  H32  1  0.35254176  0.47349685  0.07707386  1
  H  H33  1  0.35203987  0.10024380  0.47388676  1
  H  H34  1  0.47349685  0.07707386  0.35254176  1
  H  H35  1  0.47388676  0.35203987  0.10024380  1
  H  H36  1  0.57807124  0.85410180  0.59612731  1
  H  H37  1  0.59612731  0.57807124  0.85410180  1
  H  H38  1  0.57658969  0.59799515  0.97458334  1
  H  H39  1  0.59799515  0.97458334  0.57658969  1
  H  H40  1  0.85410180  0.59612731  0.57807124  1
  H  H41  1  0.57584936  0.97413369  0.85259934  1
  H  H42  1  0.59597875  0.85275757  0.97355545  1
  H  H43  1  0.97458334  0.57658969  0.59799515  1
  H  H44  1  0.85259934  0.57584936  0.97413369  1
  H  H45  1  0.85275757  0.97355545  0.59597875  1
  H  H46  1  0.97413369  0.85259934  0.57584936  1
  H  H47  1  0.97355545  0.59597875  0.85275757  1
  S  S48  1  0.00008081  0.00008081  0.00008081  1
  S  S49  1  0.07667548  0.69261957  0.28575977  1
  S  S50  1  0.28575977  0.07667548  0.69261957  1
  S  S51  1  0.07670236  0.28520137  0.94392543  1
  S  S52  1  0.19572173  0.44266450  0.57494800  1
  S  S53  1  0.28520137  0.94392543  0.07670236  1
  S  S54  1  0.19487652  0.78792583  0.44323351  1
  S  S55  1  0.44266450  0.57494800  0.19572173  1
  S  S56  1  0.69261957  0.28575977  0.07667548  1
  S  S57  1  0.19943169  0.57190988  0.78630348  1
  S  S58  1  0.57494800  0.19572173  0.44266450  1
  S  S59  1  0.07568660  0.94764741  0.69204353  1
  S  S60  1  0.44323351  0.19487652  0.78792583  1
  S  S61  1  0.49616932  0.49616932  0.49616932  1
  S  S62  1  0.57190988  0.78630348  0.19943169  1
  S  S63  1  0.28639558  0.69487895  0.94434026  1
  S  S64  1  0.78792583  0.44323351  0.19487652  1
  S  S65  1  0.43956009  0.78913579  0.57856816  1
  S  S66  1  0.94392543  0.07670236  0.28520137  1
  S  S67  1  0.78630348  0.19943169  0.57190988  1
  S  S68  1  0.57856816  0.43956009  0.78913579  1
  S  S69  1  0.69204353  0.07568660  0.94764741  1
  S  S70  1  0.78913579  0.57856816  0.43956009  1
  S  S71  1  0.69487895  0.94434026  0.28639558  1
  S  S72  1  0.94764741  0.69204353  0.07568660  1
  S  S73  1  0.94434026  0.28639558  0.69487895  1
  O  O74  1  0.12080567  0.37883594  0.12001827  1
  O  O75  1  0.12001827  0.12080567  0.37883594  1
  O  O76  1  0.11782736  0.38069352  0.37881137  1
  O  O77  1  0.37883594  0.12001827  0.12080567  1
  O  O78  1  0.37881137  0.11782736  0.38069352  1
  O  O79  1  0.38069352  0.37881137  0.11782736  1
  O  O80  1  0.62047864  0.62071969  0.88056343  1
  O  O81  1  0.62071969  0.88056343  0.62047864  1
  O  O82  1  0.88056343  0.62047864  0.62071969  1
  O  O83  1  0.62115647  0.88030897  0.87935879  1
  O  O84  1  0.88030897  0.87935879  0.62115647  1
  O  O85  1  0.87935879  0.62115647  0.88030897  1
