# generated using pymatgen
data_Cr2H24(IN3)3
_symmetry_space_group_name_H-M   'P 1'
_cell_length_a   7.75797825
_cell_length_b   7.75798618
_cell_length_c   18.32330688
_cell_angle_alpha   90.00000000
_cell_angle_beta   90.00000000
_cell_angle_gamma   119.99996623
_symmetry_Int_Tables_number   1
_chemical_formula_structural   Cr2H24(IN3)3
_chemical_formula_sum   'Cr4 H48 I6 N18'
_cell_volume   955.06338175
_cell_formula_units_Z   2
loop_
 _symmetry_equiv_pos_site_id
 _symmetry_equiv_pos_as_xyz
  1  'x, y, z'
loop_
 _atom_site_type_symbol
 _atom_site_label
 _atom_site_symmetry_multiplicity
 _atom_site_fract_x
 _atom_site_fract_y
 _atom_site_fract_z
 _atom_site_occupancy
  Cr  Cr0  1  0.33331476  0.66662952  0.32577130  1
  Cr  Cr1  1  0.66668524  0.33337048  0.67422870  1
  Cr  Cr2  1  0.66668524  0.33337048  0.82577130  1
  Cr  Cr3  1  0.33331476  0.66662952  0.17422870  1
  H  H4  1  0.38398506  0.40278807  0.25000000  1
  H  H5  1  0.59724333  0.98123065  0.25000000  1
  H  H6  1  0.01878396  0.61601467  0.25000000  1
  H  H7  1  0.59723072  0.61601467  0.25000000  1
  H  H8  1  0.01880301  0.40278807  0.25000000  1
  H  H9  1  0.38398732  0.98123065  0.25000000  1
  H  H10  1  0.61601494  0.59721193  0.75000000  1
  H  H11  1  0.40275667  0.01876935  0.75000000  1
  H  H12  1  0.98121604  0.38398533  0.75000000  1
  H  H13  1  0.40276928  0.38398533  0.75000000  1
  H  H14  1  0.98119699  0.59721193  0.75000000  1
  H  H15  1  0.61601268  0.01876935  0.75000000  1
  H  H16  1  0.21990893  0.78009042  0.44914214  1
  H  H17  1  0.21990821  0.43981641  0.44914110  1
  H  H18  1  0.56018149  0.78009042  0.44914214  1
  H  H19  1  0.78009107  0.21990958  0.55085786  1
  H  H20  1  0.78009179  0.56018359  0.55085890  1
  H  H21  1  0.43981851  0.21990958  0.55085786  1
  H  H22  1  0.78009107  0.21990958  0.94914214  1
  H  H23  1  0.78009179  0.56018359  0.94914110  1
  H  H24  1  0.43981851  0.21990958  0.94914214  1
  H  H25  1  0.21990893  0.78009042  0.05085786  1
  H  H26  1  0.21990821  0.43981641  0.05085890  1
  H  H27  1  0.56018149  0.78009042  0.05085786  1
  H  H28  1  0.26825453  0.94470362  0.38323730  1
  H  H29  1  0.05530832  0.32356620  0.38323480  1
  H  H30  1  0.67643764  0.73174183  0.38323557  1
  H  H31  1  0.05530419  0.73174183  0.38323557  1
  H  H32  1  0.67644910  0.94470362  0.38323730  1
  H  H33  1  0.26825787  0.32356620  0.38323480  1
  H  H34  1  0.73174547  0.05529638  0.61676270  1
  H  H35  1  0.94469168  0.67643380  0.61676520  1
  H  H36  1  0.32356236  0.26825817  0.61676443  1
  H  H37  1  0.94469581  0.26825817  0.61676443  1
  H  H38  1  0.32355090  0.05529638  0.61676270  1
  H  H39  1  0.73174213  0.67643380  0.61676520  1
  H  H40  1  0.73174547  0.05529638  0.88323730  1
  H  H41  1  0.94469168  0.67643380  0.88323480  1
  H  H42  1  0.32356236  0.26825817  0.88323557  1
  H  H43  1  0.94469581  0.26825817  0.88323557  1
  H  H44  1  0.32355090  0.05529638  0.88323730  1
  H  H45  1  0.73174213  0.67643380  0.88323480  1
  H  H46  1  0.26825453  0.94470362  0.11676270  1
  H  H47  1  0.05530832  0.32356620  0.11676520  1
  H  H48  1  0.67643764  0.73174183  0.11676443  1
  H  H49  1  0.05530419  0.73174183  0.11676443  1
  H  H50  1  0.67644910  0.94470362  0.11676270  1
  H  H51  1  0.26825787  0.32356620  0.11676520  1
  I  I52  1  -0.00000005  -0.00000010  0.25000000  1
  I  I53  1  0.00000005  0.00000010  0.75000000  1
  I  I54  1  0.33330281  0.66660563  0.91837965  1
  I  I55  1  0.66669719  0.33339437  0.08162035  1
  I  I56  1  0.66669719  0.33339437  0.41837965  1
  I  I57  1  0.33330281  0.66660563  0.58162035  1
  N  N58  1  0.44558031  0.55443218  0.25000000  1
  N  N59  1  0.44557813  0.89115626  0.25000000  1
  N  N60  1  0.10885187  0.55443218  0.25000000  1
  N  N61  1  0.55441969  0.44556782  0.75000000  1
  N  N62  1  0.55442187  0.10884374  0.75000000  1
  N  N63  1  0.89114813  0.44556782  0.75000000  1
  N  N64  1  0.20465424  0.79535536  0.39411782  1
  N  N65  1  0.20465391  0.40930783  0.39411542  1
  N  N66  1  0.59070112  0.79535536  0.39411782  1
  N  N67  1  0.79534576  0.20464464  0.60588218  1
  N  N68  1  0.79534609  0.59069217  0.60588458  1
  N  N69  1  0.40929888  0.20464464  0.60588218  1
  N  N70  1  0.79534576  0.20464464  0.89411782  1
  N  N71  1  0.79534609  0.59069217  0.89411542  1
  N  N72  1  0.40929888  0.20464464  0.89411782  1
  N  N73  1  0.20465424  0.79535536  0.10588218  1
  N  N74  1  0.20465391  0.40930783  0.10588458  1
  N  N75  1  0.59070112  0.79535536  0.10588218  1
