# generated using pymatgen
data_K3AsO4
_symmetry_space_group_name_H-M   'P 1'
_cell_length_a   8.16226477
_cell_length_b   8.16226445
_cell_length_c   18.22160205
_cell_angle_alpha   90.00000000
_cell_angle_beta   90.00000000
_cell_angle_gamma   95.37630378
_symmetry_Int_Tables_number   1
_chemical_formula_structural   K3AsO4
_chemical_formula_sum   'K24 As8 O32'
_cell_volume   1208.62934415
_cell_formula_units_Z   8
loop_
 _symmetry_equiv_pos_site_id
 _symmetry_equiv_pos_as_xyz
  1  'x, y, z'
loop_
 _atom_site_type_symbol
 _atom_site_label
 _atom_site_symmetry_multiplicity
 _atom_site_fract_x
 _atom_site_fract_y
 _atom_site_fract_z
 _atom_site_occupancy
  K  K0  1  0.00000000  0.00000000  0.60099430  1
  K  K1  1  0.00000000  0.50000000  0.84592894  1
  K  K2  1  0.00000000  0.00000000  0.39900570  1
  K  K3  1  0.50000000  0.00000000  0.89173741  1
  K  K4  1  0.69555957  0.19327473  0.50000000  1
  K  K5  1  0.50000000  0.00000000  0.34592894  1
  K  K6  1  0.20371178  0.20371178  0.75000000  1
  K  K7  1  0.79628822  0.79628822  0.75000000  1
  K  K8  1  0.00000000  0.50000000  0.15407106  1
  K  K9  1  0.80672527  0.30444043  0.00000000  1
  K  K10  1  0.50000000  0.00000000  0.10826259  1
  K  K11  1  0.50000000  0.50000000  0.36352787  1
  K  K12  1  0.00000000  0.50000000  0.39173741  1
  K  K13  1  0.50000000  0.50000000  0.13647213  1
  K  K14  1  0.50000000  0.00000000  0.65407106  1
  K  K15  1  0.00000000  0.00000000  0.89900570  1
  K  K16  1  0.20371178  0.20371178  0.25000000  1
  K  K17  1  0.00000000  0.50000000  0.60826259  1
  K  K18  1  0.50000000  0.50000000  0.86352787  1
  K  K19  1  0.79628822  0.79628822  0.25000000  1
  K  K20  1  0.30444043  0.80672527  0.50000000  1
  K  K21  1  0.50000000  0.50000000  0.63647213  1
  K  K22  1  0.00000000  0.00000000  0.10099430  1
  K  K23  1  0.19327473  0.69555957  0.00000000  1
  As  As24  1  0.25507707  0.27992817  0.50000000  1
  As  As25  1  0.74492293  0.72007183  0.50000000  1
  As  As26  1  0.26263958  0.73736042  0.25000000  1
  As  As27  1  0.26263958  0.73736042  0.75000000  1
  As  As28  1  0.73736042  0.26263958  0.75000000  1
  As  As29  1  0.73736042  0.26263958  0.25000000  1
  As  As30  1  0.72007183  0.74492293  0.00000000  1
  As  As31  1  0.27992817  0.25507707  0.00000000  1
  O  O32  1  0.22115144  0.52815484  0.26452806  1
  O  O33  1  0.80388806  0.15956742  0.67404071  1
  O  O34  1  0.19772237  0.34033022  0.07711240  1
  O  O35  1  0.52815484  0.22115144  0.23547194  1
  O  O36  1  0.49187242  0.28378422  0.00000000  1
  O  O37  1  0.15956742  0.80388806  0.17404071  1
  O  O38  1  0.19611194  0.84043258  0.32595929  1
  O  O39  1  0.19611194  0.84043258  0.67404071  1
  O  O40  1  0.77884856  0.47184516  0.73547194  1
  O  O41  1  0.04322815  0.22936095  0.50000000  1
  O  O42  1  0.50812758  0.71621578  0.00000000  1
  O  O43  1  0.84043258  0.19611194  0.17404071  1
  O  O44  1  0.71621578  0.50812758  0.50000000  1
  O  O45  1  0.80227763  0.65966978  0.92288760  1
  O  O46  1  0.95677185  0.77063905  0.50000000  1
  O  O47  1  0.65966978  0.80227763  0.57711240  1
  O  O48  1  0.34033022  0.19772237  0.42288760  1
  O  O49  1  0.84043258  0.19611194  0.82595929  1
  O  O50  1  0.19772237  0.34033022  0.92288760  1
  O  O51  1  0.28378422  0.49187242  0.50000000  1
  O  O52  1  0.22115144  0.52815484  0.73547194  1
  O  O53  1  0.34033022  0.19772237  0.57711240  1
  O  O54  1  0.52815484  0.22115144  0.76452806  1
  O  O55  1  0.80227763  0.65966978  0.07711240  1
  O  O56  1  0.77063905  0.95677185  0.00000000  1
  O  O57  1  0.77884856  0.47184516  0.26452806  1
  O  O58  1  0.15956742  0.80388806  0.82595929  1
  O  O59  1  0.47184516  0.77884856  0.23547194  1
  O  O60  1  0.22936095  0.04322815  0.00000000  1
  O  O61  1  0.80388806  0.15956742  0.32595929  1
  O  O62  1  0.47184516  0.77884856  0.76452806  1
  O  O63  1  0.65966978  0.80227763  0.42288760  1
