# generated using pymatgen
data_SbHC3(NCl3)3
_symmetry_space_group_name_H-M   'P 1'
_cell_length_a   13.39952145
_cell_length_b   9.91312455
_cell_length_c   13.56416717
_cell_angle_alpha   90.00000000
_cell_angle_beta   116.76405704
_cell_angle_gamma   90.00000000
_symmetry_Int_Tables_number   1
_chemical_formula_structural   SbHC3(NCl3)3
_chemical_formula_sum   'Sb4 H4 C12 N12 Cl36'
_cell_volume   1608.72007217
_cell_formula_units_Z   4
loop_
 _symmetry_equiv_pos_site_id
 _symmetry_equiv_pos_as_xyz
  1  'x, y, z'
loop_
 _atom_site_type_symbol
 _atom_site_label
 _atom_site_symmetry_multiplicity
 _atom_site_fract_x
 _atom_site_fract_y
 _atom_site_fract_z
 _atom_site_occupancy
  Sb  Sb0  1  0.20737313  0.62202473  0.45197117  1
  Sb  Sb1  1  0.70737313  0.87797527  0.95197117  1
  Sb  Sb2  1  0.79262687  0.37797527  0.54802883  1
  Sb  Sb3  1  0.29262687  0.12202473  0.04802883  1
  H  H4  1  0.27019731  0.69293717  0.20638434  1
  H  H5  1  0.77019731  0.80706283  0.70638434  1
  H  H6  1  0.72980269  0.30706283  0.79361566  1
  H  H7  1  0.22980269  0.19293717  0.29361566  1
  C  C8  1  0.27788016  0.59458747  0.94928644  1
  C  C9  1  0.77788016  0.90541253  0.44928644  1
  C  C10  1  0.72211984  0.40541253  0.05071356  1
  C  C11  1  0.22211984  0.09458747  0.55071356  1
  C  C12  1  0.37107276  0.63007598  0.13241125  1
  C  C13  1  0.87107276  0.86992402  0.63241125  1
  C  C14  1  0.62892724  0.36992402  0.86758875  1
  C  C15  1  0.12892724  0.13007598  0.36758875  1
  C  C16  1  0.17593836  0.64629782  0.03832640  1
  C  C17  1  0.67593836  0.85370218  0.53832640  1
  C  C18  1  0.82406164  0.35370218  0.96167360  1
  C  C19  1  0.32406164  0.14629782  0.46167360  1
  N  N20  1  0.37558327  0.59676576  0.04076124  1
  N  N21  1  0.87558327  0.90323424  0.54076124  1
  N  N22  1  0.62441673  0.40323424  0.95923876  1
  N  N23  1  0.12441673  0.09676576  0.45923876  1
  N  N24  1  0.27234220  0.66159606  0.13424299  1
  N  N25  1  0.77234220  0.83840394  0.63424299  1
  N  N26  1  0.72765780  0.33840394  0.86575701  1
  N  N27  1  0.22765780  0.16159606  0.36575701  1
  N  N28  1  0.17639527  0.61266590  0.94487271  1
  N  N29  1  0.67639527  0.88733410  0.44487271  1
  N  N30  1  0.82360473  0.38733410  0.05512729  1
  N  N31  1  0.32360473  0.11266590  0.55512729  1
  Cl  Cl32  1  0.22243861  0.80369457  0.33357190  1
  Cl  Cl33  1  0.72243861  0.69630543  0.83357190  1
  Cl  Cl34  1  0.77756139  0.19630543  0.66642810  1
  Cl  Cl35  1  0.27756139  0.30369457  0.16642810  1
  Cl  Cl36  1  0.20240248  0.43893506  0.56708642  1
  Cl  Cl37  1  0.70240248  0.06106494  0.06708642  1
  Cl  Cl38  1  0.79759752  0.56106494  0.43291358  1
  Cl  Cl39  1  0.29759752  0.93893506  0.93291358  1
  Cl  Cl40  1  0.34833118  0.73515446  0.61129766  1
  Cl  Cl41  1  0.84833118  0.76484554  0.11129766  1
  Cl  Cl42  1  0.65166882  0.26484554  0.38870234  1
  Cl  Cl43  1  0.15166882  0.23515446  0.88870234  1
  Cl  Cl44  1  0.35319833  0.50658395  0.42653748  1
  Cl  Cl45  1  0.85319833  0.99341605  0.92653748  1
  Cl  Cl46  1  0.64680167  0.49341605  0.57346252  1
  Cl  Cl47  1  0.14680167  0.00658395  0.07346252  1
  Cl  Cl48  1  0.06959541  0.50836547  0.29172465  1
  Cl  Cl49  1  0.56959541  0.99163453  0.79172465  1
  Cl  Cl50  1  0.93040459  0.49163453  0.70827535  1
  Cl  Cl51  1  0.43040459  0.00836547  0.20827535  1
  Cl  Cl52  1  0.06524112  0.74544874  0.47172072  1
  Cl  Cl53  1  0.56524112  0.75455126  0.97172072  1
  Cl  Cl54  1  0.93475888  0.25455126  0.52827928  1
  Cl  Cl55  1  0.43475888  0.24544874  0.02827928  1
  Cl  Cl56  1  0.48841773  0.63333950  0.25264187  1
  Cl  Cl57  1  0.98841773  0.86666050  0.75264187  1
  Cl  Cl58  1  0.51158227  0.36666050  0.74735813  1
  Cl  Cl59  1  0.01158227  0.13333950  0.24735813  1
  Cl  Cl60  1  0.28190904  0.56732567  0.82880839  1
  Cl  Cl61  1  0.78190904  0.93267433  0.32880839  1
  Cl  Cl62  1  0.71809096  0.43267433  0.17119161  1
  Cl  Cl63  1  0.21809096  0.06732567  0.67119161  1
  Cl  Cl64  1  0.05399131  0.67171189  0.04278094  1
  Cl  Cl65  1  0.55399131  0.82828811  0.54278094  1
  Cl  Cl66  1  0.94600869  0.32828811  0.95721906  1
  Cl  Cl67  1  0.44600869  0.17171189  0.45721906  1
