# generated using pymatgen
data_CaH4NClO5
_symmetry_space_group_name_H-M   'P 1'
_cell_length_a   9.14581509
_cell_length_b   6.72120843
_cell_length_c   19.97831450
_cell_angle_alpha   90.00000000
_cell_angle_beta   90.00000000
_cell_angle_gamma   90.00000000
_symmetry_Int_Tables_number   1
_chemical_formula_structural   CaH4NClO5
_chemical_formula_sum   'Ca8 H32 N8 Cl8 O40'
_cell_volume   1228.08556180
_cell_formula_units_Z   8
loop_
 _symmetry_equiv_pos_site_id
 _symmetry_equiv_pos_as_xyz
  1  'x, y, z'
loop_
 _atom_site_type_symbol
 _atom_site_label
 _atom_site_symmetry_multiplicity
 _atom_site_fract_x
 _atom_site_fract_y
 _atom_site_fract_z
 _atom_site_occupancy
  Ca  Ca0  1  0.05414827  0.45255009  0.34424724  1
  Ca  Ca1  1  0.55414827  0.04744991  0.65575276  1
  Ca  Ca2  1  0.94585173  0.95255009  0.15575276  1
  Ca  Ca3  1  0.44585173  0.54744991  0.84424724  1
  Ca  Ca4  1  0.94585173  0.54744991  0.65575276  1
  Ca  Ca5  1  0.44585173  0.95255009  0.34424724  1
  Ca  Ca6  1  0.05414827  0.04744991  0.84424724  1
  Ca  Ca7  1  0.55414827  0.45255009  0.15575276  1
  H  H8  1  0.78862494  0.25893337  0.40190087  1
  H  H9  1  0.28862494  0.24106663  0.59809913  1
  H  H10  1  0.21137506  0.75893337  0.09809913  1
  H  H11  1  0.71137506  0.74106663  0.90190087  1
  H  H12  1  0.21137506  0.74106663  0.59809913  1
  H  H13  1  0.71137506  0.75893337  0.40190087  1
  H  H14  1  0.78862494  0.24106663  0.90190087  1
  H  H15  1  0.28862494  0.25893337  0.09809913  1
  H  H16  1  0.91705113  0.10456886  0.41165193  1
  H  H17  1  0.41705113  0.39543114  0.58834807  1
  H  H18  1  0.08294887  0.60456886  0.08834807  1
  H  H19  1  0.58294887  0.89543114  0.91165193  1
  H  H20  1  0.08294887  0.89543114  0.58834807  1
  H  H21  1  0.58294887  0.60456886  0.41165193  1
  H  H22  1  0.91705113  0.39543114  0.91165193  1
  H  H23  1  0.41705113  0.10456886  0.08834807  1
  H  H24  1  0.29602173  0.34848527  0.44519616  1
  H  H25  1  0.79602173  0.15151473  0.55480384  1
  H  H26  1  0.70397827  0.84848527  0.05480384  1
  H  H27  1  0.20397827  0.65151473  0.94519616  1
  H  H28  1  0.70397827  0.65151473  0.55480384  1
  H  H29  1  0.20397827  0.84848527  0.44519616  1
  H  H30  1  0.29602173  0.15151473  0.94519616  1
  H  H31  1  0.79602173  0.34848527  0.05480384  1
  H  H32  1  0.14528915  0.36794215  0.48365771  1
  H  H33  1  0.64528915  0.13205785  0.51634229  1
  H  H34  1  0.85471085  0.86794215  0.01634229  1
  H  H35  1  0.35471085  0.63205785  0.98365771  1
  H  H36  1  0.85471085  0.63205785  0.51634229  1
  H  H37  1  0.35471085  0.86794215  0.48365771  1
  H  H38  1  0.14528915  0.13205785  0.98365771  1
  H  H39  1  0.64528915  0.36794215  0.01634229  1
  N  N40  1  0.15242217  0.09801166  0.26341573  1
  N  N41  1  0.65242217  0.40198834  0.73658427  1
  N  N42  1  0.84757783  0.59801166  0.23658427  1
  N  N43  1  0.34757783  0.90198834  0.76341573  1
  N  N44  1  0.84757783  0.90198834  0.73658427  1
  N  N45  1  0.34757783  0.59801166  0.26341573  1
  N  N46  1  0.15242217  0.40198834  0.76341573  1
  N  N47  1  0.65242217  0.09801166  0.23658427  1
  Cl  Cl48  1  0.95420851  0.77371035  0.41850454  1
  Cl  Cl49  1  0.45420851  0.72628965  0.58149546  1
  Cl  Cl50  1  0.04579149  0.27371035  0.08149546  1
  Cl  Cl51  1  0.54579149  0.22628965  0.91850454  1
  Cl  Cl52  1  0.04579149  0.22628965  0.58149546  1
  Cl  Cl53  1  0.54579149  0.27371035  0.41850454  1
  Cl  Cl54  1  0.95420851  0.72628965  0.91850454  1
  Cl  Cl55  1  0.45420851  0.77371035  0.08149546  1
  O  O56  1  0.02875548  0.18021983  0.25283855  1
  O  O57  1  0.52875548  0.31978017  0.74716145  1
  O  O58  1  0.97124452  0.68021983  0.24716145  1
  O  O59  1  0.47124452  0.81978017  0.75283855  1
  O  O60  1  0.97124452  0.81978017  0.74716145  1
  O  O61  1  0.47124452  0.68021983  0.25283855  1
  O  O62  1  0.02875548  0.31978017  0.75283855  1
  O  O63  1  0.52875548  0.18021983  0.24716145  1
  O  O64  1  0.20200457  0.97384822  0.22286753  1
  O  O65  1  0.70200457  0.52615178  0.77713247  1
  O  O66  1  0.79799543  0.47384822  0.27713247  1
  O  O67  1  0.29799543  0.02615178  0.72286753  1
  O  O68  1  0.79799543  0.02615178  0.77713247  1
  O  O69  1  0.29799543  0.47384822  0.22286753  1
  O  O70  1  0.20200457  0.52615178  0.72286753  1
  O  O71  1  0.70200457  0.97384822  0.27713247  1
  O  O72  1  0.22174841  0.14714233  0.31630373  1
  O  O73  1  0.72174841  0.35285767  0.68369627  1
  O  O74  1  0.77825159  0.64714233  0.18369627  1
  O  O75  1  0.27825159  0.85285767  0.81630373  1
  O  O76  1  0.77825159  0.85285767  0.68369627  1
  O  O77  1  0.27825159  0.64714233  0.31630373  1
  O  O78  1  0.22174841  0.35285767  0.81630373  1
  O  O79  1  0.72174841  0.14714233  0.18369627  1
  O  O80  1  0.89566255  0.24538033  0.40277646  1
  O  O81  1  0.39566255  0.25461967  0.59722354  1
  O  O82  1  0.10433745  0.74538033  0.09722354  1
  O  O83  1  0.60433745  0.75461967  0.90277646  1
  O  O84  1  0.10433745  0.75461967  0.59722354  1
  O  O85  1  0.60433745  0.74538033  0.40277646  1
  O  O86  1  0.89566255  0.25461967  0.90277646  1
  O  O87  1  0.39566255  0.24538033  0.09722354  1
  O  O88  1  0.19616208  0.40323213  0.44182152  1
  O  O89  1  0.69616208  0.09676787  0.55817848  1
  O  O90  1  0.80383792  0.90323213  0.05817848  1
  O  O91  1  0.30383792  0.59676787  0.94182152  1
  O  O92  1  0.80383792  0.59676787  0.55817848  1
  O  O93  1  0.30383792  0.90323213  0.44182152  1
  O  O94  1  0.19616208  0.09676787  0.94182152  1
  O  O95  1  0.69616208  0.40323213  0.05817848  1
