# generated using pymatgen
data_Co2As2O5
_symmetry_space_group_name_H-M   'P 1'
_cell_length_a   6.32406035
_cell_length_b   9.44969107
_cell_length_c   9.49379260
_cell_angle_alpha   65.81801199
_cell_angle_beta   81.97636825
_cell_angle_gamma   79.14531920
_symmetry_Int_Tables_number   1
_chemical_formula_structural   Co2As2O5
_chemical_formula_sum   'Co8 As8 O20'
_cell_volume   507.07091144
_cell_formula_units_Z   4
loop_
 _symmetry_equiv_pos_site_id
 _symmetry_equiv_pos_as_xyz
  1  'x, y, z'
loop_
 _atom_site_type_symbol
 _atom_site_label
 _atom_site_symmetry_multiplicity
 _atom_site_fract_x
 _atom_site_fract_y
 _atom_site_fract_z
 _atom_site_occupancy
  Co  Co0  1  0.32519799  0.26488157  0.45563205  1
  Co  Co1  1  0.14562109  0.93889862  0.62928714  1
  Co  Co2  1  0.59930251  0.41085431  0.15576206  1
  Co  Co3  1  0.90277315  0.60876405  0.84780055  1
  Co  Co4  1  0.09722685  0.39123595  0.15219945  1
  Co  Co5  1  0.40069749  0.58914569  0.84423794  1
  Co  Co6  1  0.85437891  0.06110138  0.37071286  1
  Co  Co7  1  0.67480201  0.73511843  0.54436795  1
  As  As8  1  0.78692357  0.39042440  0.48605813  1
  As  As9  1  0.26127415  0.28107793  0.83386140  1
  As  As10  1  0.38552911  0.03288897  0.25571783  1
  As  As11  1  0.73872585  0.71892207  0.16613860  1
  As  As12  1  0.21307643  0.60957560  0.51394187  1
  As  As13  1  0.76936539  0.22558415  0.99024936  1
  As  As14  1  0.61447089  0.96711103  0.74428217  1
  As  As15  1  0.23063461  0.77441585  0.00975064  1
  O  O16  1  0.82956222  0.03028702  0.59259673  1
  O  O17  1  0.40489495  0.64193133  0.61835587  1
  O  O18  1  0.97078966  0.65944923  0.61556586  1
  O  O19  1  0.76060602  0.60945677  0.37717212  1
  O  O20  1  0.82409075  0.56894762  0.09141676  1
  O  O21  1  0.62583978  0.94309814  0.36445435  1
  O  O22  1  0.37416022  0.05690186  0.63554565  1
  O  O23  1  0.87657147  0.23441336  0.15793623  1
  O  O24  1  0.02921034  0.34055077  0.38443414  1
  O  O25  1  0.12342853  0.76558664  0.84206377  1
  O  O26  1  0.17043778  0.96971298  0.40740327  1
  O  O27  1  0.01002303  0.19899180  0.87222422  1
  O  O28  1  0.68532007  0.43877147  0.91063384  1
  O  O29  1  0.37858909  0.23151029  0.24209231  1
  O  O30  1  0.17590925  0.43105238  0.90858324  1
  O  O31  1  0.59510505  0.35806867  0.38164413  1
  O  O32  1  0.62141091  0.76848971  0.75790769  1
  O  O33  1  0.31467993  0.56122853  0.08936616  1
  O  O34  1  0.23939398  0.39054323  0.62282788  1
  O  O35  1  0.98997697  0.80100820  0.12777578  1
