# generated using pymatgen
data_Bi14MoO24
_symmetry_space_group_name_H-M   'P 1'
_cell_length_a   8.93279864
_cell_length_b   8.93915828
_cell_length_c   10.62085264
_cell_angle_alpha   114.54749617
_cell_angle_beta   114.36454236
_cell_angle_gamma   90.51356004
_symmetry_Int_Tables_number   1
_chemical_formula_structural   Bi14MoO24
_chemical_formula_sum   'Bi14 Mo1 O24'
_cell_volume   685.88708195
_cell_formula_units_Z   1
loop_
 _symmetry_equiv_pos_site_id
 _symmetry_equiv_pos_as_xyz
  1  'x, y, z'
loop_
 _atom_site_type_symbol
 _atom_site_label
 _atom_site_symmetry_multiplicity
 _atom_site_fract_x
 _atom_site_fract_y
 _atom_site_fract_z
 _atom_site_occupancy
  Bi  Bi0  1  0.13155165  0.94115153  0.66016336  1
  Bi  Bi1  1  0.05265192  0.47010917  0.33292489  1
  Bi  Bi2  1  0.34202774  0.34144666  0.68213373  1
  Bi  Bi3  1  0.27056542  0.86648584  0.32993817  1
  Bi  Bi4  1  0.21691445  0.43759477  0.99736805  1
  Bi  Bi5  1  0.52071443  0.71956516  0.65341374  1
  Bi  Bi6  1  0.46773323  0.27644449  0.33169470  1
  Bi  Bi7  1  0.44113094  0.78246731  0.99795378  1
  Bi  Bi8  1  0.71426020  0.13340430  0.65919278  1
  Bi  Bi9  1  0.65409597  0.65842236  0.31860990  1
  Bi  Bi10  1  0.56162812  0.21947737  0.99943735  1
  Bi  Bi11  1  0.93648549  0.52564920  0.65646204  1
  Bi  Bi12  1  0.86441854  0.05877392  0.33478477  1
  Bi  Bi13  1  0.78504879  0.56576871  0.00256876  1
  Mo  Mo14  1  0.96775724  0.99136999  0.96147934  1
  O  O15  1  0.17969653  0.09369536  0.02947695  1
  O  O16  1  0.99612943  0.32937450  0.49349026  1
  O  O17  1  0.23718564  0.54039601  0.84135979  1
  O  O18  1  0.29786113  0.24063861  0.83675021  1
  O  O19  1  0.16936024  0.00133957  0.49748656  1
  O  O20  1  0.10719405  0.61865216  0.22754838  1
  O  O21  1  0.38111301  0.88428460  0.76462122  1
  O  O22  1  0.32402442  0.49872724  0.49325817  1
  O  O23  1  0.53892004  0.60686407  0.84059469  1
  O  O24  1  0.59455218  0.30676991  0.83913239  1
  O  O25  1  0.48721654  0.82400838  0.48791249  1
  O  O26  1  0.49643280  0.17647654  0.50258240  1
  O  O27  1  0.39529450  0.69717427  0.15611801  1
  O  O28  1  0.46044296  0.40340349  0.16118334  1
  O  O29  1  0.84269181  0.14639910  0.99957113  1
  O  O30  1  0.66826314  0.49648365  0.49183407  1
  O  O31  1  0.61575007  0.11571773  0.22961482  1
  O  O32  1  0.88083441  0.38097844  0.76543761  1
  O  O33  1  0.88121418  0.86568568  0.75454176  1
  O  O34  1  0.82574433  0.00597088  0.49791866  1
  O  O35  1  0.69476121  0.76246679  0.15781675  1
  O  O36  1  0.75813198  0.46738243  0.16221387  1
  O  O37  1  0.00150330  0.66929104  0.49742067  1
  O  O38  1  0.96209797  0.85808878  0.04879044  1
