# generated using pymatgen
data_Sb3Pd8
_symmetry_space_group_name_H-M   'P 1'
_cell_length_a   15.22748149
_cell_length_b   15.22748112
_cell_length_c   15.22748127
_cell_angle_alpha   29.38379176
_cell_angle_beta   29.38379425
_cell_angle_gamma   29.38379284
_symmetry_Int_Tables_number   1
_chemical_formula_structural   Sb3Pd8
_chemical_formula_sum   'Sb12 Pd32'
_cell_volume   752.27163224
_cell_formula_units_Z   4
loop_
 _symmetry_equiv_pos_site_id
 _symmetry_equiv_pos_as_xyz
  1  'x, y, z'
loop_
 _atom_site_type_symbol
 _atom_site_label
 _atom_site_symmetry_multiplicity
 _atom_site_fract_x
 _atom_site_fract_y
 _atom_site_fract_z
 _atom_site_occupancy
  Sb  Sb0  1  0.76646219  0.76646219  0.76646219  1
  Sb  Sb1  1  0.42701423  0.42701423  0.42701423  1
  Sb  Sb2  1  0.92469848  0.92469848  0.92469848  1
  Sb  Sb3  1  0.85707417  0.16708292  0.49426666  1
  Sb  Sb4  1  0.99286929  0.66780444  0.36051106  1
  Sb  Sb5  1  0.66780444  0.36051106  0.99286929  1
  Sb  Sb6  1  0.57928004  0.57928004  0.57928004  1
  Sb  Sb7  1  0.07931062  0.07931062  0.07931062  1
  Sb  Sb8  1  0.16708292  0.49426666  0.85707417  1
  Sb  Sb9  1  0.26499697  0.26499697  0.26499697  1
  Sb  Sb10  1  0.36051106  0.99286929  0.66780444  1
  Sb  Sb11  1  0.49426666  0.85707417  0.16708292  1
  Pd  Pd12  1  0.93799140  0.20754345  0.56925431  1
  Pd  Pd13  1  0.41349317  0.78470107  0.12124059  1
  Pd  Pd14  1  0.53785920  0.08175455  0.80277794  1
  Pd  Pd15  1  0.28505244  0.90799731  0.62579677  1
  Pd  Pd16  1  0.14068312  0.14068312  0.14068312  1
  Pd  Pd17  1  0.78470107  0.12124059  0.41349317  1
  Pd  Pd18  1  0.43286525  0.07343142  0.71006038  1
  Pd  Pd19  1  0.64166968  0.64166968  0.64166968  1
  Pd  Pd20  1  0.53681101  0.27387220  0.80284921  1
  Pd  Pd21  1  0.56466707  0.05814303  0.30270049  1
  Pd  Pd22  1  0.71006038  0.43286525  0.07343142  1
  Pd  Pd23  1  0.03696207  0.29808697  0.77682469  1
  Pd  Pd24  1  0.62579677  0.28505244  0.90799731  1
  Pd  Pd25  1  0.27387220  0.80284921  0.53681101  1
  Pd  Pd26  1  0.08175455  0.80277794  0.53785920  1
  Pd  Pd27  1  0.20405638  0.20405638  0.20405638  1
  Pd  Pd28  1  0.48826429  0.48826429  0.48826429  1
  Pd  Pd29  1  0.98570722  0.98570722  0.98570722  1
  Pd  Pd30  1  0.77682469  0.03696207  0.29808697  1
  Pd  Pd31  1  0.29808697  0.77682469  0.03696207  1
  Pd  Pd32  1  0.36437410  0.36437410  0.36437410  1
  Pd  Pd33  1  0.12124059  0.41349317  0.78470107  1
  Pd  Pd34  1  0.56925431  0.93799140  0.20754345  1
  Pd  Pd35  1  0.30270049  0.56466707  0.05814303  1
  Pd  Pd36  1  0.07343142  0.71006038  0.43286525  1
  Pd  Pd37  1  0.90799731  0.62579677  0.28505244  1
  Pd  Pd38  1  0.80277794  0.53785920  0.08175455  1
  Pd  Pd39  1  0.70589623  0.70589623  0.70589623  1
  Pd  Pd40  1  0.20754345  0.56925431  0.93799140  1
  Pd  Pd41  1  0.86124190  0.86124190  0.86124190  1
  Pd  Pd42  1  0.05814303  0.30270049  0.56466707  1
  Pd  Pd43  1  0.80284921  0.53681101  0.27387220  1
