# generated using pymatgen
data_CrNiF6
_symmetry_space_group_name_H-M   'P 1'
_cell_length_a   5.37839148
_cell_length_b   5.37839134
_cell_length_c   5.37839087
_cell_angle_alpha   56.72830080
_cell_angle_beta   56.72830188
_cell_angle_gamma   56.72830605
_symmetry_Int_Tables_number   1
_chemical_formula_structural   CrNiF6
_chemical_formula_sum   'Cr1 Ni1 F6'
_cell_volume   101.70239724
_cell_formula_units_Z   1
loop_
 _symmetry_equiv_pos_site_id
 _symmetry_equiv_pos_as_xyz
  1  'x, y, z'
loop_
 _atom_site_type_symbol
 _atom_site_label
 _atom_site_symmetry_multiplicity
 _atom_site_fract_x
 _atom_site_fract_y
 _atom_site_fract_z
 _atom_site_occupancy
  Cr  Cr0  1  0.50000000  0.50000000  0.50000000  1
  Ni  Ni1  1  0.00000000  0.00000000  0.00000000  1
  F  F2  1  0.15198051  0.37073567  0.73805287  1
  F  F3  1  0.37073567  0.73805287  0.15198051  1
  F  F4  1  0.73805287  0.15198051  0.37073567  1
  F  F5  1  0.26194713  0.84801949  0.62926433  1
  F  F6  1  0.62926433  0.26194713  0.84801949  1
  F  F7  1  0.84801949  0.62926433  0.26194713  1
