# generated using pymatgen
data_H7IN2
_symmetry_space_group_name_H-M   'P 1'
_cell_length_a   7.37231284
_cell_length_b   7.35795857
_cell_length_c   9.74706865
_cell_angle_alpha   90.00006205
_cell_angle_beta   89.99994174
_cell_angle_gamma   90.00001844
_symmetry_Int_Tables_number   1
_chemical_formula_structural   H7IN2
_chemical_formula_sum   'H28 I4 N8'
_cell_volume   528.73141972
_cell_formula_units_Z   4
loop_
 _symmetry_equiv_pos_site_id
 _symmetry_equiv_pos_as_xyz
  1  'x, y, z'
loop_
 _atom_site_type_symbol
 _atom_site_label
 _atom_site_symmetry_multiplicity
 _atom_site_fract_x
 _atom_site_fract_y
 _atom_site_fract_z
 _atom_site_occupancy
  H  H0  1  0.99999968  0.00000012  0.50000023  1
  H  H1  1  0.50000045  0.49999942  0.99999966  1
  H  H2  1  0.50000025  0.50000026  0.49999942  1
  H  H3  1  0.99999955  0.99999954  0.00000001  1
  H  H4  1  0.84417534  0.17047263  0.59709088  1
  H  H5  1  0.65582442  0.32952711  0.09709086  1
  H  H6  1  0.65582416  0.67047264  0.40290920  1
  H  H7  1  0.84417574  0.82952694  0.90290890  1
  H  H8  1  0.15582402  0.82952695  0.40290918  1
  H  H9  1  0.34417572  0.67047241  0.90290831  1
  H  H10  1  0.34417604  0.32952765  0.59709059  1
  H  H11  1  0.15582399  0.17047286  0.09709121  1
  H  H12  1  0.91136123  0.23409782  0.44165917  1
  H  H13  1  0.58863828  0.26590213  0.94165897  1
  H  H14  1  0.58863807  0.73409778  0.55834110  1
  H  H15  1  0.91136114  0.76590171  0.05834127  1
  H  H16  1  0.08863856  0.76590232  0.55834110  1
  H  H17  1  0.41136143  0.73409755  0.05834028  1
  H  H18  1  0.41136170  0.26590223  0.44165875  1
  H  H19  1  0.08863891  0.23409845  0.94165912  1
  H  H20  1  0.75496688  0.07319419  0.45838800  1
  H  H21  1  0.74503332  0.42680564  0.95838822  1
  H  H22  1  0.74503257  0.57319422  0.54161131  1
  H  H23  1  0.75496687  0.92680545  0.04161240  1
  H  H24  1  0.24503280  0.92680530  0.54161218  1
  H  H25  1  0.25496697  0.57319437  0.04161104  1
  H  H26  1  0.25496700  0.42680532  0.45838811  1
  H  H27  1  0.24503336  0.07319462  0.95838795  1
  I  I28  1  0.01073141  0.50000055  0.75000035  1
  I  I29  1  0.48927460  0.00000114  0.25000009  1
  I  I30  1  0.98927064  0.50000038  0.25000047  1
  I  I31  1  0.51072756  0.00000133  0.75000022  1
  N  N32  1  0.87272804  0.12366917  0.50036147  1
  N  N33  1  0.62727179  0.37633159  0.00036146  1
  N  N34  1  0.62726991  0.62366712  0.49963856  1
  N  N35  1  0.87272721  0.87632985  0.99964010  1
  N  N36  1  0.12727116  0.87633284  0.49963949  1
  N  N37  1  0.37272940  0.62366689  0.99963846  1
  N  N38  1  0.37272782  0.37633219  0.50036116  1
  N  N39  1  0.12727203  0.12366931  0.00036073  1
