# generated using pymatgen
data_Ce4(LuS2)11
_symmetry_space_group_name_H-M   'P 1'
_cell_length_a   3.88048495
_cell_length_b   11.21445053
_cell_length_c   19.40553964
_cell_angle_alpha   91.31951705
_cell_angle_beta   95.73824244
_cell_angle_gamma   90.00000131
_symmetry_Int_Tables_number   1
_chemical_formula_structural   Ce4(LuS2)11
_chemical_formula_sum   'Ce4 Lu11 S22'
_cell_volume   840.02398754
_cell_formula_units_Z   1
loop_
 _symmetry_equiv_pos_site_id
 _symmetry_equiv_pos_as_xyz
  1  'x, y, z'
loop_
 _atom_site_type_symbol
 _atom_site_label
 _atom_site_symmetry_multiplicity
 _atom_site_fract_x
 _atom_site_fract_y
 _atom_site_fract_z
 _atom_site_occupancy
  Ce  Ce0  1  0.10430076  0.51244845  0.20860153  1
  Ce  Ce1  1  0.89569924  0.48755155  0.79139847  1
  Ce  Ce2  1  0.63296713  0.15082560  0.26593427  1
  Ce  Ce3  1  0.36703287  0.84917440  0.73406573  1
  Lu  Lu4  1  0.46197296  0.77025349  0.92394593  1
  Lu  Lu5  1  0.93040811  0.13844168  0.86081622  1
  Lu  Lu6  1  0.65748004  0.80049515  0.31496008  1
  Lu  Lu7  1  0.26319899  0.85212268  0.52639798  1
  Lu  Lu8  1  0.73680101  0.14787732  0.47360202  1
  Lu  Lu9  1  0.79760114  0.55893513  0.59520229  1
  Lu  Lu10  1  0.34251996  0.19950485  0.68503992  1
  Lu  Lu11  1  0.20239886  0.44106487  0.40479771  1
  Lu  Lu12  1  0.00000000  0.50000000  0.00000000  1
  Lu  Lu13  1  0.06959189  0.86155832  0.13918378  1
  Lu  Lu14  1  0.53802704  0.22974651  0.07605407  1
  S  S15  1  0.25493875  0.61951335  0.50987750  1
  S  S16  1  0.44481463  0.99324135  0.88962925  1
  S  S17  1  0.54656065  0.46832458  0.09312130  1
  S  S18  1  0.83083235  0.34782764  0.66166470  1
  S  S19  1  0.99196485  0.25910419  0.98392970  1
  S  S20  1  0.35002270  0.59145716  0.70004539  1
  S  S21  1  0.28046088  0.08927151  0.56092176  1
  S  S22  1  0.16916765  0.65217236  0.33833530  1
  S  S23  1  0.13486241  0.95144743  0.26972481  1
  S  S24  1  0.55518537  0.00675865  0.11037075  1
  S  S25  1  0.74506125  0.38048665  0.49012250  1
  S  S26  1  0.86513759  0.04855257  0.73027519  1
  S  S27  1  0.64997730  0.40854284  0.29995461  1
  S  S28  1  0.81023783  0.80912919  0.62047566  1
  S  S29  1  0.18976217  0.19087081  0.37952434  1
  S  S30  1  0.71953912  0.91072849  0.43907824  1
  S  S31  1  0.59275244  0.71339931  0.18550488  1
  S  S32  1  0.00803515  0.74089581  0.01607030  1
  S  S33  1  0.08725941  0.25178169  0.17451882  1
  S  S34  1  0.91274059  0.74821831  0.82548118  1
  S  S35  1  0.40724756  0.28660069  0.81449512  1
  S  S36  1  0.45343935  0.53167542  0.90687870  1
