# generated using pymatgen
data_K6U2Mo4O21
_symmetry_space_group_name_H-M   'P 1'
_cell_length_a   8.09593197
_cell_length_b   7.97543730
_cell_length_c   10.58581308
_cell_angle_alpha   84.16288797
_cell_angle_beta   71.42570445
_cell_angle_gamma   80.25291197
_symmetry_Int_Tables_number   1
_chemical_formula_structural   K6U2Mo4O21
_chemical_formula_sum   'K6 U2 Mo4 O21'
_cell_volume   637.71977237
_cell_formula_units_Z   1
loop_
 _symmetry_equiv_pos_site_id
 _symmetry_equiv_pos_as_xyz
  1  'x, y, z'
loop_
 _atom_site_type_symbol
 _atom_site_label
 _atom_site_symmetry_multiplicity
 _atom_site_fract_x
 _atom_site_fract_y
 _atom_site_fract_z
 _atom_site_occupancy
  K  K0  1  0.60961242  0.06952956  0.72283665  1
  K  K1  1  0.15915958  0.29443452  0.97407429  1
  K  K2  1  0.72471485  0.40113101  0.34136843  1
  K  K3  1  0.39038758  0.93047044  0.27716335  1
  K  K4  1  0.84084042  0.70556548  0.02592571  1
  K  K5  1  0.27528515  0.59886899  0.65863157  1
  U  U6  1  0.78425490  0.51600278  0.68468007  1
  U  U7  1  0.21574510  0.48399722  0.31531993  1
  Mo  Mo8  1  0.36291129  0.74403375  0.96762371  1
  Mo  Mo9  1  0.15324665  0.15320855  0.60685749  1
  Mo  Mo10  1  0.84675335  0.84679145  0.39314251  1
  Mo  Mo11  1  0.63708871  0.25596625  0.03237629  1
  O  O12  1  0.76842783  0.79215390  0.57240193  1
  O  O13  1  0.62761946  0.46441954  0.60480107  1
  O  O14  1  0.29845045  0.96613798  0.98710719  1
  O  O15  1  0.37238054  0.53558046  0.39519893  1
  O  O16  1  0.79861742  0.06989886  0.37680194  1
  O  O17  1  0.43263429  0.28217889  0.17010002  1
  O  O18  1  0.80098183  0.34771766  0.06991019  1
  O  O19  1  0.19901817  0.65228234  0.93008981  1
  O  O20  1  0.60124581  0.35508565  0.87850383  1
  O  O21  1  0.56736571  0.71782111  0.82989998  1
  O  O22  1  0.72782552  0.75766977  0.30676811  1
  O  O23  1  0.20138258  0.93010114  0.62319806  1
  O  O24  1  0.70154955  0.03386202  0.01289281  1
  O  O25  1  0.23157217  0.20784610  0.42759807  1
  O  O26  1  0.91591531  0.22090753  0.67996674  1
  O  O27  1  0.92888957  0.55822572  0.77880144  1
  O  O28  1  0.07111043  0.44177428  0.22119856  1
  O  O29  1  0.39875419  0.64491435  0.12149617  1
  O  O30  1  0.08408469  0.77909247  0.32003326  1
  O  O31  1  0.27217448  0.24233023  0.69323189  1
  O  O32  1  0.00000000  0.50000000  0.50000000  1
