# generated using pymatgen
data_Gd5AgSe8
_symmetry_space_group_name_H-M   'P 1'
_cell_length_a   7.61331907
_cell_length_b   7.61331892
_cell_length_c   7.61331904
_cell_angle_alpha   109.76909484
_cell_angle_beta   109.76909447
_cell_angle_gamma   108.87710459
_symmetry_Int_Tables_number   1
_chemical_formula_structural   Gd5AgSe8
_chemical_formula_sum   'Gd5 Ag1 Se8'
_cell_volume   339.67625959
_cell_formula_units_Z   1
loop_
 _symmetry_equiv_pos_site_id
 _symmetry_equiv_pos_as_xyz
  1  'x, y, z'
loop_
 _atom_site_type_symbol
 _atom_site_label
 _atom_site_symmetry_multiplicity
 _atom_site_fract_x
 _atom_site_fract_y
 _atom_site_fract_z
 _atom_site_occupancy
  Gd  Gd0  1  0.11372013  0.74762530  0.87148122  1
  Gd  Gd1  1  0.25237470  0.62385592  0.36609483  1
  Gd  Gd2  1  0.37614408  0.24223891  0.62851878  1
  Gd  Gd3  1  0.62500000  0.37500000  0.25000000  1
  Gd  Gd4  1  0.75776109  0.88627987  0.13390517  1
  Ag  Ag5  1  0.87500000  0.12500000  0.75000000  1
  Se  Se6  1  0.99409513  0.85508597  0.50079214  1
  Se  Se7  1  0.14491403  0.14570617  0.13900916  1
  Se  Se8  1  0.50669701  0.00590487  0.36099084  1
  Se  Se9  1  0.37298537  0.51460649  0.00755693  1
  Se  Se10  1  0.63457156  0.62701463  0.64162112  1
  Se  Se11  1  0.48539351  0.99295044  0.85837888  1
  Se  Se12  1  0.85429383  0.49330299  0.99920786  1
  Se  Se13  1  0.00704956  0.36542844  0.49244307  1
