# generated using pymatgen
data_Ca2YFe3(SnO6)2
_symmetry_space_group_name_H-M   'P 1'
_cell_length_a   11.08865180
_cell_length_b   11.10387980
_cell_length_c   11.05778208
_cell_angle_alpha   109.51776912
_cell_angle_beta   109.25977109
_cell_angle_gamma   109.60692870
_symmetry_Int_Tables_number   1
_chemical_formula_structural   Ca2YFe3(SnO6)2
_chemical_formula_sum   'Ca8 Y4 Fe12 Sn8 O48'
_cell_volume   1048.46220577
_cell_formula_units_Z   4
loop_
 _symmetry_equiv_pos_site_id
 _symmetry_equiv_pos_as_xyz
  1  'x, y, z'
loop_
 _atom_site_type_symbol
 _atom_site_label
 _atom_site_symmetry_multiplicity
 _atom_site_fract_x
 _atom_site_fract_y
 _atom_site_fract_z
 _atom_site_occupancy
  Ca  Ca0  1  0.12759002  0.37300001  0.74797597  1
  Ca  Ca1  1  0.25107603  0.87725938  0.62640163  1
  Ca  Ca2  1  0.12598488  0.24887093  0.37581960  1
  Ca  Ca3  1  0.38301032  0.75338092  0.12843398  1
  Ca  Ca4  1  0.74842484  0.62361212  0.87611069  1
  Ca  Ca5  1  0.37663182  0.12452541  0.24901071  1
  Ca  Ca6  1  0.86839573  0.74755243  0.61713752  1
  Ca  Ca7  1  0.87442296  0.62722332  0.25142147  1
  Y  Y8  1  0.25114446  0.37487335  0.12486924  1
  Y  Y9  1  0.62240560  0.87528643  0.75399356  1
  Y  Y10  1  0.61835301  0.24634916  0.87916168  1
  Y  Y11  1  0.74790475  0.12525847  0.36943122  1
  Fe  Fe12  1  0.12485807  0.87524210  0.25039469  1
  Fe  Fe13  1  0.37389953  0.62696115  0.75162810  1
  Fe  Fe14  1  0.25232869  0.62644407  0.37812283  1
  Fe  Fe15  1  0.25570963  0.12507340  0.87488662  1
  Fe  Fe16  1  0.37318957  0.24923991  0.62339533  1
  Fe  Fe17  1  0.62489631  0.75141317  0.37673354  1
  Fe  Fe18  1  0.74851873  0.37475812  0.62548581  1
  Fe  Fe19  1  0.62431728  0.37064094  0.24668236  1
  Fe  Fe20  1  0.74724368  0.87440735  0.12300999  1
  Fe  Fe21  1  0.50725972  0.00386250  0.00368225  1
  Fe  Fe22  1  0.87505570  0.12698435  0.75007687  1
  Fe  Fe23  1  0.87243873  0.24542141  0.12339315  1
  Sn  Sn24  1  0.12972623  0.75498170  0.87794442  1
  Sn  Sn25  1  0.99732527  0.49622290  0.49349448  1
  Sn  Sn26  1  0.99754974  0.49662649  0.00123112  1
  Sn  Sn27  1  0.50014290  0.99901763  0.49931070  1
  Sn  Sn28  1  0.99807288  0.00335603  0.00142034  1
  Sn  Sn29  1  0.50087126  0.49928648  0.49926370  1
  Sn  Sn30  1  0.50134457  0.50196710  0.00186238  1
  Sn  Sn31  1  0.99931184  0.99966677  0.50060527  1
  O  O32  1  0.09777953  0.97728802  0.68245236  1
  O  O33  1  0.08042632  0.70611744  0.67313556  1
  O  O34  1  0.12354207  0.59190685  0.91647514  1
  O  O35  1  0.02990079  0.31978993  0.90755509  1
  O  O36  1  0.08230598  0.87914185  0.40298746  1
  O  O37  1  0.09665921  0.62038253  0.41424432  1
  O  O38  1  0.17878772  0.47743112  0.59686932  1
  O  O39  1  0.29775819  0.32261677  0.92589820  1
  O  O40  1  0.37964590  0.58319766  0.90439855  1
  O  O41  1  0.42702357  0.82517227  0.80512628  1
  O  O42  1  0.17941400  0.20468927  0.58332951  1
  O  O43  1  0.32019520  0.91609065  0.29719597  1
  O  O44  1  0.02995241  0.21197448  0.12333033  1
  O  O45  1  0.40951763  0.82101704  0.53162959  1
  O  O46  1  0.20287051  0.57398258  0.17830689  1
  O  O47  1  0.33059349  0.91136475  0.03339944  1
  O  O48  1  0.29687648  0.47366385  0.37103072  1
  O  O49  1  0.11965367  0.02329369  0.20195196  1
  O  O50  1  0.41089919  0.08706064  0.87959431  1
  O  O51  1  0.52490124  0.62839776  0.70364412  1
  O  O52  1  0.37908194  0.29589142  0.47555300  1
  O  O53  1  0.52515884  0.39731550  0.82155454  1
  O  O54  1  0.58813280  0.90760143  0.37775823  1
  O  O55  1  0.20133295  0.12588552  0.02279822  1
  O  O56  1  0.78920262  0.88038055  0.96970490  1
  O  O57  1  0.42648291  0.10339581  0.62873582  1
  O  O58  1  0.47125061  0.59324963  0.18248387  1
  O  O59  1  0.62086291  0.71019439  0.52998032  1
  O  O60  1  0.47081607  0.37747861  0.28846373  1
  O  O61  1  0.60435885  0.92836642  0.12692303  1
  O  O62  1  0.86963089  0.97539985  0.79590735  1
  O  O63  1  0.70379873  0.52368572  0.62193710  1
  O  O64  1  0.67791703  0.09560591  0.96954069  1
  O  O65  1  0.79142557  0.41037681  0.81974601  1
  O  O66  1  0.60311542  0.17685218  0.47316663  1
  O  O67  1  0.67781667  0.08054271  0.70951379  1
  O  O68  1  0.96813018  0.79498324  0.87431007  1
  O  O69  1  0.81796741  0.79510284  0.41714099  1
  O  O70  1  0.58937788  0.17952508  0.20629462  1
  O  O71  1  0.70424481  0.68060604  0.08280882  1
  O  O72  1  0.62137586  0.41167616  0.09068495  1
  O  O73  1  0.81854047  0.52236396  0.40010225  1
  O  O74  1  0.89816583  0.37424241  0.57680754  1
  O  O75  1  0.91131028  0.12253138  0.59304421  1
  O  O76  1  0.97734661  0.67859766  0.09570295  1
  O  O77  1  0.86784736  0.39361977  0.07535882  1
  O  O78  1  0.91076188  0.28588040  0.31764523  1
  O  O79  1  0.89643874  0.02530397  0.32138596  1
