# generated using pymatgen
data_BiPtPb3
_symmetry_space_group_name_H-M   'P 1'
_cell_length_a   4.17759220
_cell_length_b   11.69622490
_cell_length_c   11.69622782
_cell_angle_alpha   90.00263249
_cell_angle_beta   89.99999389
_cell_angle_gamma   90.00003703
_symmetry_Int_Tables_number   1
_chemical_formula_structural   BiPtPb3
_chemical_formula_sum   'Bi4 Pt4 Pb12'
_cell_volume   571.50176079
_cell_formula_units_Z   4
loop_
 _symmetry_equiv_pos_site_id
 _symmetry_equiv_pos_as_xyz
  1  'x, y, z'
loop_
 _atom_site_type_symbol
 _atom_site_label
 _atom_site_symmetry_multiplicity
 _atom_site_fract_x
 _atom_site_fract_y
 _atom_site_fract_z
 _atom_site_occupancy
  Bi  Bi0  1  0.49999988  0.79393364  0.79393362  1
  Bi  Bi1  1  0.99999996  0.29393477  0.70606521  1
  Bi  Bi2  1  0.49999996  0.20606624  0.20606635  1
  Bi  Bi3  1  0.00000001  0.70606515  0.29393485  1
  Pt  Pt4  1  0.50000011  0.41315505  0.58684491  1
  Pt  Pt5  1  0.00000003  0.08684457  0.08684464  1
  Pt  Pt6  1  0.49999994  0.58684489  0.41315501  1
  Pt  Pt7  1  0.00000003  0.91315554  0.91315553  1
  Pb  Pb8  1  0.50000070  0.17033055  0.50272783  1
  Pb  Pb9  1  -0.00000002  0.67032548  0.99727368  1
  Pb  Pb10  1  0.00000011  0.32967418  0.00272648  1
  Pb  Pb11  1  0.00000020  0.39736637  0.39736587  1
  Pb  Pb12  1  0.00000034  0.99727361  0.67032556  1
  Pb  Pb13  1  0.50000031  0.10263865  0.89736183  1
  Pb  Pb14  1  0.00000017  0.60263372  0.60263386  1
  Pb  Pb15  1  0.49999931  0.82966929  0.49727200  1
  Pb  Pb16  1  0.50000032  0.50272794  0.17033088  1
  Pb  Pb17  1  0.99999987  0.00272646  0.32967425  1
  Pb  Pb18  1  0.49999978  0.49727225  0.82966923  1
  Pb  Pb19  1  0.49999899  0.89736165  0.10263843  1
