# generated using pymatgen
data_Pr27Se40
_symmetry_space_group_name_H-M   'P 1'
_cell_length_a   7.80314767
_cell_length_b   38.99654184
_cell_length_c   14.92899778
_cell_angle_alpha   29.52629028
_cell_angle_beta   121.35908292
_cell_angle_gamma   109.34956997
_symmetry_Int_Tables_number   1
_chemical_formula_structural   Pr27Se40
_chemical_formula_sum   'Pr27 Se40'
_cell_volume   1830.38081443
_cell_formula_units_Z   1
loop_
 _symmetry_equiv_pos_site_id
 _symmetry_equiv_pos_as_xyz
  1  'x, y, z'
loop_
 _atom_site_type_symbol
 _atom_site_label
 _atom_site_symmetry_multiplicity
 _atom_site_fract_x
 _atom_site_fract_y
 _atom_site_fract_z
 _atom_site_occupancy
  Pr  Pr0  1  0.12694077  0.80078206  0.87278762  1
  Pr  Pr1  1  0.24691709  0.97662165  0.37118911  1
  Pr  Pr2  1  0.12073346  0.60436648  0.86047957  1
  Pr  Pr3  1  0.37272508  0.79976929  0.61890484  1
  Pr  Pr4  1  0.88143750  0.92656879  0.75074774  1
  Pr  Pr5  1  0.63017663  0.97738624  0.24895224  1
  Pr  Pr6  1  0.37079558  0.60385814  0.61756405  1
  Pr  Pr7  1  0.13076372  0.19681144  0.88679256  1
  Pr  Pr8  1  0.24684412  0.56970167  0.39091696  1
  Pr  Pr9  1  0.85621677  0.72537622  0.74159136  1
  Pr  Pr10  1  0.63161132  0.77530034  0.25495511  1
  Pr  Pr11  1  0.74581419  0.92510916  0.12199291  1
  Pr  Pr12  1  0.37554292  0.39756364  0.63058821  1
  Pr  Pr13  1  0.13121264  0.99371552  0.88940087  1
  Pr  Pr14  1  0.25303080  0.37323241  0.37918604  1
  Pr  Pr15  1  0.87730732  0.52215957  0.75420328  1
  Pr  Pr16  1  0.63875465  0.57084885  0.26485243  1
  Pr  Pr17  1  0.75349457  0.72543771  0.12555040  1
  Pr  Pr18  1  0.38213605  0.19934851  0.63282919  1
  Pr  Pr19  1  0.24512714  0.18009139  0.36188104  1
  Pr  Pr20  1  0.87641031  0.32235619  0.76003333  1
  Pr  Pr21  1  0.75591737  0.52541431  0.12707570  1
  Pr  Pr22  1  0.61282506  0.37546991  0.24161212  1
  Pr  Pr23  1  0.36226890  0.00432069  0.61274667  1
  Pr  Pr24  1  0.88011674  0.12399840  0.75342399  1
  Pr  Pr25  1  0.74485078  0.32823839  0.11392444  1
  Pr  Pr26  1  0.62199138  0.17602316  0.23964903  1
  Se  Se27  1  0.00188831  0.96645370  0.50580069  1
  Se  Se28  1  0.00245563  0.87034569  0.49900759  1
  Se  Se29  1  0.50496770  0.85830846  0.85617055  1
  Se  Se30  1  0.99404615  0.77038865  0.50223798  1
  Se  Se31  1  0.14791610  0.96822079  0.15330826  1
  Se  Se32  1  0.50509415  0.65646521  0.86468007  1
  Se  Se33  1  0.64393077  0.86986936  0.64780000  1
  Se  Se34  1  0.99784980  0.57348347  0.49268501  1
  Se  Se35  1  0.50387636  0.86392008  0.34250941  1
  Se  Se36  1  0.14653586  0.77171863  0.14001056  1
  Se  Se37  1  0.35206938  0.90169861  0.99314254  1
  Se  Se38  1  0.99473464  0.37080315  0.49727449  1
  Se  Se39  1  0.50252152  0.46439521  0.84117116  1
  Se  Se40  1  0.65789371  0.66756701  0.65824828  1
  Se  Se41  1  0.49830738  0.65932738  0.35077578  1
  Se  Se42  1  0.99897759  0.26978494  0.50321851  1
  Se  Se43  1  0.15247482  0.57141214  0.14525860  1
  Se  Se44  1  0.35315055  0.69992116  0.99963365  1
  Se  Se45  1  0.49250595  0.26355195  0.83732371  1
  Se  Se46  1  0.63657862  0.47141630  0.64380055  1
  Se  Se47  1  0.00352170  0.17151529  0.49828059  1
  Se  Se48  1  0.83908571  0.90107479  0.99610129  1
  Se  Se49  1  0.49868746  0.45998343  0.34926998  1
  Se  Se50  1  0.99506297  0.66821254  0.49932996  1
  Se  Se51  1  0.00783276  0.06949729  0.50953075  1
  Se  Se52  1  0.15422195  0.36777508  0.15972759  1
  Se  Se53  1  0.35328727  0.50020655  0.00042533  1
  Se  Se54  1  0.49820921  0.05903739  0.85245661  1
  Se  Se55  1  0.65117866  0.27375327  0.63855483  1
  Se  Se56  1  0.85199767  0.70067072  0.99797148  1
  Se  Se57  1  0.99949171  0.46799381  0.49956484  1
  Se  Se58  1  0.51036464  0.25538438  0.36529915  1
  Se  Se59  1  0.15690535  0.16973603  0.15450568  1
  Se  Se60  1  0.35761262  0.29792383  0.00392283  1
  Se  Se61  1  0.64871304  0.07248801  0.64481960  1
  Se  Se62  1  0.85638063  0.49944876  0.00287811  1
  Se  Se63  1  0.49816955  0.05667128  0.35941009  1
  Se  Se64  1  0.34105850  0.09969728  0.99913754  1
  Se  Se65  1  0.84098045  0.30051671  0.99801142  1
  Se  Se66  1  0.85250032  0.09949150  0.99791415  1
