# generated using pymatgen
data_K2ZrSi3(HO5)2
_symmetry_space_group_name_H-M   'P 1'
_cell_length_a   10.44256027
_cell_length_b   13.53674040
_cell_length_c   7.28865107
_cell_angle_alpha   90.00000000
_cell_angle_beta   90.00000000
_cell_angle_gamma   90.00000000
_symmetry_Int_Tables_number   1
_chemical_formula_structural   K2ZrSi3(HO5)2
_chemical_formula_sum   'K8 Zr4 Si12 H8 O40'
_cell_volume   1030.31079602
_cell_formula_units_Z   4
loop_
 _symmetry_equiv_pos_site_id
 _symmetry_equiv_pos_as_xyz
  1  'x, y, z'
loop_
 _atom_site_type_symbol
 _atom_site_label
 _atom_site_symmetry_multiplicity
 _atom_site_fract_x
 _atom_site_fract_y
 _atom_site_fract_z
 _atom_site_occupancy
  K  K0  1  0.92824624  0.07793022  0.78542202  1
  K  K1  1  0.57175376  0.92206978  0.28542202  1
  K  K2  1  0.42824624  0.42206978  0.21457798  1
  K  K3  1  0.07175376  0.57793022  0.71457798  1
  K  K4  1  0.78878872  0.36443541  0.85204809  1
  K  K5  1  0.71121128  0.63556459  0.35204809  1
  K  K6  1  0.28878872  0.13556459  0.14795191  1
  K  K7  1  0.21121128  0.86443541  0.64795191  1
  Zr  Zr8  1  0.94934900  0.20917886  0.24074056  1
  Zr  Zr9  1  0.55065100  0.79082114  0.74074056  1
  Zr  Zr10  1  0.44934900  0.29082114  0.75925944  1
  Zr  Zr11  1  0.05065100  0.70917886  0.25925944  1
  Si  Si12  1  0.96756879  0.95008683  0.26940352  1
  Si  Si13  1  0.53243121  0.04991317  0.76940352  1
  Si  Si14  1  0.46756879  0.54991317  0.73059648  1
  Si  Si15  1  0.03243121  0.45008683  0.23059648  1
  Si  Si16  1  0.82452314  0.82773216  0.99589425  1
  Si  Si17  1  0.67547686  0.17226784  0.49589425  1
  Si  Si18  1  0.32452314  0.67226784  0.00410575  1
  Si  Si19  1  0.17547686  0.32773216  0.50410575  1
  Si  Si20  1  0.86173943  0.83336894  0.58274963  1
  Si  Si21  1  0.63826057  0.16663106  0.08274963  1
  Si  Si22  1  0.36173943  0.66663106  0.41725037  1
  Si  Si23  1  0.13826057  0.33336894  0.91725037  1
  H  H24  1  0.73170620  0.59093483  0.83498328  1
  H  H25  1  0.76829380  0.40906517  0.33498328  1
  H  H26  1  0.23170620  0.90906517  0.16501672  1
  H  H27  1  0.26829380  0.09093483  0.66501672  1
  H  H28  1  0.84716277  0.60909754  0.96811590  1
  H  H29  1  0.65283723  0.39090246  0.46811590  1
  H  H30  1  0.34716277  0.89090246  0.03188410  1
  H  H31  1  0.15283723  0.10909754  0.53188410  1
  O  O32  1  0.92044540  0.36678013  0.25662772  1
  O  O33  1  0.57955460  0.63321987  0.75662772  1
  O  O34  1  0.42044540  0.13321987  0.74337228  1
  O  O35  1  0.07955460  0.86678013  0.24337228  1
  O  O36  1  0.88608138  0.73023588  0.09274238  1
  O  O37  1  0.61391862  0.26976412  0.59274238  1
  O  O38  1  0.38608138  0.76976412  0.90725762  1
  O  O39  1  0.11391862  0.23023588  0.40725762  1
  O  O40  1  0.94447168  0.74122854  0.50251742  1
  O  O41  1  0.55552832  0.25877146  0.00251742  1
  O  O42  1  0.44447168  0.75877146  0.49748258  1
  O  O43  1  0.05552832  0.24122854  0.99748258  1
  O  O44  1  0.01430082  0.06195270  0.23030026  1
  O  O45  1  0.48569918  0.93804730  0.73030026  1
  O  O46  1  0.51430082  0.43804730  0.76969974  1
  O  O47  1  0.98569918  0.56195270  0.26969974  1
  O  O48  1  0.84614512  0.92524348  0.12874591  1
  O  O49  1  0.65385488  0.07475652  0.62874591  1
  O  O50  1  0.34614512  0.57475652  0.87125409  1
  O  O51  1  0.15385488  0.42524348  0.37125409  1
  O  O52  1  0.79151319  0.18527633  0.06222148  1
  O  O53  1  0.70848681  0.81472367  0.56222148  1
  O  O54  1  0.29151319  0.31472367  0.93777852  1
  O  O55  1  0.20848681  0.68527633  0.43777852  1
  O  O56  1  0.89899811  0.85464347  0.80071362  1
  O  O57  1  0.60100189  0.14535653  0.30071362  1
  O  O58  1  0.39899811  0.64535653  0.19928638  1
  O  O59  1  0.10100189  0.35464347  0.69928638  1
  O  O60  1  0.90809742  0.93739339  0.48046528  1
  O  O61  1  0.59190258  0.06260661  0.98046528  1
  O  O62  1  0.40809742  0.56260661  0.51953472  1
  O  O63  1  0.09190258  0.43739339  0.01953472  1
  O  O64  1  0.82797182  0.18574669  0.46243259  1
  O  O65  1  0.67202818  0.81425331  0.96243259  1
  O  O66  1  0.32797182  0.31425331  0.53756741  1
  O  O67  1  0.17202818  0.68574669  0.03756741  1
  O  O68  1  0.81521941  0.56193652  0.87644320  1
  O  O69  1  0.68478059  0.43806348  0.37644320  1
  O  O70  1  0.31521941  0.93806348  0.12355680  1
  O  O71  1  0.18478059  0.06193652  0.62355680  1
