# generated using pymatgen
data_BaNb2Fe2(PO4)6
_symmetry_space_group_name_H-M   'P 1'
_cell_length_a   9.28317463
_cell_length_b   18.52717803
_cell_length_c   16.38528460
_cell_angle_alpha   27.82322949
_cell_angle_beta   50.47076264
_cell_angle_gamma   55.74406630
_symmetry_Int_Tables_number   1
_chemical_formula_structural   BaNb2Fe2(PO4)6
_chemical_formula_sum   'Ba2 Nb4 Fe4 P12 O48'
_cell_volume   1014.52547202
_cell_formula_units_Z   2
loop_
 _symmetry_equiv_pos_site_id
 _symmetry_equiv_pos_as_xyz
  1  'x, y, z'
loop_
 _atom_site_type_symbol
 _atom_site_label
 _atom_site_symmetry_multiplicity
 _atom_site_fract_x
 _atom_site_fract_y
 _atom_site_fract_z
 _atom_site_occupancy
  Ba  Ba0  1  0.00000000  0.50000000  0.00000000  1
  Ba  Ba1  1  0.50000000  0.00000000  0.50000000  1
  Nb  Nb2  1  0.14245800  0.00098311  0.14610122  1
  Nb  Nb3  1  0.35754200  0.50098311  0.35193257  1
  Nb  Nb4  1  0.85754200  0.99901689  0.85389878  1
  Nb  Nb5  1  0.64245800  0.49901689  0.64806743  1
  Fe  Fe6  1  0.34493494  0.99810098  0.35168925  1
  Fe  Fe7  1  0.15506506  0.49810098  0.15210880  1
  Fe  Fe8  1  0.65506506  0.00189902  0.64831075  1
  Fe  Fe9  1  0.84493494  0.50189902  0.84789120  1
  P  P10  1  0.03537483  0.14457060  0.46175599  1
  P  P11  1  0.74398117  0.21717876  0.03614129  1
  P  P12  1  0.53537483  0.35542940  0.25089718  1
  P  P13  1  0.03003411  0.63864189  0.47188148  1
  P  P14  1  0.46996589  0.13864189  0.75083474  1
  P  P15  1  0.75601883  0.71717876  0.02950118  1
  P  P16  1  0.24398117  0.28282124  0.97049882  1
  P  P17  1  0.53003411  0.86135811  0.24916526  1
  P  P18  1  0.96996589  0.36135811  0.52811852  1
  P  P19  1  0.46462517  0.64457060  0.74910282  1
  P  P20  1  0.25601883  0.78282124  0.96385871  1
  P  P21  1  0.96462517  0.85542940  0.53824401  1
  O  O22  1  0.25248016  0.18776013  0.14120868  1
  O  O23  1  0.06816022  0.31781411  0.29241119  1
  O  O24  1  0.20764531  0.06756464  0.43789606  1
  O  O25  1  0.00722230  0.06027881  0.64096239  1
  O  O26  1  0.57578044  0.10925417  0.20882227  1
  O  O27  1  0.36072798  0.36827074  0.24728393  1
  O  O28  1  0.75248016  0.31223987  0.01672894  1
  O  O29  1  0.92838655  0.11807942  0.06412428  1
  O  O30  1  0.14376010  0.37506868  0.50728797  1
  O  O31  1  0.25863354  0.68200647  0.14201567  1
  O  O32  1  0.56816022  0.18218589  0.42803942  1
  O  O33  1  0.70764531  0.43243536  0.07302534  1
  O  O34  1  0.50722230  0.43972119  0.26152001  1
  O  O35  1  0.06775734  0.81359104  0.29839653  1
  O  O36  1  0.19921597  0.57309213  0.42805810  1
  O  O37  1  0.01255532  0.55315888  0.64388047  1
  O  O38  1  0.48744468  0.05315888  0.74980176  1
  O  O39  1  0.30078403  0.07309213  0.92575765  1
  O  O40  1  0.43224266  0.31359104  0.57442139  1
  O  O41  1  0.57161345  0.61807942  0.19971688  1
  O  O42  1  0.86072798  0.13172926  0.48382540  1
  O  O43  1  0.07578044  0.39074583  0.92733060  1
  O  O44  1  0.24136646  0.18200647  0.99397139  1
  O  O45  1  0.35623990  0.87506868  0.24257467  1
  O  O46  1  0.64376010  0.12493132  0.75742533  1
  O  O47  1  0.75863354  0.81799353  0.00602861  1
  O  O48  1  0.92421956  0.60925417  0.07266940  1
  O  O49  1  0.13927202  0.86827074  0.51617460  1
  O  O50  1  0.42838655  0.38192058  0.80028312  1
  O  O51  1  0.56775734  0.68640896  0.42557861  1
  O  O52  1  0.69921597  0.92690787  0.07424235  1
  O  O53  1  0.51255532  0.94684112  0.25019824  1
  O  O54  1  0.98744468  0.44684112  0.35611953  1
  O  O55  1  0.80078403  0.42690787  0.57194190  1
  O  O56  1  0.93224266  0.18640896  0.70160347  1
  O  O57  1  0.49277770  0.56027881  0.73847999  1
  O  O58  1  0.29235469  0.56756464  0.92697466  1
  O  O59  1  0.43183978  0.81781411  0.57196058  1
  O  O60  1  0.74136646  0.31799353  0.85798433  1
  O  O61  1  0.85623990  0.62493132  0.49271203  1
  O  O62  1  0.07161345  0.88192058  0.93587572  1
  O  O63  1  0.24751984  0.68776013  0.98327106  1
  O  O64  1  0.63927202  0.63172926  0.75271607  1
  O  O65  1  0.42421956  0.89074583  0.79117773  1
  O  O66  1  0.99277770  0.93972119  0.35903761  1
  O  O67  1  0.79235469  0.93243536  0.56210394  1
  O  O68  1  0.93183978  0.68218589  0.70758881  1
  O  O69  1  0.74751984  0.81223987  0.85879132  1
