# generated using pymatgen
data_Ce5Ir4
_symmetry_space_group_name_H-M   'P 1'
_cell_length_a   7.38447224
_cell_length_b   7.59306639
_cell_length_c   14.86063265
_cell_angle_alpha   90.00000000
_cell_angle_beta   90.00000000
_cell_angle_gamma   90.00000000
_symmetry_Int_Tables_number   1
_chemical_formula_structural   Ce5Ir4
_chemical_formula_sum   'Ce20 Ir16'
_cell_volume   833.24738247
_cell_formula_units_Z   4
loop_
 _symmetry_equiv_pos_site_id
 _symmetry_equiv_pos_as_xyz
  1  'x, y, z'
loop_
 _atom_site_type_symbol
 _atom_site_label
 _atom_site_symmetry_multiplicity
 _atom_site_fract_x
 _atom_site_fract_y
 _atom_site_fract_z
 _atom_site_occupancy
  Ce  Ce0  1  0.51070071  0.32111797  0.09255598  1
  Ce  Ce1  1  0.32061072  0.02141883  0.25000000  1
  Ce  Ce2  1  0.34085087  0.16601715  0.62105898  1
  Ce  Ce3  1  0.65914913  0.83398285  0.12105898  1
  Ce  Ce4  1  0.01070071  0.17888203  0.09255598  1
  Ce  Ce5  1  0.15914913  0.66601715  0.12105898  1
  Ce  Ce6  1  0.98929929  0.82111797  0.59255598  1
  Ce  Ce7  1  0.82061072  0.47858117  0.25000000  1
  Ce  Ce8  1  0.84085087  0.33398285  0.62105898  1
  Ce  Ce9  1  0.48929929  0.67888203  0.90744402  1
  Ce  Ce10  1  0.48929929  0.67888203  0.59255598  1
  Ce  Ce11  1  0.65914913  0.83398285  0.37894102  1
  Ce  Ce12  1  0.84085087  0.33398285  0.87894102  1
  Ce  Ce13  1  0.51070071  0.32111797  0.40744402  1
  Ce  Ce14  1  0.01070071  0.17888203  0.40744402  1
  Ce  Ce15  1  0.67938928  0.97858117  0.75000000  1
  Ce  Ce16  1  0.98929929  0.82111797  0.90744402  1
  Ce  Ce17  1  0.34085087  0.16601715  0.87894102  1
  Ce  Ce18  1  0.17938928  0.52141883  0.75000000  1
  Ce  Ce19  1  0.15914913  0.66601715  0.37894102  1
  Ir  Ir20  1  0.69209541  0.13991028  0.25000000  1
  Ir  Ir21  1  0.31407449  0.96275068  0.03847483  1
  Ir  Ir22  1  0.68592551  0.03724932  0.96152517  1
  Ir  Ir23  1  0.81407449  0.53724932  0.46152517  1
  Ir  Ir24  1  0.30790459  0.86008972  0.75000000  1
  Ir  Ir25  1  0.18592551  0.46275068  0.96152517  1
  Ir  Ir26  1  0.46039898  0.62065423  0.25000000  1
  Ir  Ir27  1  0.03960102  0.12065423  0.75000000  1
  Ir  Ir28  1  0.96039898  0.87934577  0.25000000  1
  Ir  Ir29  1  0.31407449  0.96275068  0.46152517  1
  Ir  Ir30  1  0.53960102  0.37934577  0.75000000  1
  Ir  Ir31  1  0.80790459  0.63991028  0.75000000  1
  Ir  Ir32  1  0.68592551  0.03724932  0.53847483  1
  Ir  Ir33  1  0.19209541  0.36008972  0.25000000  1
  Ir  Ir34  1  0.81407449  0.53724932  0.03847483  1
  Ir  Ir35  1  0.18592551  0.46275068  0.53847483  1
