# generated using pymatgen
data_CsTa6PbCl18
_symmetry_space_group_name_H-M   'P 1'
_cell_length_a   9.43992711
_cell_length_b   9.43992691
_cell_length_c   17.58799209
_cell_angle_alpha   90.00000000
_cell_angle_beta   90.00000000
_cell_angle_gamma   120.00000075
_symmetry_Int_Tables_number   1
_chemical_formula_structural   CsTa6PbCl18
_chemical_formula_sum   'Cs2 Ta12 Pb2 Cl36'
_cell_volume   1357.32598237
_cell_formula_units_Z   2
loop_
 _symmetry_equiv_pos_site_id
 _symmetry_equiv_pos_as_xyz
  1  'x, y, z'
loop_
 _atom_site_type_symbol
 _atom_site_label
 _atom_site_symmetry_multiplicity
 _atom_site_fract_x
 _atom_site_fract_y
 _atom_site_fract_z
 _atom_site_occupancy
  Cs  Cs0  1  0.66666700  0.33333300  0.75000000  1
  Cs  Cs1  1  0.33333300  0.66666700  0.25000000  1
  Ta  Ta2  1  0.80843512  0.83489774  0.93188073  1
  Ta  Ta3  1  0.83489774  0.02646263  0.06811927  1
  Ta  Ta4  1  0.19156488  0.02646263  0.43188073  1
  Ta  Ta5  1  0.19156488  0.16510226  0.06811927  1
  Ta  Ta6  1  0.16510226  0.97353737  0.93188073  1
  Ta  Ta7  1  0.97353737  0.16510226  0.43188073  1
  Ta  Ta8  1  0.80843512  0.97353737  0.56811927  1
  Ta  Ta9  1  0.02646263  0.83489774  0.56811927  1
  Ta  Ta10  1  0.16510226  0.19156488  0.56811927  1
  Ta  Ta11  1  0.83489774  0.80843512  0.43188073  1
  Ta  Ta12  1  0.97353737  0.80843512  0.06811927  1
  Ta  Ta13  1  0.02646263  0.19156488  0.93188073  1
  Pb  Pb14  1  0.66666700  0.33333300  0.25000000  1
  Pb  Pb15  1  0.33333300  0.66666700  0.75000000  1
  Cl  Cl16  1  0.83790841  0.58336086  0.50012752  1
  Cl  Cl17  1  0.05396656  0.62392224  0.65508286  1
  Cl  Cl18  1  0.41663914  0.16209159  0.99987248  1
  Cl  Cl19  1  0.74545245  0.16209159  0.50012752  1
  Cl  Cl20  1  0.16209159  0.74545245  0.00012752  1
  Cl  Cl21  1  0.16209159  0.41663914  0.49987248  1
  Cl  Cl22  1  0.22386651  0.03025661  0.65949455  1
  Cl  Cl23  1  0.96974339  0.19360990  0.65949455  1
  Cl  Cl24  1  0.62392224  0.05396656  0.15508286  1
  Cl  Cl25  1  0.19360990  0.96974339  0.15949455  1
  Cl  Cl26  1  0.03025661  0.22386651  0.15949455  1
  Cl  Cl27  1  0.56995568  0.62392224  0.84491714  1
  Cl  Cl28  1  0.58336086  0.83790841  0.00012752  1
  Cl  Cl29  1  0.37607776  0.43004432  0.65508286  1
  Cl  Cl30  1  0.41663914  0.25454755  0.50012752  1
  Cl  Cl31  1  0.83790841  0.25454755  0.99987248  1
  Cl  Cl32  1  0.43004432  0.05396656  0.34491714  1
  Cl  Cl33  1  0.77613349  0.96974339  0.34050545  1
  Cl  Cl34  1  0.58336086  0.74545245  0.49987248  1
  Cl  Cl35  1  0.80639010  0.03025661  0.84050545  1
  Cl  Cl36  1  0.25454755  0.83790841  0.49987248  1
  Cl  Cl37  1  0.62392224  0.56995568  0.34491714  1
  Cl  Cl38  1  0.94603344  0.56995568  0.15508286  1
  Cl  Cl39  1  0.94603344  0.37607776  0.34491714  1
  Cl  Cl40  1  0.77613349  0.80639010  0.15949455  1
  Cl  Cl41  1  0.96974339  0.77613349  0.84050545  1
  Cl  Cl42  1  0.56995568  0.94603344  0.65508286  1
  Cl  Cl43  1  0.22386651  0.19360990  0.84050545  1
  Cl  Cl44  1  0.25454755  0.41663914  0.00012752  1
  Cl  Cl45  1  0.19360990  0.22386651  0.34050545  1
  Cl  Cl46  1  0.37607776  0.94603344  0.84491714  1
  Cl  Cl47  1  0.05396656  0.43004432  0.84491714  1
  Cl  Cl48  1  0.80639010  0.77613349  0.65949455  1
  Cl  Cl49  1  0.43004432  0.37607776  0.15508286  1
  Cl  Cl50  1  0.03025661  0.80639010  0.34050545  1
  Cl  Cl51  1  0.74545245  0.58336086  0.99987248  1
