# generated using pymatgen
data_Ba21(Cd2Sb9)2
_symmetry_space_group_name_H-M   'P 1'
_cell_length_a   13.36795536
_cell_length_b   13.36795581
_cell_length_c   37.83666272
_cell_angle_alpha   90.00000000
_cell_angle_beta   90.00000000
_cell_angle_gamma   92.65293652
_symmetry_Int_Tables_number   1
_chemical_formula_structural   Ba21(Cd2Sb9)2
_chemical_formula_sum   'Ba84 Cd16 Sb72'
_cell_volume   6754.24949407
_cell_formula_units_Z   4
loop_
 _symmetry_equiv_pos_site_id
 _symmetry_equiv_pos_as_xyz
  1  'x, y, z'
loop_
 _atom_site_type_symbol
 _atom_site_label
 _atom_site_symmetry_multiplicity
 _atom_site_fract_x
 _atom_site_fract_y
 _atom_site_fract_z
 _atom_site_occupancy
  Ba  Ba0  1  0.89548508  0.10451492  0.37781725  1
  Ba  Ba1  1  0.76751398  0.89267144  0.67019084  1
  Ba  Ba2  1  0.56353354  0.75775018  0.32292157  1
  Ba  Ba3  1  0.39267144  0.26751398  0.17019084  1
  Ba  Ba4  1  0.06345930  0.24202357  0.07565943  1
  Ba  Ba5  1  0.32306809  0.00169952  0.53144669  1
  Ba  Ba6  1  0.49830048  0.17693191  0.96855331  1
  Ba  Ba7  1  0.93654070  0.75797643  0.92434057  1
  Ba  Ba8  1  0.48548391  0.26948960  0.27749393  1
  Ba  Ba9  1  0.26751398  0.39267144  0.82980916  1
  Ba  Ba10  1  0.10451492  0.89548508  0.62218275  1
  Ba  Ba11  1  0.75564249  0.24435751  0.54246492  1
  Ba  Ba12  1  0.41170962  0.93992570  0.12909814  1
  Ba  Ba13  1  0.92454616  0.82440119  0.43928143  1
  Ba  Ba14  1  0.24224982  0.43646646  0.32292157  1
  Ba  Ba15  1  0.26900709  0.73099291  0.79610210  1
  Ba  Ba16  1  0.00731929  0.72980298  0.71870375  1
  Ba  Ba17  1  0.25564249  0.74435751  0.95753508  1
  Ba  Ba18  1  0.98809210  0.77310059  0.03907791  1
  Ba  Ba19  1  0.60451492  0.39548508  0.87781725  1
  Ba  Ba20  1  0.74202357  0.56345930  0.57565943  1
  Ba  Ba21  1  0.56007430  0.08829038  0.37090186  1
  Ba  Ba22  1  0.73051040  0.51451609  0.27749393  1
  Ba  Ba23  1  0.27019702  0.99268071  0.71870375  1
  Ba  Ba24  1  0.32440119  0.42454616  0.93928143  1
  Ba  Ba25  1  0.06353354  0.25775018  0.17707843  1
  Ba  Ba26  1  0.74224982  0.93646646  0.17707843  1
  Ba  Ba27  1  0.89267144  0.76751398  0.32980916  1
  Ba  Ba28  1  0.43654070  0.25797643  0.57565943  1
  Ba  Ba29  1  0.98548391  0.76948960  0.22250607  1
  Ba  Ba30  1  0.76900709  0.23099291  0.70389790  1
  Ba  Ba31  1  0.93646646  0.74224982  0.82292157  1
  Ba  Ba32  1  0.72689941  0.51190790  0.46092209  1
  Ba  Ba33  1  0.73099291  0.26900709  0.20389790  1
  Ba  Ba34  1  0.77019702  0.49268071  0.78129625  1
  Ba  Ba35  1  0.43646646  0.24224982  0.67707843  1
  Ba  Ba36  1  0.77310059  0.98809210  0.96092209  1
  Ba  Ba37  1  0.60732856  0.73248602  0.82980916  1
  Ba  Ba38  1  0.51451609  0.73051040  0.72250607  1
  Ba  Ba39  1  0.48809210  0.27310059  0.46092209  1
  Ba  Ba40  1  0.25775018  0.06353354  0.82292157  1
  Ba  Ba41  1  0.23248602  0.10732856  0.32980916  1
  Ba  Ba42  1  0.26948960  0.48548391  0.72250607  1
  Ba  Ba43  1  0.99830048  0.67693191  0.53144669  1
  Ba  Ba44  1  0.17693191  0.49830048  0.03144669  1
  Ba  Ba45  1  0.91170962  0.43992570  0.37090186  1
  Ba  Ba46  1  0.56345930  0.74202357  0.42434057  1
  Ba  Ba47  1  0.24435751  0.75564249  0.45753508  1
  Ba  Ba48  1  0.93992570  0.41170962  0.87090186  1
  Ba  Ba49  1  0.82306809  0.50169952  0.96855331  1
  Ba  Ba50  1  0.01190790  0.22689941  0.96092209  1
  Ba  Ba51  1  0.39548508  0.60451492  0.12218275  1
  Ba  Ba52  1  0.74435751  0.25564249  0.04246492  1
  Ba  Ba53  1  0.75797643  0.93654070  0.07565943  1
  Ba  Ba54  1  0.75775018  0.56353354  0.67707843  1
  Ba  Ba55  1  0.17559881  0.07545384  0.43928143  1
  Ba  Ba56  1  0.10732856  0.23248602  0.67019084  1
  Ba  Ba57  1  0.42454616  0.32440119  0.06071857  1
  Ba  Ba58  1  0.73248602  0.60732856  0.17019084  1
  Ba  Ba59  1  0.24202357  0.06345930  0.92434057  1
  Ba  Ba60  1  0.23099291  0.76900709  0.29610210  1
  Ba  Ba61  1  0.01451609  0.23051040  0.77749393  1
  Ba  Ba62  1  0.00169952  0.32306809  0.46855331  1
  Ba  Ba63  1  0.50169952  0.82306809  0.03144669  1
  Ba  Ba64  1  0.27310059  0.48809210  0.53907791  1
  Ba  Ba65  1  0.82440119  0.92454616  0.56071857  1
  Ba  Ba66  1  0.22980298  0.50731929  0.21870375  1
  Ba  Ba67  1  0.43992570  0.91170962  0.62909814  1
  Ba  Ba68  1  0.23051040  0.01451609  0.22250607  1
  Ba  Ba69  1  0.67693191  0.99830048  0.46855331  1
  Ba  Ba70  1  0.72980298  0.00731929  0.28129625  1
  Ba  Ba71  1  0.50731929  0.22980298  0.78129625  1
  Ba  Ba72  1  0.57545384  0.67559881  0.93928143  1
  Ba  Ba73  1  0.07545384  0.17559881  0.56071857  1
  Ba  Ba74  1  0.67559881  0.57545384  0.06071857  1
  Ba  Ba75  1  0.58829038  0.06007430  0.87090186  1
  Ba  Ba76  1  0.22689941  0.01190790  0.03907791  1
  Ba  Ba77  1  0.51190790  0.72689941  0.53907791  1
  Ba  Ba78  1  0.76948960  0.98548391  0.77749393  1
  Ba  Ba79  1  0.49268071  0.77019702  0.21870375  1
  Ba  Ba80  1  0.99268071  0.27019702  0.28129625  1
  Ba  Ba81  1  0.06007430  0.58829038  0.12909814  1
  Ba  Ba82  1  0.08829038  0.56007430  0.62909814  1
  Ba  Ba83  1  0.25797643  0.43654070  0.42434057  1
  Cd  Cd84  1  0.61139389  0.15235687  0.12692849  1
  Cd  Cd85  1  0.34764313  0.88860611  0.37307151  1
  Cd  Cd86  1  0.49037547  0.50962453  0.35438945  1
  Cd  Cd87  1  0.50962453  0.49037547  0.64561055  1
  Cd  Cd88  1  0.00962453  0.99037547  0.85438945  1
  Cd  Cd89  1  0.88860611  0.34764313  0.62692849  1
  Cd  Cd90  1  0.64847799  0.35152201  0.37307100  1
  Cd  Cd91  1  0.14847799  0.85152201  0.12692900  1
  Cd  Cd92  1  0.15235687  0.61139389  0.87307151  1
  Cd  Cd93  1  0.65235687  0.11139389  0.62692849  1
  Cd  Cd94  1  0.85152201  0.14847799  0.87307100  1
  Cd  Cd95  1  0.38860611  0.84764313  0.87307151  1
  Cd  Cd96  1  0.11139389  0.65235687  0.37307151  1
  Cd  Cd97  1  0.84764313  0.38860611  0.12692849  1
  Cd  Cd98  1  0.99037547  0.00962453  0.14561055  1
  Cd  Cd99  1  0.35152201  0.64847799  0.62692900  1
  Sb  Sb100  1  0.37922561  0.62077439  0.87622771  1
  Sb  Sb101  1  0.46655264  0.92075104  0.94260068  1
  Sb  Sb102  1  0.53523889  0.07114591  0.20092918  1
  Sb  Sb103  1  0.25722277  0.74277723  0.68937560  1
  Sb  Sb104  1  0.02245101  0.97754899  0.28836877  1
  Sb  Sb105  1  0.75444415  0.75444415  0.00000000  1
  Sb  Sb106  1  0.25469762  0.74530238  0.56348126  1
  Sb  Sb107  1  0.19736101  0.07521029  0.13002410  1
  Sb  Sb108  1  0.53344736  0.07924896  0.05739932  1
  Sb  Sb109  1  0.42075104  0.96655264  0.44260068  1
  Sb  Sb110  1  0.24555585  0.24555585  0.00000000  1
  Sb  Sb111  1  0.24277723  0.75722277  0.18937560  1
  Sb  Sb112  1  0.59415726  0.76983720  0.12177620  1
  Sb  Sb113  1  0.75469762  0.24530238  0.93651874  1
  Sb  Sb114  1  0.06956418  0.93043582  0.51593677  1
  Sb  Sb115  1  0.73667615  0.76332385  0.25000000  1
  Sb  Sb116  1  0.96655264  0.42075104  0.55739932  1
  Sb  Sb117  1  0.24530238  0.75469762  0.06348126  1
  Sb  Sb118  1  0.12077439  0.87922561  0.37622771  1
  Sb  Sb119  1  0.23667615  0.26332385  0.25000000  1
  Sb  Sb120  1  0.42478971  0.30263899  0.36997590  1
  Sb  Sb121  1  0.57114591  0.03523889  0.70092918  1
  Sb  Sb122  1  0.23016280  0.40584274  0.12177620  1
  Sb  Sb123  1  0.69736101  0.57521029  0.36997590  1
  Sb  Sb124  1  0.07521029  0.19736101  0.86997590  1
  Sb  Sb125  1  0.92478971  0.80263899  0.13002410  1
  Sb  Sb126  1  0.07924896  0.53344736  0.94260068  1
  Sb  Sb127  1  0.03523889  0.57114591  0.29907082  1
  Sb  Sb128  1  0.45484020  0.54515980  0.47004551  1
  Sb  Sb129  1  0.95484020  0.04515980  0.02995449  1
  Sb  Sb130  1  0.76983720  0.59415726  0.87822380  1
  Sb  Sb131  1  0.54515980  0.45484020  0.52995449  1
  Sb  Sb132  1  0.93043582  0.06956418  0.48406323  1
  Sb  Sb133  1  0.15938005  0.84061995  0.87484033  1
  Sb  Sb134  1  0.57924896  0.03344736  0.55739932  1
  Sb  Sb135  1  0.96476111  0.42885409  0.70092918  1
  Sb  Sb136  1  0.93923466  0.06076534  0.22311244  1
  Sb  Sb137  1  0.75722277  0.24277723  0.81062440  1
  Sb  Sb138  1  0.34061995  0.65938005  0.37484033  1
  Sb  Sb139  1  0.84061995  0.15938005  0.12515967  1
  Sb  Sb140  1  0.06076534  0.93923466  0.77688756  1
  Sb  Sb141  1  0.40584274  0.23016280  0.87822380  1
  Sb  Sb142  1  0.90584274  0.73016280  0.62177620  1
  Sb  Sb143  1  0.52245101  0.47754899  0.21163123  1
  Sb  Sb144  1  0.92885409  0.46476111  0.20092918  1
  Sb  Sb145  1  0.62077439  0.37922561  0.12377229  1
  Sb  Sb146  1  0.74530238  0.25469762  0.43651874  1
  Sb  Sb147  1  0.26332385  0.23667615  0.75000000  1
  Sb  Sb148  1  0.25444415  0.25444415  0.50000000  1
  Sb  Sb149  1  0.04515980  0.95484020  0.97004551  1
  Sb  Sb150  1  0.09415726  0.26983720  0.37822380  1
  Sb  Sb151  1  0.43043582  0.56956418  0.01593677  1
  Sb  Sb152  1  0.74277723  0.25722277  0.31062440  1
  Sb  Sb153  1  0.76332385  0.73667615  0.75000000  1
  Sb  Sb154  1  0.07114591  0.53523889  0.79907082  1
  Sb  Sb155  1  0.26983720  0.09415726  0.62177620  1
  Sb  Sb156  1  0.56956418  0.43043582  0.98406323  1
  Sb  Sb157  1  0.56076534  0.43923466  0.72311244  1
  Sb  Sb158  1  0.92075104  0.46655264  0.05739932  1
  Sb  Sb159  1  0.74555585  0.74555585  0.50000000  1
  Sb  Sb160  1  0.97754899  0.02245101  0.71163123  1
  Sb  Sb161  1  0.42885409  0.96476111  0.29907082  1
  Sb  Sb162  1  0.47754899  0.52245101  0.78836877  1
  Sb  Sb163  1  0.30263899  0.42478971  0.63002410  1
  Sb  Sb164  1  0.03344736  0.57924896  0.44260068  1
  Sb  Sb165  1  0.87922561  0.12077439  0.62377229  1
  Sb  Sb166  1  0.65938005  0.34061995  0.62515967  1
  Sb  Sb167  1  0.73016280  0.90584274  0.37822380  1
  Sb  Sb168  1  0.57521029  0.69736101  0.63002410  1
  Sb  Sb169  1  0.46476111  0.92885409  0.79907082  1
  Sb  Sb170  1  0.43923466  0.56076534  0.27688756  1
  Sb  Sb171  1  0.80263899  0.92478971  0.86997590  1
