# generated using pymatgen
data_TiTlWO5F
_symmetry_space_group_name_H-M   'P 1'
_cell_length_a   7.47754363
_cell_length_b   7.33643957
_cell_length_c   7.33644039
_cell_angle_alpha   60.28290969
_cell_angle_beta   59.36170305
_cell_angle_gamma   59.36170487
_symmetry_Int_Tables_number   1
_chemical_formula_structural   TiTlWO5F
_chemical_formula_sum   'Ti2 Tl2 W2 O10 F2'
_cell_volume   282.39570218
_cell_formula_units_Z   2
loop_
 _symmetry_equiv_pos_site_id
 _symmetry_equiv_pos_as_xyz
  1  'x, y, z'
loop_
 _atom_site_type_symbol
 _atom_site_label
 _atom_site_symmetry_multiplicity
 _atom_site_fract_x
 _atom_site_fract_y
 _atom_site_fract_z
 _atom_site_occupancy
  Ti  Ti0  1  0.98417088  0.01520017  0.01520017  1
  Ti  Ti1  1  0.51457122  0.98479983  0.98479983  1
  Tl  Tl2  1  0.44629305  0.39609568  0.39609568  1
  Tl  Tl3  1  0.73848442  0.60390432  0.60390432  1
  W  W4  1  0.01308234  1.00000000  0.50000000  1
  W  W5  1  0.01308234  0.50000000  0.00000000  1
  O  O6  1  0.04784665  0.06196982  0.69374768  1
  O  O7  1  0.04784665  0.69374768  0.06196982  1
  O  O8  1  0.05960325  0.68362788  0.68362788  1
  O  O9  1  0.30356416  0.30625232  0.93803018  1
  O  O10  1  0.30356416  0.93803018  0.30625232  1
  O  O11  1  0.68666936  0.05812803  0.68735762  1
  O  O12  1  0.68666936  0.68735762  0.05812803  1
  O  O13  1  0.92685900  0.31637212  0.31637212  1
  O  O14  1  0.93215502  0.31264238  0.94187197  1
  O  O15  1  0.93215502  0.94187197  0.31264238  1
  F  F16  1  0.67309788  0.06859369  0.06859369  1
  F  F17  1  0.31028525  0.93140631  0.93140631  1
