# generated using pymatgen
data_Cs2Cr4O13
_symmetry_space_group_name_H-M   'P 1'
_cell_length_a   8.22503101
_cell_length_b   8.99562475
_cell_length_c   21.28402696
_cell_angle_alpha   90.00000000
_cell_angle_beta   90.00000000
_cell_angle_gamma   106.52852927
_symmetry_Int_Tables_number   1
_chemical_formula_structural   Cs2Cr4O13
_chemical_formula_sum   'Cs8 Cr16 O52'
_cell_volume   1509.71692998
_cell_formula_units_Z   4
loop_
 _symmetry_equiv_pos_site_id
 _symmetry_equiv_pos_as_xyz
  1  'x, y, z'
loop_
 _atom_site_type_symbol
 _atom_site_label
 _atom_site_symmetry_multiplicity
 _atom_site_fract_x
 _atom_site_fract_y
 _atom_site_fract_z
 _atom_site_occupancy
  O  O0  1  0.09368657  0.22211238  0.12384701  1
  O  O1  1  0.40631343  0.27788762  0.62384701  1
  O  O2  1  0.90631343  0.77788762  0.87615299  1
  O  O3  1  0.59368657  0.72211238  0.37615299  1
  O  O4  1  0.19211278  0.43395728  0.03410745  1
  O  O5  1  0.30788722  0.06604272  0.53410745  1
  O  O6  1  0.80788722  0.56604272  0.96589255  1
  O  O7  1  0.69211278  0.93395728  0.46589255  1
  O  O8  1  0.42014032  0.38203714  0.11449716  1
  O  O9  1  0.07985968  0.11796286  0.61449716  1
  O  O10  1  0.57985968  0.61796286  0.88550284  1
  O  O11  1  0.92014032  0.88203714  0.38550284  1
  O  O12  1  0.28727105  0.15612098  0.02234345  1
  O  O13  1  0.21272895  0.34387902  0.52234345  1
  O  O14  1  0.71272895  0.84387902  0.97765655  1
  O  O15  1  0.78727105  0.65612098  0.47765655  1
  O  O16  1  0.26978944  0.97657986  0.91771858  1
  O  O17  1  0.23021056  0.52342014  0.41771858  1
  O  O18  1  0.58349981  0.16729816  0.95089540  1
  O  O19  1  0.73021056  0.02342014  0.08228142  1
  O  O20  1  0.32708907  0.27456641  0.90261654  1
  O  O21  1  0.17291093  0.22543359  0.40261654  1
  O  O22  1  0.67291093  0.72543359  0.09738346  1
  O  O23  1  0.82708907  0.77456641  0.59738346  1
  O  O24  1  0.90468766  0.32068540  0.70316065  1
  O  O25  1  0.59531234  0.17931460  0.20316065  1
  O  O26  1  0.09531234  0.67931460  0.29683935  1
  O  O27  1  0.40468766  0.82068540  0.79683935  1
  O  O28  1  0.01147020  0.60045396  0.75456297  1
  O  O29  1  0.48852980  0.89954604  0.25456297  1
  O  O30  1  0.98852980  0.39954604  0.24543703  1
  O  O31  1  0.51147020  0.10045396  0.74543703  1
  O  O32  1  0.18564265  0.39370331  0.77376219  1
  O  O33  1  0.31435735  0.10629669  0.27376219  1
  O  O34  1  0.81435735  0.60629669  0.22623781  1
  O  O35  1  0.68564265  0.89370331  0.72623781  1
  O  O36  1  0.20338508  0.52979795  0.65449816  1
  O  O37  1  0.29661492  0.97020205  0.15449816  1
  O  O38  1  0.79661492  0.47020205  0.34550184  1
  O  O39  1  0.70338508  0.02979795  0.84550184  1
  O  O40  1  0.42387684  0.71987247  0.57333785  1
  O  O41  1  0.07612316  0.78012753  0.07333785  1
  O  O42  1  0.57612316  0.28012753  0.42666215  1
  O  O43  1  0.92387684  0.21987247  0.92666215  1
  O  O44  1  0.24712055  0.84000665  0.65003834  1
  O  O45  1  0.25287945  0.65999335  0.15003834  1
  O  O46  1  0.75287945  0.15999335  0.34996166  1
  O  O47  1  0.74712055  0.34000665  0.84996166  1
  O  O48  1  0.08349981  0.66729816  0.54910460  1
  O  O49  1  0.41650019  0.83270184  0.04910460  1
  O  O50  1  0.91650019  0.33270184  0.45089540  1
  O  O51  1  0.76978944  0.47657986  0.58228142  1
  Cr  Cr52  1  0.24645470  0.30403697  0.07574412  1
  Cr  Cr53  1  0.25354530  0.19596303  0.57574412  1
  Cr  Cr54  1  0.75354530  0.69596303  0.92425588  1
  Cr  Cr55  1  0.74645470  0.80403697  0.42425588  1
  Cr  Cr56  1  0.36059908  0.14369663  0.94742670  1
  Cr  Cr57  1  0.13940092  0.35630337  0.44742670  1
  Cr  Cr58  1  0.63940092  0.85630337  0.05257330  1
  Cr  Cr59  1  0.86059908  0.64369663  0.55257330  1
  Cr  Cr60  1  0.74391919  0.19278862  0.89279599  1
  Cr  Cr61  1  0.75608081  0.30721138  0.39279599  1
  Cr  Cr62  1  0.25608081  0.80721138  0.10720401  1
  Cr  Cr63  1  0.24391919  0.69278862  0.60720401  1
  Cr  Cr64  1  0.57078149  0.95846152  0.77599213  1
  Cr  Cr65  1  0.92921851  0.54153848  0.27599213  1
  Cr  Cr66  1  0.42921851  0.04153848  0.22400787  1
  Cr  Cr67  1  0.07078149  0.45846152  0.72400787  1
  Cs  Cs68  1  0.59858382  0.50076584  0.73647206  1
  Cs  Cs69  1  0.90141618  0.99923416  0.23647206  1
  Cs  Cs70  1  0.40141618  0.49923416  0.26352794  1
  Cs  Cs71  1  0.09858382  0.00076584  0.76352794  1
  Cs  Cs72  1  0.68198004  0.09091149  0.59929009  1
  Cs  Cs73  1  0.81801996  0.40908851  0.09929009  1
  Cs  Cs74  1  0.31801996  0.90908851  0.40070991  1
  Cs  Cs75  1  0.18198004  0.59091149  0.90070991  1
