# generated using pymatgen
data_Na3AlP3NO9
_symmetry_space_group_name_H-M   'P 1'
_cell_length_a   9.40675300
_cell_length_b   9.40675300
_cell_length_c   9.40675300
_cell_angle_alpha   90.00000000
_cell_angle_beta   90.00000000
_cell_angle_gamma   90.00000000
_symmetry_Int_Tables_number   1
_chemical_formula_structural   Na3AlP3NO9
_chemical_formula_sum   'Na12 Al4 P12 N4 O36'
_cell_volume   832.37537155
_cell_formula_units_Z   4
loop_
 _symmetry_equiv_pos_site_id
 _symmetry_equiv_pos_as_xyz
  1  'x, y, z'
loop_
 _atom_site_type_symbol
 _atom_site_label
 _atom_site_symmetry_multiplicity
 _atom_site_fract_x
 _atom_site_fract_y
 _atom_site_fract_z
 _atom_site_occupancy
  N  N0  1  0.94255875  0.55744125  0.44255875  1
  N  N1  1  0.55744125  0.44255875  0.94255875  1
  N  N2  1  0.44255875  0.94255875  0.55744125  1
  N  N3  1  0.05744125  0.05744125  0.05744125  1
  O  O4  1  0.34954547  0.75406346  0.37951606  1
  O  O5  1  0.58904418  0.69752483  0.05963864  1
  O  O6  1  0.91095582  0.30247517  0.55963864  1
  O  O7  1  0.69752483  0.05963864  0.58904418  1
  O  O8  1  0.55963864  0.91095582  0.30247517  1
  O  O9  1  0.05963864  0.58904418  0.69752483  1
  O  O10  1  0.80247517  0.94036136  0.08904418  1
  O  O11  1  0.94036136  0.08904418  0.80247517  1
  O  O12  1  0.25406346  0.12048394  0.65045453  1
  O  O13  1  0.65045453  0.25406346  0.12048394  1
  O  O14  1  0.12048394  0.65045453  0.25406346  1
  O  O15  1  0.37951606  0.34954547  0.75406346  1
  O  O16  1  0.15045453  0.24593654  0.87951606  1
  O  O17  1  0.30247517  0.55963864  0.91095582  1
  O  O18  1  0.84954547  0.74593654  0.62048394  1
  O  O19  1  0.08904418  0.80247517  0.94036136  1
  O  O20  1  0.62048394  0.84954547  0.74593654  1
  O  O21  1  0.75406346  0.37951606  0.34954547  1
  O  O22  1  0.74593654  0.62048394  0.84954547  1
  O  O23  1  0.24593654  0.87951606  0.15045453  1
  O  O24  1  0.21783864  0.01442431  0.40786246  1
  O  O25  1  0.40786246  0.21783864  0.01442431  1
  O  O26  1  0.01442431  0.40786246  0.21783864  1
  O  O27  1  0.48557569  0.59213754  0.71783864  1
  O  O28  1  0.90786246  0.28216136  0.98557569  1
  O  O29  1  0.98557569  0.90786246  0.28216136  1
  O  O30  1  0.09213754  0.78216136  0.51442431  1
  O  O31  1  0.59213754  0.71783864  0.48557569  1
  O  O32  1  0.51442431  0.09213754  0.78216136  1
  O  O33  1  0.71783864  0.48557569  0.59213754  1
  O  O34  1  0.78216136  0.51442431  0.09213754  1
  O  O35  1  0.28216136  0.98557569  0.90786246  1
  O  O36  1  0.41095582  0.19752483  0.44036136  1
  O  O37  1  0.44036136  0.41095582  0.19752483  1
  O  O38  1  0.19752483  0.44036136  0.41095582  1
  O  O39  1  0.87951606  0.15045453  0.24593654  1
  Na  Na40  1  0.94933679  0.05066321  0.55066321  1
  Na  Na41  1  0.75984030  0.74015970  0.25984030  1
  Na  Na42  1  0.74015970  0.25984030  0.75984030  1
  Na  Na43  1  0.25984030  0.75984030  0.74015970  1
  Na  Na44  1  0.24015970  0.24015970  0.24015970  1
  Na  Na45  1  0.14142010  0.35857990  0.64142010  1
  Na  Na46  1  0.35857990  0.64142010  0.14142010  1
  Na  Na47  1  0.64142010  0.14142010  0.35857990  1
  Na  Na48  1  0.44933679  0.44933679  0.44933679  1
  Na  Na49  1  0.85857990  0.85857990  0.85857990  1
  Na  Na50  1  0.05066321  0.55066321  0.94933679  1
  Na  Na51  1  0.55066321  0.94933679  0.05066321  1
  Al  Al52  1  0.33254732  0.16745268  0.83254732  1
  Al  Al53  1  0.16745268  0.83254732  0.33254732  1
  Al  Al54  1  0.83254732  0.33254732  0.16745268  1
  Al  Al55  1  0.66745268  0.66745268  0.66745268  1
  P  P56  1  0.17139595  0.92161427  0.01078598  1
  P  P57  1  0.01078598  0.17139595  0.92161427  1
  P  P58  1  0.92161427  0.01078598  0.17139595  1
  P  P59  1  0.98921402  0.67139595  0.57838573  1
  P  P60  1  0.48921402  0.82860405  0.42161427  1
  P  P61  1  0.57838573  0.98921402  0.67139595  1
  P  P62  1  0.82860405  0.42161427  0.48921402  1
  P  P63  1  0.67139595  0.57838573  0.98921402  1
  P  P64  1  0.42161427  0.48921402  0.82860405  1
  P  P65  1  0.07838573  0.51078598  0.32860405  1
  P  P66  1  0.51078598  0.32860405  0.07838573  1
  P  P67  1  0.32860405  0.07838573  0.51078598  1
