# generated using pymatgen
data_TiZnH12(OF)6
_symmetry_space_group_name_H-M   'P 1'
_cell_length_a   6.52220750
_cell_length_b   6.52220330
_cell_length_c   6.52220728
_cell_angle_alpha   95.56392730
_cell_angle_beta   95.56397123
_cell_angle_gamma   95.56396975
_symmetry_Int_Tables_number   1
_chemical_formula_structural   TiZnH12(OF)6
_chemical_formula_sum   'Ti1 Zn1 H12 O6 F6'
_cell_volume   273.25232252
_cell_formula_units_Z   1
loop_
 _symmetry_equiv_pos_site_id
 _symmetry_equiv_pos_as_xyz
  1  'x, y, z'
loop_
 _atom_site_type_symbol
 _atom_site_label
 _atom_site_symmetry_multiplicity
 _atom_site_fract_x
 _atom_site_fract_y
 _atom_site_fract_z
 _atom_site_occupancy
  Ti  Ti0  1  0.49999993  0.49999999  0.49999980  1
  Zn  Zn1  1  0.00000011  0.00000005  0.99999995  1
  H  H2  1  0.04490921  0.21197796  0.39364270  1
  H  H3  1  0.19633872  0.82971355  0.68009944  1
  H  H4  1  0.17028636  0.31990039  0.80366175  1
  H  H5  1  0.21197734  0.39364202  0.04490857  1
  H  H6  1  0.31990032  0.80366182  0.17028633  1
  H  H7  1  0.39364215  0.04490883  0.21197731  1
  H  H8  1  0.60635796  0.95509138  0.78802287  1
  H  H9  1  0.68009961  0.19633853  0.82971365  1
  H  H10  1  0.78802231  0.60635783  0.95509132  1
  H  H11  1  0.82971362  0.68009967  0.19633832  1
  H  H12  1  0.80366172  0.17028639  0.31990059  1
  H  H13  1  0.95509141  0.78802231  0.60635764  1
  O  O14  1  0.06074978  0.87563526  0.70320802  1
  O  O15  1  0.12436426  0.29679180  0.93924969  1
  O  O16  1  0.29679212  0.93924988  0.12436426  1
  O  O17  1  0.70320789  0.06075023  0.87563547  1
  O  O18  1  0.87563537  0.70320827  0.06074982  1
  O  O19  1  0.93925000  0.12436412  0.29679170  1
  F  F20  1  0.24505749  0.36564763  0.55884826  1
  F  F21  1  0.36564740  0.55884778  0.24505745  1
  F  F22  1  0.44115225  0.75494258  0.63435258  1
  F  F23  1  0.55884799  0.24505765  0.36564787  1
  F  F24  1  0.63435231  0.44115177  0.75494273  1
  F  F25  1  0.75494238  0.63435232  0.44115191  1
