# generated using pymatgen
data_K4PH5Se3O16
_symmetry_space_group_name_H-M   'P 1'
_cell_length_a   7.58771004
_cell_length_b   7.79945594
_cell_length_c   7.86314816
_cell_angle_alpha   71.35419526
_cell_angle_beta   87.67894694
_cell_angle_gamma   85.71453370
_symmetry_Int_Tables_number   1
_chemical_formula_structural   K4PH5Se3O16
_chemical_formula_sum   'K4 P1 H5 Se3 O16'
_cell_volume   439.61620349
_cell_formula_units_Z   1
loop_
 _symmetry_equiv_pos_site_id
 _symmetry_equiv_pos_as_xyz
  1  'x, y, z'
loop_
 _atom_site_type_symbol
 _atom_site_label
 _atom_site_symmetry_multiplicity
 _atom_site_fract_x
 _atom_site_fract_y
 _atom_site_fract_z
 _atom_site_occupancy
  K  K0  1  0.03262078  0.74176619  0.21994060  1
  K  K1  1  0.33812531  0.81197786  0.66529908  1
  K  K2  1  0.65985841  0.19486838  0.33189543  1
  K  K3  1  0.96809436  0.25682971  0.78119647  1
  P  P4  1  0.54116550  0.71932008  0.19378771  1
  H  H5  1  0.25366287  0.42664777  0.03058525  1
  H  H6  1  0.37838897  0.92854209  0.96872941  1
  H  H7  1  0.49058835  0.53543223  0.47292686  1
  H  H8  1  0.64023321  -0.00033318  0.08368488  1
  H  H9  1  0.74595001  0.57199658  0.97225412  1
  Se  Se10  1  0.12753437  0.21640096  0.27884860  1
  Se  Se11  1  0.46778054  0.27239677  0.80431296  1
  Se  Se12  1  0.87152577  0.78250658  0.72267510  1
  O  O13  1  0.00975796  0.13459091  0.15238491  1
  O  O14  1  0.00542124  0.26853873  0.43582789  1
  O  O15  1  0.19104632  0.43395376  0.14666640  1
  O  O16  1  0.31145826  0.09071529  0.34916157  1
  O  O17  1  0.34054119  0.10094555  0.81574559  1
  O  O18  1  0.33836709  0.44091101  0.84143788  1
  O  O19  1  0.38713965  0.79579320  0.05597480  1
  O  O20  1  0.44637657  0.65923571  0.38356098  1
  O  O21  1  0.56160941  0.35399347  0.60085528  1
  O  O22  1  0.62853193  0.19531882  0.95583470  1
  O  O23  1  0.65327722  0.56557195  0.16098343  1
  O  O24  1  0.65613953  0.88158327  0.19022845  1
  O  O25  1  0.68797983  0.90826822  0.65085298  1
  O  O26  1  0.80801687  0.56540566  0.85596425  1
  O  O27  1  0.99404856  0.73090200  0.56547506  1
  O  O28  1  0.98955990  0.86392043  0.84940936  1
