# generated using pymatgen
data_U5Re3C8
_symmetry_space_group_name_H-M   'P 1'
_cell_length_a   3.22815037
_cell_length_b   11.38319565
_cell_length_c   11.38319565
_cell_angle_alpha   90.00000000
_cell_angle_beta   90.00000000
_cell_angle_gamma   90.00000000
_symmetry_Int_Tables_number   1
_chemical_formula_structural   U5Re3C8
_chemical_formula_sum   'U10 Re6 C16'
_cell_volume   418.29450278
_cell_formula_units_Z   2
loop_
 _symmetry_equiv_pos_site_id
 _symmetry_equiv_pos_as_xyz
  1  'x, y, z'
loop_
 _atom_site_type_symbol
 _atom_site_label
 _atom_site_symmetry_multiplicity
 _atom_site_fract_x
 _atom_site_fract_y
 _atom_site_fract_z
 _atom_site_occupancy
  U  U0  1  0.00000000  0.50000000  0.00000000  1
  U  U1  1  0.50000000  0.54332680  0.27171080  1
  U  U2  1  0.50000000  0.45667320  0.72828920  1
  U  U3  1  0.50000000  0.72828920  0.54332680  1
  U  U4  1  0.50000000  0.95667320  0.77171080  1
  U  U5  1  0.50000000  0.04332680  0.22828920  1
  U  U6  1  0.50000000  0.22828920  0.95667320  1
  U  U7  1  0.50000000  0.27171080  0.45667320  1
  U  U8  1  0.00000000  -0.00000000  0.50000000  1
  U  U9  1  0.50000000  0.77171080  0.04332680  1
  Re  Re10  1  0.00000000  0.29613484  0.20386516  1
  Re  Re11  1  0.00000000  0.20386516  0.70386516  1
  Re  Re12  1  -0.00000000  0.79613484  0.29613484  1
  Re  Re13  1  0.00000000  0.50000000  0.50000000  1
  Re  Re14  1  -0.00000000  0.70386516  0.79613484  1
  Re  Re15  1  0.00000000  -0.00000000  -0.00000000  1
  C  C16  1  0.00000000  0.40338950  0.34718061  1
  C  C17  1  0.50000000  0.11617742  0.61617742  1
  C  C18  1  -0.00000000  0.84718061  0.90338950  1
  C  C19  1  -0.00000000  0.84563945  0.65436055  1
  C  C20  1  0.00000000  0.15436055  0.34563945  1
  C  C21  1  0.50000000  0.38382258  0.11617742  1
  C  C22  1  -0.00000000  0.90338950  0.15281939  1
  C  C23  1  0.00000000  0.34563945  0.84563945  1
  C  C24  1  -0.00000000  0.59661050  0.65281939  1
  C  C25  1  0.00000000  0.34718061  0.59661050  1
  C  C26  1  0.50000000  0.61617742  0.88382258  1
  C  C27  1  0.00000000  0.09661050  0.84718061  1
  C  C28  1  0.50000000  0.88382258  0.38382258  1
  C  C29  1  -0.00000000  0.65436055  0.15436055  1
  C  C30  1  0.00000000  0.15281939  0.09661050  1
  C  C31  1  -0.00000000  0.65281939  0.40338950  1
