# generated using pymatgen
data_Rb2Sc(NO3)5
_symmetry_space_group_name_H-M   'P 1'
_cell_length_a   11.14569541
_cell_length_b   11.14569514
_cell_length_c   9.51952823
_cell_angle_alpha   90.00000000
_cell_angle_beta   90.00000000
_cell_angle_gamma   120.00000077
_symmetry_Int_Tables_number   1
_chemical_formula_structural   Rb2Sc(NO3)5
_chemical_formula_sum   'Rb6 Sc3 N15 O45'
_cell_volume   1024.14249044
_cell_formula_units_Z   3
loop_
 _symmetry_equiv_pos_site_id
 _symmetry_equiv_pos_as_xyz
  1  'x, y, z'
loop_
 _atom_site_type_symbol
 _atom_site_label
 _atom_site_symmetry_multiplicity
 _atom_site_fract_x
 _atom_site_fract_y
 _atom_site_fract_z
 _atom_site_occupancy
  Rb  Rb0  1  0.13626532  0.33340674  0.66667180  1
  Rb  Rb1  1  0.38332929  0.04992116  0.83348385  1
  Rb  Rb2  1  0.66659186  0.61667071  0.50014985  1
  Rb  Rb3  1  0.95007884  0.33340814  0.16681685  1
  Rb  Rb4  1  0.19714142  0.86373468  0.33333780  1
  Rb  Rb5  1  0.66659326  0.80285858  0.00000480  1
  Sc  Sc6  1  0.66672995  0.01447730  0.50029150  1
  Sc  Sc7  1  0.98552270  0.65225264  0.83362450  1
  Sc  Sc8  1  0.34774736  0.33327005  0.16695850  1
  N  N9  1  0.92130802  0.01088339  0.43883097  1
  N  N10  1  0.34338199  0.58784073  0.22674745  1
  N  N11  1  0.41446270  0.43424882  0.89400510  1
  N  N12  1  0.58524992  0.33319175  0.16599939  1
  N  N13  1  0.91891280  0.68675590  0.10643014  1
  N  N14  1  0.56575118  0.98021389  0.22733810  1
  N  N15  1  0.76784310  0.08108720  0.77309714  1
  N  N16  1  0.41215927  0.75554125  0.56008045  1
  N  N17  1  0.98911661  0.91042463  0.77216497  1
  N  N18  1  0.31324410  0.23215690  0.43976314  1
  N  N19  1  0.01978611  0.58553730  0.56067210  1
  N  N20  1  0.24445875  0.65661801  0.89341445  1
  N  N21  1  0.74794183  0.41475008  0.83266639  1
  N  N22  1  0.08957537  0.07869198  0.10549797  1
  N  N23  1  0.66680825  0.25205817  0.49933339  1
  O  O24  1  0.30344324  0.31891368  0.92240073  1
  O  O25  1  0.00486695  0.50902840  0.66754872  1
  O  O26  1  0.21099453  0.74730810  0.85102053  1
  O  O27  1  0.58317476  0.14840768  0.57599103  1
  O  O28  1  0.38827381  0.85398390  0.57779278  1
  O  O29  1  0.25269190  0.46368643  0.18435353  1
  O  O30  1  0.03839157  0.55618607  0.44092744  1
  O  O31  1  0.14601610  0.53428990  0.91112578  1
  O  O32  1  0.66681668  0.36226183  0.49798787  1
  O  O33  1  0.75076119  0.23137468  0.42390537  1
  O  O34  1  0.82932860  0.15838341  0.66683760  1
  O  O35  1  0.31770303  0.34749206  0.41104084  1
  O  O36  1  0.96589233  0.99201007  0.08674523  1
  O  O37  1  0.53631357  0.78900547  0.51768653  1
  O  O38  1  0.48061349  0.24923881  0.09057137  1
  O  O39  1  0.12285524  0.20308279  0.14713138  1
  O  O40  1  0.81609716  0.10945882  0.89306197  1
  O  O41  1  0.68108632  0.98452956  0.25573373  1
  O  O42  1  0.32553805  0.63189074  0.57946454  1
  O  O43  1  0.89054118  0.70663834  0.22639497  1
  O  O44  1  0.18768508  0.05432847  0.08791878  1
  O  O45  1  0.56523292  0.41682524  0.24265803  1
  O  O46  1  0.84161659  0.67094519  0.00017060  1
  O  O47  1  0.08022755  0.87714476  0.81379838  1
  O  O48  1  0.00798993  0.97388226  0.42007923  1
  O  O49  1  0.79691721  0.91977245  0.48046438  1
  O  O50  1  0.86664338  0.81231492  0.75458578  1
  O  O51  1  0.36810926  0.69364732  0.91279754  1
  O  O52  1  0.02978903  0.68229697  0.07770784  1
  O  O53  1  0.01547044  0.69655676  0.58906773  1
  O  O54  1  0.49097160  0.49583855  0.00088172  1
  O  O55  1  0.30635268  0.67446195  0.24613054  1
  O  O56  1  0.51779450  0.96160843  0.10759344  1
  O  O57  1  0.46571010  0.61172619  0.24445878  1
  O  O58  1  0.32905481  0.17067140  0.33350360  1
  O  O59  1  0.44381393  0.48220550  0.77426044  1
  O  O60  1  0.02611774  0.03410767  0.75341223  1
  O  O61  1  0.76862532  0.51938651  0.75723837  1
  O  O62  1  0.50416145  0.99513305  0.33421472  1
  O  O63  1  0.63773817  0.30455485  0.83132087  1
  O  O64  1  0.29336166  0.18390284  0.55972897  1
  O  O65  1  0.65250794  0.97021097  0.74437384  1
  O  O66  1  0.69544515  0.33318332  0.16465387  1
  O  O67  1  0.85159232  0.43476708  0.90932503  1
  O  O68  1  0.94567153  0.13335662  0.42125278  1
