# generated using pymatgen
data_NaB3H4O7
_symmetry_space_group_name_H-M   'P 1'
_cell_length_a   10.48629583
_cell_length_b   10.48629583
_cell_length_c   6.44171630
_cell_angle_alpha   77.74859515
_cell_angle_beta   102.25140485
_cell_angle_gamma   123.52321054
_symmetry_Int_Tables_number   1
_chemical_formula_structural   NaB3H4O7
_chemical_formula_sum   'Na4 B12 H16 O28'
_cell_volume   573.13551221
_cell_formula_units_Z   4
loop_
 _symmetry_equiv_pos_site_id
 _symmetry_equiv_pos_as_xyz
  1  'x, y, z'
loop_
 _atom_site_type_symbol
 _atom_site_label
 _atom_site_symmetry_multiplicity
 _atom_site_fract_x
 _atom_site_fract_y
 _atom_site_fract_z
 _atom_site_occupancy
  Na  Na0  1  0.93553605  0.58974987  0.60051571  1
  Na  Na1  1  0.58974987  0.93553605  0.89948429  1
  Na  Na2  1  0.06446395  0.41025013  0.39948429  1
  Na  Na3  1  0.41025013  0.06446395  0.10051571  1
  B  B4  1  0.17029538  0.48839119  0.94261738  1
  B  B5  1  0.48839119  0.17029538  0.55738262  1
  B  B6  1  0.82970462  0.51160881  0.05738262  1
  B  B7  1  0.51160881  0.82970462  0.44261738  1
  B  B8  1  0.00416302  0.19856507  0.99383827  1
  B  B9  1  0.19856507  0.00416302  0.50616173  1
  B  B10  1  0.99583698  0.80143493  0.00616173  1
  B  B11  1  0.80143493  0.99583698  0.49383827  1
  B  B12  1  0.27983952  0.32322290  0.98426526  1
  B  B13  1  0.32322290  0.27983952  0.51573474  1
  B  B14  1  0.72016048  0.67677710  0.01573474  1
  B  B15  1  0.67677710  0.72016048  0.48426526  1
  H  H16  1  0.50216947  0.38412362  0.00404409  1
  H  H17  1  0.38412362  0.50216947  0.49595591  1
  H  H18  1  0.49783053  0.61587638  0.99595591  1
  H  H19  1  0.61587638  0.49783053  0.50404409  1
  H  H20  1  0.24040905  0.63369173  0.66843315  1
  H  H21  1  0.63369173  0.24040905  0.83156685  1
  H  H22  1  0.75959095  0.36630827  0.33156685  1
  H  H23  1  0.36630827  0.75959095  0.16843315  1
  H  H24  1  0.13004146  0.62911449  0.05313251  1
  H  H25  1  0.62911449  0.13004146  0.44686749  1
  H  H26  1  0.86995854  0.37088551  0.94686749  1
  H  H27  1  0.37088551  0.86995854  0.55313251  1
  H  H28  1  0.86930532  0.97198832  0.02184908  1
  H  H29  1  0.97198832  0.86930532  0.47815092  1
  H  H30  1  0.13069468  0.02801168  0.97815092  1
  H  H31  1  0.02801168  0.13069468  0.52184908  1
  O  O32  1  0.39424342  0.29438571  0.99724792  1
  O  O33  1  0.29438571  0.39424342  0.50275208  1
  O  O34  1  0.60575658  0.70561429  0.00275208  1
  O  O35  1  0.70561429  0.60575658  0.49724792  1
  O  O36  1  0.14265942  0.54115208  0.71746406  1
  O  O37  1  0.54115208  0.14265942  0.78253594  1
  O  O38  1  0.85734058  0.45884792  0.28253594  1
  O  O39  1  0.45884792  0.85734058  0.21746406  1
  O  O40  1  0.20208337  0.59245960  0.09388298  1
  O  O41  1  0.59245960  0.20208337  0.40611702  1
  O  O42  1  0.79791663  0.40754040  0.90611702  1
  O  O43  1  0.40754040  0.79791663  0.59388298  1
  O  O44  1  0.86294551  0.06454237  0.01219015  1
  O  O45  1  0.06454237  0.86294551  0.48780985  1
  O  O46  1  0.13705449  0.93545763  0.98780985  1
  O  O47  1  0.93545763  0.13705449  0.51219015  1
  O  O48  1  0.13123964  0.18970875  0.98244881  1
  O  O49  1  0.18970875  0.13123964  0.51755119  1
  O  O50  1  0.86876036  0.81029125  0.01755119  1
  O  O51  1  0.81029125  0.86876036  0.48244881  1
  O  O52  1  0.02312834  0.33732755  0.99436073  1
  O  O53  1  0.33732755  0.02312834  0.50563927  1
  O  O54  1  0.97687166  0.66267245  0.00563927  1
  O  O55  1  0.66267245  0.97687166  0.49436073  1
  O  O56  1  0.30292701  0.46449649  0.98055395  1
  O  O57  1  0.46449649  0.30292701  0.51944605  1
  O  O58  1  0.69707299  0.53550351  0.01944605  1
  O  O59  1  0.53550351  0.69707299  0.48055395  1
