# generated using pymatgen
data_KAlSiO4
_symmetry_space_group_name_H-M   'P 1'
_cell_length_a   18.30003604
_cell_length_b   18.30003632
_cell_length_c   8.55255728
_cell_angle_alpha   90.00000000
_cell_angle_beta   90.00000000
_cell_angle_gamma   119.99999950
_symmetry_Int_Tables_number   1
_chemical_formula_structural   KAlSiO4
_chemical_formula_sum   'K24 Al24 Si24 O96'
_cell_volume   2480.45025725
_cell_formula_units_Z   24
loop_
 _symmetry_equiv_pos_site_id
 _symmetry_equiv_pos_as_xyz
  1  'x, y, z'
loop_
 _atom_site_type_symbol
 _atom_site_label
 _atom_site_symmetry_multiplicity
 _atom_site_fract_x
 _atom_site_fract_y
 _atom_site_fract_z
 _atom_site_occupancy
  K  K0  1  0.47283309  0.47749772  0.99175374  1
  K  K1  1  0.00000000  0.00000000  0.48631291  1
  K  K2  1  0.66751173  0.86268049  0.99559012  1
  K  K3  1  0.33248827  0.13731951  0.49559012  1
  K  K4  1  0.14600105  0.33350297  0.49457856  1
  K  K5  1  0.86268049  0.19516876  0.49559012  1
  K  K6  1  0.66666700  0.33333300  0.50516257  1
  K  K7  1  0.52716691  0.52250228  0.49175374  1
  K  K8  1  0.33333300  0.66666700  0.00516257  1
  K  K9  1  0.19516876  0.33248827  0.99559012  1
  K  K10  1  0.85399895  0.66649703  0.99457856  1
  K  K11  1  0.33333300  0.66666700  0.50469520  1
  K  K12  1  0.00000000  0.00000000  0.98631291  1
  K  K13  1  0.99533537  0.47283309  0.49175374  1
  K  K14  1  0.13731951  0.80483124  0.99559012  1
  K  K15  1  0.80483124  0.66751173  0.49559012  1
  K  K16  1  0.52250228  0.99533537  0.99175374  1
  K  K17  1  0.00466463  0.52716691  0.99175374  1
  K  K18  1  0.18750192  0.85399895  0.49457856  1
  K  K19  1  0.47749772  0.00466463  0.49175374  1
  K  K20  1  0.66649703  0.81249808  0.49457856  1
  K  K21  1  0.66666700  0.33333300  0.00469520  1
  K  K22  1  0.81249808  0.14600105  0.99457856  1
  K  K23  1  0.33350297  0.18750192  0.99457856  1
  Al  Al24  1  0.49153673  0.83612416  0.29600897  1
  Al  Al25  1  0.32387710  0.82529409  0.79597411  1
  Al  Al26  1  0.00788841  0.16978087  0.81129265  1
  Al  Al27  1  0.16387584  0.65541257  0.29600897  1
  Al  Al28  1  0.99980242  0.33173720  0.18385195  1
  Al  Al29  1  0.16978087  0.16189246  0.31129265  1
  Al  Al30  1  0.16189246  0.99211159  0.81129265  1
  Al  Al31  1  0.00019758  0.66826280  0.68385195  1
  Al  Al32  1  0.66806521  0.99980242  0.68385195  1
  Al  Al33  1  0.34458743  0.50846327  0.29600897  1
  Al  Al34  1  0.83021913  0.83810754  0.81129265  1
  Al  Al35  1  0.49858300  0.32387710  0.29597411  1
  Al  Al36  1  0.33173720  0.33193479  0.68385195  1
  Al  Al37  1  0.99211159  0.83021913  0.31129265  1
  Al  Al38  1  0.66826280  0.66806521  0.18385195  1
  Al  Al39  1  0.67612290  0.17470591  0.29597411  1
  Al  Al40  1  0.82529409  0.50141700  0.29597411  1
  Al  Al41  1  0.83612416  0.34458743  0.79600897  1
  Al  Al42  1  0.33193479  0.00019758  0.18385195  1
  Al  Al43  1  0.83810754  0.00788841  0.31129265  1
  Al  Al44  1  0.50141700  0.67612290  0.79597411  1
  Al  Al45  1  0.50846327  0.16387584  0.79600897  1
  Al  Al46  1  0.17470591  0.49858300  0.79597411  1
  Al  Al47  1  0.65541257  0.49153673  0.79600897  1
  Si  Si48  1  0.33439756  0.33487199  0.29368596  1
  Si  Si49  1  0.32229080  0.82634204  0.17796134  1
  Si  Si50  1  0.50577838  0.16366965  0.17799566  1
  Si  Si51  1  0.82634204  0.50405124  0.67796134  1
  Si  Si52  1  0.99128793  0.83180651  0.69437825  1
  Si  Si53  1  0.83180651  0.84051859  0.19437825  1
  Si  Si54  1  0.17365796  0.49594876  0.17796134  1
  Si  Si55  1  0.65789127  0.49422162  0.17799566  1
  Si  Si56  1  0.66560244  0.66512801  0.79368596  1
  Si  Si57  1  0.16819349  0.15948141  0.69437825  1
  Si  Si58  1  0.84051859  0.00871207  0.69437825  1
  Si  Si59  1  0.50405124  0.67770920  0.17796134  1
  Si  Si60  1  0.00047444  0.66560244  0.29368596  1
  Si  Si61  1  0.33487199  0.00047444  0.79368596  1
  Si  Si62  1  0.99952556  0.33439756  0.79368596  1
  Si  Si63  1  0.83633035  0.34210873  0.17799566  1
  Si  Si64  1  0.49422162  0.83633035  0.67799566  1
  Si  Si65  1  0.00871207  0.16819349  0.19437825  1
  Si  Si66  1  0.34210873  0.50577838  0.67799566  1
  Si  Si67  1  0.49594876  0.32229080  0.67796134  1
  Si  Si68  1  0.66512801  0.99952556  0.29368596  1
  Si  Si69  1  0.16366965  0.65789127  0.67799566  1
  Si  Si70  1  0.67770920  0.17365796  0.67796134  1
  Si  Si71  1  0.15948141  0.99128793  0.19437825  1
  O  O72  1  0.03752691  0.18412158  0.01016316  1
  O  O73  1  0.09335724  0.68783806  0.22494687  1
  O  O74  1  0.35915158  0.92997161  0.73316955  1
  O  O75  1  0.97618966  0.73508777  0.22504157  1
  O  O76  1  0.93114692  0.86723577  0.21754060  1
  O  O77  1  0.33013222  0.33499918  0.48195138  1
  O  O78  1  0.24119672  0.47479478  0.68495825  1
  O  O79  1  0.39572728  0.59519825  0.77294375  1
  O  O80  1  0.43304872  0.07436090  0.25665870  1
  O  O81  1  0.81587842  0.85340533  0.01016316  1
  O  O82  1  0.40480175  0.80052903  0.77294375  1
  O  O83  1  0.73661779  0.46735390  0.77160392  1
  O  O84  1  0.18412158  0.14659467  0.51016316  1
  O  O85  1  0.73508777  0.75889811  0.72504157  1
  O  O86  1  0.60427272  0.40480175  0.27294375  1
  O  O87  1  0.99513303  0.33013222  0.98195138  1
  O  O88  1  0.66986778  0.66500082  0.98195138  1
  O  O89  1  0.19026290  0.48341492  0.99389321  1
  O  O90  1  0.13276423  0.06391114  0.21754060  1
  O  O91  1  0.89796198  0.59503814  0.75272321  1
  O  O92  1  0.97162357  0.22950353  0.25113694  1
  O  O93  1  0.06391114  0.93114692  0.71754060  1
  O  O94  1  0.85079813  0.37314394  0.99509049  1
  O  O95  1  0.86723577  0.93608886  0.71754060  1
  O  O96  1  0.76640193  0.24119672  0.18495825  1
  O  O97  1  0.22950353  0.25787996  0.75113694  1
  O  O98  1  0.26926390  0.73661779  0.27160392  1
  O  O99  1  0.25787996  0.02837643  0.25113694  1
  O  O100  1  0.07436090  0.64131219  0.75665870  1
  O  O101  1  0.42917997  0.35915158  0.23316955  1
  O  O102  1  0.14659467  0.96247309  0.01016316  1
  O  O103  1  0.96247309  0.81587842  0.51016316  1
  O  O104  1  0.35868781  0.43304872  0.75665870  1
  O  O105  1  0.92997161  0.57082003  0.23316955  1
  O  O106  1  0.46735390  0.73073610  0.27160392  1
  O  O107  1  0.59503814  0.69707616  0.25272321  1
  O  O108  1  0.24110189  0.97618966  0.72504157  1
  O  O109  1  0.52520522  0.76640193  0.68495825  1
  O  O110  1  0.47479478  0.23359807  0.18495825  1
  O  O111  1  0.40496186  0.30292384  0.75272321  1
  O  O112  1  0.26491223  0.24110189  0.22504157  1
  O  O113  1  0.30292384  0.89796198  0.25272321  1
  O  O114  1  0.31216194  0.40551917  0.22494687  1
  O  O115  1  0.90664276  0.31216194  0.72494687  1
  O  O116  1  0.57082003  0.64084842  0.73316955  1
  O  O117  1  0.06885308  0.13276423  0.71754060  1
  O  O118  1  0.19947097  0.60427272  0.77294375  1
  O  O119  1  0.37314394  0.52234581  0.49509049  1
  O  O120  1  0.09952985  0.90759806  0.29999407  1
  O  O121  1  0.14061649  0.56409607  0.18912280  1
  O  O122  1  0.09240194  0.19193179  0.29999407  1
  O  O123  1  0.73073610  0.26338221  0.77160392  1
  O  O124  1  0.52234581  0.14920187  0.99509049  1
  O  O125  1  0.02381034  0.26491223  0.72504157  1
  O  O126  1  0.80052903  0.39572728  0.27294375  1
  O  O127  1  0.92563910  0.35868781  0.25665870  1
  O  O128  1  0.07002839  0.42917997  0.73316955  1
  O  O129  1  0.75889811  0.02381034  0.22504157  1
  O  O130  1  0.29315202  0.80973710  0.99389321  1
  O  O131  1  0.48341492  0.29315202  0.49389321  1
  O  O132  1  0.47765419  0.85079813  0.49509049  1
  O  O133  1  0.93608886  0.06885308  0.21754060  1
  O  O134  1  0.85938351  0.43590393  0.68912280  1
  O  O135  1  0.00486697  0.66986778  0.48195138  1
  O  O136  1  0.51658508  0.70684798  0.99389321  1
  O  O137  1  0.57652042  0.14061649  0.68912280  1
  O  O138  1  0.14920187  0.62685606  0.49509049  1
  O  O139  1  0.10203802  0.40496186  0.25272321  1
  O  O140  1  0.70684798  0.19026290  0.49389321  1
  O  O141  1  0.43590393  0.57652042  0.18912280  1
  O  O142  1  0.66500082  0.99513303  0.48195138  1
  O  O143  1  0.90047015  0.09240194  0.79999407  1
  O  O144  1  0.80973710  0.51658508  0.49389321  1
  O  O145  1  0.68783806  0.59448083  0.72494687  1
  O  O146  1  0.85340533  0.03752691  0.51016316  1
  O  O147  1  0.19193179  0.09952985  0.79999407  1
  O  O148  1  0.69707616  0.10203802  0.75272321  1
  O  O149  1  0.33499918  0.00486697  0.98195138  1
  O  O150  1  0.02837643  0.77049647  0.75113694  1
  O  O151  1  0.75880328  0.52520522  0.18495825  1
  O  O152  1  0.64131219  0.56695128  0.25665870  1
  O  O153  1  0.90759806  0.80806821  0.79999407  1
  O  O154  1  0.42347958  0.85938351  0.18912280  1
  O  O155  1  0.74212004  0.97162357  0.75113694  1
  O  O156  1  0.56409607  0.42347958  0.68912280  1
  O  O157  1  0.23359807  0.75880328  0.68495825  1
  O  O158  1  0.77049647  0.74212004  0.25113694  1
  O  O159  1  0.56695128  0.92563910  0.75665870  1
  O  O160  1  0.80806821  0.90047015  0.29999407  1
  O  O161  1  0.59448083  0.90664276  0.22494687  1
  O  O162  1  0.59519825  0.19947097  0.27294375  1
  O  O163  1  0.62685606  0.47765419  0.99509049  1
  O  O164  1  0.53264610  0.26926390  0.77160392  1
  O  O165  1  0.26338221  0.53264610  0.27160392  1
  O  O166  1  0.40551917  0.09335724  0.72494687  1
  O  O167  1  0.64084842  0.07002839  0.23316955  1
