# generated using pymatgen
data_Yb8In3
_symmetry_space_group_name_H-M   'P 1'
_cell_length_a   9.58692443
_cell_length_b   9.58692443
_cell_length_c   18.77604752
_cell_angle_alpha   75.20883549
_cell_angle_beta   75.20883549
_cell_angle_gamma   59.99999882
_symmetry_Int_Tables_number   1
_chemical_formula_structural   Yb8In3
_chemical_formula_sum   'Yb32 In12'
_cell_volume   1428.07870248
_cell_formula_units_Z   4
loop_
 _symmetry_equiv_pos_site_id
 _symmetry_equiv_pos_as_xyz
  1  'x, y, z'
loop_
 _atom_site_type_symbol
 _atom_site_label
 _atom_site_symmetry_multiplicity
 _atom_site_fract_x
 _atom_site_fract_y
 _atom_site_fract_z
 _atom_site_occupancy
  Yb  Yb0  1  0.85967947  0.61841919  0.15611471  1
  Yb  Yb1  1  0.61841919  0.36578664  0.15611471  1
  Yb  Yb2  1  0.36578664  0.85967947  0.15611471  1
  Yb  Yb3  1  0.35967947  0.86578664  0.65611471  1
  Yb  Yb4  1  0.86578664  0.11841919  0.65611471  1
  Yb  Yb5  1  0.11841919  0.35967947  0.65611471  1
  Yb  Yb6  1  0.14032053  0.38158081  0.84388529  1
  Yb  Yb7  1  0.38158081  0.63421336  0.84388529  1
  Yb  Yb8  1  0.63421336  0.14032053  0.84388529  1
  Yb  Yb9  1  0.64032053  0.13421336  0.34388529  1
  Yb  Yb10  1  0.13421336  0.88158081  0.34388529  1
  Yb  Yb11  1  0.88158081  0.64032053  0.34388529  1
  Yb  Yb12  1  0.98344789  0.71166316  0.94649192  1
  Yb  Yb13  1  0.71166316  0.35839704  0.94649192  1
  Yb  Yb14  1  0.35839704  0.98344789  0.94649192  1
  Yb  Yb15  1  0.48344789  0.85839704  0.44649192  1
  Yb  Yb16  1  0.85839704  0.21166316  0.44649192  1
  Yb  Yb17  1  0.21166316  0.48344789  0.44649192  1
  Yb  Yb18  1  0.01655211  0.28833684  0.05350808  1
  Yb  Yb19  1  0.28833684  0.64160296  0.05350808  1
  Yb  Yb20  1  0.64160296  0.01655211  0.05350808  1
  Yb  Yb21  1  0.51655211  0.14160296  0.55350808  1
  Yb  Yb22  1  0.14160296  0.78833684  0.55350808  1
  Yb  Yb23  1  0.78833684  0.51655211  0.55350808  1
  Yb  Yb24  1  0.56099564  0.56099564  0.31701309  1
  Yb  Yb25  1  0.06099564  0.06099564  0.81701309  1
  Yb  Yb26  1  0.43900436  0.43900436  0.68298691  1
  Yb  Yb27  1  0.93900436  0.93900436  0.18298691  1
  Yb  Yb28  1  0.72018702  0.72018702  0.83943893  1
  Yb  Yb29  1  0.22018702  0.22018702  0.33943893  1
  Yb  Yb30  1  0.27981298  0.27981298  0.16056107  1
  Yb  Yb31  1  0.77981298  0.77981298  0.66056107  1
  In  In32  1  0.43133332  0.06866668  0.75000000  1
  In  In33  1  0.06866668  0.75000000  0.75000000  1
  In  In34  1  0.75000000  0.43133332  0.75000000  1
  In  In35  1  0.93133332  0.25000000  0.25000000  1
  In  In36  1  0.25000000  0.56866668  0.25000000  1
  In  In37  1  0.56866668  0.93133332  0.25000000  1
  In  In38  1  0.66013259  0.66013259  0.01960222  1
  In  In39  1  0.16013259  0.16013259  0.51960222  1
  In  In40  1  0.33986741  0.33986741  0.98039778  1
  In  In41  1  0.83986741  0.83986741  0.48039778  1
  In  In42  1  0.50000000  0.50000000  0.50000000  1
  In  In43  1  0.00000000  0.00000000  0.00000000  1
