# generated using pymatgen
data_K2B4H8O11
_symmetry_space_group_name_H-M   'P 1'
_cell_length_a   13.06382874
_cell_length_b   11.78642226
_cell_length_c   6.95675235
_cell_angle_alpha   90.00000000
_cell_angle_beta   90.00000000
_cell_angle_gamma   90.00000000
_symmetry_Int_Tables_number   1
_chemical_formula_structural   K2B4H8O11
_chemical_formula_sum   'K8 B16 H32 O44'
_cell_volume   1071.17152145
_cell_formula_units_Z   4
loop_
 _symmetry_equiv_pos_site_id
 _symmetry_equiv_pos_as_xyz
  1  'x, y, z'
loop_
 _atom_site_type_symbol
 _atom_site_label
 _atom_site_symmetry_multiplicity
 _atom_site_fract_x
 _atom_site_fract_y
 _atom_site_fract_z
 _atom_site_occupancy
  K  K0  1  0.13408191  0.67265385  0.71900039  1
  K  K1  1  0.21117687  0.09672056  0.46499263  1
  K  K2  1  0.28882313  0.90327944  0.96499263  1
  K  K3  1  0.36591809  0.32734615  0.21900039  1
  K  K4  1  0.63408191  0.82734615  0.28099961  1
  K  K5  1  0.71117687  0.40327944  0.53500737  1
  K  K6  1  0.78882313  0.59672056  0.03500737  1
  K  K7  1  0.86591809  0.17265385  0.78099961  1
  B  B8  1  0.04204860  0.91447695  0.11342219  1
  B  B9  1  0.04952020  0.70664426  0.15001287  1
  B  B10  1  0.09477453  0.31759768  0.21305509  1
  B  B11  1  0.13167812  0.40188459  0.53190059  1
  B  B12  1  0.36832188  0.59811541  0.03190059  1
  B  B13  1  0.40522547  0.68240232  0.71305509  1
  B  B14  1  0.45047980  0.29335574  0.65001287  1
  B  B15  1  0.45795140  0.08552305  0.61342219  1
  B  B16  1  0.54204860  0.58552305  0.88657781  1
  B  B17  1  0.54952020  0.79335574  0.84998713  1
  B  B18  1  0.59477453  0.18240232  0.78694491  1
  B  B19  1  0.63167812  0.09811541  0.46809941  1
  B  B20  1  0.86832188  0.90188459  0.96809941  1
  B  B21  1  0.90522547  0.81759768  0.28694591  1
  B  B22  1  0.95047980  0.20664426  0.34998713  1
  B  B23  1  0.95795140  0.41447695  0.38657781  1
  H  H24  1  0.04703639  0.91841321  0.72729689  1
  H  H25  1  0.06575278  0.53272860  0.15457315  1
  H  H26  1  0.05495566  0.90395572  0.50283704  1
  H  H27  1  0.08996662  0.07562468  0.15067224  1
  H  H28  1  0.10579617  0.21981720  0.85652907  1
  H  H29  1  0.08941117  0.09083333  0.83441272  1
  H  H30  1  0.16566296  0.37454340  0.96419138  1
  H  H31  1  0.22921454  0.58643299  0.15019376  1
  H  H32  1  0.27078546  0.41356701  0.65019376  1
  H  H33  1  0.33433704  0.62545660  0.46419138  1
  H  H34  1  0.41058883  0.90916667  0.33441272  1
  H  H35  1  0.39420383  0.78018280  0.35652907  1
  H  H36  1  0.41003338  0.92437532  0.65067224  1
  H  H37  1  0.44504434  0.09604428  0.00283704  1
  H  H38  1  0.43424722  0.46727140  0.65457315  1
  H  H39  1  0.45296361  0.08158679  0.22729689  1
  H  H40  1  0.54703639  0.58158679  0.27270311  1
  H  H41  1  0.55495566  0.59604428  0.49716296  1
  H  H42  1  0.56575278  0.96727140  0.84542685  1
  H  H43  1  0.58996662  0.42437532  0.84932776  1
  H  H44  1  0.60579617  0.28018280  0.14347093  1
  H  H45  1  0.58941117  0.40916667  0.16558728  1
  H  H46  1  0.66566296  0.12545660  0.03580862  1
  H  H47  1  0.72921454  0.91356701  0.84980624  1
  H  H48  1  0.77078546  0.08643299  0.34980624  1
  H  H49  1  0.83433704  0.87454340  0.53580862  1
  H  H50  1  0.91058883  0.59083333  0.66558728  1
  H  H51  1  0.89420383  0.71981720  0.64347093  1
  H  H52  1  0.91003338  0.57562468  0.34932776  1
  H  H53  1  0.93424722  0.03272860  0.34542685  1
  H  H54  1  0.94504434  0.40395572  0.99716296  1
  H  H55  1  0.95296361  0.41841321  0.77270311  1
  O  O56  1  0.01810526  0.40950826  0.20433498  1
  O  O57  1  0.03162415  0.43812808  0.54900614  1
  O  O58  1  0.04096825  0.20616963  0.24772103  1
  O  O59  1  0.08221787  0.16166032  0.76169494  1
  O  O60  1  0.09340260  0.80352676  0.07841447  1
  O  O61  1  0.10121543  0.60568605  0.11425008  1
  O  O62  1  0.09703465  0.90537650  0.62307493  1
  O  O63  1  0.12095210  0.00140357  0.11871868  1
  O  O64  1  0.15396932  0.30438910  0.03606539  1
  O  O65  1  0.16591571  0.33826800  0.37882483  1
  O  O66  1  0.19842497  0.43643541  0.67558778  1
  O  O67  1  0.30157503  0.56356459  0.17558778  1
  O  O68  1  0.33408429  0.66173200  0.87882483  1
  O  O69  1  0.34603068  0.69561090  0.53606539  1
  O  O70  1  0.37904790  0.99859643  0.61871868  1
  O  O71  1  0.40296535  0.09462350  0.12307493  1
  O  O72  1  0.39878457  0.39431395  0.61425008  1
  O  O73  1  0.40659740  0.19647324  0.57841447  1
  O  O74  1  0.41778213  0.83833968  0.26169494  1
  O  O75  1  0.45903175  0.79383037  0.74772103  1
  O  O76  1  0.46837585  0.56187192  0.04900614  1
  O  O77  1  0.48189474  0.59049174  0.70433498  1
  O  O78  1  0.51810526  0.09049174  0.79566502  1
  O  O79  1  0.53162415  0.06187192  0.45099386  1
  O  O80  1  0.54096825  0.29383037  0.75227897  1
  O  O81  1  0.58221787  0.33833968  0.23830506  1
  O  O82  1  0.59340260  0.69647324  0.92158553  1
  O  O83  1  0.60121543  0.89431395  0.88574992  1
  O  O84  1  0.59703465  0.59462350  0.37692507  1
  O  O85  1  0.62095210  0.49859643  0.88128132  1
  O  O86  1  0.65396932  0.19561090  0.96393461  1
  O  O87  1  0.66591571  0.16173200  0.62117517  1
  O  O88  1  0.69842497  0.06356459  0.32441222  1
  O  O89  1  0.80157503  0.93643541  0.82441222  1
  O  O90  1  0.83408429  0.83826800  0.12117517  1
  O  O91  1  0.84603068  0.80438910  0.46393461  1
  O  O92  1  0.87904790  0.50140357  0.38128132  1
  O  O93  1  0.90296535  0.40537650  0.87692507  1
  O  O94  1  0.89878457  0.10568605  0.38574992  1
  O  O95  1  0.90659740  0.30352676  0.42158553  1
  O  O96  1  0.91778213  0.66166032  0.73830506  1
  O  O97  1  0.95903175  0.70616963  0.25227897  1
  O  O98  1  0.96837585  0.93812808  0.95099386  1
  O  O99  1  0.98189474  0.90950826  0.29566502  1
