# generated using pymatgen
data_PH11(NO2)2
_symmetry_space_group_name_H-M   'P 1'
_cell_length_a   6.37488894
_cell_length_b   8.27735725
_cell_length_c   12.76716155
_cell_angle_alpha   90.00000000
_cell_angle_beta   98.84718565
_cell_angle_gamma   90.00000000
_symmetry_Int_Tables_number   1
_chemical_formula_structural   PH11(NO2)2
_chemical_formula_sum   'P4 H44 N8 O16'
_cell_volume   665.67229110
_cell_formula_units_Z   4
loop_
 _symmetry_equiv_pos_site_id
 _symmetry_equiv_pos_as_xyz
  1  'x, y, z'
loop_
 _atom_site_type_symbol
 _atom_site_label
 _atom_site_symmetry_multiplicity
 _atom_site_fract_x
 _atom_site_fract_y
 _atom_site_fract_z
 _atom_site_occupancy
  P  P0  1  0.20720860  0.93351418  0.36433009  1
  P  P1  1  0.79279140  0.43351418  0.13566991  1
  P  P2  1  0.79279140  0.06648582  0.63566991  1
  P  P3  1  0.20720860  0.56648582  0.86433009  1
  H  H4  1  0.75516357  0.93671298  0.56244622  1
  H  H5  1  0.24483643  0.43671298  0.93755378  1
  H  H6  1  0.24483643  0.06328702  0.43755378  1
  H  H7  1  0.75516357  0.56328702  0.06244622  1
  H  H8  1  0.67375985  0.20638829  0.80751777  1
  H  H9  1  0.32624015  0.70638829  0.69248223  1
  H  H10  1  0.32624015  0.79361171  0.19248223  1
  H  H11  1  0.67375985  0.29361171  0.30751777  1
  H  H12  1  0.69109923  0.29232918  0.93269885  1
  H  H13  1  0.30890077  0.79232918  0.56730115  1
  H  H14  1  0.30890077  0.70767082  0.06730115  1
  H  H15  1  0.69109923  0.20767082  0.43269885  1
  H  H16  1  0.80994374  0.38497031  0.83841280  1
  H  H17  1  0.19005626  0.88497031  0.66158720  1
  H  H18  1  0.19005626  0.61502969  0.16158720  1
  H  H19  1  0.80994374  0.11502969  0.33841280  1
  H  H20  1  0.54537319  0.38381914  0.82510517  1
  H  H21  1  0.45462681  0.88381914  0.67489483  1
  H  H22  1  0.45462681  0.61618086  0.17489483  1
  H  H23  1  0.54537319  0.11618086  0.32510517  1
  H  H24  1  0.18392070  0.21724750  0.62088846  1
  H  H25  1  0.81607930  0.71724750  0.87911154  1
  H  H26  1  0.81607930  0.78275250  0.37911154  1
  H  H27  1  0.18392070  0.28275250  0.12088846  1
  H  H28  1  0.28350993  0.40001162  0.65870097  1
  H  H29  1  0.71649007  0.90001162  0.84129903  1
  H  H30  1  0.71649007  0.59998838  0.34129903  1
  H  H31  1  0.28350993  0.09998838  0.15870097  1
  H  H32  1  0.43482163  0.27157557  0.59770437  1
  H  H33  1  0.56517837  0.77157557  0.90229563  1
  H  H34  1  0.56517837  0.72842443  0.40229563  1
  H  H35  1  0.43482163  0.22842443  0.09770437  1
  H  H36  1  0.22045236  0.35825855  0.52540256  1
  H  H37  1  0.77954764  0.85825855  0.97459744  1
  H  H38  1  0.77954764  0.64174145  0.47459744  1
  H  H39  1  0.22045236  0.14174145  0.02540256  1
  H  H40  1  0.21110664  0.93201628  0.90696849  1
  H  H41  1  0.78889336  0.43201628  0.59303151  1
  H  H42  1  0.78889336  0.06798372  0.09303151  1
  H  H43  1  0.21110664  0.56798372  0.40696849  1
  H  H44  1  0.12291400  0.06502719  0.82281043  1
  H  H45  1  0.87708600  0.56502719  0.67718957  1
  H  H46  1  0.87708600  0.93497281  0.17718957  1
  H  H47  1  0.12291400  0.43497281  0.32281043  1
  N  N48  1  0.31946882  0.68596860  0.14883398  1
  N  N49  1  0.68053118  0.18596860  0.35116602  1
  N  N50  1  0.68053118  0.31403140  0.85116602  1
  N  N51  1  0.31946882  0.81403140  0.64883398  1
  N  N52  1  0.28006095  0.18825348  0.09999930  1
  N  N53  1  0.71993905  0.68825348  0.40000070  1
  N  N54  1  0.71993905  0.81174652  0.90000070  1
  N  N55  1  0.28006095  0.31174652  0.59999930  1
  O  O56  1  0.29039988  0.78071085  0.42635887  1
  O  O57  1  0.70960012  0.28071085  0.07364113  1
  O  O58  1  0.70960012  0.21928915  0.57364113  1
  O  O59  1  0.29039988  0.71928915  0.92635887  1
  O  O60  1  0.96557049  0.93173022  0.32572972  1
  O  O61  1  0.03442951  0.43173022  0.17427028  1
  O  O62  1  0.03442951  0.06826978  0.67427028  1
  O  O63  1  0.96557049  0.56826978  0.82572972  1
  O  O64  1  0.33727196  0.97286469  0.27505180  1
  O  O65  1  0.66272804  0.47286469  0.22494820  1
  O  O66  1  0.66272804  0.02713531  0.72494820  1
  O  O67  1  0.33727196  0.52713531  0.77505180  1
  O  O68  1  0.17591148  0.04856129  0.89880097  1
  O  O69  1  0.82408852  0.54856129  0.60119903  1
  O  O70  1  0.82408852  0.95143871  0.10119903  1
  O  O71  1  0.17591148  0.45143871  0.39880097  1
