# generated using pymatgen
data_ZnH12N3Cl5
_symmetry_space_group_name_H-M   'P 1'
_cell_length_a   8.84860226
_cell_length_b   9.97809488
_cell_length_c   12.59119396
_cell_angle_alpha   90.00000000
_cell_angle_beta   90.00000000
_cell_angle_gamma   90.00000000
_symmetry_Int_Tables_number   1
_chemical_formula_structural   ZnH12N3Cl5
_chemical_formula_sum   'Zn4 H48 N12 Cl20'
_cell_volume   1111.70412603
_cell_formula_units_Z   4
loop_
 _symmetry_equiv_pos_site_id
 _symmetry_equiv_pos_as_xyz
  1  'x, y, z'
loop_
 _atom_site_type_symbol
 _atom_site_label
 _atom_site_symmetry_multiplicity
 _atom_site_fract_x
 _atom_site_fract_y
 _atom_site_fract_z
 _atom_site_occupancy
  Zn  Zn0  1  0.81504570  0.25000000  0.39360120  1
  Zn  Zn1  1  0.31504570  0.25000000  0.10639880  1
  Zn  Zn2  1  0.18495430  0.75000000  0.60639880  1
  Zn  Zn3  1  0.68495430  0.75000000  0.89360120  1
  H  H4  1  0.00361333  0.25000000  0.89330345  1
  H  H5  1  0.50361333  0.25000000  0.60669655  1
  H  H6  1  0.99638667  0.75000000  0.10669655  1
  H  H7  1  0.49638667  0.75000000  0.39330345  1
  H  H8  1  0.81428033  0.25000000  0.91822487  1
  H  H9  1  0.31428033  0.25000000  0.58177513  1
  H  H10  1  0.18571967  0.75000000  0.08177513  1
  H  H11  1  0.68571967  0.75000000  0.41822487  1
  H  H12  1  0.93411001  0.16583957  0.99877242  1
  H  H13  1  0.43411001  0.33416043  0.50122758  1
  H  H14  1  0.06588999  0.66583957  0.00122758  1
  H  H15  1  0.56588999  0.83416043  0.49877242  1
  H  H16  1  0.06588999  0.83416043  0.00122758  1
  H  H17  1  0.56588999  0.66583957  0.49877242  1
  H  H18  1  0.93411001  0.33416043  0.99877242  1
  H  H19  1  0.43411001  0.16583957  0.50122758  1
  H  H20  1  0.00533822  0.07629387  0.66400955  1
  H  H21  1  0.50533822  0.42370613  0.83599045  1
  H  H22  1  0.99466178  0.57629387  0.33599045  1
  H  H23  1  0.49466178  0.92370613  0.16400955  1
  H  H24  1  0.99466178  0.92370613  0.33599045  1
  H  H25  1  0.49466178  0.57629387  0.16400955  1
  H  H26  1  0.00533822  0.42370613  0.66400955  1
  H  H27  1  0.50533822  0.07629387  0.83599045  1
  H  H28  1  0.89115211  0.96229239  0.60548246  1
  H  H29  1  0.39115211  0.53770761  0.89451754  1
  H  H30  1  0.10884789  0.46229239  0.39451754  1
  H  H31  1  0.60884789  0.03770761  0.10548246  1
  H  H32  1  0.10884789  0.03770761  0.39451754  1
  H  H33  1  0.60884789  0.46229239  0.10548246  1
  H  H34  1  0.89115211  0.53770761  0.60548246  1
  H  H35  1  0.39115211  0.96229239  0.89451754  1
  H  H36  1  0.81803728  0.08382014  0.68696077  1
  H  H37  1  0.31803728  0.41617986  0.81303923  1
  H  H38  1  0.18196272  0.58382014  0.31303923  1
  H  H39  1  0.68196272  0.91617986  0.18696077  1
  H  H40  1  0.18196272  0.91617986  0.31303923  1
  H  H41  1  0.68196272  0.58382014  0.18696077  1
  H  H42  1  0.81803728  0.41617986  0.68696077  1
  H  H43  1  0.31803728  0.08382014  0.81303923  1
  H  H44  1  0.92122708  0.95531190  0.73715526  1
  H  H45  1  0.42122708  0.54468810  0.76284474  1
  H  H46  1  0.07877292  0.45531190  0.26284474  1
  H  H47  1  0.57877292  0.04468810  0.23715526  1
  H  H48  1  0.07877292  0.04468810  0.26284474  1
  H  H49  1  0.57877292  0.45531190  0.23715526  1
  H  H50  1  0.92122708  0.54468810  0.73715526  1
  H  H51  1  0.42122708  0.95531190  0.76284474  1
  N  N52  1  0.92042696  0.25000000  0.95232625  1
  N  N53  1  0.42042696  0.25000000  0.54767375  1
  N  N54  1  0.07957304  0.75000000  0.04767375  1
  N  N55  1  0.57957304  0.75000000  0.45232625  1
  N  N56  1  0.90871451  0.01883168  0.67309443  1
  N  N57  1  0.40871451  0.48116832  0.82690557  1
  N  N58  1  0.09128549  0.51883168  0.32690557  1
  N  N59  1  0.59128549  0.98116832  0.17309443  1
  N  N60  1  0.09128549  0.98116832  0.32690557  1
  N  N61  1  0.59128549  0.51883168  0.17309443  1
  N  N62  1  0.90871451  0.48116832  0.67309443  1
  N  N63  1  0.40871451  0.01883168  0.82690557  1
  Cl  Cl64  1  0.87320414  0.25000000  0.21807532  1
  Cl  Cl65  1  0.37320414  0.25000000  0.28192468  1
  Cl  Cl66  1  0.12679586  0.75000000  0.78192468  1
  Cl  Cl67  1  0.62679586  0.75000000  0.71807532  1
  Cl  Cl68  1  0.03928303  0.25000000  0.48852518  1
  Cl  Cl69  1  0.53928303  0.25000000  0.01147482  1
  Cl  Cl70  1  0.96071697  0.75000000  0.51147482  1
  Cl  Cl71  1  0.46071697  0.75000000  0.98852518  1
  Cl  Cl72  1  0.66713370  0.25000000  0.73615922  1
  Cl  Cl73  1  0.16713370  0.25000000  0.76384078  1
  Cl  Cl74  1  0.33286630  0.75000000  0.26384078  1
  Cl  Cl75  1  0.83286630  0.75000000  0.23615922  1
  Cl  Cl76  1  0.69092308  0.05711444  0.43620456  1
  Cl  Cl77  1  0.19092308  0.44288556  0.06379544  1
  Cl  Cl78  1  0.30907692  0.55711444  0.56379544  1
  Cl  Cl79  1  0.80907692  0.94288556  0.93620456  1
  Cl  Cl80  1  0.30907692  0.94288556  0.56379544  1
  Cl  Cl81  1  0.80907692  0.55711444  0.93620456  1
  Cl  Cl82  1  0.69092308  0.44288556  0.43620456  1
  Cl  Cl83  1  0.19092308  0.05711444  0.06379544  1
