# generated using pymatgen
data_Zr5Pb3
_symmetry_space_group_name_H-M   'P 1'
_cell_length_a   8.99225286
_cell_length_b   8.99209703
_cell_length_c   6.21382480
_cell_angle_alpha   89.98296532
_cell_angle_beta   90.00665547
_cell_angle_gamma   120.00397169
_symmetry_Int_Tables_number   1
_chemical_formula_structural   Zr5Pb3
_chemical_formula_sum   'Zr10 Pb6'
_cell_volume   435.11266920
_cell_formula_units_Z   2
loop_
 _symmetry_equiv_pos_site_id
 _symmetry_equiv_pos_as_xyz
  1  'x, y, z'
loop_
 _atom_site_type_symbol
 _atom_site_label
 _atom_site_symmetry_multiplicity
 _atom_site_fract_x
 _atom_site_fract_y
 _atom_site_fract_z
 _atom_site_occupancy
  Zr  Zr0  1  0.75242076  0.75239058  0.25002316  1
  Zr  Zr1  1  0.00009107  0.24766242  0.24991921  1
  Zr  Zr2  1  0.75225312  0.00003749  0.74999510  1
  Zr  Zr3  1  0.33346905  0.66663454  0.50030978  1
  Zr  Zr4  1  0.24765444  -0.00008248  0.24996633  1
  Zr  Zr5  1  0.66662412  0.33345380  0.50001514  1
  Zr  Zr6  1  0.00001211  0.75236378  0.75003268  1
  Zr  Zr7  1  0.33329859  0.66655594  -0.00008699  1
  Zr  Zr8  1  0.24768848  0.24761888  0.75002980  1
  Zr  Zr9  1  0.66664416  0.33337507  -0.00007449  1
  Pb  Pb10  1  0.61036558  0.61038262  0.75007591  1
  Pb  Pb11  1  0.38966160  0.00010748  0.75008643  1
  Pb  Pb12  1  0.61032445  -0.00001331  0.25005524  1
  Pb  Pb13  1  0.99993812  0.38957705  0.74989774  1
  Pb  Pb14  1  0.38948593  0.38943466  0.24977901  1
  Pb  Pb15  1  0.00006843  0.61050149  0.24997593  1
