# generated using pymatgen
data_Cs4Zr3Mn(PO4)6
_symmetry_space_group_name_H-M   'P 1'
_cell_length_a   10.50957865
_cell_length_b   10.51429855
_cell_length_c   10.50685906
_cell_angle_alpha   90.00000000
_cell_angle_beta   90.00000000
_cell_angle_gamma   90.00927994
_symmetry_Int_Tables_number   1
_chemical_formula_structural   Cs4Zr3Mn(PO4)6
_chemical_formula_sum   'Cs8 Zr6 Mn2 P12 O48'
_cell_volume   1161.01681709
_cell_formula_units_Z   2
loop_
 _symmetry_equiv_pos_site_id
 _symmetry_equiv_pos_as_xyz
  1  'x, y, z'
loop_
 _atom_site_type_symbol
 _atom_site_label
 _atom_site_symmetry_multiplicity
 _atom_site_fract_x
 _atom_site_fract_y
 _atom_site_fract_z
 _atom_site_occupancy
  Cs  Cs0  1  0.06453659  0.06634348  0.06714242  1
  Cs  Cs1  1  0.20554734  0.71711234  0.78947860  1
  Cs  Cs2  1  0.29445266  0.28288766  0.28947860  1
  Cs  Cs3  1  0.43546341  0.93365652  0.56714242  1
  Cs  Cs4  1  0.57343545  0.42801104  0.92881241  1
  Cs  Cs5  1  0.71443830  0.79757360  0.20995254  1
  Cs  Cs6  1  0.78556170  0.20242640  0.70995254  1
  Cs  Cs7  1  0.92656455  0.57198896  0.42881241  1
  Zr  Zr8  1  0.08301656  0.91401349  0.41432128  1
  Zr  Zr9  1  0.13985443  0.35725212  0.64058686  1
  Zr  Zr10  1  0.36014557  0.64274788  0.14058686  1
  Zr  Zr11  1  0.41698344  0.08598651  0.91432128  1
  Zr  Zr12  1  0.59014728  0.58783031  0.58743253  1
  Zr  Zr13  1  0.90985272  0.41216969  0.08743253  1
  Mn  Mn14  1  0.64555221  0.14206820  0.35606679  1
  Mn  Mn15  1  0.85444779  0.85793180  0.85606679  1
  P  P16  1  0.04167785  0.72773815  0.12506118  1
  P  P17  1  0.12625994  0.04166402  0.72917971  1
  P  P18  1  0.22798265  0.37474013  0.95777865  1
  P  P19  1  0.27201735  0.62525987  0.45777865  1
  P  P20  1  0.37374006  0.95833598  0.22917971  1
  P  P21  1  0.45832215  0.27226185  0.62506118  1
  P  P22  1  0.54386510  0.76994996  0.87589888  1
  P  P23  1  0.62278110  0.45628215  0.27116829  1
  P  P24  1  0.73063426  0.12282727  0.04359549  1
  P  P25  1  0.76936574  0.87717273  0.54359549  1
  P  P26  1  0.87721890  0.54371785  0.77116829  1
  P  P27  1  0.95613490  0.23005004  0.37589888  1
  O  O28  1  0.00992198  0.09231681  0.35917365  1
  O  O29  1  0.02876628  0.79774478  0.25653443  1
  O  O30  1  0.02632377  0.96550410  0.79967798  1
  O  O31  1  0.04378975  0.29811774  0.47630239  1
  O  O32  1  0.08907246  0.18568294  0.72543306  1
  O  O33  1  0.09038646  0.35912951  0.00868583  1
  O  O34  1  0.14308707  0.99264466  0.58927796  1
  O  O35  1  0.18584876  0.72361732  0.08913903  1
  O  O36  1  0.20202864  0.52154203  0.53674509  1
  O  O37  1  0.19837309  0.75244540  0.47491321  1
  O  O38  1  0.22739949  0.41492479  0.81588515  1
  O  O39  1  0.25742387  0.02951325  0.79905027  1
  O  O40  1  0.24257613  0.97048675  0.29905027  1
  O  O41  1  0.27260051  0.58507521  0.31588515  1
  O  O42  1  0.30162691  0.24755460  0.97491321  1
  O  O43  1  0.29797136  0.47845797  0.03674509  1
  O  O44  1  0.31415124  0.27638268  0.58913903  1
  O  O45  1  0.35691293  0.00735534  0.08927796  1
  O  O46  1  0.40961354  0.64087049  0.50868583  1
  O  O47  1  0.41092754  0.81431706  0.22543306  1
  O  O48  1  0.45621025  0.70188226  0.97630239  1
  O  O49  1  0.47367623  0.03449590  0.29967798  1
  O  O50  1  0.47123372  0.20225522  0.75653443  1
  O  O51  1  0.49007802  0.90768319  0.85917365  1
  O  O52  1  0.50795263  0.41139479  0.64236813  1
  O  O53  1  0.52451366  0.69712185  0.74709992  1
  O  O54  1  0.52215634  0.54300843  0.20238678  1
  O  O55  1  0.53327122  0.20095885  0.52452089  1
  O  O56  1  0.57878533  0.31880998  0.26686584  1
  O  O57  1  0.59025330  0.14210914  0.99085533  1
  O  O58  1  0.64003179  0.51030804  0.40855586  1
  O  O59  1  0.68105895  0.76500460  0.92090053  1
  O  O60  1  0.70008857  0.97148367  0.45875268  1
  O  O61  1  0.70091796  0.74271879  0.52887181  1
  O  O62  1  0.73128677  0.08306531  0.18289526  1
  O  O63  1  0.75208144  0.47605635  0.19863328  1
  O  O64  1  0.74791856  0.52394365  0.69863328  1
  O  O65  1  0.76871323  0.91693469  0.68289526  1
  O  O66  1  0.79908204  0.25728121  0.02887181  1
  O  O67  1  0.79991143  0.02851633  0.95875268  1
  O  O68  1  0.81894105  0.23499540  0.42090053  1
  O  O69  1  0.85996821  0.48969196  0.90855586  1
  O  O70  1  0.90974670  0.85789086  0.49085533  1
  O  O71  1  0.92121467  0.68119002  0.76686584  1
  O  O72  1  0.96672878  0.79904115  0.02452089  1
  O  O73  1  0.97784366  0.45699157  0.70238678  1
  O  O74  1  0.97548634  0.30287815  0.24709992  1
  O  O75  1  0.99204737  0.58860521  0.14236813  1
