# generated using pymatgen
data_CsAg2(B5O8)3
_symmetry_space_group_name_H-M   'P 1'
_cell_length_a   5.19239814
_cell_length_b   17.99185975
_cell_length_c   22.42853733
_cell_angle_alpha   90.00000000
_cell_angle_beta   90.00000000
_cell_angle_gamma   90.00000000
_symmetry_Int_Tables_number   1
_chemical_formula_structural   CsAg2(B5O8)3
_chemical_formula_sum   'Cs4 Ag8 B60 O96'
_cell_volume   2095.29412289
_cell_formula_units_Z   4
loop_
 _symmetry_equiv_pos_site_id
 _symmetry_equiv_pos_as_xyz
  1  'x, y, z'
loop_
 _atom_site_type_symbol
 _atom_site_label
 _atom_site_symmetry_multiplicity
 _atom_site_fract_x
 _atom_site_fract_y
 _atom_site_fract_z
 _atom_site_occupancy
  Cs  Cs0  1  0.53196035  0.67394263  0.91950081  1
  Cs  Cs1  1  0.46803965  0.17394263  0.58049919  1
  Cs  Cs2  1  0.46803965  0.82605737  0.41950081  1
  Cs  Cs3  1  0.53196035  0.32605737  0.08049919  1
  Ag  Ag4  1  0.95245221  0.66841529  0.18329740  1
  Ag  Ag5  1  0.55528011  0.95195439  0.11954704  1
  Ag  Ag6  1  0.04754779  0.16841529  0.31670260  1
  Ag  Ag7  1  0.44471989  0.45195439  0.38045296  1
  Ag  Ag8  1  0.44471989  0.54804561  0.61954704  1
  Ag  Ag9  1  0.95245221  0.33158471  0.81670260  1
  Ag  Ag10  1  0.04754779  0.83158471  0.68329740  1
  Ag  Ag11  1  0.55528011  0.04804561  0.88045296  1
  B  B12  1  0.26654552  0.71118198  0.57949182  1
  B  B13  1  0.42142242  0.47411572  0.80423218  1
  B  B14  1  0.80794924  0.50000000  0.00000000  1
  B  B15  1  0.13541373  0.43306518  0.23387159  1
  B  B16  1  0.86458627  0.06693482  0.73387159  1
  B  B17  1  0.73428617  0.46059649  0.89706442  1
  B  B18  1  0.13541373  0.56693482  0.76612841  1
  B  B19  1  0.14340734  0.55610710  0.28292939  1
  B  B20  1  0.82656340  0.67394159  0.75069414  1
  B  B21  1  0.51594816  0.73868901  0.27103570  1
  B  B22  1  0.73345448  0.78881802  0.07949182  1
  B  B23  1  0.79046769  0.88236419  0.88284235  1
  B  B24  1  0.43812702  0.10297769  0.03834743  1
  B  B25  1  0.39372920  0.69802955  0.08003252  1
  B  B26  1  0.79046769  0.11763581  0.11715765  1
  B  B27  1  0.42142242  0.52588428  0.19576782  1
  B  B28  1  0.17343660  0.82605841  0.25069414  1
  B  B29  1  0.85479680  0.65754480  0.32256283  1
  B  B30  1  0.85659266  0.05610710  0.21707061  1
  B  B31  1  0.26654552  0.28881802  0.42050818  1
  B  B32  1  0.14520320  0.84245520  0.82256283  1
  B  B33  1  0.19205076  0.00000000  0.50000000  1
  B  B34  1  0.82656340  0.32605841  0.24930586  1
  B  B35  1  0.85659266  0.94389290  0.78292939  1
  B  B36  1  0.48405184  0.23868901  0.22896430  1
  B  B37  1  0.08584288  0.12888669  0.97198837  1
  B  B38  1  0.55802150  0.71662038  0.66725689  1
  B  B39  1  0.56187298  0.39702231  0.53834743  1
  B  B40  1  0.14340734  0.44389290  0.71707061  1
  B  B41  1  0.08584288  0.87111331  0.02801163  1
  B  B42  1  0.20953231  0.61763581  0.38284235  1
  B  B43  1  0.91415712  0.37111331  0.47198837  1
  B  B44  1  0.56187298  0.60297769  0.46165257  1
  B  B45  1  0.92797742  0.90261093  0.54576392  1
  B  B46  1  0.92797742  0.09738907  0.45423608  1
  B  B47  1  0.60627080  0.80197045  0.58003252  1
  B  B48  1  0.39372920  0.30197045  0.91996748  1
  B  B49  1  0.91415712  0.62888669  0.52801163  1
  B  B50  1  0.14520320  0.15754480  0.17743717  1
  B  B51  1  0.43812702  0.89702231  0.96165257  1
  B  B52  1  0.86458627  0.93306518  0.26612841  1
  B  B53  1  0.26571383  0.96059649  0.60293558  1
  B  B54  1  0.07202258  0.40261093  0.95423608  1
  B  B55  1  0.57857758  0.97411572  0.69576782  1
  B  B56  1  0.44197850  0.21662038  0.83274311  1
  B  B57  1  0.16925002  0.00000000  0.00000000  1
  B  B58  1  0.73428617  0.53940351  0.10293558  1
  B  B59  1  0.17343660  0.17394159  0.74930586  1
  B  B60  1  0.48405184  0.76131099  0.77103570  1
  B  B61  1  0.57857758  0.02588428  0.30423218  1
  B  B62  1  0.60627080  0.19802955  0.41996748  1
  B  B63  1  0.73345448  0.21118198  0.92050818  1
  B  B64  1  0.83074998  0.50000000  0.50000000  1
  B  B65  1  0.26571383  0.03940351  0.39706442  1
  B  B66  1  0.44197850  0.78337962  0.16725689  1
  B  B67  1  0.85479680  0.34245520  0.67743717  1
  B  B68  1  0.07202258  0.59738907  0.04576392  1
  B  B69  1  0.20953231  0.38236419  0.61715765  1
  B  B70  1  0.51594816  0.26131099  0.72896430  1
  B  B71  1  0.55802150  0.28337962  0.33274311  1
  O  O72  1  0.36564843  0.22108671  0.44017887  1
  O  O73  1  0.67517316  0.07620118  0.26495175  1
  O  O74  1  0.33791912  0.45215894  0.19525897  1
  O  O75  1  0.92195551  0.60852768  0.27915651  1
  O  O76  1  0.60013169  0.25586542  0.78640603  1
  O  O77  1  0.62067812  0.82479165  0.12719108  1
  O  O78  1  0.66208088  0.04784106  0.69525897  1
  O  O79  1  0.29819211  0.72567807  0.13208408  1
  O  O80  1  0.65393424  0.46737368  0.54696994  1
  O  O81  1  0.72432681  0.06453754  0.15784399  1
  O  O82  1  0.34994636  0.79390690  0.81698558  1
  O  O83  1  0.65005364  0.70609310  0.31698558  1
  O  O84  1  0.26974913  0.35122994  0.95723196  1
  O  O85  1  0.07804449  0.89147232  0.77915651  1
  O  O86  1  0.64425468  0.86611059  0.93215241  1
  O  O87  1  0.66208088  0.95215894  0.30474103  1
  O  O88  1  0.32482684  0.57620118  0.23504825  1
  O  O89  1  0.34606576  0.96737368  0.95303006  1
  O  O90  1  0.70180789  0.77432193  0.63208408  1
  O  O91  1  0.02395039  0.63502710  0.77735245  1
  O  O92  1  0.97604961  0.86497290  0.27735245  1
  O  O93  1  0.73025087  0.14877006  0.45723196  1
  O  O94  1  0.67517316  0.92379882  0.73504825  1
  O  O95  1  0.35463728  0.00257904  0.44542473  1
  O  O96  1  0.67786427  0.64963189  0.50302867  1
  O  O97  1  0.05559661  0.68651785  0.54985302  1
  O  O98  1  0.70180789  0.22567807  0.36791592  1
  O  O99  1  0.02502438  0.93265279  0.49533666  1
  O  O100  1  0.98955194  0.33884553  0.62399966  1
  O  O101  1  0.05113098  0.52037216  0.72289660  1
  O  O102  1  0.64425468  0.13388941  0.06784759  1
  O  O103  1  0.28785731  0.77336730  0.28831652  1
  O  O104  1  0.02395039  0.36497290  0.22264755  1
  O  O105  1  0.73025087  0.85122994  0.54276804  1
  O  O106  1  0.65005364  0.29390690  0.68301442  1
  O  O107  1  0.97604961  0.13502710  0.72264755  1
  O  O108  1  0.94440339  0.81348215  0.04985302  1
  O  O109  1  0.27567319  0.43546246  0.65784399  1
  O  O110  1  0.27567319  0.56453754  0.34215601  1
  O  O111  1  0.67786427  0.35036811  0.49697133  1
  O  O112  1  0.97497562  0.43265279  0.00466334  1
  O  O113  1  0.37932188  0.67520835  0.62719108  1
  O  O114  1  0.00721131  0.05690815  0.97221865  1
  O  O115  1  0.99278869  0.44309185  0.47221865  1
  O  O116  1  0.36564843  0.77891329  0.55982113  1
  O  O117  1  0.60728876  0.54877203  0.15602725  1
  O  O118  1  0.35463728  0.99742096  0.55457527  1
  O  O119  1  0.26974913  0.64877006  0.04276804  1
  O  O120  1  0.94886902  0.97962784  0.22289660  1
  O  O121  1  0.71214269  0.27336730  0.21168348  1
  O  O122  1  0.37932188  0.32479165  0.37280892  1
  O  O123  1  0.02810450  0.92240678  0.60134677  1
  O  O124  1  0.97497562  0.56734721  0.99533666  1
  O  O125  1  0.01044806  0.16115447  0.12399966  1
  O  O126  1  0.32213573  0.85036811  0.00302867  1
  O  O127  1  0.94440339  0.18651785  0.95014698  1
  O  O128  1  0.63435157  0.72108671  0.05982113  1
  O  O129  1  0.60013169  0.74413458  0.21359397  1
  O  O130  1  0.34994636  0.20609310  0.18301442  1
  O  O131  1  0.35574532  0.36611059  0.56784759  1
  O  O132  1  0.65393424  0.53262632  0.45303006  1
  O  O133  1  0.74034077  0.66480820  0.69385261  1
  O  O134  1  0.02810450  0.07759322  0.39865323  1
  O  O135  1  0.97189550  0.57759322  0.10134677  1
  O  O136  1  0.00721131  0.94309185  0.02778135  1
  O  O137  1  0.25965923  0.16480820  0.80614739  1
  O  O138  1  0.92195551  0.39147232  0.72084349  1
  O  O139  1  0.99278869  0.55690815  0.52778135  1
  O  O140  1  0.72432681  0.93546246  0.84215601  1
  O  O141  1  0.39986831  0.24413458  0.28640603  1
  O  O142  1  0.35574532  0.63388941  0.43215241  1
  O  O143  1  0.64536272  0.50257904  0.05457527  1
  O  O144  1  0.01044806  0.83884553  0.87600034  1
  O  O145  1  0.29819211  0.27432193  0.86791592  1
  O  O146  1  0.32482684  0.42379882  0.76495175  1
  O  O147  1  0.05559661  0.31348215  0.45014698  1
  O  O148  1  0.28785731  0.22663270  0.71168348  1
  O  O149  1  0.60728876  0.45122797  0.84397275  1
  O  O150  1  0.94886902  0.02037216  0.77710340  1
  O  O151  1  0.98955194  0.66115447  0.37600034  1
  O  O152  1  0.05113098  0.47962784  0.27710340  1
  O  O153  1  0.62067812  0.17520835  0.87280892  1
  O  O154  1  0.25965923  0.83519180  0.19385261  1
  O  O155  1  0.64536272  0.49742096  0.94542473  1
  O  O156  1  0.33791912  0.54784106  0.80474103  1
  O  O157  1  0.39986831  0.75586542  0.71359397  1
  O  O158  1  0.63435157  0.27891329  0.94017887  1
  O  O159  1  0.07804449  0.10852768  0.22084349  1
  O  O160  1  0.32213573  0.14963189  0.99697133  1
  O  O161  1  0.71214269  0.72663270  0.78831652  1
  O  O162  1  0.97189550  0.42240678  0.89865323  1
  O  O163  1  0.74034077  0.33519180  0.30614739  1
  O  O164  1  0.39271124  0.95122797  0.65602725  1
  O  O165  1  0.34606576  0.03262632  0.04696994  1
  O  O166  1  0.02502438  0.06734721  0.50466334  1
  O  O167  1  0.39271124  0.04877203  0.34397275  1
