# generated using pymatgen
data_K2Zn(H2N)4
_symmetry_space_group_name_H-M   'P 1'
_cell_length_a   6.93208967
_cell_length_b   7.50022895
_cell_length_c   8.13035564
_cell_angle_alpha   71.95941377
_cell_angle_beta   84.17991268
_cell_angle_gamma   64.17843663
_symmetry_Int_Tables_number   1
_chemical_formula_structural   K2Zn(H2N)4
_chemical_formula_sum   'K4 Zn2 H16 N8'
_cell_volume   361.52562595
_cell_formula_units_Z   2
loop_
 _symmetry_equiv_pos_site_id
 _symmetry_equiv_pos_as_xyz
  1  'x, y, z'
loop_
 _atom_site_type_symbol
 _atom_site_label
 _atom_site_symmetry_multiplicity
 _atom_site_fract_x
 _atom_site_fract_y
 _atom_site_fract_z
 _atom_site_occupancy
  K  K0  1  0.74826199  0.50238760  0.86061697  1
  K  K1  1  0.25173801  0.49761240  0.13938303  1
  K  K2  1  0.69360530  0.57420384  0.31244066  1
  K  K3  1  0.30639470  0.42579616  0.68755934  1
  Zn  Zn4  1  0.77664353  0.10675616  0.23497364  1
  Zn  Zn5  1  0.22335647  0.89324384  0.76502636  1
  H  H6  1  0.91953510  0.79878334  0.91619362  1
  H  H7  1  0.08046490  0.20121666  0.08380638  1
  H  H8  1  0.90421611  0.83353480  0.71276582  1
  H  H9  1  0.09578389  0.16646520  0.28723418  1
  H  H10  1  0.51586283  0.10219300  0.05125086  1
  H  H11  1  0.48413717  0.89780700  0.94874914  1
  H  H12  1  0.71356808  0.11205880  0.93702653  1
  H  H13  1  0.28643192  0.88794120  0.06297347  1
  H  H14  1  0.68341873  0.16449876  0.52175564  1
  H  H15  1  0.31658127  0.83550124  0.47824436  1
  H  H16  1  0.48664529  0.14031605  0.45933413  1
  H  H17  1  0.51335471  0.85968395  0.54066587  1
  H  H18  1  0.90357684  0.20705307  0.64661932  1
  H  H19  1  0.09642316  0.79294693  0.35338068  1
  H  H20  1  0.90571880  0.74438138  0.45236284  1
  H  H21  1  0.09428120  0.25561862  0.54763716  1
  N  N22  1  0.98751402  0.24598411  0.18381638  1
  N  N23  1  0.01248598  0.75401589  0.81618362  1
  N  N24  1  0.59878808  0.19277561  0.01080865  1
  N  N25  1  0.40121192  0.80722439  0.98919135  1
  N  N26  1  0.57513648  0.22559610  0.41901315  1
  N  N27  1  0.42486352  0.77440390  0.58098685  1
  N  N28  1  0.95666241  0.78669372  0.32902555  1
  N  N29  1  0.04333759  0.21330628  0.67097445  1
