# generated using pymatgen
data_Re3(SeBr)7
_symmetry_space_group_name_H-M   'P 1'
_cell_length_a   9.87311868
_cell_length_b   9.87311895
_cell_length_c   24.65127880
_cell_angle_alpha   90.00000000
_cell_angle_beta   90.00000000
_cell_angle_gamma   119.99999910
_symmetry_Int_Tables_number   1
_chemical_formula_structural   Re3(SeBr)7
_chemical_formula_sum   'Re12 Se28 Br28'
_cell_volume   2081.03227519
_cell_formula_units_Z   4
loop_
 _symmetry_equiv_pos_site_id
 _symmetry_equiv_pos_as_xyz
  1  'x, y, z'
loop_
 _atom_site_type_symbol
 _atom_site_label
 _atom_site_symmetry_multiplicity
 _atom_site_fract_x
 _atom_site_fract_y
 _atom_site_fract_z
 _atom_site_occupancy
  Re  Re0  1  0.85317100  0.02834575  0.42130691  1
  Re  Re1  1  0.63671922  0.47937589  0.65939313  1
  Re  Re2  1  0.47937589  0.63671922  0.15939313  1
  Re  Re3  1  0.14682900  0.17517475  0.92130691  1
  Re  Re4  1  0.97165425  0.82482525  0.42130691  1
  Re  Re5  1  0.15734334  0.52062411  0.15939313  1
  Re  Re6  1  0.17517475  0.14682900  0.42130691  1
  Re  Re7  1  0.82482525  0.97165425  0.92130691  1
  Re  Re8  1  0.02834575  0.85317100  0.92130691  1
  Re  Re9  1  0.52062411  0.15734334  0.65939313  1
  Re  Re10  1  0.36328078  0.84265666  0.15939313  1
  Re  Re11  1  0.84265666  0.36328078  0.65939313  1
  Se  Se12  1  0.00000000  0.00000000  0.99847993  1
  Se  Se13  1  0.45739199  0.29758509  0.73200894  1
  Se  Se14  1  0.00000000  0.00000000  0.49847993  1
  Se  Se15  1  0.93731557  0.65917876  0.64641308  1
  Se  Se16  1  0.34082124  0.27813681  0.64641308  1
  Se  Se17  1  0.66666700  0.33333300  0.58175736  1
  Se  Se18  1  0.27813681  0.34082124  0.14641308  1
  Se  Se19  1  0.54260801  0.84019310  0.23200894  1
  Se  Se20  1  0.15980690  0.70241491  0.23200894  1
  Se  Se21  1  0.20838120  0.03403803  0.84836410  1
  Se  Se22  1  0.70241491  0.15980690  0.73200894  1
  Se  Se23  1  0.05230853  0.32532060  0.43370225  1
  Se  Se24  1  0.72698793  0.67467940  0.93370225  1
  Se  Se25  1  0.06268443  0.72186319  0.14641308  1
  Se  Se26  1  0.27301207  0.94769147  0.43370225  1
  Se  Se27  1  0.96596197  0.17434317  0.84836410  1
  Se  Se28  1  0.84019310  0.54260801  0.73200894  1
  Se  Se29  1  0.33333300  0.66666700  0.08175736  1
  Se  Se30  1  0.29758509  0.45739199  0.23200894  1
  Se  Se31  1  0.32532060  0.05230853  0.93370225  1
  Se  Se32  1  0.94769147  0.27301207  0.93370225  1
  Se  Se33  1  0.03403803  0.20838120  0.34836410  1
  Se  Se34  1  0.17434317  0.96596197  0.34836410  1
  Se  Se35  1  0.67467940  0.72698793  0.43370225  1
  Se  Se36  1  0.82565683  0.79161880  0.84836410  1
  Se  Se37  1  0.79161880  0.82565683  0.34836410  1
  Se  Se38  1  0.65917876  0.93731557  0.14641308  1
  Se  Se39  1  0.72186319  0.06268443  0.64641308  1
  Br  Br40  1  0.57525983  0.91361045  0.86738687  1
  Br  Br41  1  0.91361045  0.57525983  0.36738687  1
  Br  Br42  1  0.09012986  0.42092526  0.71614492  1
  Br  Br43  1  0.42092526  0.09012986  0.21614492  1
  Br  Br44  1  0.35566916  0.31612905  0.49998651  1
  Br  Br45  1  0.35235446  0.96593261  0.58325910  1
  Br  Br46  1  0.90987014  0.33079539  0.21614492  1
  Br  Br47  1  0.33079539  0.90987014  0.71614492  1
  Br  Br48  1  0.08638955  0.66164938  0.86738687  1
  Br  Br49  1  0.00000000  0.00000000  0.75921186  1
  Br  Br50  1  0.66666700  0.33333300  0.82145341  1
  Br  Br51  1  0.61357815  0.64764554  0.58325910  1
  Br  Br52  1  0.33333300  0.66666700  0.32145341  1
  Br  Br53  1  0.00000000  0.00000000  0.25921186  1
  Br  Br54  1  0.66920461  0.57907474  0.21614492  1
  Br  Br55  1  0.31612905  0.35566916  -0.00001349  1
  Br  Br56  1  0.03954011  0.68387095  -0.00001349  1
  Br  Br57  1  0.57907474  0.66920461  0.71614492  1
  Br  Br58  1  0.64433084  0.96045989  -0.00001349  1
  Br  Br59  1  0.64764554  0.61357815  0.08325910  1
  Br  Br60  1  0.96045989  0.64433084  0.49998651  1
  Br  Br61  1  0.38642185  0.03406739  0.08325910  1
  Br  Br62  1  0.03406739  0.38642185  0.58325910  1
  Br  Br63  1  0.96593261  0.35235446  0.08325910  1
  Br  Br64  1  0.66164938  0.08638955  0.36738687  1
  Br  Br65  1  0.33835062  0.42474017  0.86738687  1
  Br  Br66  1  0.42474017  0.33835062  0.36738687  1
  Br  Br67  1  0.68387095  0.03954011  0.49998651  1
