# generated using pymatgen
data_Zn2AsHO5
_symmetry_space_group_name_H-M   'P 1'
_cell_length_a   8.46494843
_cell_length_b   8.64857752
_cell_length_c   6.14464473
_cell_angle_alpha   90.00004316
_cell_angle_beta   90.00000987
_cell_angle_gamma   90.00004930
_symmetry_Int_Tables_number   1
_chemical_formula_structural   Zn2AsHO5
_chemical_formula_sum   'Zn8 As4 H4 O20'
_cell_volume   449.84798256
_cell_formula_units_Z   4
loop_
 _symmetry_equiv_pos_site_id
 _symmetry_equiv_pos_as_xyz
  1  'x, y, z'
loop_
 _atom_site_type_symbol
 _atom_site_label
 _atom_site_symmetry_multiplicity
 _atom_site_fract_x
 _atom_site_fract_y
 _atom_site_fract_z
 _atom_site_occupancy
  Zn  Zn0  1  0.49999991  0.49999997  0.74644539  1
  Zn  Zn1  1  0.00000005  0.99999990  0.75355464  1
  Zn  Zn2  1  0.49999998  0.49999998  0.25355464  1
  Zn  Zn3  1  0.00000015  0.00000009  0.24644519  1
  Zn  Zn4  1  0.63332600  0.13286885  0.49999953  1
  Zn  Zn5  1  0.36667392  0.86713112  0.49999997  1
  Zn  Zn6  1  0.13332576  0.36713100  0.99999983  1
  Zn  Zn7  1  0.86667422  0.63286899  0.00000027  1
  As  As8  1  0.74963767  0.25575534  0.00000011  1
  As  As9  1  0.25036227  0.74424476  0.00000016  1
  As  As10  1  0.24963734  0.24424475  0.50000015  1
  As  As11  1  0.75036255  0.75575566  0.50000000  1
  H  H12  1  0.71313377  0.40694000  0.50000007  1
  H  H13  1  0.28686628  0.59305998  0.50000000  1
  H  H14  1  0.21313419  0.09305995  0.00000012  1
  H  H15  1  0.78686644  0.90693979  0.99999999  1
  O  O16  1  0.57163002  0.35546274  0.99999991  1
  O  O17  1  0.42837042  0.64453698  -0.00000009  1
  O  O18  1  0.07163056  0.14453674  0.49999997  1
  O  O19  1  0.92836953  0.85546272  0.50000023  1
  O  O20  1  0.60528491  0.36907281  0.49999943  1
  O  O21  1  0.39471598  0.63092782  0.49999984  1
  O  O22  1  0.10528451  0.13092716  0.99999998  1
  O  O23  1  0.89471403  0.86907286  -0.00000011  1
  O  O24  1  0.89435369  0.39617627  0.00000048  1
  O  O25  1  0.10564669  0.60382381  1.00000000  1
  O  O26  1  0.39435353  0.10382427  0.49999988  1
  O  O27  1  0.60564673  0.89617593  0.49999988  1
  O  O28  1  0.77089374  0.13738282  0.77515223  1
  O  O29  1  0.22910626  0.86261714  0.77515268  1
  O  O30  1  0.27089420  0.36261751  0.72484707  1
  O  O31  1  0.72910499  0.63738230  0.72484777  1
  O  O32  1  0.22910586  0.86261754  0.22484782  1
  O  O33  1  0.77089423  0.13738282  0.22484727  1
  O  O34  1  0.72910511  0.63738222  0.27515296  1
  O  O35  1  0.27089451  0.36261742  0.27515273  1
