# generated using pymatgen
data_Ni17(As3O16)2
_symmetry_space_group_name_H-M   'P 1'
_cell_length_a   9.94289673
_cell_length_b   39.77542781
_cell_length_c   18.96018590
_cell_angle_alpha   17.56572115
_cell_angle_beta   31.05538846
_cell_angle_gamma   35.24212836
_symmetry_Int_Tables_number   1
_chemical_formula_structural   Ni17(As3O16)2
_chemical_formula_sum   'Ni34 As12 O64'
_cell_volume   1167.41772733
_cell_formula_units_Z   2
loop_
 _symmetry_equiv_pos_site_id
 _symmetry_equiv_pos_as_xyz
  1  'x, y, z'
loop_
 _atom_site_type_symbol
 _atom_site_label
 _atom_site_symmetry_multiplicity
 _atom_site_fract_x
 _atom_site_fract_y
 _atom_site_fract_z
 _atom_site_occupancy
  Ni  Ni0  1  0.01362622  0.00199617  0.48884720  1
  Ni  Ni1  1  0.26247840  0.12453068  0.24856428  1
  Ni  Ni2  1  0.74694971  0.00311964  0.24900539  1
  Ni  Ni3  1  0.74393320  0.12622531  0.24403721  1
  Ni  Ni4  1  0.98640659  0.24800203  0.51114712  1
  Ni  Ni5  1  0.50162248  0.38107061  0.98724749  1
  Ni  Ni6  1  0.50000895  0.12499755  0.49999957  1
  Ni  Ni7  1  0.25604107  0.12377288  0.75598270  1
  Ni  Ni8  1  0.25170076  0.37475344  0.25614540  1
  Ni  Ni9  1  0.75496242  0.25005396  0.25425805  1
  Ni  Ni10  1  0.25305808  0.24688199  0.75096210  1
  Ni  Ni11  1  0.73749964  0.12547581  0.75144030  1
  Ni  Ni12  1  0.74518974  0.37535504  0.24381980  1
  Ni  Ni13  1  0.50000967  0.62499789  0.00000243  1
  Ni  Ni14  1  0.50159599  0.36893806  0.51150456  1
  Ni  Ni15  1  0.25167797  0.37526722  0.75508803  1
  Ni  Ni16  1  0.25600971  0.62623613  0.25106966  1
  Ni  Ni17  1  0.75496732  0.49994409  0.25447595  1
  Ni  Ni18  1  0.25301406  0.50309296  0.73852559  1
  Ni  Ni19  1  0.74515657  0.37464373  0.74526056  1
  Ni  Ni20  1  0.73754694  0.62451967  0.25332250  1
  Ni  Ni21  1  0.49837657  0.86892944  0.01275406  1
  Ni  Ni22  1  0.98640358  0.50199463  0.50314256  1
  Ni  Ni23  1  0.26245590  0.62547905  0.74668223  1
  Ni  Ni24  1  0.25481455  0.87535205  0.25476734  1
  Ni  Ni25  1  0.74698693  0.74690708  0.26147421  1
  Ni  Ni26  1  0.24504100  0.75005841  0.74552061  1
  Ni  Ni27  1  0.74399527  0.62376463  0.74892707  1
  Ni  Ni28  1  0.74832115  0.87470565  0.24497675  1
  Ni  Ni29  1  0.49841715  0.88106663  0.48847682  1
  Ni  Ni30  1  0.01361287  0.74801047  0.49683546  1
  Ni  Ni31  1  0.25481743  0.87465168  0.75616670  1
  Ni  Ni32  1  0.24501307  0.99994507  0.74574984  1
  Ni  Ni33  1  0.74831850  0.87525939  0.74383673  1
  As  As34  1  0.99537039  0.00109861  0.00026761  1
  As  As35  1  0.19151026  0.99991644  0.19297564  1
  As  As36  1  0.00463371  0.24889761  0.99973159  1
  As  As37  1  0.19083540  0.24984737  0.19312227  1
  As  As38  1  0.00466837  0.50109971  0.99531434  1
  As  As39  1  0.19086789  0.50015319  0.19250752  1
  As  As40  1  0.99534073  0.74890579  0.00467520  1
  As  As41  1  0.80849603  0.25007758  0.80703860  1
  As  As42  1  0.19150274  0.75008553  0.19263924  1
  As  As43  1  0.80848826  0.49991228  0.80736362  1
  As  As44  1  0.80913661  0.74985293  0.80748727  1
  As  As45  1  0.80915338  0.00015500  0.80687389  1
  O  O46  1  0.12695309  0.00014307  0.12987788  1
  O  O47  1  0.09061721  0.14072425  0.11322126  1
  O  O48  1  0.67748972  0.99476699  0.11162378  1
  O  O49  1  0.36775555  0.99161925  0.40267721  1
  O  O50  1  0.10601284  0.00128969  0.63012360  1
  O  O51  1  0.12883307  0.24928226  0.13003596  1
  O  O52  1  0.63292636  0.13154840  0.10621692  1
  O  O53  1  0.36738086  0.13123439  0.36843382  1
  O  O54  1  0.11043160  0.38969970  0.10821486  1
  O  O55  1  0.10874375  0.11081410  0.66636578  1
  O  O56  1  0.66453022  0.25094363  0.10956569  1
  O  O57  1  0.37767458  0.24967340  0.37683644  1
  O  O58  1  0.89126517  0.13918746  0.33363026  1
  O  O59  1  0.10649404  0.24965138  0.63298686  1
  O  O60  1  0.12882778  0.50072268  0.12716964  1
  O  O61  1  0.63260895  0.11876915  0.63156346  1
  O  O62  1  0.63233380  0.38121702  0.10684996  1
  O  O63  1  0.36707242  0.11845368  0.89376994  1
  O  O64  1  0.36502439  0.38157854  0.36861909  1
  O  O65  1  0.89397500  0.24871131  0.36987119  1
  O  O66  1  0.11040612  0.36030004  0.66702201  1
  O  O67  1  0.10873518  0.63919145  0.10961459  1
  O  O68  1  0.63223272  0.25838209  0.59731542  1
  O  O69  1  0.66454888  0.49905683  0.11333628  1
  O  O70  1  0.32250741  0.25523047  0.88837573  1
  O  O71  1  0.37769443  0.50032705  0.37552221  1
  O  O72  1  0.90937285  0.10927454  0.88678337  1
  O  O73  1  0.88591826  0.38900835  0.33640322  1
  O  O74  1  0.10649399  0.50034803  0.63158482  1
  O  O75  1  0.12693778  0.74986508  0.13043702  1
  O  O76  1  0.63234344  0.36876139  0.63174964  1
  O  O77  1  0.63259810  0.63123120  0.10664126  1
  O  O78  1  0.36501595  0.36842088  0.89492716  1
  O  O79  1  0.36709111  0.63156449  0.36753863  1
  O  O80  1  0.87304126  0.24985370  0.87013595  1
  O  O81  1  0.89399976  0.50129449  0.36469902  1
  O  O82  1  0.11406641  0.88901674  0.10754560  1
  O  O83  1  0.09064545  0.60927248  0.67610958  1
  O  O84  1  0.63222200  0.49160519  0.63087878  1
  O  O85  1  0.67748617  0.75523215  0.09069268  1
  O  O86  1  0.32251403  0.49476698  0.90931428  1
  O  O87  1  0.36778038  0.75839600  0.36912060  1
  O  O88  1  0.88594383  0.36098274  0.89245236  1
  O  O89  1  0.90935334  0.64072581  0.32389221  1
  O  O90  1  0.10600289  0.74870876  0.63529918  1
  O  O91  1  0.63290903  0.61843534  0.63246216  1
  O  O92  1  0.63498344  0.88157188  0.10509188  1
  O  O93  1  0.36741086  0.61877878  0.89333069  1
  O  O94  1  0.36766473  0.88123270  0.36825494  1
  O  O95  1  0.87306678  0.50013717  0.86954946  1
  O  O96  1  0.89349435  0.74965096  0.36841666  1
  O  O97  1  0.11406446  0.86098604  0.66360731  1
  O  O98  1  0.62232094  0.74967365  0.62447778  1
  O  O99  1  0.33545835  0.75094720  0.88665964  1
  O  O100  1  0.89127326  0.61080848  0.89038563  1
  O  O101  1  0.88957894  0.88969811  0.33298050  1
  O  O102  1  0.63498495  0.86842399  0.63137116  1
  O  O103  1  0.36766124  0.86877505  0.89317205  1
  O  O104  1  0.87116705  0.74927742  0.87284075  1
  O  O105  1  0.89351116  0.00034857  0.36701550  1
  O  O106  1  0.62230697  0.00032514  0.62316557  1
  O  O107  1  0.33546222  0.99905289  0.89043712  1
  O  O108  1  0.88957281  0.86030455  0.89177684  1
  O  O109  1  0.87117313  0.00072165  0.86994613  1
