# generated using pymatgen
data_K2Dy4Cu4S9
_symmetry_space_group_name_H-M   'P 1'
_cell_length_a   3.95073942
_cell_length_b   7.16353582
_cell_length_c   15.19729649
_cell_angle_alpha   82.42093776
_cell_angle_beta   82.40984021
_cell_angle_gamma   74.03276998
_symmetry_Int_Tables_number   1
_chemical_formula_structural   K2Dy4Cu4S9
_chemical_formula_sum   'K2 Dy4 Cu4 S9'
_cell_volume   407.82010638
_cell_formula_units_Z   1
loop_
 _symmetry_equiv_pos_site_id
 _symmetry_equiv_pos_as_xyz
  1  'x, y, z'
loop_
 _atom_site_type_symbol
 _atom_site_label
 _atom_site_symmetry_multiplicity
 _atom_site_fract_x
 _atom_site_fract_y
 _atom_site_fract_z
 _atom_site_occupancy
  K  K0  1  0.02432756  0.70907427  0.23206313  1
  K  K1  1  0.96997256  0.28336334  0.77076417  1
  Dy  Dy2  1  0.65479307  0.74313580  0.94489955  1
  Dy  Dy3  1  0.34203149  0.25355397  0.05479137  1
  Dy  Dy4  1  0.76800636  0.86191661  0.60392180  1
  Dy  Dy5  1  0.23710905  0.13934924  0.39519368  1
  Cu  Cu6  1  0.24222714  0.73598182  0.77082626  1
  Cu  Cu7  1  0.75069997  0.26187438  0.22773500  1
  Cu  Cu8  1  0.57680745  0.32192035  0.53887220  1
  Cu  Cu9  1  0.43111355  0.68033636  0.46066155  1
  S  S10  1  0.14142838  0.15042857  0.57530115  1
  S  S11  1  0.86560304  0.85030952  0.42357161  1
  S  S12  1  0.34646038  0.07934274  0.22163858  1
  S  S13  1  0.39086799  0.59256907  0.62593791  1
  S  S14  1  0.69716725  0.49548384  0.10316371  1
  S  S15  1  0.30234078  0.50210777  0.89616946  1
  S  S16  1  0.65077817  0.92051689  0.77802133  1
  S  S17  1  0.61362234  0.40908957  0.37308674  1
  S  S18  1  0.99873348  0.99720790  0.00040880  1
