# generated using pymatgen
data_Rb2NaNb6(PO8)3
_symmetry_space_group_name_H-M   'P 1'
_cell_length_a   8.57708899
_cell_length_b   8.57708970
_cell_length_c   8.57702942
_cell_angle_alpha   104.47082202
_cell_angle_beta   104.47082327
_cell_angle_gamma   104.44916682
_symmetry_Int_Tables_number   1
_chemical_formula_structural   Rb2NaNb6(PO8)3
_chemical_formula_sum   'Rb2 Na1 Nb6 P3 O24'
_cell_volume   557.87147496
_cell_formula_units_Z   1
loop_
 _symmetry_equiv_pos_site_id
 _symmetry_equiv_pos_as_xyz
  1  'x, y, z'
loop_
 _atom_site_type_symbol
 _atom_site_label
 _atom_site_symmetry_multiplicity
 _atom_site_fract_x
 _atom_site_fract_y
 _atom_site_fract_z
 _atom_site_occupancy
  Rb  Rb0  1  0.41168576  0.10522114  0.79963030  1
  Rb  Rb1  1  0.89477886  0.58831424  0.20036970  1
  Na  Na2  1  0.99950450  0.00049550  0.00000000  1
  Nb  Nb3  1  0.14657771  0.34360560  0.46347964  1
  Nb  Nb4  1  0.53526954  0.65513670  0.85130649  1
  Nb  Nb5  1  0.34486330  0.46473046  0.14869351  1
  Nb  Nb6  1  0.65639440  0.85342229  0.53652036  1
  Nb  Nb7  1  0.46384624  0.14680917  0.34465788  1
  Nb  Nb8  1  0.85319083  0.53615376  0.65534212  1
  P  P9  1  0.22854336  0.77145664  0.00000000  1
  P  P10  1  0.77142878  0.00064930  0.22866285  1
  P  P11  1  0.99935070  0.22857122  0.77133715  1
  O  O12  1  0.05633814  0.73872678  0.86117946  1
  O  O13  1  0.99951573  0.47468965  0.52386892  1
  O  O14  1  0.13976580  0.26065152  0.94271479  1
  O  O15  1  0.08030613  0.21120667  0.62878036  1
  O  O16  1  0.37189423  0.78978327  0.92051165  1
  O  O17  1  0.26127322  0.94366186  0.13882054  1
  O  O18  1  0.18555078  0.42925210  0.28961776  1
  O  O19  1  0.21021673  0.62810577  0.07948835  1
  O  O20  1  0.34741293  0.49952718  0.65287856  1
  O  O21  1  0.29080815  0.18702410  0.43004060  1
  O  O22  1  0.57074790  0.81444922  0.71038224  1
  O  O23  1  0.50047282  0.65258707  0.34712144  1
  O  O24  1  0.42904438  0.28965670  0.18526076  1
  O  O25  1  0.47573577  0.52426423  1.00000000  1
  O  O26  1  0.71034330  0.57095562  0.81473924  1
  O  O27  1  0.52531035  0.00048427  0.47613108  1
  O  O28  1  0.65263706  0.34736294  0.50000000  1
  O  O29  1  0.78879333  0.91969387  0.37121964  1
  O  O30  1  0.81297590  0.70919185  0.56995940  1
  O  O31  1  0.73934848  0.86023420  0.05728521  1
  O  O32  1  0.62776228  0.07951424  0.21042352  1
  O  O33  1  0.92048576  0.37223772  0.78957648  1
  O  O34  1  0.86037824  0.05645138  0.73843517  1
  O  O35  1  0.94354862  0.13962176  0.26156483  1
