# generated using pymatgen
data_UPb(SeO4)2
_symmetry_space_group_name_H-M   'P 1'
_cell_length_a   5.88973433
_cell_length_b   11.47505738
_cell_length_c   12.19299735
_cell_angle_alpha   90.00000000
_cell_angle_beta   90.00000000
_cell_angle_gamma   90.00000000
_symmetry_Int_Tables_number   1
_chemical_formula_structural   UPb(SeO4)2
_chemical_formula_sum   'U4 Pb4 Se8 O32'
_cell_volume   824.06420618
_cell_formula_units_Z   4
loop_
 _symmetry_equiv_pos_site_id
 _symmetry_equiv_pos_as_xyz
  1  'x, y, z'
loop_
 _atom_site_type_symbol
 _atom_site_label
 _atom_site_symmetry_multiplicity
 _atom_site_fract_x
 _atom_site_fract_y
 _atom_site_fract_z
 _atom_site_occupancy
  U  U0  1  0.00026283  0.22477485  0.25098460  1
  U  U1  1  0.00026283  0.22477485  0.74901540  1
  U  U2  1  0.99973717  0.72477485  0.74901540  1
  U  U3  1  0.99973717  0.72477485  0.25098460  1
  Pb  Pb4  1  0.05056097  0.97886412  0.00000000  1
  Pb  Pb5  1  0.48600091  0.77624486  0.50000000  1
  Pb  Pb6  1  0.51399909  0.27624486  0.50000000  1
  Pb  Pb7  1  0.94943903  0.47886412  0.00000000  1
  Se  Se8  1  0.13991299  0.03075071  0.50000000  1
  Se  Se9  1  0.86008701  0.53075071  0.50000000  1
  Se  Se10  1  0.62549118  0.94989449  0.23428047  1
  Se  Se11  1  0.37450882  0.44989449  0.23428047  1
  Se  Se12  1  0.62549118  0.94989449  0.76571953  1
  Se  Se13  1  0.40158814  0.71532407  0.00000000  1
  Se  Se14  1  0.59841186  0.21532407  0.00000000  1
  Se  Se15  1  0.37450882  0.44989449  0.76571953  1
  O  O16  1  0.16242903  0.13143430  0.60665034  1
  O  O17  1  0.75073718  0.27673017  0.89056976  1
  O  O18  1  0.16242903  0.13143430  0.39334966  1
  O  O19  1  0.25515921  0.57823623  0.72018433  1
  O  O20  1  0.75073718  0.27673017  0.10943024  1
  O  O21  1  0.17267116  0.81529823  0.65712770  1
  O  O22  1  0.24926282  0.77673017  0.10943024  1
  O  O23  1  0.25515921  0.57823623  0.27981567  1
  O  O24  1  0.74484079  0.07823623  0.72018433  1
  O  O25  1  0.16951294  0.13450792  0.84376981  1
  O  O26  1  0.83757097  0.63143430  0.60665034  1
  O  O27  1  0.83048706  0.63450792  0.15623019  1
  O  O28  1  0.24926282  0.77673017  0.89056976  1
  O  O29  1  0.74484079  0.07823623  0.27981567  1
  O  O30  1  0.69027362  0.84694677  0.66488031  1
  O  O31  1  0.17267116  0.81529823  0.34287230  1
  O  O32  1  0.59030421  0.47850377  0.50000000  1
  O  O33  1  0.83757097  0.63143430  0.39334966  1
  O  O34  1  0.67818089  0.07269901  0.00000000  1
  O  O35  1  0.83556081  0.89081877  0.14791196  1
  O  O36  1  0.32181911  0.57269901  0.00000000  1
  O  O37  1  0.82732884  0.31529823  0.65712770  1
  O  O38  1  0.30972638  0.34694677  0.33511969  1
  O  O39  1  0.83556081  0.89081877  0.85208804  1
  O  O40  1  0.16443919  0.39081877  0.14791196  1
  O  O41  1  0.16443919  0.39081877  0.85208804  1
  O  O42  1  0.82732884  0.31529823  0.34287230  1
  O  O43  1  0.69027362  0.84694677  0.33511969  1
  O  O44  1  0.83048706  0.63450792  0.84376981  1
  O  O45  1  0.16951294  0.13450792  0.15623019  1
  O  O46  1  0.30972638  0.34694677  0.66488031  1
  O  O47  1  0.40969579  0.97850377  0.50000000  1
