# generated using pymatgen
data_Na2Te2H4O7
_symmetry_space_group_name_H-M   'P 1'
_cell_length_a   11.74848666
_cell_length_b   5.74123410
_cell_length_c   6.33385892
_cell_angle_alpha   103.01002589
_cell_angle_beta   93.77503991
_cell_angle_gamma   92.78968131
_symmetry_Int_Tables_number   1
_chemical_formula_structural   Na2Te2H4O7
_chemical_formula_sum   'Na4 Te4 H8 O14'
_cell_volume   414.46754040
_cell_formula_units_Z   2
loop_
 _symmetry_equiv_pos_site_id
 _symmetry_equiv_pos_as_xyz
  1  'x, y, z'
loop_
 _atom_site_type_symbol
 _atom_site_label
 _atom_site_symmetry_multiplicity
 _atom_site_fract_x
 _atom_site_fract_y
 _atom_site_fract_z
 _atom_site_occupancy
  Na  Na0  1  0.95030084  0.39373916  0.72734807  1
  Na  Na1  1  0.04969916  0.60626084  0.27265193  1
  Na  Na2  1  0.43280772  0.89436877  0.72008786  1
  Na  Na3  1  0.56719228  0.10563123  0.27991214  1
  Te  Te4  1  0.13732543  0.95944704  0.94064861  1
  Te  Te5  1  0.86267457  0.04055296  0.05935139  1
  Te  Te6  1  0.63732296  0.54491770  0.99839652  1
  Te  Te7  1  0.36267704  0.45508230  0.00160348  1
  H  H8  1  0.18855104  0.41020189  0.59863570  1
  H  H9  1  0.81144896  0.58979811  0.40136430  1
  H  H10  1  0.86746955  0.79757513  0.59181268  1
  H  H11  1  0.13253045  0.20242487  0.40818732  1
  H  H12  1  0.68641776  0.94839790  0.65810308  1
  H  H13  1  0.31358224  0.05160210  0.34189692  1
  H  H14  1  0.36352379  0.26892220  0.53060600  1
  H  H15  1  0.63647621  0.73107780  0.46939400  1
  O  O16  1  0.94938064  0.76580874  0.99567330  1
  O  O17  1  0.05061936  0.23419126  0.00432670  1
  O  O18  1  0.49691726  0.27258670  0.94648219  1
  O  O19  1  0.50308274  0.72741330  0.05351781  1
  O  O20  1  0.28100365  0.11910442  0.89104609  1
  O  O21  1  0.71899635  0.88089558  0.10895391  1
  O  O22  1  0.82102574  0.07268638  0.77581205  1
  O  O23  1  0.17897426  0.92731362  0.22418795  1
  O  O24  1  0.32314557  0.52781821  0.73329376  1
  O  O25  1  0.67685443  0.47218179  0.26670624  1
  O  O26  1  0.61367734  0.87333051  0.57410014  1
  O  O27  1  0.38632266  0.12666949  0.42589986  1
  O  O28  1  0.11578246  0.35621149  0.50651169  1
  O  O29  1  0.88421754  0.64378851  0.49348831  1
