# generated using pymatgen
data_Hg4HN3O10
_symmetry_space_group_name_H-M   'P 1'
_cell_length_a   11.41154786
_cell_length_b   11.41154786
_cell_length_c   11.62633469
_cell_angle_alpha   90.00000000
_cell_angle_beta   90.00000000
_cell_angle_gamma   129.74959036
_symmetry_Int_Tables_number   1
_chemical_formula_structural   Hg4HN3O10
_chemical_formula_sum   'Hg16 H4 N12 O40'
_cell_volume   1164.04969191
_cell_formula_units_Z   4
loop_
 _symmetry_equiv_pos_site_id
 _symmetry_equiv_pos_as_xyz
  1  'x, y, z'
loop_
 _atom_site_type_symbol
 _atom_site_label
 _atom_site_symmetry_multiplicity
 _atom_site_fract_x
 _atom_site_fract_y
 _atom_site_fract_z
 _atom_site_occupancy
  Hg  Hg0  1  0.47300202  0.53483803  0.59613565  1
  Hg  Hg1  1  0.53483803  0.47300202  0.40386435  1
  Hg  Hg2  1  0.97300202  0.03483803  0.90386435  1
  Hg  Hg3  1  0.03483803  0.97300202  0.09613565  1
  Hg  Hg4  1  0.44286475  0.53708193  0.92561840  1
  Hg  Hg5  1  0.53708193  0.44286475  0.07438160  1
  Hg  Hg6  1  0.94286475  0.03708193  0.57438160  1
  Hg  Hg7  1  0.03708193  0.94286475  0.42561840  1
  Hg  Hg8  1  0.28808406  0.69092308  0.70776030  1
  Hg  Hg9  1  0.69092308  0.28808406  0.29223970  1
  Hg  Hg10  1  0.78808406  0.19092308  0.79223970  1
  Hg  Hg11  1  0.19092308  0.78808406  0.20776030  1
  Hg  Hg12  1  0.25263673  0.89001640  0.75152482  1
  Hg  Hg13  1  0.89001640  0.25263673  0.24847518  1
  Hg  Hg14  1  0.75263673  0.39001640  0.74847518  1
  Hg  Hg15  1  0.39001640  0.75263673  0.25152482  1
  H  H16  1  0.05023228  0.23770273  0.74752444  1
  H  H17  1  0.23770273  0.05023228  0.25247556  1
  H  H18  1  0.55023228  0.73770273  0.75247556  1
  H  H19  1  0.73770273  0.55023228  0.24752444  1
  N  N20  1  0.30650664  0.18700344  0.72059552  1
  N  N21  1  0.18700344  0.30650664  0.27940448  1
  N  N22  1  0.80650664  0.68700344  0.77940448  1
  N  N23  1  0.68700344  0.80650664  0.22059552  1
  N  N24  1  0.07200358  0.41631818  0.53897165  1
  N  N25  1  0.41631818  0.07200358  0.46102835  1
  N  N26  1  0.57200358  0.91631818  0.96102835  1
  N  N27  1  0.91631818  0.57200358  0.03897165  1
  N  N28  1  0.59390860  0.88406342  0.50430858  1
  N  N29  1  0.88406342  0.59390860  0.49569142  1
  N  N30  1  0.09390860  0.38406342  0.99569142  1
  N  N31  1  0.38406342  0.09390860  0.00430858  1
  O  O32  1  0.45177831  0.63358154  0.74905154  1
  O  O33  1  0.63358154  0.45177831  0.25094846  1
  O  O34  1  0.95177831  0.13358154  0.75094846  1
  O  O35  1  0.13358154  0.95177831  0.24905154  1
  O  O36  1  0.78822660  0.78424269  0.76553268  1
  O  O37  1  0.78424269  0.78822660  0.23446732  1
  O  O38  1  0.28822660  0.28424269  0.73446732  1
  O  O39  1  0.28424269  0.28822660  0.26553268  1
  O  O40  1  0.19511042  0.04837500  0.75613620  1
  O  O41  1  0.04837500  0.19511042  0.24386380  1
  O  O42  1  0.69511042  0.54837500  0.74386380  1
  O  O43  1  0.54837500  0.69511042  0.25613620  1
  O  O44  1  0.42127371  0.21711559  0.67489625  1
  O  O45  1  0.21711559  0.42127371  0.32510375  1
  O  O46  1  0.92127371  0.71711559  0.82510375  1
  O  O47  1  0.71711559  0.92127371  0.17489625  1
  O  O48  1  0.09100864  0.52502167  0.49283708  1
  O  O49  1  0.52502167  0.09100864  0.50716292  1
  O  O50  1  0.59100864  0.02502167  0.00716292  1
  O  O51  1  0.02502167  0.59100864  0.99283708  1
  O  O52  1  0.15316506  0.43890867  0.62954055  1
  O  O53  1  0.43890867  0.15316506  0.37045945  1
  O  O54  1  0.65316506  0.93890867  0.87045945  1
  O  O55  1  0.93890867  0.65316506  0.12954055  1
  O  O56  1  0.97562516  0.28076873  0.50277244  1
  O  O57  1  0.28076873  0.97562516  0.49722756  1
  O  O58  1  0.47562516  0.78076873  0.99722756  1
  O  O59  1  0.78076873  0.47562516  0.00277244  1
  O  O60  1  0.66557001  0.95370009  0.41428103  1
  O  O61  1  0.95370009  0.66557001  0.58571897  1
  O  O62  1  0.16557001  0.45370009  0.08571897  1
  O  O63  1  0.45370009  0.16557001  0.91428103  1
  O  O64  1  0.66475856  0.91719342  0.60072963  1
  O  O65  1  0.91719342  0.66475856  0.39927037  1
  O  O66  1  0.16475856  0.41719342  0.89927037  1
  O  O67  1  0.41719342  0.16475856  0.10072963  1
  O  O68  1  0.45031353  0.77707675  0.50229705  1
  O  O69  1  0.77707675  0.45031353  0.49770295  1
  O  O70  1  0.95031353  0.27707675  0.99770295  1
  O  O71  1  0.27707675  0.95031353  0.00229705  1
