# generated using pymatgen
data_CaB3H3O7
_symmetry_space_group_name_H-M   'P 1'
_cell_length_a   8.47569817
_cell_length_b   8.19654136
_cell_length_c   7.29772797
_cell_angle_alpha   90.00000000
_cell_angle_beta   97.98967451
_cell_angle_gamma   90.00000000
_symmetry_Int_Tables_number   1
_chemical_formula_structural   CaB3H3O7
_chemical_formula_sum   'Ca4 B12 H12 O28'
_cell_volume   502.06223570
_cell_formula_units_Z   4
loop_
 _symmetry_equiv_pos_site_id
 _symmetry_equiv_pos_as_xyz
  1  'x, y, z'
loop_
 _atom_site_type_symbol
 _atom_site_label
 _atom_site_symmetry_multiplicity
 _atom_site_fract_x
 _atom_site_fract_y
 _atom_site_fract_z
 _atom_site_occupancy
  Ca  Ca0  1  0.38801148  0.29370734  0.07405723  1
  Ca  Ca1  1  0.11198852  0.79370734  0.92594277  1
  Ca  Ca2  1  0.61198852  0.70629266  0.92594277  1
  Ca  Ca3  1  0.88801148  0.20629266  0.07405723  1
  B  B4  1  0.16721787  0.46091760  0.31195805  1
  B  B5  1  0.33278213  0.96091760  0.68804195  1
  B  B6  1  0.83278213  0.53908240  0.68804195  1
  B  B7  1  0.66721787  0.03908240  0.31195805  1
  B  B8  1  0.61441936  0.35370778  0.77976403  1
  B  B9  1  0.88558064  0.85370778  0.22023597  1
  B  B10  1  0.38558064  0.64629222  0.22023597  1
  B  B11  1  0.11441936  0.14629222  0.77976403  1
  B  B12  1  0.71782490  0.30833112  0.48653319  1
  B  B13  1  0.78217510  0.80833112  0.51346681  1
  B  B14  1  0.28217510  0.69166888  0.51346681  1
  B  B15  1  0.21782490  0.19166888  0.48653319  1
  H  H16  1  0.93333952  0.44962996  0.35201765  1
  H  H17  1  0.56666048  0.94962996  0.64798235  1
  H  H18  1  0.06666048  0.55037004  0.64798235  1
  H  H19  1  0.43333952  0.05037004  0.35201765  1
  H  H20  1  0.38875371  0.45722588  0.68744616  1
  H  H21  1  0.11124629  0.95722588  0.31255384  1
  H  H22  1  0.61124629  0.54277412  0.31255384  1
  H  H23  1  0.88875371  0.04277412  0.68744616  1
  H  H24  1  0.08069062  0.38351305  0.86634576  1
  H  H25  1  0.41930938  0.88351305  0.13365424  1
  H  H26  1  0.91930938  0.61648695  0.13365424  1
  H  H27  1  0.58069062  0.11648695  0.86634576  1
  O  O28  1  0.11974610  0.27644786  0.92371101  1
  O  O29  1  0.38025390  0.77644786  0.07628899  1
  O  O30  1  0.88025390  0.72355214  0.07628899  1
  O  O31  1  0.61974610  0.22355214  0.92371101  1
  O  O32  1  0.75457998  0.45748661  0.83106510  1
  O  O33  1  0.74542002  0.95748661  0.16893490  1
  O  O34  1  0.24542002  0.54251339  0.16893490  1
  O  O35  1  0.25457998  0.04251339  0.83106510  1
  O  O36  1  0.23976470  0.29375930  0.34202023  1
  O  O37  1  0.26023530  0.79375930  0.65797977  1
  O  O38  1  0.76023530  0.70624070  0.65797977  1
  O  O39  1  0.73976470  0.20624070  0.34202023  1
  O  O40  1  0.99475293  0.44474424  0.24418505  1
  O  O41  1  0.50524707  0.94474424  0.75581495  1
  O  O42  1  0.00524707  0.55525576  0.75581495  1
  O  O43  1  0.49475293  0.05525576  0.24418505  1
  O  O44  1  0.46609178  0.45529742  0.79943215  1
  O  O45  1  0.03390822  0.95529742  0.20056785  1
  O  O46  1  0.53390822  0.54470258  0.20056785  1
  O  O47  1  0.96609178  0.04470258  0.79943215  1
  O  O48  1  0.60547176  0.27902187  0.59907515  1
  O  O49  1  0.89452824  0.77902187  0.40092485  1
  O  O50  1  0.39452824  0.72097813  0.40092485  1
  O  O51  1  0.10547176  0.22097813  0.59907515  1
  O  O52  1  0.80986652  0.44827284  0.50934374  1
  O  O53  1  0.69013348  0.94827284  0.49065626  1
  O  O54  1  0.19013348  0.55172716  0.49065626  1
  O  O55  1  0.30986652  0.05172716  0.50934374  1
