# generated using pymatgen
data_K2Ho4Cu4S9
_symmetry_space_group_name_H-M   'P 1'
_cell_length_a   3.92282928
_cell_length_b   7.12332315
_cell_length_c   15.08721897
_cell_angle_alpha   82.35436743
_cell_angle_beta   82.59667769
_cell_angle_gamma   73.84347243
_symmetry_Int_Tables_number   1
_chemical_formula_structural   K2Ho4Cu4S9
_chemical_formula_sum   'K2 Ho4 Cu4 S9'
_cell_volume   399.46856087
_cell_formula_units_Z   1
loop_
 _symmetry_equiv_pos_site_id
 _symmetry_equiv_pos_as_xyz
  1  'x, y, z'
loop_
 _atom_site_type_symbol
 _atom_site_label
 _atom_site_symmetry_multiplicity
 _atom_site_fract_x
 _atom_site_fract_y
 _atom_site_fract_z
 _atom_site_occupancy
  K  K0  1  0.96971853  0.29434560  0.76920548  1
  K  K1  1  0.03462948  0.71448854  0.22806398  1
  Ho  Ho2  1  0.64362022  0.74918419  0.94433657  1
  Ho  Ho3  1  0.23098662  0.14131586  0.39381416  1
  Ho  Ho4  1  0.34470814  0.25736096  0.05512110  1
  Ho  Ho5  1  0.76436360  0.86350220  0.60400736  1
  Cu  Cu6  1  0.74764396  0.26565365  0.23011197  1
  Cu  Cu7  1  0.56972290  0.31931180  0.54365859  1
  Cu  Cu8  1  0.24944768  0.73443221  0.76945657  1
  Cu  Cu9  1  0.43470303  0.68157945  0.45941908  1
  S  S10  1  0.35151683  0.07932819  0.22056446  1
  S  S11  1  0.64566468  0.92263433  0.77735017  1
  S  S12  1  0.39424873  0.59386152  0.62664539  1
  S  S13  1  0.60555647  0.40943685  0.37208428  1
  S  S14  1  0.70192355  0.49825240  0.10222550  1
  S  S15  1  0.13840431  0.15000710  0.57515487  1
  S  S16  1  0.99078189  0.00225689  0.99981136  1
  S  S17  1  0.28962789  0.50778403  0.89788522  1
  S  S18  1  0.86540250  0.85284523  0.42352190  1
