# generated using pymatgen
data_BH4NF4
_symmetry_space_group_name_H-M   'P 1'
_cell_length_a   5.98577031
_cell_length_b   7.14858521
_cell_length_c   8.85989222
_cell_angle_alpha   90.00000000
_cell_angle_beta   90.00000000
_cell_angle_gamma   90.00000000
_symmetry_Int_Tables_number   1
_chemical_formula_structural   BH4NF4
_chemical_formula_sum   'B4 H16 N4 F16'
_cell_volume   379.11291962
_cell_formula_units_Z   4
loop_
 _symmetry_equiv_pos_site_id
 _symmetry_equiv_pos_as_xyz
  1  'x, y, z'
loop_
 _atom_site_type_symbol
 _atom_site_label
 _atom_site_symmetry_multiplicity
 _atom_site_fract_x
 _atom_site_fract_y
 _atom_site_fract_z
 _atom_site_occupancy
  B  B0  1  0.25000000  0.80986281  0.92828385  1
  B  B1  1  0.25000000  0.69013719  0.42828385  1
  B  B2  1  0.75000000  0.19013719  0.07171615  1
  B  B3  1  0.75000000  0.30986281  0.57171615  1
  H  H4  1  0.75000000  0.90365710  0.77850680  1
  H  H5  1  0.75000000  0.59634290  0.27850680  1
  H  H6  1  0.25000000  0.09634290  0.22149320  1
  H  H7  1  0.25000000  0.40365710  0.72149320  1
  H  H8  1  0.88931059  0.85092858  0.61760507  1
  H  H9  1  0.61068941  0.64907142  0.11760507  1
  H  H10  1  0.38931059  0.14907142  0.38239493  1
  H  H11  1  0.11068941  0.35092858  0.88239493  1
  H  H12  1  0.11068941  0.14907142  0.38239493  1
  H  H13  1  0.38931059  0.35092858  0.88239493  1
  H  H14  1  0.61068941  0.85092858  0.61760507  1
  H  H15  1  0.88931059  0.64907142  0.11760507  1
  H  H16  1  0.75000000  0.68192711  0.70730827  1
  H  H17  1  0.75000000  0.81807289  0.20730827  1
  H  H18  1  0.25000000  0.31807289  0.29269173  1
  H  H19  1  0.25000000  0.18192711  0.79269173  1
  N  N20  1  0.75000000  0.82293506  0.68185096  1
  N  N21  1  0.75000000  0.67706494  0.18185096  1
  N  N22  1  0.25000000  0.17706494  0.31814904  1
  N  N23  1  0.25000000  0.32293506  0.81814904  1
  F  F24  1  0.44328076  0.69453566  0.92625898  1
  F  F25  1  0.05671924  0.80546434  0.42625898  1
  F  F26  1  0.94328076  0.30546434  0.07374102  1
  F  F27  1  0.55671924  0.19453566  0.57374102  1
  F  F28  1  0.55671924  0.30546434  0.07374102  1
  F  F29  1  0.94328076  0.19453566  0.57374102  1
  F  F30  1  0.05671924  0.69453566  0.92625898  1
  F  F31  1  0.44328076  0.80546434  0.42625898  1
  F  F32  1  0.25000000  0.92625440  0.79802963  1
  F  F33  1  0.25000000  0.57374560  0.29802963  1
  F  F34  1  0.75000000  0.07374560  0.20197037  1
  F  F35  1  0.75000000  0.42625440  0.70197037  1
  F  F36  1  0.25000000  0.92159750  0.05974868  1
  F  F37  1  0.25000000  0.57840250  0.55974868  1
  F  F38  1  0.75000000  0.07840250  0.94025132  1
  F  F39  1  0.75000000  0.42159750  0.44025132  1
