# generated using pymatgen
data_Eu8C4I9N7
_symmetry_space_group_name_H-M   'P 1'
_cell_length_a   10.61885734
_cell_length_b   10.61885750
_cell_length_c   7.79691954
_cell_angle_alpha   90.00000000
_cell_angle_beta   90.00000000
_cell_angle_gamma   119.99999950
_symmetry_Int_Tables_number   1
_chemical_formula_structural   Eu8C4I9N7
_chemical_formula_sum   'Eu8 C4 I9 N7'
_cell_volume   761.39367633
_cell_formula_units_Z   1
loop_
 _symmetry_equiv_pos_site_id
 _symmetry_equiv_pos_as_xyz
  1  'x, y, z'
loop_
 _atom_site_type_symbol
 _atom_site_label
 _atom_site_symmetry_multiplicity
 _atom_site_fract_x
 _atom_site_fract_y
 _atom_site_fract_z
 _atom_site_occupancy
  Eu  Eu0  1  0.46557400  0.93114800  0.14050115  1
  Eu  Eu1  1  0.27142492  0.13571246  0.61071168  1
  Eu  Eu2  1  0.46557400  0.53442600  0.14050115  1
  Eu  Eu3  1  0.33333300  0.66666700  0.53493194  1
  Eu  Eu4  1  0.00000000  0.00000000  0.21187873  1
  Eu  Eu5  1  0.86428754  0.72857508  0.61071168  1
  Eu  Eu6  1  0.06885200  0.53442600  0.14050115  1
  Eu  Eu7  1  0.86428754  0.13571246  0.61071168  1
  C  C8  1  0.33333300  0.66666700  0.86242420  1
  C  C9  1  0.66838685  0.83419342  0.38424100  1
  C  C10  1  0.16580658  0.83419342  0.38424100  1
  C  C11  1  0.16580658  0.33161315  0.38424100  1
  I  I12  1  0.51783238  0.03566477  0.67265095  1
  I  I13  1  0.51783238  0.48216762  0.67265095  1
  I  I14  1  0.73834022  0.86917011  0.91022808  1
  I  I15  1  0.79685444  0.59370887  0.21523122  1
  I  I16  1  0.13082989  0.86917011  0.91022808  1
  I  I17  1  0.96433523  0.48216762  0.67265095  1
  I  I18  1  0.40629113  0.20314556  0.21523122  1
  I  I19  1  0.79685444  0.20314556  0.21523122  1
  I  I20  1  0.13082989  0.26165978  0.91022808  1
  N  N21  1  0.10317945  0.89682055  0.44307791  1
  N  N22  1  0.33333300  0.66666700  0.01474934  1
  N  N23  1  0.79364110  0.89682055  0.44307791  1
  N  N24  1  0.22838839  0.45677678  0.32482992  1
  N  N25  1  0.22838839  0.77161161  0.32482992  1
  N  N26  1  0.10317945  0.20635890  0.44307791  1
  N  N27  1  0.54322322  0.77161161  0.32482992  1
