# generated using pymatgen
data_CuPH4O5F
_symmetry_space_group_name_H-M   'P 1'
_cell_length_a   7.66301433
_cell_length_b   7.88476769
_cell_length_c   9.26787500
_cell_angle_alpha   90.00000000
_cell_angle_beta   112.99300002
_cell_angle_gamma   90.00000000
_symmetry_Int_Tables_number   1
_chemical_formula_structural   CuPH4O5F
_chemical_formula_sum   'Cu4 P4 H16 O20 F4'
_cell_volume   515.48651503
_cell_formula_units_Z   4
loop_
 _symmetry_equiv_pos_site_id
 _symmetry_equiv_pos_as_xyz
  1  'x, y, z'
loop_
 _atom_site_type_symbol
 _atom_site_label
 _atom_site_symmetry_multiplicity
 _atom_site_fract_x
 _atom_site_fract_y
 _atom_site_fract_z
 _atom_site_occupancy
  Cu  Cu0  1  0.39642828  0.31086138  0.95133837  1
  Cu  Cu1  1  0.60357172  0.81086138  0.54866163  1
  Cu  Cu2  1  0.60357172  0.68913862  0.04866163  1
  Cu  Cu3  1  0.39642828  0.18913862  0.45133837  1
  P  P4  1  0.46076563  0.50093970  0.68551253  1
  P  P5  1  0.53923437  0.00093970  0.81448747  1
  P  P6  1  0.53923437  0.49906030  0.31448747  1
  P  P7  1  0.46076563  0.99906030  0.18551253  1
  H  H8  1  0.00479126  0.22210804  0.18153493  1
  H  H9  1  0.99520874  0.72210804  0.31846507  1
  H  H10  1  0.99520874  0.77789196  0.81846507  1
  H  H11  1  0.00479126  0.27789196  0.68153493  1
  H  H12  1  0.82142131  0.23523020  0.02258070  1
  H  H13  1  0.17857869  0.73523020  0.47741930  1
  H  H14  1  0.17857869  0.76476980  0.97741930  1
  H  H15  1  0.82142131  0.26476980  0.52258070  1
  H  H16  1  0.06873516  0.32858084  0.96303401  1
  H  H17  1  0.93126484  0.82858084  0.53696599  1
  H  H18  1  0.93126484  0.67141916  0.03696599  1
  H  H19  1  0.06873516  0.17141916  0.46303401  1
  H  H20  1  0.09889732  0.50579789  0.89077943  1
  H  H21  1  0.90110268  0.00579789  0.60922057  1
  H  H22  1  0.90110268  0.49420211  0.10922057  1
  H  H23  1  0.09889732  0.99420211  0.39077943  1
  O  O24  1  0.43497843  0.51209890  0.84165529  1
  O  O25  1  0.56502157  0.01209890  0.65834471  1
  O  O26  1  0.56502157  0.48790110  0.15834471  1
  O  O27  1  0.43497843  0.98790110  0.34165529  1
  O  O28  1  0.41825801  0.66974327  0.59719142  1
  O  O29  1  0.58174199  0.16974327  0.90280858  1
  O  O30  1  0.58174199  0.33025673  0.40280858  1
  O  O31  1  0.41825801  0.83025673  0.09719142  1
  O  O32  1  0.35277542  0.35114584  0.58945799  1
  O  O33  1  0.64722458  0.85114584  0.91054201  1
  O  O34  1  0.64722458  0.64885416  0.41054201  1
  O  O35  1  0.35277542  0.14885416  0.08945799  1
  O  O36  1  0.94601673  0.28821194  0.08396084  1
  O  O37  1  0.05398327  0.78821194  0.41603916  1
  O  O38  1  0.05398327  0.71178806  0.91603916  1
  O  O39  1  0.94601673  0.21178806  0.58396084  1
  O  O40  1  0.11965935  0.37981487  0.88843447  1
  O  O41  1  0.88034065  0.87981487  0.61156553  1
  O  O42  1  0.88034065  0.62018513  0.11156553  1
  O  O43  1  0.11965935  0.12018513  0.38843447  1
  F  F44  1  0.68133167  0.46820262  0.73273864  1
  F  F45  1  0.31866833  0.96820262  0.76726136  1
  F  F46  1  0.31866833  0.53179738  0.26726136  1
  F  F47  1  0.68133167  0.03179738  0.23273864  1
