# generated using pymatgen
data_YbOF
_symmetry_space_group_name_H-M   'P 1'
_cell_length_a   4.89642273
_cell_length_b   5.64232885
_cell_length_c   5.56006489
_cell_angle_alpha   82.80317802
_cell_angle_beta   90.00000000
_cell_angle_gamma   90.00000000
_symmetry_Int_Tables_number   1
_chemical_formula_structural   YbOF
_chemical_formula_sum   'Yb4 O4 F4'
_cell_volume   152.39898946
_cell_formula_units_Z   4
loop_
 _symmetry_equiv_pos_site_id
 _symmetry_equiv_pos_as_xyz
  1  'x, y, z'
loop_
 _atom_site_type_symbol
 _atom_site_label
 _atom_site_symmetry_multiplicity
 _atom_site_fract_x
 _atom_site_fract_y
 _atom_site_fract_z
 _atom_site_occupancy
  Yb  Yb0  1  0.49975824  0.75854508  0.26818608  1
  Yb  Yb1  1  0.99975824  0.24145492  0.23181392  1
  Yb  Yb2  1  0.50024176  0.24145492  0.73181392  1
  Yb  Yb3  1  0.00024176  0.75854508  0.76818608  1
  O  O4  1  0.34497530  0.50056475  0.99916083  1
  O  O5  1  0.84497530  0.49943525  0.50083917  1
  O  O6  1  0.65502470  0.49943525  0.00083917  1
  O  O7  1  0.15502470  0.50056475  0.49916083  1
  F  F8  1  0.74696748  0.99961906  0.49987628  1
  F  F9  1  0.24696748  0.00038094  0.00012372  1
  F  F10  1  0.25303252  0.00038094  0.50012372  1
  F  F11  1  0.75303252  0.99961906  0.99987628  1
