# generated using pymatgen
data_La9B3C6I5
_symmetry_space_group_name_H-M   'P 1'
_cell_length_a   3.97998172
_cell_length_b   8.30836812
_cell_length_c   33.86252342
_cell_angle_alpha   90.01031468
_cell_angle_beta   89.99905183
_cell_angle_gamma   89.99959679
_symmetry_Int_Tables_number   1
_chemical_formula_structural   La9B3C6I5
_chemical_formula_sum   'La18 B6 C12 I10'
_cell_volume   1119.73723321
_cell_formula_units_Z   2
loop_
 _symmetry_equiv_pos_site_id
 _symmetry_equiv_pos_as_xyz
  1  'x, y, z'
loop_
 _atom_site_type_symbol
 _atom_site_label
 _atom_site_symmetry_multiplicity
 _atom_site_fract_x
 _atom_site_fract_y
 _atom_site_fract_z
 _atom_site_occupancy
  La  La0  1  0.74999102  0.07714732  0.09520538  1
  La  La1  1  0.75001428  0.81552381  0.00907177  1
  La  La2  1  0.25000551  0.18447729  0.99100324  1
  La  La3  1  0.25000136  0.56476959  0.24996708  1
  La  La4  1  0.24999431  0.92294811  0.59517081  1
  La  La5  1  0.24999914  0.33698119  0.86558925  1
  La  La6  1  0.75000862  0.05426657  0.69373111  1
  La  La7  1  0.24999596  0.94575300  0.30624075  1
  La  La8  1  0.75000143  0.66304469  0.13444261  1
  La  La9  1  0.75000902  0.05422183  0.80626745  1
  La  La10  1  0.24999923  0.94575934  0.19371926  1
  La  La11  1  0.25000001  0.33686595  0.63443058  1
  La  La12  1  0.25000110  0.92281355  0.90485000  1
  La  La13  1  0.25000292  0.18437984  0.50903742  1
  La  La14  1  0.75000961  0.43525123  0.75000126  1
  La  La15  1  0.75000320  0.66310951  0.36553247  1
  La  La16  1  0.74999430  0.81563472  0.49093463  1
  La  La17  1  0.74998640  0.07709974  0.40476840  1
  B  B18  1  0.24999364  0.22233718  0.74999612  1
  B  B19  1  0.74999841  0.13027595  0.92025666  1
  B  B20  1  0.75000130  0.77764523  0.24999396  1
  B  B21  1  0.24999933  0.86962616  0.42022503  1
  B  B22  1  0.24999758  0.86971230  0.07977861  1
  B  B23  1  0.74999958  0.13040276  0.57975715  1
  C  C24  1  0.74999974  0.13338082  0.62372833  1
  C  C25  1  0.75000133  0.02975451  0.95669083  1
  C  C26  1  0.24999985  0.97034401  0.45663080  1
  C  C27  1  0.75000146  0.73622589  0.29286004  1
  C  C28  1  0.24999973  0.26375929  0.79292385  1
  C  C29  1  0.25000111  0.97027209  0.04334499  1
  C  C30  1  0.74999892  0.73623335  0.20708213  1
  C  C31  1  0.75000179  0.02967435  0.54335016  1
  C  C32  1  0.25000069  0.86650116  0.12371964  1
  C  C33  1  0.74999403  0.13348062  0.87629725  1
  C  C34  1  0.25001279  0.86658875  0.37625361  1
  C  C35  1  0.24999575  0.26377276  0.70713659  1
  I  I36  1  0.24999925  0.57021320  0.95133540  1
  I  I37  1  0.74999769  0.66994210  0.65293926  1
  I  I38  1  0.25000004  0.33005262  0.15292327  1
  I  I39  1  0.25000018  0.33003685  0.34702557  1
  I  I40  1  0.74999832  0.42976795  0.45123411  1
  I  I41  1  0.24999410  0.79200973  0.75004264  1
  I  I42  1  0.74999844  0.66995265  0.84712421  1
  I  I43  1  0.74999837  0.20796185  0.24996436  1
  I  I44  1  0.24999894  0.57023819  0.54868373  1
  I  I45  1  0.75000020  0.42979039  0.04873825  1
