# generated using pymatgen
data_CaLaMgTaO6
_symmetry_space_group_name_H-M   'P 1'
_cell_length_a   5.58586265
_cell_length_b   5.72763968
_cell_length_c   7.90709466
_cell_angle_alpha   90.00000000
_cell_angle_beta   90.00885854
_cell_angle_gamma   90.00000000
_symmetry_Int_Tables_number   1
_chemical_formula_structural   CaLaMgTaO6
_chemical_formula_sum   'Ca2 La2 Mg2 Ta2 O12'
_cell_volume   252.97806953
_cell_formula_units_Z   2
loop_
 _symmetry_equiv_pos_site_id
 _symmetry_equiv_pos_as_xyz
  1  'x, y, z'
loop_
 _atom_site_type_symbol
 _atom_site_label
 _atom_site_symmetry_multiplicity
 _atom_site_fract_x
 _atom_site_fract_y
 _atom_site_fract_z
 _atom_site_occupancy
  Ca  Ca0  1  0.49573235  0.54562395  0.24884425  1
  Ca  Ca1  1  -0.00426765  0.95437605  0.74884425  1
  La  La2  1  0.00849634  0.04994274  0.24766764  1
  La  La3  1  0.50849634  0.45005726  0.74766764  1
  Mg  Mg4  1  0.50154199  0.99644779  0.49988768  1
  Mg  Mg5  1  0.00154199  0.50355221  -0.00011232  1
  Ta  Ta6  1  0.00054818  0.50703138  0.49926313  1
  Ta  Ta7  1  0.50054818  0.99296862  -0.00073687  1
  O  O8  1  0.08522541  0.53230995  0.74485978  1
  O  O9  1  0.18948103  0.79697283  0.45701479  1
  O  O10  1  0.20662645  0.80370320  0.04306362  1
  O  O11  1  0.29230254  0.31089183  0.45626097  1
  O  O12  1  0.30749066  0.28545982  0.04810408  1
  O  O13  1  0.41255506  0.02471355  0.75503405  1
  O  O14  1  0.58522541  0.96769005  0.24485978  1
  O  O15  1  0.68948103  0.70302717  0.95701479  1
  O  O16  1  0.70662645  0.69629680  0.54306362  1
  O  O17  1  0.79230254  0.18910817  0.95626097  1
  O  O18  1  0.80749066  0.21454018  0.54810408  1
  O  O19  1  0.91255506  0.47528645  0.25503405  1
