# generated using pymatgen
data_Cs4U3Mo3O20
_symmetry_space_group_name_H-M   'P 1'
_cell_length_a   7.77317339
_cell_length_b   8.05532866
_cell_length_c   9.89088577
_cell_angle_alpha   79.13392568
_cell_angle_beta   82.30435516
_cell_angle_gamma   87.61673596
_symmetry_Int_Tables_number   1
_chemical_formula_structural   Cs4U3Mo3O20
_chemical_formula_sum   'Cs4 U3 Mo3 O20'
_cell_volume   602.65534186
_cell_formula_units_Z   1
loop_
 _symmetry_equiv_pos_site_id
 _symmetry_equiv_pos_as_xyz
  1  'x, y, z'
loop_
 _atom_site_type_symbol
 _atom_site_label
 _atom_site_symmetry_multiplicity
 _atom_site_fract_x
 _atom_site_fract_y
 _atom_site_fract_z
 _atom_site_occupancy
  Cs  Cs0  1  0.36177024  0.26548109  0.75106624  1
  Cs  Cs1  1  0.48673208  0.78488542  0.03943126  1
  Cs  Cs2  1  0.47613996  0.25255808  0.26866027  1
  Cs  Cs3  1  0.68612471  0.71417810  0.50730505  1
  U  U4  1  0.98466860  0.53472548  0.15669413  1
  U  U5  1  0.97571177  0.02127778  0.14545664  1
  U  U6  1  0.01282165  0.85207170  0.80274567  1
  Mo  Mo7  1  0.85527820  0.34976432  0.88340507  1
  Mo  Mo8  1  0.19961246  0.72541268  0.44311044  1
  Mo  Mo9  1  0.91363895  0.19480950  0.49924075  1
  O  O10  1  0.74238254  0.97155275  0.18817827  1
  O  O11  1  0.96759080  0.54628191  0.90521260  1
  O  O12  1  0.68618100  0.19621248  0.54401658  1
  O  O13  1  0.05575017  0.73649957  0.60396707  1
  O  O14  1  0.04344423  0.09811659  0.63550201  1
  O  O15  1  0.99120470  0.39281084  0.39228918  1
  O  O16  1  0.75220906  0.57749096  0.20968502  1
  O  O17  1  0.99991418  0.80256222  0.03108615  1
  O  O18  1  0.21081205  0.06526501  0.10585918  1
  O  O19  1  0.86778218  0.38799160  0.70042775  1
  O  O20  1  0.95228117  0.12669202  0.90787906  1
  O  O21  1  0.34785940  0.89135592  0.40797958  1
  O  O22  1  0.90551774  0.29274269  0.11397866  1
  O  O23  1  0.63005969  0.35481254  0.93766355  1
  O  O24  1  0.21884782  0.49292474  0.11435861  1
  O  O25  1  0.77758120  0.85522748  0.79348476  1
  O  O26  1  0.25041220  0.85663638  0.79780374  1
  O  O27  1  0.07294999  0.73911712  0.29396147  1
  O  O28  1  0.32897492  0.53928936  0.46955967  1
  O  O29  1  0.95421636  0.04620365  0.38189157  1
