# generated using pymatgen
data_Nd2Mo2O7
_symmetry_space_group_name_H-M   'P 1'
_cell_length_a   7.52229959
_cell_length_b   7.51163810
_cell_length_c   7.51870636
_cell_angle_alpha   59.94059917
_cell_angle_beta   59.97963666
_cell_angle_gamma   60.05693468
_symmetry_Int_Tables_number   1
_chemical_formula_structural   Nd2Mo2O7
_chemical_formula_sum   'Nd4 Mo4 O14'
_cell_volume   300.35684956
_cell_formula_units_Z   2
loop_
 _symmetry_equiv_pos_site_id
 _symmetry_equiv_pos_as_xyz
  1  'x, y, z'
loop_
 _atom_site_type_symbol
 _atom_site_label
 _atom_site_symmetry_multiplicity
 _atom_site_fract_x
 _atom_site_fract_y
 _atom_site_fract_z
 _atom_site_occupancy
  Nd  Nd0  1  0.00000000  0.50000000  0.50000000  1
  Nd  Nd1  1  0.50000000  0.50000000  0.00000000  1
  Nd  Nd2  1  0.50000000  -0.00000000  0.50000000  1
  Nd  Nd3  1  0.50000000  0.50000000  0.50000100  1
  Mo  Mo4  1  0.00000000  -0.00000000  0.00000000  1
  Mo  Mo5  1  0.00000000  0.50000000  0.00000000  1
  Mo  Mo6  1  0.00000000  -0.00000000  0.50000000  1
  Mo  Mo7  1  0.50000000  -0.00000000  0.00000000  1
  O  O8  1  0.67185786  0.08964142  0.66051233  1
  O  O9  1  0.90621135  0.32951425  0.92592490  1
  O  O10  1  0.66630613  0.66744872  0.08481065  1
  O  O11  1  0.91810757  0.91569965  0.33243983  1
  O  O12  1  0.66096158  0.07623724  0.09185102  1
  O  O13  1  0.92368288  0.33877077  0.32859963  1
  O  O14  1  0.62561946  0.62461516  0.62467185  1
  O  O15  1  0.33903842  0.92376276  0.90814998  1
  O  O16  1  0.32814214  0.91035858  0.33948667  1
  O  O17  1  0.33369387  0.33255128  0.91518935  1
  O  O18  1  0.07631712  0.66123023  0.67140037  1
  O  O19  1  0.37438154  0.37538584  0.37532815  1
  O  O20  1  0.08189243  0.08430035  0.66756117  1
  O  O21  1  0.09378965  0.67048675  0.07407410  1
