# generated using pymatgen
data_K2LiSn4
_symmetry_space_group_name_H-M   'P 1'
_cell_length_a   15.78103644
_cell_length_b   15.78103596
_cell_length_c   19.18646084
_cell_angle_alpha   114.28487920
_cell_angle_beta   114.25390471
_cell_angle_gamma   90.03163763
_symmetry_Int_Tables_number   1
_chemical_formula_structural   K2LiSn4
_chemical_formula_sum   'K32 Li16 Sn64'
_cell_volume   3887.50182826
_cell_formula_units_Z   16
loop_
 _symmetry_equiv_pos_site_id
 _symmetry_equiv_pos_as_xyz
  1  'x, y, z'
loop_
 _atom_site_type_symbol
 _atom_site_label
 _atom_site_symmetry_multiplicity
 _atom_site_fract_x
 _atom_site_fract_y
 _atom_site_fract_z
 _atom_site_occupancy
  K  K0  1  0.12275125  0.87275125  0.75000000  1
  K  K1  1  0.07237933  0.54450102  0.13539240  1
  K  K2  1  0.36369726  0.11799574  0.25020667  1
  K  K3  1  0.59089138  0.56301307  0.63539240  1
  K  K4  1  0.39529598  0.61210686  0.74330990  1
  K  K5  1  0.40910862  0.43698693  0.36460760  1
  K  K6  1  0.53826140  0.05855759  0.62805054  1
  K  K7  1  0.08904599  0.57222289  0.63371365  1
  K  K8  1  0.61138819  0.36138819  0.75000000  1
  K  K9  1  0.87724875  0.12724875  0.25000000  1
  K  K10  1  0.64674245  0.89674245  0.25000000  1
  K  K11  1  0.35325755  0.10325755  0.75000000  1
  K  K12  1  0.38861181  0.63861181  0.25000000  1
  K  K13  1  0.11407015  0.36407015  0.25000000  1
  K  K14  1  0.60470402  0.38789314  0.25669010  1
  K  K15  1  0.06149076  0.04466767  0.13371365  1
  K  K16  1  0.93850924  0.95533233  0.86628635  1
  K  K17  1  0.91095401  0.42777711  0.36628635  1
  K  K18  1  0.63630274  0.88200426  0.74979333  1
  K  K19  1  0.46173860  0.94144241  0.37194946  1
  K  K20  1  0.13221093  0.38650942  0.75020667  1
  K  K21  1  0.43050705  0.41021085  0.87194946  1
  K  K22  1  0.86879696  0.15198609  0.75669010  1
  K  K23  1  0.56180570  0.09229283  0.13273395  1
  K  K24  1  0.86778907  0.61349058  0.24979333  1
  K  K25  1  0.88592985  0.63592985  0.75000000  1
  K  K26  1  0.56949295  0.58978915  0.12805054  1
  K  K27  1  0.95955888  0.92907175  0.36726605  1
  K  K28  1  0.04044112  0.07092825  0.63273395  1
  K  K29  1  0.43819430  0.90770717  0.86726605  1
  K  K30  1  0.13120304  0.84801391  0.24330990  1
  K  K31  1  0.92762067  0.45549898  0.86460760  1
  Li  Li32  1  0.75188665  0.54094873  0.99857966  1
  Li  Li33  1  0.75158109  0.54395384  0.50124563  1
  Li  Li34  1  0.24863971  0.04334108  0.50214095  1
  Li  Li35  1  0.24841891  0.45604616  0.49875437  1
  Li  Li36  1  0.04270821  0.75033547  0.99875437  1
  Li  Li37  1  0.24811335  0.45905127  0.00142034  1
  Li  Li38  1  0.75774932  0.95732595  0.00327965  1
  Li  Li39  1  0.75136029  0.95665892  0.49785905  1
  Li  Li40  1  0.04595370  0.74553033  0.50327965  1
  Li  Li41  1  0.54120013  0.24649876  0.99785905  1
  Li  Li42  1  0.24225068  0.04267405  0.99672035  1
  Li  Li43  1  0.45879987  0.75350124  0.00214095  1
  Li  Li44  1  0.95404630  0.25446967  0.49672035  1
  Li  Li45  1  0.95729179  0.24966453  0.00124563  1
  Li  Li46  1  0.54236908  0.25330700  0.50142034  1
  Li  Li47  1  0.45763092  0.74669300  0.49857966  1
  Sn  Sn48  1  0.23812580  0.26554842  0.87242676  1
  Sn  Sn49  1  0.85137703  0.89899347  0.63564786  1
  Sn  Sn50  1  0.30612713  0.84876639  0.44725290  1
  Sn  Sn51  1  0.36752777  0.23459526  0.12857225  1
  Sn  Sn52  1  0.40367913  0.36771017  0.57256166  1
  Sn  Sn53  1  0.89397699  0.26104448  0.62857225  1
  Sn  Sn54  1  0.19225903  0.89870013  0.55271752  1
  Sn  Sn55  1  0.86603921  0.81512495  0.46619235  1
  Sn  Sn56  1  0.39799680  0.78775667  0.13852763  1
  Sn  Sn57  1  0.12714267  0.11038523  0.87148143  1
  Sn  Sn58  1  0.88658111  0.38145498  0.11719743  1
  Sn  Sn59  1  0.65106740  0.10015315  0.96619235  1
  Sn  Sn60  1  0.23574677  0.38924714  0.61679060  1
  Sn  Sn61  1  0.22754346  0.88104383  0.11679060  1
  Sn  Sn62  1  0.76425323  0.61075286  0.38320940  1
  Sn  Sn63  1  0.14862297  0.10100653  0.36435214  1
  Sn  Sn64  1  0.77245654  0.11895617  0.88320940  1
  Sn  Sn65  1  0.65401739  0.86045848  0.05271752  1
  Sn  Sn66  1  0.64092498  0.35341491  0.45065178  1
  Sn  Sn67  1  0.26334560  0.71572917  0.86435214  1
  Sn  Sn68  1  0.60687834  0.13430096  0.37242676  1
  Sn  Sn69  1  0.73736707  0.60498592  0.86741249  1
  Sn  Sn70  1  0.76187420  0.73445158  0.12757324  1
  Sn  Sn71  1  0.85912918  0.40626131  0.55631213  1
  Sn  Sn72  1  0.23890380  0.75566124  0.62851857  1
  Sn  Sn73  1  0.69387287  0.15123361  0.55274710  1
  Sn  Sn74  1  0.87285733  0.88961477  0.12851857  1
  Sn  Sn75  1  0.73757343  0.36995458  0.63258751  1
  Sn  Sn76  1  0.14087082  0.59373869  0.44368787  1
  Sn  Sn77  1  0.09604095  0.29402545  0.42685106  1
  Sn  Sn78  1  0.63247223  0.76540474  0.87142775  1
  Sn  Sn79  1  0.80774097  0.10129987  0.44728248  1
  Sn  Sn80  1  0.36536460  0.15088860  0.46946833  1
  Sn  Sn81  1  0.76109620  0.24433876  0.37148143  1
  Sn  Sn82  1  0.90276313  0.69027321  0.04934822  1
  Sn  Sn83  1  0.86717438  0.16918989  0.07314894  1
  Sn  Sn84  1  0.64922904  0.75946917  0.36147237  1
  Sn  Sn85  1  0.26242657  0.63004542  0.36741249  1
  Sn  Sn86  1  0.59848651  0.64112577  0.94725290  1
  Sn  Sn87  1  0.26263293  0.39501408  0.13258751  1
  Sn  Sn88  1  0.09723687  0.30972679  0.95065178  1
  Sn  Sn89  1  0.79514850  0.33111747  0.92743834  1
  Sn  Sn90  1  0.11341889  0.61854502  0.88280257  1
  Sn  Sn91  1  0.13396079  0.18487505  0.53380765  1
  Sn  Sn92  1  0.84994917  0.80281705  0.94368787  1
  Sn  Sn93  1  0.35907502  0.64658509  0.54934822  1
  Sn  Sn94  1  0.40151349  0.35887423  0.05274710  1
  Sn  Sn95  1  0.59632087  0.63228983  0.42743834  1
  Sn  Sn96  1  0.90395905  0.70597455  0.57314894  1
  Sn  Sn97  1  0.31857973  0.60410373  0.96946833  1
  Sn  Sn98  1  0.26425755  0.26938368  0.38280257  1
  Sn  Sn99  1  0.15005083  0.19718295  0.05631213  1
  Sn  Sn100  1  0.10602301  0.73895552  0.37142775  1
  Sn  Sn101  1  0.34893260  0.89984685  0.03380765  1
  Sn  Sn102  1  0.60200320  0.21224333  0.86147237  1
  Sn  Sn103  1  0.73574245  0.73061632  0.61719743  1
  Sn  Sn104  1  0.73665440  0.28427083  0.13564786  1
  Sn  Sn105  1  0.39312166  0.86569904  0.62757324  1
  Sn  Sn106  1  0.13282562  0.83081011  0.92685106  1
  Sn  Sn107  1  0.68142027  0.39589627  0.03053167  1
  Sn  Sn108  1  0.63463540  0.84911140  0.53053167  1
  Sn  Sn109  1  0.20485150  0.66888253  0.07256166  1
  Sn  Sn110  1  0.34598261  0.13954152  0.94728248  1
  Sn  Sn111  1  0.35077096  0.24053083  0.63852763  1
