# generated using pymatgen
data_EuZn2
_symmetry_space_group_name_H-M   'P 1'
_cell_length_a   4.67290795
_cell_length_b   5.85623438
_cell_length_c   5.85623438
_cell_angle_alpha   79.85405196
_cell_angle_beta   66.48627980
_cell_angle_gamma   66.48627985
_symmetry_Int_Tables_number   1
_chemical_formula_structural   EuZn2
_chemical_formula_sum   'Eu2 Zn4'
_cell_volume   134.72266122
_cell_formula_units_Z   2
loop_
 _symmetry_equiv_pos_site_id
 _symmetry_equiv_pos_as_xyz
  1  'x, y, z'
loop_
 _atom_site_type_symbol
 _atom_site_label
 _atom_site_symmetry_multiplicity
 _atom_site_fract_x
 _atom_site_fract_y
 _atom_site_fract_z
 _atom_site_occupancy
  Zn  Zn0  1  0.83574416  0.72596698  0.60254470  1
  Zn  Zn1  1  0.16425584  0.27403302  0.39745530  1
  Zn  Zn2  1  0.83574416  0.10254470  0.22596698  1
  Zn  Zn3  1  0.16425584  0.89745530  0.77403302  1
  Eu  Eu4  1  0.54887869  0.70112131  0.20112131  1
  Eu  Eu5  1  0.45112131  0.29887869  0.79887869  1
