# generated using pymatgen
data_BaSiP4(HO7)2
_symmetry_space_group_name_H-M   'P 1'
_cell_length_a   4.66068229
_cell_length_b   6.67760333
_cell_length_c   9.09266259
_cell_angle_alpha   75.25614813
_cell_angle_beta   85.49172981
_cell_angle_gamma   75.70249282
_symmetry_Int_Tables_number   1
_chemical_formula_structural   BaSiP4(HO7)2
_chemical_formula_sum   'Ba1 Si1 P4 H2 O14'
_cell_volume   265.15195779
_cell_formula_units_Z   1
loop_
 _symmetry_equiv_pos_site_id
 _symmetry_equiv_pos_as_xyz
  1  'x, y, z'
loop_
 _atom_site_type_symbol
 _atom_site_label
 _atom_site_symmetry_multiplicity
 _atom_site_fract_x
 _atom_site_fract_y
 _atom_site_fract_z
 _atom_site_occupancy
  Ba  Ba0  1  0.00000000  0.00000000  0.00000000  1
  Si  Si1  1  0.00000000  0.00000000  0.50000000  1
  P  P2  1  0.41419453  0.16961664  0.66528547  1
  P  P3  1  0.58580547  0.83038336  0.33471453  1
  P  P4  1  0.09452231  0.56181886  0.73905304  1
  P  P5  1  0.90547769  0.43818114  0.26094696  1
  H  H6  1  0.53978199  0.53859301  0.83509726  1
  H  H7  1  0.46021801  0.46140699  0.16490274  1
  O  O8  1  0.51271830  0.09138492  0.82853328  1
  O  O9  1  0.48728170  0.90861508  0.17146672  1
  O  O10  1  0.14964812  0.07599511  0.64830648  1
  O  O11  1  0.85035188  0.92400489  0.35169352  1
  O  O12  1  0.35414093  0.85167144  0.46127591  1
  O  O13  1  0.64585907  0.14832856  0.53872409  1
  O  O14  1  0.28894297  0.42652351  0.62767893  1
  O  O15  1  0.71105703  0.57347649  0.37232107  1
  O  O16  1  0.07319728  0.22824362  0.36248917  1
  O  O17  1  0.92680272  0.77175638  0.63751083  1
  O  O18  1  0.11430369  0.56015378  0.16458414  1
  O  O19  1  0.88569631  0.43984622  0.83541586  1
  O  O20  1  0.31885114  0.61244895  0.83651926  1
  O  O21  1  0.68114886  0.38755105  0.16348074  1
