# generated using pymatgen
data_Li3H6Ir
_symmetry_space_group_name_H-M   'P 1'
_cell_length_a   8.49664418
_cell_length_b   4.76027535
_cell_length_c   8.54998991
_cell_angle_alpha   90.00000000
_cell_angle_beta   90.00000000
_cell_angle_gamma   90.00000000
_symmetry_Int_Tables_number   1
_chemical_formula_structural   Li3H6Ir
_chemical_formula_sum   'Li12 H24 Ir4'
_cell_volume   345.81601989
_cell_formula_units_Z   4
loop_
 _symmetry_equiv_pos_site_id
 _symmetry_equiv_pos_as_xyz
  1  'x, y, z'
loop_
 _atom_site_type_symbol
 _atom_site_label
 _atom_site_symmetry_multiplicity
 _atom_site_fract_x
 _atom_site_fract_y
 _atom_site_fract_z
 _atom_site_occupancy
  Li  Li0  1  0.54189262  0.25000000  0.87122664  1
  Li  Li1  1  0.04189262  0.25000000  0.62877336  1
  Li  Li2  1  0.45810738  0.75000000  0.12877336  1
  Li  Li3  1  0.95810738  0.75000000  0.37122664  1
  Li  Li4  1  0.89353243  0.25000000  0.97532754  1
  Li  Li5  1  0.39353243  0.25000000  0.52467246  1
  Li  Li6  1  0.10646757  0.75000000  0.02467246  1
  Li  Li7  1  0.60646757  0.75000000  0.47532754  1
  Li  Li8  1  0.72678114  0.25000000  0.25738145  1
  Li  Li9  1  0.22678114  0.25000000  0.24261855  1
  Li  Li10  1  0.27321886  0.75000000  0.74261855  1
  Li  Li11  1  0.77321886  0.75000000  0.75738145  1
  H  H12  1  0.84392868  0.49883010  0.52888263  1
  H  H13  1  0.34392868  0.00116990  0.97111737  1
  H  H14  1  0.15607132  0.99883010  0.47111737  1
  H  H15  1  0.65607132  0.50116990  0.02888263  1
  H  H16  1  0.15607132  0.50116990  0.47111737  1
  H  H17  1  0.65607132  0.99883010  0.02888263  1
  H  H18  1  0.84392868  0.00116990  0.52888263  1
  H  H19  1  0.34392868  0.49883010  0.97111737  1
  H  H20  1  0.60411780  0.49312495  0.67744656  1
  H  H21  1  0.10411780  0.00687505  0.82255344  1
  H  H22  1  0.39588220  0.99312495  0.32255344  1
  H  H23  1  0.89588220  0.50687505  0.17744656  1
  H  H24  1  0.39588220  0.50687505  0.32255344  1
  H  H25  1  0.89588220  0.99312495  0.17744656  1
  H  H26  1  0.60411780  0.00687505  0.67744656  1
  H  H27  1  0.10411780  0.49312495  0.82255344  1
  H  H28  1  0.61073148  0.25000000  0.44269819  1
  H  H29  1  0.11073148  0.25000000  0.05730181  1
  H  H30  1  0.38926852  0.75000000  0.55730181  1
  H  H31  1  0.88926852  0.75000000  0.94269819  1
  H  H32  1  0.83589435  0.25000000  0.76156243  1
  H  H33  1  0.33589435  0.25000000  0.73843757  1
  H  H34  1  0.16410565  0.75000000  0.23843757  1
  H  H35  1  0.66410565  0.75000000  0.26156243  1
  Ir  Ir36  1  0.72470087  0.25000000  0.60206858  1
  Ir  Ir37  1  0.22470087  0.25000000  0.89793142  1
  Ir  Ir38  1  0.27529913  0.75000000  0.39793142  1
  Ir  Ir39  1  0.77529913  0.75000000  0.10206858  1
