# generated using pymatgen
data_Ca19(Mg4H27)2
_symmetry_space_group_name_H-M   'P 1'
_cell_length_a   10.55933253
_cell_length_b   10.55933253
_cell_length_c   10.55933253
_cell_angle_alpha   109.47122063
_cell_angle_beta   109.47122063
_cell_angle_gamma   109.47122063
_symmetry_Int_Tables_number   1
_chemical_formula_structural   Ca19(Mg4H27)2
_chemical_formula_sum   'Ca19 Mg8 H54'
_cell_volume   906.33240842
_cell_formula_units_Z   1
loop_
 _symmetry_equiv_pos_site_id
 _symmetry_equiv_pos_as_xyz
  1  'x, y, z'
loop_
 _atom_site_type_symbol
 _atom_site_label
 _atom_site_symmetry_multiplicity
 _atom_site_fract_x
 _atom_site_fract_y
 _atom_site_fract_z
 _atom_site_occupancy
  Ca  Ca0  1  0.31346710  0.96725992  0.65379282  1
  Ca  Ca1  1  0.68653290  0.03274008  0.34620718  1
  Ca  Ca2  1  0.31346710  0.65967428  0.34620718  1
  Ca  Ca3  1  0.68653290  0.34032572  0.65379282  1
  Ca  Ca4  1  0.65379282  0.31346710  0.96725992  1
  Ca  Ca5  1  0.34620718  0.68653290  0.03274008  1
  Ca  Ca6  1  0.34620718  0.31346710  0.65967428  1
  Ca  Ca7  1  0.65379282  0.68653290  0.34032572  1
  Ca  Ca8  1  0.96725992  0.65379282  0.31346710  1
  Ca  Ca9  1  0.03274008  0.34620718  0.68653290  1
  Ca  Ca10  1  0.65967428  0.34620718  0.31346710  1
  Ca  Ca11  1  0.34032572  0.65379282  0.68653290  1
  Ca  Ca12  1  0.33077401  0.00000000  0.33077401  1
  Ca  Ca13  1  0.66922599  0.00000000  0.66922599  1
  Ca  Ca14  1  0.33077401  0.33077401  0.00000000  1
  Ca  Ca15  1  0.66922599  0.66922599  0.00000000  1
  Ca  Ca16  1  0.00000000  0.33077401  0.33077401  1
  Ca  Ca17  1  0.00000000  0.66922599  0.66922599  1
  Ca  Ca18  1  0.00000000  0.00000000  0.00000000  1
  Mg  Mg19  1  0.31583570  0.00000000  0.00000000  1
  Mg  Mg20  1  0.00000000  0.00000000  0.31583570  1
  Mg  Mg21  1  0.00000000  0.31583570  0.00000000  1
  Mg  Mg22  1  0.68416430  0.68416430  0.68416430  1
  Mg  Mg23  1  0.68416430  0.00000000  0.00000000  1
  Mg  Mg24  1  0.00000000  0.00000000  0.68416430  1
  Mg  Mg25  1  0.00000000  0.68416430  0.00000000  1
  Mg  Mg26  1  0.31583570  0.31583570  0.31583570  1
  H  H27  1  0.42259052  0.94189371  0.14059233  1
  H  H28  1  0.19869861  0.05810629  0.48069681  1
  H  H29  1  0.80130139  0.28199820  0.85940767  1
  H  H30  1  0.57740948  0.71800180  0.51930319  1
  H  H31  1  0.14059233  0.42259052  0.94189371  1
  H  H32  1  0.48069681  0.19869861  0.05810629  1
  H  H33  1  0.85940767  0.80130139  0.28199820  1
  H  H34  1  0.51930319  0.57740948  0.71800180  1
  H  H35  1  0.94189371  0.14059233  0.42259052  1
  H  H36  1  0.05810629  0.48069681  0.19869861  1
  H  H37  1  0.28199820  0.85940767  0.80130139  1
  H  H38  1  0.71800180  0.51930319  0.57740948  1
  H  H39  1  0.57740948  0.05810629  0.85940767  1
  H  H40  1  0.80130139  0.94189371  0.51930319  1
  H  H41  1  0.19869861  0.71800180  0.14059233  1
  H  H42  1  0.42259052  0.28199820  0.48069681  1
  H  H43  1  0.85940767  0.57740948  0.05810629  1
  H  H44  1  0.51930319  0.80130139  0.94189371  1
  H  H45  1  0.14059233  0.19869861  0.71800180  1
  H  H46  1  0.48069681  0.42259052  0.28199820  1
  H  H47  1  0.05810629  0.85940767  0.57740948  1
  H  H48  1  0.94189371  0.51930319  0.80130139  1
  H  H49  1  0.71800180  0.14059233  0.19869861  1
  H  H50  1  0.28199820  0.48069681  0.42259052  1
  H  H51  1  0.39664038  0.21581473  0.81917435  1
  H  H52  1  0.60335962  0.78418527  0.18082565  1
  H  H53  1  0.39664038  0.57746603  0.18082565  1
  H  H54  1  0.60335962  0.42253397  0.81917435  1
  H  H55  1  0.81917435  0.39664038  0.21581473  1
  H  H56  1  0.18082565  0.60335962  0.78418527  1
  H  H57  1  0.18082565  0.39664038  0.57746603  1
  H  H58  1  0.81917435  0.60335962  0.42253397  1
  H  H59  1  0.21581473  0.81917435  0.39664038  1
  H  H60  1  0.78418527  0.18082565  0.60335962  1
  H  H61  1  0.57746603  0.18082565  0.39664038  1
  H  H62  1  0.42253397  0.81917435  0.60335962  1
  H  H63  1  0.17253471  0.06247380  0.88993909  1
  H  H64  1  0.82746529  0.93752620  0.11006091  1
  H  H65  1  0.17253471  0.28259562  0.11006091  1
  H  H66  1  0.82746529  0.71740438  0.88993909  1
  H  H67  1  0.88993909  0.17253471  0.06247380  1
  H  H68  1  0.11006091  0.82746529  0.93752620  1
  H  H69  1  0.11006091  0.17253471  0.28259562  1
  H  H70  1  0.88993909  0.82746529  0.71740438  1
  H  H71  1  0.06247380  0.88993909  0.17253471  1
  H  H72  1  0.93752620  0.11006091  0.82746529  1
  H  H73  1  0.28259562  0.11006091  0.17253471  1
  H  H74  1  0.71740438  0.88993909  0.82746529  1
  H  H75  1  0.61434922  0.50000000  0.11434922  1
  H  H76  1  0.38565078  0.50000000  0.88565078  1
  H  H77  1  0.11434922  0.61434922  0.50000000  1
  H  H78  1  0.88565078  0.38565078  0.50000000  1
  H  H79  1  0.50000000  0.11434922  0.61434922  1
  H  H80  1  0.50000000  0.88565078  0.38565078  1
