# generated using pymatgen
data_NaP
_symmetry_space_group_name_H-M   'P 1'
_cell_length_a   5.66955242
_cell_length_b   6.06442713
_cell_length_c   10.15822402
_cell_angle_alpha   90.00000000
_cell_angle_beta   90.00000000
_cell_angle_gamma   90.00000000
_symmetry_Int_Tables_number   1
_chemical_formula_structural   NaP
_chemical_formula_sum   'Na8 P8'
_cell_volume   349.26602632
_cell_formula_units_Z   8
loop_
 _symmetry_equiv_pos_site_id
 _symmetry_equiv_pos_as_xyz
  1  'x, y, z'
loop_
 _atom_site_type_symbol
 _atom_site_label
 _atom_site_symmetry_multiplicity
 _atom_site_fract_x
 _atom_site_fract_y
 _atom_site_fract_z
 _atom_site_occupancy
  Na  Na0  1  0.09524134  0.58598393  0.96552137  1
  Na  Na1  1  0.59524134  0.41401607  0.53447863  1
  Na  Na2  1  0.40475866  0.08598393  0.03447863  1
  Na  Na3  1  0.90475866  0.91401607  0.46552137  1
  Na  Na4  1  0.36578276  0.86471369  0.66791825  1
  Na  Na5  1  0.86578276  0.13528631  0.83208175  1
  Na  Na6  1  0.13421724  0.36471369  0.33208175  1
  Na  Na7  1  0.63421724  0.63528631  0.16791825  1
  P  P8  1  0.86285658  0.69207116  0.71544489  1
  P  P9  1  0.36285658  0.30792884  0.78455511  1
  P  P10  1  0.63714342  0.19207116  0.28455511  1
  P  P11  1  0.13714342  0.80792884  0.21544489  1
  P  P12  1  0.59740506  0.57089416  0.86555057  1
  P  P13  1  0.09740506  0.42910584  0.63444943  1
  P  P14  1  0.90259494  0.07089416  0.13444943  1
  P  P15  1  0.40259494  0.92910584  0.36555057  1
