# generated using pymatgen
data_KFeP4(H2O7)2
_symmetry_space_group_name_H-M   'P 1'
_cell_length_a   5.04944836
_cell_length_b   7.64508404
_cell_length_c   7.93911889
_cell_angle_alpha   81.39820679
_cell_angle_beta   83.00297898
_cell_angle_gamma   74.12393424
_symmetry_Int_Tables_number   1
_chemical_formula_structural   KFeP4(H2O7)2
_chemical_formula_sum   'K1 Fe1 P4 H4 O14'
_cell_volume   290.41466458
_cell_formula_units_Z   1
loop_
 _symmetry_equiv_pos_site_id
 _symmetry_equiv_pos_as_xyz
  1  'x, y, z'
loop_
 _atom_site_type_symbol
 _atom_site_label
 _atom_site_symmetry_multiplicity
 _atom_site_fract_x
 _atom_site_fract_y
 _atom_site_fract_z
 _atom_site_occupancy
  K  K0  1  0.00000000  0.00000000  0.00000000  1
  Fe  Fe1  1  0.00000000  0.50000000  0.00000000  1
  P  P2  1  0.31531310  0.23309873  0.31854043  1
  P  P3  1  0.41370892  0.60419601  0.23155561  1
  P  P4  1  0.58629108  0.39580399  0.76844439  1
  P  P5  1  0.68468690  0.76690127  0.68145957  1
  H  H6  1  0.11514605  0.77805397  0.41718870  1
  H  H7  1  0.68459048  0.00592092  0.38085403  1
  H  H8  1  0.31540952  0.99407908  0.61914597  1
  H  H9  1  0.88485395  0.22194603  0.58281130  1
  O  O10  1  0.16842125  0.26953084  0.15513136  1
  O  O11  1  0.17060937  0.16119945  0.48092259  1
  O  O12  1  0.25006019  0.63326053  0.07505069  1
  O  O13  1  0.28059911  0.41075553  0.80821904  1
  O  O14  1  0.36705557  0.42471400  0.35321324  1
  O  O15  1  0.29753932  0.76562807  0.34169782  1
  O  O16  1  0.61076773  0.10076973  0.28166979  1
  O  O17  1  0.38923227  0.89923027  0.71833021  1
  O  O18  1  0.70246068  0.23437193  0.65830218  1
  O  O19  1  0.63294443  0.57528600  0.64678676  1
  O  O20  1  0.71940089  0.58924447  0.19178096  1
  O  O21  1  0.74993981  0.36673947  0.92494931  1
  O  O22  1  0.82938963  0.83879955  0.51907741  1
  O  O23  1  0.83157875  0.73046916  0.84486864  1
