# generated using pymatgen
data_KY(H2N)4
_symmetry_space_group_name_H-M   'P 1'
_cell_length_a   6.82122644
_cell_length_b   9.18647434
_cell_length_c   6.03997120
_cell_angle_alpha   78.73071189
_cell_angle_beta   69.49619538
_cell_angle_gamma   104.27877196
_symmetry_Int_Tables_number   1
_chemical_formula_structural   KY(H2N)4
_chemical_formula_sum   'K2 Y2 H16 N8'
_cell_volume   326.57737071
_cell_formula_units_Z   2
loop_
 _symmetry_equiv_pos_site_id
 _symmetry_equiv_pos_as_xyz
  1  'x, y, z'
loop_
 _atom_site_type_symbol
 _atom_site_label
 _atom_site_symmetry_multiplicity
 _atom_site_fract_x
 _atom_site_fract_y
 _atom_site_fract_z
 _atom_site_occupancy
  K  K0  1  0.30419513  0.60954442  0.94603748  1
  K  K1  1  0.69580487  0.39045558  0.05396252  1
  Y  Y2  1  0.93440997  0.86939015  0.81509466  1
  Y  Y3  1  0.06559003  0.13060985  0.18490534  1
  H  H4  1  0.33394547  0.95337511  0.95117591  1
  H  H5  1  0.21026665  0.71172135  0.52307469  1
  H  H6  1  0.12614572  0.83199796  0.20949864  1
  H  H7  1  0.62105821  0.95554099  0.59436761  1
  H  H8  1  0.04217867  0.39084678  0.40965132  1
  H  H9  1  0.34547223  0.38982744  0.70284717  1
  H  H10  1  0.70840747  0.83232883  0.45705187  1
  H  H11  1  0.49674617  0.28585508  0.73814078  1
  H  H12  1  0.50325383  0.71414492  0.26185922  1
  H  H13  1  0.29159253  0.16767117  0.54294813  1
  H  H14  1  0.65452777  0.61017256  0.29715283  1
  H  H15  1  0.95782133  0.60915322  0.59034868  1
  H  H16  1  0.37894179  0.04445901  0.40563239  1
  H  H17  1  0.87385428  0.16800204  0.79050136  1
  H  H18  1  0.78973335  0.28827865  0.47692531  1
  H  H19  1  0.66605453  0.04662489  0.04882409  1
  N  N20  1  0.05168338  0.67281140  0.66259039  1
  N  N21  1  0.16322554  0.90940903  0.04055960  1
  N  N22  1  0.37533140  0.32459076  0.83840217  1
  N  N23  1  0.74911464  0.91166323  0.54646916  1
  N  N24  1  0.25088536  0.08833677  0.45353084  1
  N  N25  1  0.62466860  0.67540924  0.16159783  1
  N  N26  1  0.83677446  0.09059097  0.95944040  1
  N  N27  1  0.94831662  0.32718860  0.33740961  1
