# generated using pymatgen
data_Ba17U11O42
_symmetry_space_group_name_H-M   'P 1'
_cell_length_a   14.23666583
_cell_length_b   8.95910623
_cell_length_c   10.90258176
_cell_angle_alpha   113.45791942
_cell_angle_beta   96.84494612
_cell_angle_gamma   90.68344793
_symmetry_Int_Tables_number   1
_chemical_formula_structural   Ba17U11O42
_chemical_formula_sum   'Ba17 U11 O42'
_cell_volume   1263.88456831
_cell_formula_units_Z   1
loop_
 _symmetry_equiv_pos_site_id
 _symmetry_equiv_pos_as_xyz
  1  'x, y, z'
loop_
 _atom_site_type_symbol
 _atom_site_label
 _atom_site_symmetry_multiplicity
 _atom_site_fract_x
 _atom_site_fract_y
 _atom_site_fract_z
 _atom_site_occupancy
  Ba  Ba0  1  0.78586560  0.18276923  0.85777500  1
  Ba  Ba1  1  0.78548006  0.67873481  0.86094810  1
  Ba  Ba2  1  0.06822875  0.10871290  0.71544251  1
  Ba  Ba3  1  0.35709988  0.03819450  0.56767350  1
  Ba  Ba4  1  0.50344827  0.74730822  0.99683969  1
  Ba  Ba5  1  0.92841940  0.38865977  0.28508200  1
  Ba  Ba6  1  0.35718612  0.53323450  0.57518350  1
  Ba  Ba7  1  0.85714300  0.78571400  0.57142900  1
  Ba  Ba8  1  0.28500745  0.92911114  0.85723929  1
  Ba  Ba9  1  0.64605625  0.46271610  0.42741449  1
  Ba  Ba10  1  0.07328369  0.60661396  0.71137673  1
  Ba  Ba11  1  0.50179031  0.25087256  0.00439657  1
  Ba  Ba12  1  0.64100231  0.96481504  0.43148027  1
  Ba  Ba13  1  0.42927855  0.64231686  0.28561771  1
  Ba  Ba14  1  0.92880594  0.89269419  0.28190890  1
  Ba  Ba15  1  0.21249469  0.32055644  0.13846043  1
  Ba  Ba16  1  0.21083773  0.82412078  0.14601731  1
  U  U17  1  0.85714300  0.28571400  0.57142900  1
  U  U18  1  0.57134708  0.35672804  0.71415729  1
  U  U19  1  0.28448793  0.42428608  0.85100373  1
  U  U20  1  0.71437318  0.07126208  0.14398700  1
  U  U21  1  0.42979707  0.14714292  0.29185327  1
  U  U22  1  0.57291766  0.86182096  0.72106078  1
  U  U23  1  0.14293892  0.21470096  0.42869971  1
  U  U24  1  0.71804397  0.56791483  0.13594727  1
  U  U25  1  0.14136834  0.70960704  0.42179622  1
  U  U26  1  0.99624203  0.00351417  0.00690973  1
  U  U27  1  -0.00008718  0.50016592  0.99887000  1
  O  O28  1  0.60327662  0.12466942  0.73635887  1
  O  O29  1  0.94588089  0.35329108  0.78094224  1
  O  O30  1  0.62585094  0.50100258  0.93619940  1
  O  O31  1  0.96857272  0.74168006  0.98945989  1
  O  O32  1  0.82030951  0.05625236  0.55137209  1
  O  O33  1  0.24524223  0.19122330  0.82491415  1
  O  O34  1  0.99348541  0.19793234  0.47427325  1
  O  O35  1  0.42079455  0.33863261  0.75030105  1
  O  O36  1  0.72080059  0.37349566  0.66858375  1
  O  O37  1  0.14760912  0.51468994  0.95277344  1
  O  O38  1  0.89397549  0.51517564  0.59148491  1
  O  O39  1  0.32340295  0.65682778  0.87349710  1
  O  O40  1  0.66684059  0.92855638  0.92296257  1
  O  O41  1  0.51916490  0.20694329  0.49481619  1
  O  O42  1  0.90967605  0.95337904  0.82580154  1
  O  O43  1  0.76840511  0.21813792  0.36191476  1
  O  O44  1  0.19512110  0.36448471  0.64804081  1
  O  O45  1  0.54235723  0.59706468  0.70499854  1
  O  O46  1  0.56667588  0.05673806  0.19008356  1
  O  O47  1  0.68440559  0.77124623  0.61542620  1
  O  O48  1  0.86701122  0.08366799  0.10874888  1
  O  O49  1  0.11239527  0.91614946  0.90532677  1
  O  O50  1  0.46199015  0.94711171  0.82865298  1
  O  O51  1  0.29349045  0.23279539  0.39255595  1
  O  O52  1  0.46904377  0.38020570  0.31794285  1
  O  O53  1  0.80460995  0.61804996  0.31705546  1
  O  O54  1  0.23100713  0.75669253  0.60240186  1
  O  O55  1  0.08843506  0.07042542  0.20665760  1
  O  O56  1  0.48327787  0.81473647  0.54045514  1
  O  O57  1  0.34638850  0.10674876  0.10825927  1
  O  O58  1  0.68912231  0.30563833  0.11794648  1
  O  O59  1  0.11100938  0.44675858  0.40649813  1
  O  O60  1  0.84727378  0.48776001  0.03410812  1
  O  O61  1  0.25229585  0.62431629  0.31420402  1
  O  O62  1  0.60189073  0.65527954  0.23753023  1
  O  O63  1  0.02987941  0.80018177  0.52743080  1
  O  O64  1  0.74571328  0.82974794  0.15339811  1
  O  O65  1  0.17192777  0.97436332  0.43785946  1
  O  O66  1  0.02516369  0.26578967  0.02491052  1
  O  O67  1  0.36789750  0.46467924  0.03459773  1
  O  O68  1  0.04744441  0.64287262  0.21989443  1
  O  O69  1  0.39088205  0.91460022  0.26935990  1
