# generated using pymatgen
data_TeMoWSeS2
_symmetry_space_group_name_H-M   'P 1'
_cell_length_a   3.30815595
_cell_length_b   3.30816906
_cell_length_c   37.69455732
_cell_angle_alpha   89.99987552
_cell_angle_beta   90.00000000
_cell_angle_gamma   119.99986899
_symmetry_Int_Tables_number   1
_chemical_formula_structural   TeMoWSeS2
_chemical_formula_sum   'Te2 Mo2 W2 Se2 S4'
_cell_volume   357.25928334
_cell_formula_units_Z   2
loop_
 _symmetry_equiv_pos_site_id
 _symmetry_equiv_pos_as_xyz
  1  'x, y, z'
loop_
 _atom_site_type_symbol
 _atom_site_label
 _atom_site_symmetry_multiplicity
 _atom_site_fract_x
 _atom_site_fract_y
 _atom_site_fract_z
 _atom_site_occupancy
  Te  Te0  1  0.33335300  0.66670701  0.33285713  1
  Te  Te1  1  0.33335232  0.66670564  0.23070339  1
  Mo  Mo2  1  0.33329649  0.66659297  0.09389960  1
  Mo  Mo3  1  0.66668786  0.33337572  0.65753431  1
  W  W4  1  0.33331117  0.66662235  0.46969843  1
  W  W5  1  0.66668857  0.33337714  0.28178653  1
  Se  Se6  1  0.33335192  0.66670483  0.70214699  1
  Se  Se7  1  0.33335217  0.66670533  0.61293010  1
  S  S8  1  0.66665516  0.33330933  0.05337714  1
  S  S9  1  0.66664850  0.33329600  0.42899064  1
  S  S10  1  0.66665695  0.33331290  0.13444178  1
  S  S11  1  0.66664589  0.33329079  0.51038197  1
