# generated using pymatgen
data_YbCO3
_symmetry_space_group_name_H-M   'P 1'
_cell_length_a   5.67710591
_cell_length_b   4.90863512
_cell_length_c   7.89878667
_cell_angle_alpha   89.92491572
_cell_angle_beta   90.00635812
_cell_angle_gamma   90.00567586
_symmetry_Int_Tables_number   1
_chemical_formula_structural   YbCO3
_chemical_formula_sum   'Yb4 C4 O12'
_cell_volume   220.11404442
_cell_formula_units_Z   4
loop_
 _symmetry_equiv_pos_site_id
 _symmetry_equiv_pos_as_xyz
  1  'x, y, z'
loop_
 _atom_site_type_symbol
 _atom_site_label
 _atom_site_symmetry_multiplicity
 _atom_site_fract_x
 _atom_site_fract_y
 _atom_site_fract_z
 _atom_site_occupancy
  Yb  Yb0  1  0.24066623  0.24980924  0.91519741  1
  Yb  Yb1  1  0.25923045  0.74955487  0.41543008  1
  Yb  Yb2  1  0.74076955  0.25044513  0.58456992  1
  Yb  Yb3  1  0.75933377  0.75019076  0.08480259  1
  C  C4  1  0.08445437  0.24954443  0.26149875  1
  C  C5  1  0.41581137  0.75111562  0.76194420  1
  C  C6  1  0.58418863  0.24888438  0.23805580  1
  C  C7  1  0.91554563  0.75045557  0.73850125  1
  O  O8  1  0.08546456  0.47678519  0.17764239  1
  O  O9  1  0.08746519  0.02033036  0.17994060  1
  O  O10  1  0.09398148  0.25125144  0.42481275  1
  O  O11  1  0.40585493  0.75212556  0.92520944  1
  O  O12  1  0.41436375  0.52223880  0.67999987  1
  O  O13  1  0.41349067  0.97876472  0.67841743  1
  O  O14  1  0.58650933  0.02123528  0.32158257  1
  O  O15  1  0.58563625  0.47776120  0.32000013  1
  O  O16  1  0.59414507  0.24787444  0.07479056  1
  O  O17  1  0.90601852  0.74874856  0.57518725  1
  O  O18  1  0.91253481  0.97966964  0.82005940  1
  O  O19  1  0.91453544  0.52321481  0.82235761  1
