# generated using pymatgen
data_K2HI2ClO6
_symmetry_space_group_name_H-M   'P 1'
_cell_length_a   15.18664778
_cell_length_b   6.67371506
_cell_length_c   8.77393565
_cell_angle_alpha   90.00000000
_cell_angle_beta   90.00000000
_cell_angle_gamma   90.00000000
_symmetry_Int_Tables_number   1
_chemical_formula_structural   K2HI2ClO6
_chemical_formula_sum   'K8 H4 I8 Cl4 O24'
_cell_volume   889.25031068
_cell_formula_units_Z   4
loop_
 _symmetry_equiv_pos_site_id
 _symmetry_equiv_pos_as_xyz
  1  'x, y, z'
loop_
 _atom_site_type_symbol
 _atom_site_label
 _atom_site_symmetry_multiplicity
 _atom_site_fract_x
 _atom_site_fract_y
 _atom_site_fract_z
 _atom_site_occupancy
  K  K0  1  0.01536106  0.01972408  0.23854454  1
  K  K1  1  0.98463894  0.98027592  0.73854454  1
  K  K2  1  0.48463894  0.01972408  0.73854454  1
  K  K3  1  0.51536106  0.98027592  0.23854454  1
  K  K4  1  0.76390395  0.44151433  0.74527459  1
  K  K5  1  0.23609605  0.55848567  0.24527459  1
  K  K6  1  0.73609605  0.44151433  0.24527459  1
  K  K7  1  0.26390395  0.55848567  0.74527459  1
  H  H8  1  0.10796267  0.28601410  0.97552065  1
  H  H9  1  0.89203733  0.71398590  0.47552065  1
  H  H10  1  0.39203733  0.28601410  0.47552065  1
  H  H11  1  0.60796267  0.71398590  0.97552065  1
  I  I12  1  0.28207777  0.06450115  0.00651063  1
  I  I13  1  0.71792223  0.93549885  0.50651063  1
  I  I14  1  0.21792223  0.06450115  0.50651063  1
  I  I15  1  0.78207777  0.93549885  0.00651063  1
  I  I16  1  0.96553311  0.49544928  0.99848640  1
  I  I17  1  0.03446689  0.50455072  0.49848640  1
  I  I18  1  0.53446689  0.49544928  0.49848640  1
  I  I19  1  0.46553311  0.50455072  0.99848640  1
  Cl  Cl20  1  0.87565066  0.22381547  0.46662614  1
  Cl  Cl21  1  0.12434934  0.77618453  0.96662614  1
  Cl  Cl22  1  0.62434934  0.22381547  0.96662614  1
  Cl  Cl23  1  0.37565066  0.77618453  0.46662614  1
  O  O24  1  0.21298553  0.28953297  0.99162793  1
  O  O25  1  0.78701447  0.71046703  0.49162793  1
  O  O26  1  0.28701447  0.28953297  0.49162793  1
  O  O27  1  0.71298553  0.71046703  0.99162793  1
  O  O28  1  0.38576547  0.18857286  0.06821300  1
  O  O29  1  0.61423453  0.81142714  0.56821300  1
  O  O30  1  0.11423453  0.18857286  0.56821300  1
  O  O31  1  0.88576547  0.81142714  0.06821300  1
  O  O32  1  0.30473243  0.01546459  0.80585789  1
  O  O33  1  0.69526757  0.98453541  0.30585789  1
  O  O34  1  0.19526757  0.01546459  0.30585789  1
  O  O35  1  0.80473243  0.98453541  0.80585789  1
  O  O36  1  0.04163582  0.26266623  0.96407790  1
  O  O37  1  0.95836418  0.73733377  0.46407790  1
  O  O38  1  0.45836418  0.26266623  0.46407790  1
  O  O39  1  0.54163582  0.73733377  0.96407790  1
  O  O40  1  0.87267606  0.33382234  0.04271077  1
  O  O41  1  0.12732394  0.66617766  0.54271077  1
  O  O42  1  0.62732394  0.33382234  0.54271077  1
  O  O43  1  0.37267606  0.66617766  0.04271077  1
  O  O44  1  0.94486609  0.54911295  0.79874955  1
  O  O45  1  0.05513391  0.45088705  0.29874955  1
  O  O46  1  0.55513391  0.54911295  0.29874955  1
  O  O47  1  0.44486609  0.45088705  0.79874955  1
