# generated using pymatgen
data_MnFe2Sb2(PO4)6
_symmetry_space_group_name_H-M   'P 1'
_cell_length_a   8.82031302
_cell_length_b   8.82031227
_cell_length_c   8.82031245
_cell_angle_alpha   57.99494842
_cell_angle_beta   57.99495157
_cell_angle_gamma   57.99494871
_symmetry_Int_Tables_number   1
_chemical_formula_structural   MnFe2Sb2(PO4)6
_chemical_formula_sum   'Mn1 Fe2 Sb2 P6 O24'
_cell_volume   462.90051673
_cell_formula_units_Z   1
loop_
 _symmetry_equiv_pos_site_id
 _symmetry_equiv_pos_as_xyz
  1  'x, y, z'
loop_
 _atom_site_type_symbol
 _atom_site_label
 _atom_site_symmetry_multiplicity
 _atom_site_fract_x
 _atom_site_fract_y
 _atom_site_fract_z
 _atom_site_occupancy
  Mn  Mn0  1  0.00000000  0.00000000  0.00000000  1
  Fe  Fe1  1  0.85331862  0.85331862  0.85331862  1
  Fe  Fe2  1  0.14668138  0.14668138  0.14668138  1
  Sb  Sb3  1  0.35575327  0.35575327  0.35575327  1
  Sb  Sb4  1  0.64424673  0.64424673  0.64424673  1
  P  P5  1  0.45411901  0.03719559  0.75606733  1
  P  P6  1  0.75606733  0.45411901  0.03719559  1
  P  P7  1  0.03719559  0.75606733  0.45411901  1
  P  P8  1  0.96280441  0.24393267  0.54588099  1
  P  P9  1  0.24393267  0.54588099  0.96280441  1
  P  P10  1  0.54588099  0.96280441  0.24393267  1
  O  O11  1  0.75476759  0.47534648  0.84949904  1
  O  O12  1  0.44518809  0.52665098  0.80353438  1
  O  O13  1  0.52665098  0.80353438  0.44518809  1
  O  O14  1  0.00487525  0.80776522  0.61047614  1
  O  O15  1  0.80353438  0.44518809  0.52665098  1
  O  O16  1  0.84949904  0.75476759  0.47534648  1
  O  O17  1  0.61047614  0.00487525  0.80776522  1
  O  O18  1  0.47534648  0.84949904  0.75476759  1
  O  O19  1  0.74969838  0.90707881  0.10176951  1
  O  O20  1  0.90707881  0.10176951  0.74969838  1
  O  O21  1  0.10176951  0.74969838  0.90707881  1
  O  O22  1  0.19223478  0.38952386  0.99512475  1
  O  O23  1  0.80776522  0.61047614  0.00487525  1
  O  O24  1  0.89823049  0.25030162  0.09292119  1
  O  O25  1  0.09292119  0.89823049  0.25030162  1
  O  O26  1  0.25030162  0.09292119  0.89823049  1
  O  O27  1  0.52465352  0.15050096  0.24523241  1
  O  O28  1  0.38952386  0.99512475  0.19223478  1
  O  O29  1  0.15050096  0.24523241  0.52465352  1
  O  O30  1  0.19646562  0.55481191  0.47334902  1
  O  O31  1  0.99512475  0.19223478  0.38952386  1
  O  O32  1  0.47334902  0.19646562  0.55481191  1
  O  O33  1  0.55481191  0.47334902  0.19646562  1
  O  O34  1  0.24523241  0.52465352  0.15050096  1
