# generated using pymatgen
data_Li3H6Rh
_symmetry_space_group_name_H-M   'P 1'
_cell_length_a   8.45364381
_cell_length_b   4.74809616
_cell_length_c   8.54710762
_cell_angle_alpha   90.00000000
_cell_angle_beta   90.00000000
_cell_angle_gamma   90.00000000
_symmetry_Int_Tables_number   1
_chemical_formula_structural   Li3H6Rh
_chemical_formula_sum   'Li12 H24 Rh4'
_cell_volume   343.06990583
_cell_formula_units_Z   4
loop_
 _symmetry_equiv_pos_site_id
 _symmetry_equiv_pos_as_xyz
  1  'x, y, z'
loop_
 _atom_site_type_symbol
 _atom_site_label
 _atom_site_symmetry_multiplicity
 _atom_site_fract_x
 _atom_site_fract_y
 _atom_site_fract_z
 _atom_site_occupancy
  Li  Li0  1  0.54542851  0.25000000  0.87512947  1
  Li  Li1  1  0.04542851  0.25000000  0.62487053  1
  Li  Li2  1  0.45457149  0.75000000  0.12487053  1
  Li  Li3  1  0.95457149  0.75000000  0.37512947  1
  Li  Li4  1  0.89745143  0.25000000  0.98220821  1
  Li  Li5  1  0.39745143  0.25000000  0.51779179  1
  Li  Li6  1  0.10254857  0.75000000  0.01779179  1
  Li  Li7  1  0.60254857  0.75000000  0.48220821  1
  Li  Li8  1  0.71814814  0.25000000  0.25651871  1
  Li  Li9  1  0.21814814  0.25000000  0.24348129  1
  Li  Li10  1  0.28185186  0.75000000  0.74348129  1
  Li  Li11  1  0.78185186  0.75000000  0.75651871  1
  H  H12  1  0.84692402  0.50105935  0.53844460  1
  H  H13  1  0.34692402  0.99894065  0.96155540  1
  H  H14  1  0.15307598  0.00105935  0.46155540  1
  H  H15  1  0.65307598  0.49894065  0.03844460  1
  H  H16  1  0.15307598  0.49894065  0.46155540  1
  H  H17  1  0.65307598  0.00105935  0.03844460  1
  H  H18  1  0.84692402  0.99894065  0.53844460  1
  H  H19  1  0.34692402  0.50105935  0.96155540  1
  H  H20  1  0.60894042  0.49417882  0.68337229  1
  H  H21  1  0.10894042  0.00582118  0.81662771  1
  H  H22  1  0.39105958  0.99417882  0.31662771  1
  H  H23  1  0.89105958  0.50582118  0.18337229  1
  H  H24  1  0.39105958  0.50582118  0.31662771  1
  H  H25  1  0.89105958  0.99417882  0.18337229  1
  H  H26  1  0.60894042  0.00582118  0.68337229  1
  H  H27  1  0.10894042  0.49417882  0.81662771  1
  H  H28  1  0.61387957  0.25000000  0.44774934  1
  H  H29  1  0.11387957  0.25000000  0.05225066  1
  H  H30  1  0.38612043  0.75000000  0.55225066  1
  H  H31  1  0.88612043  0.75000000  0.94774934  1
  H  H32  1  0.83729914  0.25000000  0.76561129  1
  H  H33  1  0.33729914  0.25000000  0.73438871  1
  H  H34  1  0.16270086  0.75000000  0.23438871  1
  H  H35  1  0.66270086  0.75000000  0.26561129  1
  Rh  Rh36  1  0.72727850  0.25000000  0.60753163  1
  Rh  Rh37  1  0.22727850  0.25000000  0.89246837  1
  Rh  Rh38  1  0.27272150  0.75000000  0.39246837  1
  Rh  Rh39  1  0.77272150  0.75000000  0.10753163  1
