# generated using pymatgen
data_KVPHO6
_symmetry_space_group_name_H-M   'P 1'
_cell_length_a   6.81190809
_cell_length_b   9.26802211
_cell_length_c   17.33849930
_cell_angle_alpha   90.00000000
_cell_angle_beta   90.00000000
_cell_angle_gamma   90.00000000
_symmetry_Int_Tables_number   1
_chemical_formula_structural   KVPHO6
_chemical_formula_sum   'K8 V8 P8 H8 O48'
_cell_volume   1094.62999888
_cell_formula_units_Z   8
loop_
 _symmetry_equiv_pos_site_id
 _symmetry_equiv_pos_as_xyz
  1  'x, y, z'
loop_
 _atom_site_type_symbol
 _atom_site_label
 _atom_site_symmetry_multiplicity
 _atom_site_fract_x
 _atom_site_fract_y
 _atom_site_fract_z
 _atom_site_occupancy
  K  K0  1  0.77399036  0.81390555  0.39726032  1
  K  K1  1  0.27399036  0.68609445  0.60273968  1
  K  K2  1  0.22600964  0.31390555  0.10273968  1
  K  K3  1  0.72600964  0.18609445  0.89726032  1
  K  K4  1  0.22600964  0.18609445  0.60273968  1
  K  K5  1  0.72600964  0.31390555  0.39726032  1
  K  K6  1  0.77399036  0.68609445  0.89726032  1
  K  K7  1  0.27399036  0.81390555  0.10273968  1
  V  V8  1  0.52288778  0.94712905  0.74048790  1
  V  V9  1  0.02288778  0.55287095  0.25951210  1
  V  V10  1  0.47711222  0.44712905  0.75951210  1
  V  V11  1  0.97711222  0.05287095  0.24048790  1
  V  V12  1  0.47711222  0.05287095  0.25951210  1
  V  V13  1  0.97711222  0.44712905  0.74048790  1
  V  V14  1  0.52288778  0.55287095  0.24048790  1
  V  V15  1  0.02288778  0.94712905  0.75951210  1
  P  P16  1  0.30443792  0.89004757  0.90487442  1
  P  P17  1  0.80443792  0.60995243  0.09512558  1
  P  P18  1  0.69556208  0.39004757  0.59512558  1
  P  P19  1  0.19556208  0.10995243  0.40487442  1
  P  P20  1  0.69556208  0.10995243  0.09512558  1
  P  P21  1  0.19556208  0.39004757  0.90487442  1
  P  P22  1  0.30443792  0.60995243  0.40487442  1
  P  P23  1  0.80443792  0.89004757  0.59512558  1
  H  H24  1  0.20990263  0.10685089  0.95366842  1
  H  H25  1  0.70990263  0.39314911  0.04633158  1
  H  H26  1  0.79009737  0.60685089  0.54633158  1
  H  H27  1  0.29009737  0.89314911  0.45366842  1
  H  H28  1  0.79009737  0.89314911  0.04633158  1
  H  H29  1  0.29009737  0.60685089  0.95366842  1
  H  H30  1  0.20990263  0.39314911  0.45366842  1
  H  H31  1  0.70990263  0.10685089  0.54633158  1
  O  O32  1  0.37356475  0.75556880  0.94673638  1
  O  O33  1  0.87356475  0.74443120  0.05326362  1
  O  O34  1  0.62643525  0.25556880  0.55326362  1
  O  O35  1  0.12643525  0.24443120  0.44673638  1
  O  O36  1  0.62643525  0.24443120  0.05326362  1
  O  O37  1  0.12643525  0.25556880  0.94673638  1
  O  O38  1  0.37356475  0.74443120  0.44673638  1
  O  O39  1  0.87356475  0.75556880  0.55326362  1
  O  O40  1  0.26084099  0.00565695  0.96948796  1
  O  O41  1  0.76084099  0.49434305  0.03051204  1
  O  O42  1  0.73915901  0.50565695  0.53051204  1
  O  O43  1  0.23915901  0.99434305  0.46948796  1
  O  O44  1  0.73915901  0.99434305  0.03051204  1
  O  O45  1  0.23915901  0.50565695  0.96948796  1
  O  O46  1  0.26084099  0.49434305  0.46948796  1
  O  O47  1  0.76084099  0.00565695  0.53051204  1
  O  O48  1  0.61234995  0.86428242  0.64276324  1
  O  O49  1  0.11234995  0.63571758  0.35723676  1
  O  O50  1  0.38765005  0.36428242  0.85723676  1
  O  O51  1  0.88765005  0.13571758  0.14276324  1
  O  O52  1  0.38765005  0.13571758  0.35723676  1
  O  O53  1  0.88765005  0.36428242  0.64276324  1
  O  O54  1  0.61234995  0.63571758  0.14276324  1
  O  O55  1  0.11234995  0.86428242  0.85723676  1
  O  O56  1  0.96641645  0.95401584  0.64843245  1
  O  O57  1  0.46641645  0.54598416  0.35156755  1
  O  O58  1  0.03358355  0.45401584  0.85156755  1
  O  O59  1  0.53358355  0.04598416  0.14843245  1
  O  O60  1  0.03358355  0.04598416  0.35156755  1
  O  O61  1  0.53358355  0.45401584  0.64843245  1
  O  O62  1  0.96641645  0.54598416  0.14843245  1
  O  O63  1  0.46641645  0.95401584  0.85156755  1
  O  O64  1  0.47162933  0.87992209  0.27727434  1
  O  O65  1  0.97162933  0.62007791  0.72272566  1
  O  O66  1  0.52837067  0.37992209  0.22272566  1
  O  O67  1  0.02837067  0.12007791  0.77727434  1
  O  O68  1  0.52837067  0.12007791  0.72272566  1
  O  O69  1  0.02837067  0.37992209  0.27727434  1
  O  O70  1  0.47162933  0.62007791  0.77727434  1
  O  O71  1  0.97162933  0.87992209  0.22272566  1
  O  O72  1  0.72199635  0.10865971  0.27739449  1
  O  O73  1  0.22199635  0.39134029  0.72260551  1
  O  O74  1  0.27800365  0.60865971  0.22260551  1
  O  O75  1  0.77800365  0.89134029  0.77739449  1
  O  O76  1  0.27800365  0.89134029  0.72260551  1
  O  O77  1  0.77800365  0.60865971  0.27739449  1
  O  O78  1  0.72199635  0.39134029  0.77739449  1
  O  O79  1  0.22199635  0.10865971  0.22260551  1
