# generated using pymatgen
data_MnH6(OF)3
_symmetry_space_group_name_H-M   'P 1'
_cell_length_a   8.58239979
_cell_length_b   9.60012920
_cell_length_c   6.52924352
_cell_angle_alpha   90.00000000
_cell_angle_beta   101.19691509
_cell_angle_gamma   90.00000000
_symmetry_Int_Tables_number   1
_chemical_formula_structural   MnH6(OF)3
_chemical_formula_sum   'Mn4 H24 O12 F12'
_cell_volume   527.71868235
_cell_formula_units_Z   4
loop_
 _symmetry_equiv_pos_site_id
 _symmetry_equiv_pos_as_xyz
  1  'x, y, z'
loop_
 _atom_site_type_symbol
 _atom_site_label
 _atom_site_symmetry_multiplicity
 _atom_site_fract_x
 _atom_site_fract_y
 _atom_site_fract_z
 _atom_site_occupancy
  Mn  Mn0  1  0.00000000  0.50000000  0.00000000  1
  Mn  Mn1  1  0.50000000  0.00000000  0.00000000  1
  Mn  Mn2  1  0.50000000  0.50000000  0.50000000  1
  Mn  Mn3  1  0.00000000  0.00000000  0.50000000  1
  H  H4  1  0.04328769  0.25326401  0.23387621  1
  H  H5  1  0.45671231  0.75326401  0.76612379  1
  H  H6  1  0.95671231  0.74673599  0.76612379  1
  H  H7  1  0.54328769  0.24673599  0.23387621  1
  H  H8  1  0.21539286  0.31791833  0.23643571  1
  H  H9  1  0.28460714  0.81791833  0.76356429  1
  H  H10  1  0.78460714  0.68208167  0.76356429  1
  H  H11  1  0.71539286  0.18208167  0.23643571  1
  H  H12  1  0.64036457  0.40011942  0.87183042  1
  H  H13  1  0.85963543  0.90011942  0.12816958  1
  H  H14  1  0.35963543  0.59988058  0.12816958  1
  H  H15  1  0.14036457  0.09988058  0.87183042  1
  H  H16  1  0.52584316  0.27720765  0.75385833  1
  H  H17  1  0.97415684  0.77720765  0.24614167  1
  H  H18  1  0.47415684  0.72279235  0.24614167  1
  H  H19  1  0.02584316  0.22279235  0.75385833  1
  H  H20  1  0.75841135  0.46644100  0.29470026  1
  H  H21  1  0.74158865  0.96644100  0.70529974  1
  H  H22  1  0.24158865  0.53355900  0.70529974  1
  H  H23  1  0.25841135  0.03355900  0.29470026  1
  H  H24  1  0.82549925  0.43614966  0.53999076  1
  H  H25  1  0.67450075  0.93614966  0.46000924  1
  H  H26  1  0.17450075  0.56385034  0.46000924  1
  H  H27  1  0.32549925  0.06385034  0.53999076  1
  O  O28  1  0.10529233  0.31323605  0.15650015  1
  O  O29  1  0.39470767  0.81323605  0.84349985  1
  O  O30  1  0.89470767  0.68676395  0.84349985  1
  O  O31  1  0.60529233  0.18676395  0.15650015  1
  O  O32  1  0.54580227  0.37894566  0.76007242  1
  O  O33  1  0.95419773  0.87894566  0.23992758  1
  O  O34  1  0.45419773  0.62105434  0.23992758  1
  O  O35  1  0.04580227  0.12105434  0.76007242  1
  O  O36  1  0.72867311  0.45091143  0.43151663  1
  O  O37  1  0.77132689  0.95091143  0.56848337  1
  O  O38  1  0.27132689  0.54908857  0.56848337  1
  O  O39  1  0.22867311  0.04908857  0.43151663  1
  F  F40  1  0.79412930  0.45118222  0.04228633  1
  F  F41  1  0.70587070  0.95118222  0.95771367  1
  F  F42  1  0.20587070  0.54881778  0.95771367  1
  F  F43  1  0.29412930  0.04881778  0.04228633  1
  F  F44  1  0.03332626  0.60342253  0.25587440  1
  F  F45  1  0.46667374  0.10342253  0.74412560  1
  F  F46  1  0.96667374  0.39657747  0.74412560  1
  F  F47  1  0.53332626  0.89657747  0.25587440  1
  F  F48  1  0.41336476  0.34771891  0.34118472  1
  F  F49  1  0.08663524  0.84771891  0.65881528  1
  F  F50  1  0.58663524  0.65228109  0.65881528  1
  F  F51  1  0.91336476  0.15228109  0.34118472  1
