# generated using pymatgen
data_Mn(AsO2)2
_symmetry_space_group_name_H-M   'P 1'
_cell_length_a   8.72193855
_cell_length_b   8.72193188
_cell_length_c   5.90052841
_cell_angle_alpha   89.99998922
_cell_angle_beta   89.99980252
_cell_angle_gamma   89.99986316
_symmetry_Int_Tables_number   1
_chemical_formula_structural   Mn(AsO2)2
_chemical_formula_sum   'Mn4 As8 O16'
_cell_volume   448.86590526
_cell_formula_units_Z   4
loop_
 _symmetry_equiv_pos_site_id
 _symmetry_equiv_pos_as_xyz
  1  'x, y, z'
loop_
 _atom_site_type_symbol
 _atom_site_label
 _atom_site_symmetry_multiplicity
 _atom_site_fract_x
 _atom_site_fract_y
 _atom_site_fract_z
 _atom_site_occupancy
  Mn  Mn0  1  0.99999589  0.49999956  0.24999888  1
  Mn  Mn1  1  -0.00000139  0.50000157  0.75000038  1
  Mn  Mn2  1  0.50000272  -0.00000160  0.25000007  1
  Mn  Mn3  1  0.50000092  0.99999935  0.75000194  1
  As  As4  1  0.17607371  0.80753320  0.49999964  1
  As  As5  1  0.19246419  0.17606750  0.00000170  1
  As  As6  1  0.30753294  0.67607329  0.00000094  1
  As  As7  1  0.32391813  0.30753343  0.50000072  1
  As  As8  1  0.67606836  0.69246103  0.50000176  1
  As  As9  1  0.69246848  0.32392019  0.00000089  1
  As  As10  1  0.80753148  0.82391951  0.00000030  1
  As  As11  1  0.82393175  0.19246216  0.50000102  1
  O  O12  1  0.10878880  0.64112118  0.00000000  1
  O  O13  1  0.14111957  0.60879001  0.49999868  1
  O  O14  1  0.18535992  0.31462812  0.25000090  1
  O  O15  1  0.18535859  0.31462607  0.74999881  1
  O  O16  1  0.31463059  0.81463734  0.24999703  1
  O  O17  1  0.31463804  0.81462796  0.74999578  1
  O  O18  1  0.35888196  0.10879022  0.49999939  1
  O  O19  1  0.39120921  0.14111919  0.00000097  1
  O  O20  1  0.60878692  0.85887492  0.00000042  1
  O  O21  1  0.64111709  0.89120589  0.50000057  1
  O  O22  1  0.68537362  0.18535841  0.25000015  1
  O  O23  1  0.68537257  0.18536105  0.75000116  1
  O  O24  1  0.81462686  0.68535796  0.24999906  1
  O  O25  1  0.81462969  0.68536035  0.74999931  1
  O  O26  1  0.85888135  0.39120641  0.49999960  1
  O  O27  1  0.89121203  0.35887775  0.99999791  1
