# generated using pymatgen
data_Na5BiO5
_symmetry_space_group_name_H-M   'P 1'
_cell_length_a   4.60247909
_cell_length_b   5.97393348
_cell_length_c   6.62390641
_cell_angle_alpha   72.84868370
_cell_angle_beta   89.99999996
_cell_angle_gamma   67.34301259
_symmetry_Int_Tables_number   1
_chemical_formula_structural   Na5BiO5
_chemical_formula_sum   'Na5 Bi1 O5'
_cell_volume   159.25638311
_cell_formula_units_Z   1
loop_
 _symmetry_equiv_pos_site_id
 _symmetry_equiv_pos_as_xyz
  1  'x, y, z'
loop_
 _atom_site_type_symbol
 _atom_site_label
 _atom_site_symmetry_multiplicity
 _atom_site_fract_x
 _atom_site_fract_y
 _atom_site_fract_z
 _atom_site_occupancy
  Na  Na0  1  0.67357833  0.65284333  0.87633310  1
  Na  Na1  1  0.68962965  0.62074069  0.34103164  1
  Na  Na2  1  0.29745458  0.40508985  0.68985946  1
  Na  Na3  1  0.31497973  0.37004153  0.15640817  1
  Na  Na4  1  0.99381726  0.01236547  0.51598401  1
  Bi  Bi5  1  0.99389776  0.01220448  0.01533509  1
  O  O6  1  0.13241069  0.73517962  0.85231488  1
  O  O7  1  0.49419697  0.01160607  0.01517202  1
  O  O8  1  0.14402581  0.71194838  0.31963238  1
  O  O9  1  0.84368014  0.31263871  0.71087755  1
  O  O10  1  0.85582907  0.28834186  0.17945169  1
