# generated using pymatgen
data_Zn2Hg2H2S2O11
_symmetry_space_group_name_H-M   'P 1'
_cell_length_a   6.20824750
_cell_length_b   11.41969807
_cell_length_c   13.27055390
_cell_angle_alpha   90.00000000
_cell_angle_beta   90.00000000
_cell_angle_gamma   90.00000000
_symmetry_Int_Tables_number   1
_chemical_formula_structural   Zn2Hg2H2S2O11
_chemical_formula_sum   'Zn8 Hg8 H8 S8 O44'
_cell_volume   940.83332963
_cell_formula_units_Z   4
loop_
 _symmetry_equiv_pos_site_id
 _symmetry_equiv_pos_as_xyz
  1  'x, y, z'
loop_
 _atom_site_type_symbol
 _atom_site_label
 _atom_site_symmetry_multiplicity
 _atom_site_fract_x
 _atom_site_fract_y
 _atom_site_fract_z
 _atom_site_occupancy
  Zn  Zn0  1  0.01695663  0.16600205  0.12473743  1
  Zn  Zn1  1  0.01695663  0.16600205  0.37526257  1
  Zn  Zn2  1  0.01695663  0.33399795  0.62473743  1
  Zn  Zn3  1  0.01695663  0.33399795  0.87526257  1
  Zn  Zn4  1  0.98304337  0.66600205  0.12473743  1
  Zn  Zn5  1  0.98304337  0.66600205  0.37526257  1
  Zn  Zn6  1  0.98304337  0.83399795  0.87526257  1
  Zn  Zn7  1  0.98304337  0.83399795  0.62473743  1
  Hg  Hg8  1  0.20260692  0.41862252  0.25000000  1
  Hg  Hg9  1  0.20260692  0.08137748  0.75000000  1
  Hg  Hg10  1  0.47771233  0.66952915  0.25000000  1
  Hg  Hg11  1  0.47771233  0.83047085  0.75000000  1
  Hg  Hg12  1  0.52228767  0.16952915  0.25000000  1
  Hg  Hg13  1  0.52228767  0.33047085  0.75000000  1
  Hg  Hg14  1  0.79739308  0.58137748  0.75000000  1
  Hg  Hg15  1  0.79739308  0.91862252  0.25000000  1
  H  H16  1  0.30592817  0.30781987  0.03070218  1
  H  H17  1  0.30592817  0.30781987  0.46929782  1
  H  H18  1  0.30592817  0.19218013  0.53070218  1
  H  H19  1  0.30592817  0.19218013  0.96929782  1
  H  H20  1  0.69407183  0.69218013  0.53070218  1
  H  H21  1  0.69407183  0.80781987  0.03070218  1
  H  H22  1  0.69407183  0.80781987  0.46929782  1
  H  H23  1  0.69407183  0.69218013  0.96929782  1
  S  S24  1  0.26908054  0.91014246  0.07759546  1
  S  S25  1  0.26908054  0.58985754  0.57759546  1
  S  S26  1  0.26908054  0.58985754  0.92240454  1
  S  S27  1  0.26908054  0.91014246  0.42240454  1
  S  S28  1  0.73091946  0.41014246  0.42240454  1
  S  S29  1  0.73091946  0.41014246  0.07759546  1
  S  S30  1  0.73091946  0.08985754  0.57759546  1
  S  S31  1  0.73091946  0.08985754  0.92240454  1
  O  O32  1  0.11216420  0.83574143  0.13494722  1
  O  O33  1  0.11216420  0.83574143  0.36505278  1
  O  O34  1  0.11216420  0.66425857  0.86505278  1
  O  O35  1  0.11216420  0.66425857  0.63494722  1
  O  O36  1  0.16732351  0.60167638  0.25000000  1
  O  O37  1  0.16732351  0.89832362  0.75000000  1
  O  O38  1  0.20383739  0.25000000  0.00000000  1
  O  O39  1  0.20383739  0.25000000  0.50000000  1
  O  O40  1  0.21137870  0.23300692  0.25000000  1
  O  O41  1  0.21137870  0.26699308  0.75000000  1
  O  O42  1  0.22214110  0.59592663  0.03234544  1
  O  O43  1  0.22214110  0.59592663  0.46765456  1
  O  O44  1  0.22214110  0.90407337  0.96765456  1
  O  O45  1  0.22214110  0.90407337  0.53234544  1
  O  O46  1  0.24687118  0.03315025  0.11474996  1
  O  O47  1  0.24687118  0.03315025  0.38525004  1
  O  O48  1  0.24687118  0.46684975  0.61474996  1
  O  O49  1  0.24687118  0.46684975  0.88525004  1
  O  O50  1  0.49088251  0.86927976  0.09860389  1
  O  O51  1  0.49088251  0.86927976  0.40139611  1
  O  O52  1  0.49088251  0.63072024  0.59860389  1
  O  O53  1  0.49088251  0.63072024  0.90139611  1
  O  O54  1  0.50911749  0.13072024  0.59860389  1
  O  O55  1  0.50911749  0.13072024  0.90139611  1
  O  O56  1  0.50911749  0.36927976  0.09860389  1
  O  O57  1  0.50911749  0.36927976  0.40139611  1
  O  O58  1  0.75312882  0.53315025  0.11474996  1
  O  O59  1  0.75312882  0.53315025  0.38525004  1
  O  O60  1  0.75312882  0.96684975  0.61474996  1
  O  O61  1  0.75312882  0.96684975  0.88525004  1
  O  O62  1  0.77785890  0.09592663  0.03234544  1
  O  O63  1  0.77785890  0.09592663  0.46765456  1
  O  O64  1  0.77785890  0.40407337  0.53234544  1
  O  O65  1  0.77785890  0.40407337  0.96765456  1
  O  O66  1  0.78862130  0.73300692  0.25000000  1
  O  O67  1  0.78862130  0.76699308  0.75000000  1
  O  O68  1  0.79616261  0.75000000  0.50000000  1
  O  O69  1  0.79616261  0.75000000  0.00000000  1
  O  O70  1  0.83267649  0.10167638  0.25000000  1
  O  O71  1  0.83267649  0.39832362  0.75000000  1
  O  O72  1  0.88783580  0.33574143  0.13494722  1
  O  O73  1  0.88783580  0.33574143  0.36505278  1
  O  O74  1  0.88783580  0.16425857  0.63494722  1
  O  O75  1  0.88783580  0.16425857  0.86505278  1
