# generated using pymatgen
data_Al11TlO17
_symmetry_space_group_name_H-M   'P 1'
_cell_length_a   5.65335629
_cell_length_b   5.65447346
_cell_length_c   23.08250682
_cell_angle_alpha   90.00024989
_cell_angle_beta   90.00003303
_cell_angle_gamma   119.99353670
_symmetry_Int_Tables_number   1
_chemical_formula_structural   Al11TlO17
_chemical_formula_sum   'Al22 Tl2 O34'
_cell_volume   639.05820075
_cell_formula_units_Z   2
loop_
 _symmetry_equiv_pos_site_id
 _symmetry_equiv_pos_as_xyz
  1  'x, y, z'
loop_
 _atom_site_type_symbol
 _atom_site_label
 _atom_site_symmetry_multiplicity
 _atom_site_fract_x
 _atom_site_fract_y
 _atom_site_fract_z
 _atom_site_occupancy
  Al  Al0  1  0.16724775  0.83260568  0.89461424  1
  Al  Al1  1  0.16724711  0.83260611  0.60538589  1
  Al  Al2  1  0.33383354  0.66621750  0.17519909  1
  Al  Al3  1  0.33330638  0.66667723  0.02471308  1
  Al  Al4  1  0.33382281  0.66619686  0.32480042  1
  Al  Al5  1  0.00016384  0.00000016  0.00000068  1
  Al  Al6  1  0.00015871  0.00000001  0.49999970  1
  Al  Al7  1  0.33329756  0.66667162  0.47528742  1
  Al  Al8  1  0.16723203  0.33460243  0.60538166  1
  Al  Al9  1  0.16723210  0.33460281  0.89461855  1
  Al  Al10  1  0.66550152  0.83274608  0.60515391  1
  Al  Al11  1  0.66550109  0.83274562  0.89484671  1
  Al  Al12  1  0.33464309  0.16739975  0.39461311  1
  Al  Al13  1  0.33465585  0.16740738  0.10538702  1
  Al  Al14  1  0.83263260  0.66539918  0.39461807  1
  Al  Al15  1  0.66763796  0.33381698  0.67519934  1
  Al  Al16  1  0.66763664  0.33381531  0.82480084  1
  Al  Al17  1  0.66662867  0.33332720  0.97528824  1
  Al  Al18  1  0.66662689  0.33332958  0.52471228  1
  Al  Al19  1  0.83263887  0.66540126  0.10538232  1
  Al  Al20  1  0.83277480  0.16726088  0.10515346  1
  Al  Al21  1  0.83275475  0.16725430  0.39484653  1
  Tl  Tl22  1  0.35782060  0.67893314  0.75000014  1
  Tl  Tl23  1  0.67892062  0.32110024  0.25000014  1
  O  O24  1  0.15708545  0.84294807  0.04901844  1
  O  O25  1  0.15709043  0.84295645  0.45098198  1
  O  O26  1  0.00359958  0.50180968  0.85636693  1
  O  O27  1  0.00360101  0.50180900  0.64363501  1
  O  O28  1  0.33283101  0.66716939  0.25000062  1
  O  O29  1  0.15703902  0.31414286  0.45101346  1
  O  O30  1  0.33339274  0.66668353  0.94519012  1
  O  O31  1  0.99992200  0.00009072  0.13956652  1
  O  O32  1  0.99990394  0.00008254  0.36043191  1
  O  O33  1  0.99982357  0.99991615  0.63956652  1
  O  O34  1  0.99982093  0.99991284  0.86043141  1
  O  O35  1  0.33339149  0.66668116  0.55480946  1
  O  O36  1  0.49890657  0.99730159  0.85644278  1
  O  O37  1  0.15706777  0.31414371  0.04898787  1
  O  O38  1  0.49890663  0.99730494  0.64355629  1
  O  O39  1  0.31413327  0.15707382  0.54902005  1
  O  O40  1  0.31413473  0.15707198  0.95098011  1
  O  O41  1  0.49890138  0.50162927  0.85644731  1
  O  O42  1  0.49890064  0.50162677  0.64355297  1
  O  O43  1  0.50179754  0.49820607  0.14363297  1
  O  O44  1  0.50178972  0.49819269  0.35636464  1
  O  O45  1  0.68587941  0.84293835  0.04898909  1
  O  O46  1  0.68586895  0.84294369  0.45101140  1
  O  O47  1  0.50160707  0.00270227  0.35644487  1
  O  O48  1  0.66574118  0.33291572  0.75000041  1
  O  O49  1  0.66670892  0.33332151  0.44519070  1
  O  O50  1  0.50162515  0.00271853  0.14355639  1
  O  O51  1  0.84292556  0.68585767  0.95101248  1
  O  O52  1  0.84293067  0.68586262  0.54898647  1
  O  O53  1  0.66672371  0.33330002  0.05480864  1
  O  O54  1  0.99728602  0.49838179  0.14355102  1
  O  O55  1  0.99727380  0.49837348  0.35644738  1
  O  O56  1  0.84289311  0.15702096  0.54898963  1
  O  O57  1  0.84289724  0.15702484  0.95101131  1
