# generated using pymatgen
data_LiB5H2O9
_symmetry_space_group_name_H-M   'P 1'
_cell_length_a   13.74806773
_cell_length_b   9.18943759
_cell_length_c   5.60631820
_cell_angle_alpha   90.00000000
_cell_angle_beta   91.46998752
_cell_angle_gamma   90.00000000
_symmetry_Int_Tables_number   1
_chemical_formula_structural   LiB5H2O9
_chemical_formula_sum   'Li4 B20 H8 O36'
_cell_volume   708.05238374
_cell_formula_units_Z   4
loop_
 _symmetry_equiv_pos_site_id
 _symmetry_equiv_pos_as_xyz
  1  'x, y, z'
loop_
 _atom_site_type_symbol
 _atom_site_label
 _atom_site_symmetry_multiplicity
 _atom_site_fract_x
 _atom_site_fract_y
 _atom_site_fract_z
 _atom_site_occupancy
  Li  Li0  1  0.80302051  0.09528341  0.47604421  1
  Li  Li1  1  0.69697949  0.59528341  0.52395579  1
  Li  Li2  1  0.19697949  0.90471659  0.52395579  1
  Li  Li3  1  0.30302051  0.40471659  0.47604421  1
  B  B4  1  0.81454833  0.82706092  0.81264075  1
  B  B5  1  0.68545167  0.32706092  0.18735925  1
  B  B6  1  0.18545167  0.17293908  0.18735925  1
  B  B7  1  0.31454833  0.67293908  0.81264075  1
  B  B8  1  0.65775909  0.96618739  0.76638457  1
  B  B9  1  0.84224091  0.46618739  0.23361543  1
  B  B10  1  0.34224091  0.03381261  0.23361543  1
  B  B11  1  0.15775909  0.53381261  0.76638457  1
  B  B12  1  0.68164697  0.80326922  0.09500926  1
  B  B13  1  0.81835303  0.30326922  0.90499074  1
  B  B14  1  0.31835303  0.19673078  0.90499074  1
  B  B15  1  0.18164697  0.69673078  0.09500926  1
  B  B16  1  0.98986632  0.85939385  0.71809020  1
  B  B17  1  0.51013368  0.35939385  0.28190980  1
  B  B18  1  0.01013368  0.14060615  0.28190980  1
  B  B19  1  0.48986632  0.64060615  0.71809020  1
  B  B20  1  0.89867055  0.66918205  0.51401398  1
  B  B21  1  0.60132945  0.16918205  0.48598602  1
  B  B22  1  0.10132945  0.33081795  0.48598602  1
  B  B23  1  0.39867055  0.83081795  0.51401398  1
  H  H24  1  0.57948560  0.76526790  0.33943647  1
  H  H25  1  0.92051440  0.26526790  0.66056353  1
  H  H26  1  0.42051440  0.23473210  0.66056353  1
  H  H27  1  0.07948560  0.73473210  0.33943647  1
  H  H28  1  0.07982936  0.00027780  0.87938339  1
  H  H29  1  0.42017064  0.50027780  0.12061661  1
  H  H30  1  0.92017064  0.99972220  0.12061661  1
  H  H31  1  0.57982936  0.49972220  0.87938339  1
  O  O32  1  0.59489779  0.05984631  0.64979554  1
  O  O33  1  0.90510221  0.55984631  0.35020446  1
  O  O34  1  0.40510221  0.94015369  0.35020446  1
  O  O35  1  0.09489779  0.44015369  0.64979554  1
  O  O36  1  0.62067590  0.89369134  0.96036826  1
  O  O37  1  0.87932410  0.39369134  0.03963174  1
  O  O38  1  0.37932410  0.10630866  0.03963174  1
  O  O39  1  0.12067590  0.60630866  0.96036826  1
  O  O40  1  0.64595906  0.73754165  0.29473124  1
  O  O41  1  0.85404094  0.23754165  0.70526876  1
  O  O42  1  0.35404094  0.26245835  0.70526876  1
  O  O43  1  0.14595906  0.76245835  0.29473124  1
  O  O44  1  0.75123536  0.94123664  0.69462727  1
  O  O45  1  0.74876464  0.44123664  0.30537273  1
  O  O46  1  0.24876464  0.05876336  0.30537273  1
  O  O47  1  0.25123536  0.55876336  0.69462727  1
  O  O48  1  0.77573314  0.77873367  0.03702328  1
  O  O49  1  0.72426686  0.27873367  0.96297672  1
  O  O50  1  0.22426686  0.22126633  0.96297672  1
  O  O51  1  0.27573314  0.72126633  0.03702328  1
  O  O52  1  0.91299094  0.89049263  0.85851793  1
  O  O53  1  0.58700906  0.39049263  0.14148207  1
  O  O54  1  0.08700906  0.10950737  0.14148207  1
  O  O55  1  0.41299094  0.60950737  0.85851793  1
  O  O56  1  0.81913676  0.69861151  0.64639354  1
  O  O57  1  0.68086324  0.19861151  0.35360646  1
  O  O58  1  0.18086324  0.30138849  0.35360646  1
  O  O59  1  0.31913676  0.80138849  0.64639354  1
  O  O60  1  0.07809976  0.93150145  0.74183653  1
  O  O61  1  0.42190024  0.43150145  0.25816347  1
  O  O62  1  0.92190024  0.06849855  0.25816347  1
  O  O63  1  0.57809976  0.56849855  0.74183653  1
  O  O64  1  0.98256489  0.75453687  0.54003537  1
  O  O65  1  0.51743511  0.25453687  0.45996463  1
  O  O66  1  0.01743511  0.24546313  0.45996463  1
  O  O67  1  0.48256489  0.74546313  0.54003537  1
