# generated using pymatgen
data_TiCdFe(PO4)3
_symmetry_space_group_name_H-M   'P 1'
_cell_length_a   8.80207379
_cell_length_b   8.80207389
_cell_length_c   8.80207356
_cell_angle_alpha   58.88666618
_cell_angle_beta   58.88666577
_cell_angle_gamma   58.88666698
_symmetry_Int_Tables_number   1
_chemical_formula_structural   TiCdFe(PO4)3
_chemical_formula_sum   'Ti2 Cd2 Fe2 P6 O24'
_cell_volume   469.95999692
_cell_formula_units_Z   2
loop_
 _symmetry_equiv_pos_site_id
 _symmetry_equiv_pos_as_xyz
  1  'x, y, z'
loop_
 _atom_site_type_symbol
 _atom_site_label
 _atom_site_symmetry_multiplicity
 _atom_site_fract_x
 _atom_site_fract_y
 _atom_site_fract_z
 _atom_site_occupancy
  Ti  Ti0  1  0.14691745  0.14691745  0.14691745  1
  Ti  Ti1  1  0.64691745  0.64691745  0.64691745  1
  Cd  Cd2  1  0.99878071  0.99878071  0.99878071  1
  Cd  Cd3  1  0.49878071  0.49878071  0.49878071  1
  Fe  Fe4  1  0.35348632  0.35348632  0.35348632  1
  Fe  Fe5  1  0.85348632  0.85348632  0.85348632  1
  P  P6  1  0.04171478  0.74999880  0.46033951  1
  P  P7  1  0.46033951  0.04171478  0.74999880  1
  P  P8  1  0.74999880  0.46033951  0.04171478  1
  P  P9  1  0.24999880  0.54171478  0.96033951  1
  P  P10  1  0.54171478  0.96033951  0.24999880  1
  P  P11  1  0.96033951  0.24999880  0.54171478  1
  O  O12  1  0.11894769  0.30266906  0.50383030  1
  O  O13  1  0.30266906  0.50383030  0.11894769  1
  O  O14  1  0.05718537  0.91937080  0.26993556  1
  O  O15  1  0.50383030  0.11894769  0.30266906  1
  O  O16  1  0.00383030  0.80266906  0.61894769  1
  O  O17  1  0.22910280  0.58232586  0.44126004  1
  O  O18  1  0.26993556  0.05718537  0.91937080  1
  O  O19  1  0.44126004  0.22910280  0.58232586  1
  O  O20  1  0.19916427  0.37557561  0.99939506  1
  O  O21  1  0.58232586  0.44126004  0.22910280  1
  O  O22  1  0.08232586  0.72910280  0.94126004  1
  O  O23  1  0.37557561  0.99939506  0.19916427  1
  O  O24  1  0.61894769  0.00383030  0.80266906  1
  O  O25  1  0.91937080  0.26993556  0.05718537  1
  O  O26  1  0.41937080  0.55718537  0.76993556  1
  O  O27  1  0.80266906  0.61894769  0.00383030  1
  O  O28  1  0.55718537  0.76993556  0.41937080  1
  O  O29  1  0.72910280  0.94126004  0.08232586  1
  O  O30  1  0.76993556  0.41937080  0.55718537  1
  O  O31  1  0.99939506  0.19916427  0.37557561  1
  O  O32  1  0.49939506  0.87557561  0.69916427  1
  O  O33  1  0.94126004  0.08232586  0.72910280  1
  O  O34  1  0.69916427  0.49939506  0.87557561  1
  O  O35  1  0.87557561  0.69916427  0.49939506  1
