# generated using pymatgen
data_CsYbCoS3
_symmetry_space_group_name_H-M   'P 1'
_cell_length_a   3.98740776
_cell_length_b   8.06109573
_cell_length_c   10.83576376
_cell_angle_alpha   90.00000000
_cell_angle_beta   90.00000000
_cell_angle_gamma   104.31922717
_symmetry_Int_Tables_number   1
_chemical_formula_structural   CsYbCoS3
_chemical_formula_sum   'Cs2 Yb2 Co2 S6'
_cell_volume   337.47212747
_cell_formula_units_Z   2
loop_
 _symmetry_equiv_pos_site_id
 _symmetry_equiv_pos_as_xyz
  1  'x, y, z'
loop_
 _atom_site_type_symbol
 _atom_site_label
 _atom_site_symmetry_multiplicity
 _atom_site_fract_x
 _atom_site_fract_y
 _atom_site_fract_z
 _atom_site_occupancy
  Yb  Yb0  1  0.00000000  0.00000000  0.00000000  1
  Yb  Yb1  1  0.00000000  0.00000000  0.50000000  1
  Cs  Cs2  1  0.73570139  0.47140279  0.75000000  1
  Cs  Cs3  1  0.26429861  0.52859721  0.25000000  1
  Co  Co4  1  0.45904089  0.91808177  0.75000000  1
  Co  Co5  1  0.54095911  0.08191823  0.25000000  1
  S  S6  1  0.38560187  0.77120375  0.92118240  1
  S  S7  1  0.04301256  0.08602511  0.75000000  1
  S  S8  1  0.95698744  0.91397489  0.25000000  1
  S  S9  1  0.61439813  0.22879625  0.07881760  1
  S  S10  1  0.61439813  0.22879625  0.42118240  1
  S  S11  1  0.38560187  0.77120375  0.57881760  1
