# generated using pymatgen
data_Y2SeO2
_symmetry_space_group_name_H-M   'P 1'
_cell_length_a   3.85797765
_cell_length_b   3.85779125
_cell_length_c   6.85563919
_cell_angle_alpha   90.00015117
_cell_angle_beta   90.00000000
_cell_angle_gamma   120.00172598
_symmetry_Int_Tables_number   1
_chemical_formula_structural   Y2SeO2
_chemical_formula_sum   'Y2 Se1 O2'
_cell_volume   88.36279847
_cell_formula_units_Z   1
loop_
 _symmetry_equiv_pos_site_id
 _symmetry_equiv_pos_as_xyz
  1  'x, y, z'
loop_
 _atom_site_type_symbol
 _atom_site_label
 _atom_site_symmetry_multiplicity
 _atom_site_fract_x
 _atom_site_fract_y
 _atom_site_fract_z
 _atom_site_occupancy
  Y  Y0  1  0.33325605  0.66666858  0.29068198  1
  Y  Y1  1  0.66658747  0.33333142  0.70931802  1
  Se  Se2  1  0.00011853  0.00000000  0.00000000  1
  O  O3  1  0.33325037  0.66666480  0.62600443  1
  O  O4  1  0.66658757  0.33333520  0.37399557  1
