# generated using pymatgen
data_KFe2H(SeO3)4
_symmetry_space_group_name_H-M   'P 1'
_cell_length_a   10.21099162
_cell_length_b   5.37103050
_cell_length_c   10.78569330
_cell_angle_alpha   90.00000000
_cell_angle_beta   96.77445312
_cell_angle_gamma   90.00000000
_symmetry_Int_Tables_number   1
_chemical_formula_structural   KFe2H(SeO3)4
_chemical_formula_sum   'K2 Fe4 H2 Se8 O24'
_cell_volume   587.39576997
_cell_formula_units_Z   2
loop_
 _symmetry_equiv_pos_site_id
 _symmetry_equiv_pos_as_xyz
  1  'x, y, z'
loop_
 _atom_site_type_symbol
 _atom_site_label
 _atom_site_symmetry_multiplicity
 _atom_site_fract_x
 _atom_site_fract_y
 _atom_site_fract_z
 _atom_site_occupancy
  K  K0  1  0.50000000  0.57014374  0.00000000  1
  K  K1  1  0.00000000  0.49508999  0.50000000  1
  Fe  Fe2  1  0.25381948  0.00249496  0.74046726  1
  Fe  Fe3  1  0.74618052  0.00249496  0.25953274  1
  Fe  Fe4  1  0.74435789  0.51391792  0.75761164  1
  Fe  Fe5  1  0.25564211  0.51391792  0.24238836  1
  H  H6  1  0.98504990  0.18798183  0.73492243  1
  H  H7  1  0.01495010  0.18798183  0.26507757  1
  Se  Se8  1  0.77198004  0.01843164  0.93656289  1
  Se  Se9  1  0.22801996  0.01843164  0.06343711  1
  Se  Se10  1  0.73705286  0.00745590  0.57633739  1
  Se  Se11  1  0.26294714  0.00745590  0.42366261  1
  Se  Se12  1  0.40508869  0.49127353  0.64484031  1
  Se  Se13  1  0.59491131  0.49127353  0.35515969  1
  Se  Se14  1  0.09219222  0.53319528  0.84767628  1
  Se  Se15  1  0.90780778  0.53319528  0.15232372  1
  O  O16  1  0.69429188  0.29955830  0.90186616  1
  O  O17  1  0.30570812  0.29955830  0.09813384  1
  O  O18  1  0.28895202  0.93391300  0.92556023  1
  O  O19  1  0.71104798  0.93391300  0.07443977  1
  O  O20  1  0.67786492  0.81586075  0.83729607  1
  O  O21  1  0.32213508  0.81586075  0.16270393  1
  O  O22  1  0.80731459  0.72164413  0.61447391  1
  O  O23  1  0.19268541  0.72164413  0.38552609  1
  O  O24  1  0.19157553  0.08123962  0.55732154  1
  O  O25  1  0.80842447  0.08123962  0.44267846  1
  O  O26  1  0.83240490  0.20737102  0.68200002  1
  O  O27  1  0.16759510  0.20737102  0.31799998  1
  O  O28  1  0.57305111  0.44546196  0.65259992  1
  O  O29  1  0.42694889  0.44546196  0.34740008  1
  O  O30  1  0.35837206  0.32041584  0.76994985  1
  O  O31  1  0.64162794  0.32041584  0.23005015  1
  O  O32  1  0.40119952  0.79323808  0.70098939  1
  O  O33  1  0.59880048  0.79323808  0.29901061  1
  O  O34  1  0.92919536  0.56904634  0.86364645  1
  O  O35  1  0.07080464  0.56904634  0.13635355  1
  O  O36  1  0.11780136  0.71271427  0.72225335  1
  O  O37  1  0.88219864  0.71271427  0.27774665  1
  O  O38  1  0.08069416  0.22069876  0.77300113  1
  O  O39  1  0.91930584  0.22069876  0.22699887  1
