# generated using pymatgen
data_HfMg14Sb
_symmetry_space_group_name_H-M   'P 1'
_cell_length_a   6.35930074
_cell_length_b   6.35930022
_cell_length_c   10.41851024
_cell_angle_alpha   90.00000000
_cell_angle_beta   90.00000000
_cell_angle_gamma   120.00000271
_symmetry_Int_Tables_number   1
_chemical_formula_structural   HfMg14Sb
_chemical_formula_sum   'Hf1 Mg14 Sb1'
_cell_volume   364.88409640
_cell_formula_units_Z   1
loop_
 _symmetry_equiv_pos_site_id
 _symmetry_equiv_pos_as_xyz
  1  'x, y, z'
loop_
 _atom_site_type_symbol
 _atom_site_label
 _atom_site_symmetry_multiplicity
 _atom_site_fract_x
 _atom_site_fract_y
 _atom_site_fract_z
 _atom_site_occupancy
  Hf  Hf0  1  0.16666700  0.33333300  0.62500000  1
  Mg  Mg1  1  0.16404468  0.83202184  0.12500000  1
  Mg  Mg2  1  0.17166791  0.83583346  0.62500000  1
  Mg  Mg3  1  0.66797816  0.33595532  0.12500000  1
  Mg  Mg4  1  0.66416654  0.32833209  0.62500000  1
  Mg  Mg5  1  0.66797816  0.83202184  0.12500000  1
  Mg  Mg6  1  0.66416654  0.83583346  0.62500000  1
  Mg  Mg7  1  0.32960563  0.17039437  0.37909095  1
  Mg  Mg8  1  0.32960563  0.17039437  0.87090905  1
  Mg  Mg9  1  0.32960563  0.65921226  0.37909095  1
  Mg  Mg10  1  0.32960563  0.65921226  0.87090905  1
  Mg  Mg11  1  0.84078774  0.17039437  0.37909095  1
  Mg  Mg12  1  0.84078774  0.17039437  0.87090905  1
  Mg  Mg13  1  0.83333300  0.66666700  0.38018695  1
  Mg  Mg14  1  0.83333300  0.66666700  0.86981305  1
  Sb  Sb15  1  0.16666700  0.33333300  0.12500000  1
