# generated using pymatgen
data_K2MnH2OF5
_symmetry_space_group_name_H-M   'P 1'
_cell_length_a   6.07010158
_cell_length_b   8.37905713
_cell_length_c   6.13544081
_cell_angle_alpha   90.00000000
_cell_angle_beta   97.06626646
_cell_angle_gamma   90.00000000
_symmetry_Int_Tables_number   1
_chemical_formula_structural   K2MnH2OF5
_chemical_formula_sum   'K4 Mn2 H4 O2 F10'
_cell_volume   309.68888789
_cell_formula_units_Z   2
loop_
 _symmetry_equiv_pos_site_id
 _symmetry_equiv_pos_as_xyz
  1  'x, y, z'
loop_
 _atom_site_type_symbol
 _atom_site_label
 _atom_site_symmetry_multiplicity
 _atom_site_fract_x
 _atom_site_fract_y
 _atom_site_fract_z
 _atom_site_occupancy
  K  K0  1  0.08947390  0.25000000  0.51804189  1
  K  K1  1  0.91052610  0.75000000  0.48195811  1
  K  K2  1  0.50366986  0.25000000  0.09379403  1
  K  K3  1  0.49633014  0.75000000  0.90620597  1
  Mn  Mn4  1  0.00000000  0.50000000  0.00000000  1
  Mn  Mn5  1  0.00000000  0.00000000  0.00000000  1
  H  H6  1  0.63380001  0.34476229  0.62580654  1
  H  H7  1  0.36619999  0.84476229  0.37419346  1
  H  H8  1  0.36619999  0.65523771  0.37419346  1
  H  H9  1  0.63380001  0.15523771  0.62580654  1
  O  O10  1  0.56104021  0.25000000  0.55198050  1
  O  O11  1  0.43895979  0.75000000  0.44801950  1
  F  F12  1  0.20635990  0.49506750  0.26365729  1
  F  F13  1  0.79364010  0.99506750  0.73634271  1
  F  F14  1  0.79364010  0.50493250  0.73634271  1
  F  F15  1  0.20635990  0.00493250  0.26365729  1
  F  F16  1  0.23603990  0.47060261  0.83161128  1
  F  F17  1  0.76396010  0.97060261  0.16838872  1
  F  F18  1  0.76396010  0.52939739  0.16838872  1
  F  F19  1  0.23603990  0.02939739  0.83161128  1
  F  F20  1  0.95546754  0.25000000  0.02455204  1
  F  F21  1  0.04453246  0.75000000  0.97544796  1
