# generated using pymatgen
data_BaTi8O16
_symmetry_space_group_name_H-M   'P 1'
_cell_length_a   5.95756032
_cell_length_b   10.47242212
_cell_length_c   10.81789469
_cell_angle_alpha   93.51255511
_cell_angle_beta   105.98327436
_cell_angle_gamma   73.47459722
_symmetry_Int_Tables_number   1
_chemical_formula_structural   BaTi8O16
_chemical_formula_sum   'Ba2 Ti16 O32'
_cell_volume   621.93043911
_cell_formula_units_Z   2
loop_
 _symmetry_equiv_pos_site_id
 _symmetry_equiv_pos_as_xyz
  1  'x, y, z'
loop_
 _atom_site_type_symbol
 _atom_site_label
 _atom_site_symmetry_multiplicity
 _atom_site_fract_x
 _atom_site_fract_y
 _atom_site_fract_z
 _atom_site_occupancy
  Ba  Ba0  1  0.48065397  0.50000000  0.50000000  1
  Ba  Ba1  1  0.72933660  0.00000000  0.00000000  1
  Ti  Ti2  1  0.00863589  0.15061168  0.67059244  1
  Ti  Ti3  1  0.50344385  0.15512884  0.65942546  1
  Ti  Ti4  1  0.23982286  0.34999523  0.82808266  1
  Ti  Ti5  1  0.74790403  0.34357785  0.84159687  1
  Ti  Ti6  1  0.34000556  0.67816149  0.85576611  1
  Ti  Ti7  1  0.84309099  0.66261402  0.85041332  1
  Ti  Ti8  1  0.08761697  0.17828837  0.35529659  1
  Ti  Ti9  1  0.59517911  0.16299643  0.35094466  1
  Ti  Ti10  1  0.40723089  0.83700357  0.64905534  1
  Ti  Ti11  1  0.91060975  0.82171163  0.64470341  1
  Ti  Ti12  1  0.16239994  0.32183851  0.14423389  1
  Ti  Ti13  1  0.65529270  0.33738598  0.14958668  1
  Ti  Ti14  1  0.24988401  0.65642215  0.15840313  1
  Ti  Ti15  1  0.76173642  0.65000477  0.17191734  1
  Ti  Ti16  1  0.48865512  0.84938832  0.32940756  1
  Ti  Ti17  1  0.99914723  0.84487116  0.34057454  1
  O  O18  1  0.32509466  0.15026552  0.79315972  1
  O  O19  1  0.81779856  0.14944375  0.79571526  1
  O  O20  1  0.07260415  0.32447250  0.95887128  1
  O  O21  1  0.56768842  0.31670020  0.96030822  1
  O  O22  1  0.68141521  0.18352649  0.53965787  1
  O  O23  1  0.17830743  0.17572893  0.54109606  1
  O  O24  1  0.43093324  0.35095881  0.70415277  1
  O  O25  1  0.92470208  0.34936081  0.70720973  1
  O  O26  1  0.15944051  0.54073352  0.84839863  1
  O  O27  1  0.64765352  0.53975813  0.84379709  1
  O  O28  1  0.39889160  0.04073203  0.34799051  1
  O  O29  1  0.90701564  0.03996518  0.34405502  1
  O  O30  1  0.01516215  0.80228879  0.84002590  1
  O  O31  1  0.52223263  0.80612582  0.84110632  1
  O  O32  1  0.27284041  0.30301088  0.34039636  1
  O  O33  1  0.76239578  0.30589644  0.34082494  1
  O  O34  1  0.23545493  0.69698912  0.65960364  1
  O  O35  1  0.72746728  0.69410356  0.65917506  1
  O  O36  1  0.48725113  0.19387418  0.15889368  1
  O  O37  1  0.97742503  0.19771121  0.15997410  1
  O  O38  1  0.09163311  0.95926797  0.65200949  1
  O  O39  1  0.60292580  0.96003482  0.65594498  1
  O  O40  1  0.34361457  0.46024187  0.15620291  1
  O  O41  1  0.85177540  0.45926648  0.15160137  1
  O  O42  1  0.56685316  0.65063919  0.29279027  1
  O  O43  1  0.07773928  0.64904119  0.29584723  1
  O  O44  1  0.32528383  0.81647351  0.46034213  1
  O  O45  1  0.81294029  0.82427107  0.45890394  1
  O  O46  1  0.92407941  0.68329980  0.03969178  1
  O  O47  1  0.43820537  0.67552750  0.04112872  1
  O  O48  1  0.17152704  0.85055625  0.20428474  1
  O  O49  1  0.68219946  0.84973448  0.20684028  1
