# generated using pymatgen
data_K2Mg(H2N)4
_symmetry_space_group_name_H-M   'P 1'
_cell_length_a   7.49339588
_cell_length_b   7.22868256
_cell_length_c   13.63036634
_cell_angle_alpha   90.00000000
_cell_angle_beta   104.42050677
_cell_angle_gamma   90.00000000
_symmetry_Int_Tables_number   1
_chemical_formula_structural   K2Mg(H2N)4
_chemical_formula_sum   'K8 Mg4 H32 N16'
_cell_volume   715.05975314
_cell_formula_units_Z   4
loop_
 _symmetry_equiv_pos_site_id
 _symmetry_equiv_pos_as_xyz
  1  'x, y, z'
loop_
 _atom_site_type_symbol
 _atom_site_label
 _atom_site_symmetry_multiplicity
 _atom_site_fract_x
 _atom_site_fract_y
 _atom_site_fract_z
 _atom_site_occupancy
  K  K0  1  0.08618464  0.35330697  0.89783147  1
  K  K1  1  0.08618464  0.14669303  0.39783147  1
  K  K2  1  0.42702287  0.87413322  0.60879491  1
  K  K3  1  0.57297713  0.37413322  0.89120509  1
  K  K4  1  0.42702287  0.62586678  0.10879491  1
  K  K5  1  0.57297713  0.12586678  0.39120509  1
  K  K6  1  0.91381536  0.85330697  0.60216853  1
  K  K7  1  0.91381536  0.64669303  0.10216853  1
  Mg  Mg8  1  0.29392087  0.78710193  0.84819208  1
  Mg  Mg9  1  0.29392087  0.71289807  0.34819208  1
  Mg  Mg10  1  0.70607913  0.28710193  0.65180792  1
  Mg  Mg11  1  0.70607913  0.21289807  0.15180792  1
  H  H12  1  0.98528067  0.75539941  0.90519192  1
  H  H13  1  0.12845931  0.87235605  0.98880921  1
  H  H14  1  0.13349806  0.10564887  0.75219017  1
  H  H15  1  0.12107086  0.51176003  0.71031212  1
  H  H16  1  0.98528067  0.74460059  0.40519192  1
  H  H17  1  0.12845931  0.62764395  0.48880921  1
  H  H18  1  0.34532789  0.12266512  0.74951707  1
  H  H19  1  0.33324329  0.52156021  0.70912970  1
  H  H20  1  0.13349806  0.39435113  0.25219017  1
  H  H21  1  0.12107086  0.98823997  0.21031212  1
  H  H22  1  0.33773374  0.27778794  0.59643217  1
  H  H23  1  0.58337709  0.87258216  0.99080230  1
  H  H24  1  0.41662291  0.37258216  0.50919770  1
  H  H25  1  0.66226626  0.77778794  0.90356783  1
  H  H26  1  0.34532789  0.37733488  0.24951707  1
  H  H27  1  0.33324329  0.97843979  0.20912970  1
  H  H28  1  0.66675671  0.02156021  0.79087030  1
  H  H29  1  0.65467211  0.62266512  0.75048293  1
  H  H30  1  0.33773374  0.22221206  0.09643217  1
  H  H31  1  0.58337709  0.62741784  0.49080230  1
  H  H32  1  0.41662291  0.12741784  0.00919770  1
  H  H33  1  0.66226626  0.72221206  0.40356783  1
  H  H34  1  0.87892914  0.01176003  0.78968788  1
  H  H35  1  0.86650194  0.60564887  0.74780983  1
  H  H36  1  0.66675671  0.47843979  0.29087030  1
  H  H37  1  0.65467211  0.87733488  0.25048293  1
  H  H38  1  0.87154069  0.37235605  0.51119079  1
  H  H39  1  0.01471933  0.25539941  0.59480808  1
  H  H40  1  0.87892914  0.48823997  0.28968788  1
  H  H41  1  0.86650194  0.89435113  0.24780983  1
  H  H42  1  0.87154069  0.12764395  0.01119079  1
  H  H43  1  0.01471933  0.24460059  0.09480808  1
  N  N44  1  0.11991219  0.75192165  0.94767357  1
  N  N45  1  0.25383867  0.03182955  0.76743031  1
  N  N46  1  0.24641033  0.55563557  0.75377587  1
  N  N47  1  0.11991219  0.74807835  0.44767357  1
  N  N48  1  0.56231324  0.76044876  0.94264710  1
  N  N49  1  0.25383867  0.46817045  0.26743031  1
  N  N50  1  0.24641033  0.94436443  0.25377587  1
  N  N51  1  0.43768676  0.26044876  0.55735290  1
  N  N52  1  0.56231324  0.73955124  0.44264710  1
  N  N53  1  0.75358967  0.05563557  0.74622413  1
  N  N54  1  0.74616133  0.53182955  0.73256969  1
  N  N55  1  0.43768676  0.23955124  0.05735290  1
  N  N56  1  0.88008781  0.25192165  0.55232643  1
  N  N57  1  0.75358967  0.44436443  0.24622413  1
  N  N58  1  0.74616133  0.96817045  0.23256969  1
  N  N59  1  0.88008781  0.24807835  0.05232643  1
