# generated using pymatgen
data_Ca3Hf2Fe2SiO12
_symmetry_space_group_name_H-M   'P 1'
_cell_length_a   10.99890258
_cell_length_b   10.99890212
_cell_length_c   10.99890269
_cell_angle_alpha   110.34593143
_cell_angle_beta   109.03564160
_cell_angle_gamma   109.03564314
_symmetry_Int_Tables_number   1
_chemical_formula_structural   Ca3Hf2Fe2SiO12
_chemical_formula_sum   'Ca12 Hf8 Fe8 Si4 O48'
_cell_volume   1024.11828573
_cell_formula_units_Z   4
loop_
 _symmetry_equiv_pos_site_id
 _symmetry_equiv_pos_as_xyz
  1  'x, y, z'
loop_
 _atom_site_type_symbol
 _atom_site_label
 _atom_site_symmetry_multiplicity
 _atom_site_fract_x
 _atom_site_fract_y
 _atom_site_fract_z
 _atom_site_occupancy
  Ca  Ca0  1  0.12434300  0.37434300  0.75000000  1
  Ca  Ca1  1  0.25000000  0.87500000  0.62500000  1
  Ca  Ca2  1  0.12434300  0.25000000  0.37434300  1
  Ca  Ca3  1  0.37565700  0.75000000  0.12565700  1
  Ca  Ca4  1  0.62434300  0.87434300  0.75000000  1
  Ca  Ca5  1  0.25000000  0.37500000  0.12500000  1
  Ca  Ca6  1  0.75000000  0.62500000  0.87500000  1
  Ca  Ca7  1  0.37565700  0.12565700  0.25000000  1
  Ca  Ca8  1  0.62434300  0.25000000  0.87434300  1
  Ca  Ca9  1  0.87565700  0.75000000  0.62565700  1
  Ca  Ca10  1  0.75000000  0.12500000  0.37500000  1
  Ca  Ca11  1  0.87565700  0.62565700  0.25000000  1
  Hf  Hf12  1  0.00000000  0.50000000  0.50000000  1
  Hf  Hf13  1  0.00000000  0.50000000  0.00000000  1
  Hf  Hf14  1  0.00000000  0.00000000  0.50000000  1
  Hf  Hf15  1  0.00000000  0.00000000  0.00000000  1
  Hf  Hf16  1  0.50000000  0.50000000  0.50000000  1
  Hf  Hf17  1  0.50000000  0.50000000  0.00000000  1
  Hf  Hf18  1  0.50000000  0.00000000  0.50000000  1
  Hf  Hf19  1  0.50000000  0.00000000  0.00000000  1
  Fe  Fe20  1  0.12568124  0.75000000  0.87568124  1
  Fe  Fe21  1  0.12568124  0.87568124  0.25000000  1
  Fe  Fe22  1  0.37431876  0.62431876  0.75000000  1
  Fe  Fe23  1  0.37431876  0.25000000  0.62431876  1
  Fe  Fe24  1  0.62568124  0.75000000  0.37568124  1
  Fe  Fe25  1  0.62568124  0.37568124  0.25000000  1
  Fe  Fe26  1  0.87431876  0.12431876  0.75000000  1
  Fe  Fe27  1  0.87431876  0.25000000  0.12431876  1
  Si  Si28  1  0.25000000  0.62500000  0.37500000  1
  Si  Si29  1  0.25000000  0.12500000  0.87500000  1
  Si  Si30  1  0.75000000  0.87500000  0.12500000  1
  Si  Si31  1  0.75000000  0.37500000  0.62500000  1
  O  O32  1  0.11368950  0.00244949  0.70071242  1
  O  O33  1  0.12548193  0.59917341  0.92277583  1
  O  O34  1  0.03019805  0.32074295  0.90644632  1
  O  O35  1  0.08570337  0.70945510  0.67925705  1
  O  O36  1  0.08570337  0.87624827  0.40644632  1
  O  O37  1  0.11368950  0.61124001  0.41297708  1
  O  O38  1  0.17639757  0.47369148  0.59917341  1
  O  O39  1  0.41429663  0.82074295  0.79054490  1
  O  O40  1  0.37451807  0.57722417  0.90082659  1
  O  O41  1  0.30173706  0.29928758  0.91297708  1
  O  O42  1  0.32360243  0.92277583  0.29729390  1
  O  O43  1  0.03019805  0.20945510  0.12375173  1
  O  O44  1  0.17639757  0.20270610  0.57722417  1
  O  O45  1  0.19826294  0.58702292  0.20071242  1
  O  O46  1  0.38631050  0.79928758  0.49755051  1
  O  O47  1  0.32360243  0.90082659  0.02630852  1
  O  O48  1  0.30173706  0.50244949  0.38875999  1
  O  O49  1  0.12548193  0.02630852  0.20270610  1
  O  O50  1  0.38631050  0.08702292  0.88875999  1
  O  O51  1  0.53019805  0.62375173  0.70945510  1
  O  O52  1  0.53019805  0.40644632  0.82074295  1
  O  O53  1  0.37451807  0.29729390  0.47369148  1
  O  O54  1  0.58570337  0.90644632  0.37624827  1
  O  O55  1  0.19826294  0.11124001  0.99755051  1
  O  O56  1  0.41429663  0.09355368  0.62375173  1
  O  O57  1  0.80173706  0.88875999  0.00244949  1
  O  O58  1  0.62548193  0.70270610  0.52630852  1
  O  O59  1  0.46980195  0.59355368  0.17925705  1
  O  O60  1  0.46980195  0.37624827  0.29054490  1
  O  O61  1  0.61368950  0.91297708  0.11124001  1
  O  O62  1  0.87451807  0.97369148  0.79729390  1
  O  O63  1  0.69826294  0.49755051  0.61124001  1
  O  O64  1  0.67639757  0.09917341  0.97369148  1
  O  O65  1  0.61368950  0.20071242  0.50244949  1
  O  O66  1  0.80173706  0.41297708  0.79928758  1
  O  O67  1  0.82360243  0.79729390  0.42277583  1
  O  O68  1  0.96980195  0.79054490  0.87624827  1
  O  O69  1  0.67639757  0.07722417  0.70270610  1
  O  O70  1  0.69826294  0.70071242  0.08702292  1
  O  O71  1  0.62548193  0.42277583  0.09917341  1
  O  O72  1  0.58570337  0.17925705  0.20945510  1
  O  O73  1  0.82360243  0.52630852  0.40082659  1
  O  O74  1  0.88631050  0.38875999  0.58702292  1
  O  O75  1  0.91429663  0.12375173  0.59355368  1
  O  O76  1  0.91429663  0.29054490  0.32074295  1
  O  O77  1  0.96980195  0.67925705  0.09355368  1
  O  O78  1  0.87451807  0.40082659  0.07722417  1
  O  O79  1  0.88631050  0.99755051  0.29928758  1
