# generated using pymatgen
data_Zr6BI12
_symmetry_space_group_name_H-M   'P 1'
_cell_length_a   9.28257122
_cell_length_b   9.28257163
_cell_length_c   9.28257104
_cell_angle_alpha   107.04663102
_cell_angle_beta   107.04663709
_cell_angle_gamma   107.04663821
_symmetry_Int_Tables_number   1
_chemical_formula_structural   Zr6BI12
_chemical_formula_sum   'Zr6 B1 I12'
_cell_volume   665.26788083
_cell_formula_units_Z   1
loop_
 _symmetry_equiv_pos_site_id
 _symmetry_equiv_pos_as_xyz
  1  'x, y, z'
loop_
 _atom_site_type_symbol
 _atom_site_label
 _atom_site_symmetry_multiplicity
 _atom_site_fract_x
 _atom_site_fract_y
 _atom_site_fract_z
 _atom_site_occupancy
  Zr  Zr0  1  0.72737158  0.97230523  0.91025914  1
  Zr  Zr1  1  0.08974086  0.27262842  0.02769477  1
  Zr  Zr2  1  0.02769477  0.08974086  0.27262842  1
  Zr  Zr3  1  0.97230523  0.91025914  0.72737158  1
  Zr  Zr4  1  0.91025914  0.72737158  0.97230523  1
  Zr  Zr5  1  0.27262842  0.02769477  0.08974086  1
  B  B6  1  0.00000000  0.00000000  0.00000000  1
  I  I7  1  0.30738490  0.92202869  0.77556822  1
  I  I8  1  0.22443178  0.69261510  0.07797131  1
  I  I9  1  0.14480261  0.44284925  0.36875080  1
  I  I10  1  0.63124920  0.85519739  0.55715075  1
  I  I11  1  0.07797131  0.22443178  0.69261510  1
  I  I12  1  0.55715075  0.63124920  0.85519739  1
  I  I13  1  0.44284925  0.36875080  0.14480261  1
  I  I14  1  0.92202869  0.77556822  0.30738490  1
  I  I15  1  0.36875080  0.14480261  0.44284925  1
  I  I16  1  0.85519739  0.55715075  0.63124920  1
  I  I17  1  0.77556822  0.30738490  0.92202869  1
  I  I18  1  0.69261510  0.07797131  0.22443178  1
