# generated using pymatgen
data_AlH3NCl3
_symmetry_space_group_name_H-M   'P 1'
_cell_length_a   10.10941906
_cell_length_b   10.42195597
_cell_length_c   11.73543266
_cell_angle_alpha   90.00000000
_cell_angle_beta   90.00000000
_cell_angle_gamma   90.00000000
_symmetry_Int_Tables_number   1
_chemical_formula_structural   AlH3NCl3
_chemical_formula_sum   'Al8 H24 N8 Cl24'
_cell_volume   1236.44425004
_cell_formula_units_Z   8
loop_
 _symmetry_equiv_pos_site_id
 _symmetry_equiv_pos_as_xyz
  1  'x, y, z'
loop_
 _atom_site_type_symbol
 _atom_site_label
 _atom_site_symmetry_multiplicity
 _atom_site_fract_x
 _atom_site_fract_y
 _atom_site_fract_z
 _atom_site_occupancy
  Al  Al0  1  0.17735735  0.59784026  0.66966806  1
  Al  Al1  1  0.17735735  0.90215974  0.16966806  1
  Al  Al2  1  0.32264265  0.09784026  0.66966806  1
  Al  Al3  1  0.32264265  0.40215974  0.16966806  1
  Al  Al4  1  0.67735735  0.59784026  0.83033194  1
  Al  Al5  1  0.67735735  0.90215974  0.33033194  1
  Al  Al6  1  0.82264265  0.09784026  0.83033194  1
  Al  Al7  1  0.82264265  0.40215974  0.33033194  1
  H  H8  1  0.98654200  0.74887360  0.14410516  1
  H  H9  1  0.98654200  0.75112640  0.64410516  1
  H  H10  1  0.03659453  0.79566362  0.01695622  1
  H  H11  1  0.03659453  0.70433638  0.51695622  1
  H  H12  1  0.11891647  0.68366202  0.08647523  1
  H  H13  1  0.11891647  0.81633798  0.58647523  1
  H  H14  1  0.38108353  0.18366202  0.08647523  1
  H  H15  1  0.38108353  0.31633798  0.58647523  1
  H  H16  1  0.46340547  0.20433638  0.51695622  1
  H  H17  1  0.46340547  0.29566362  0.01695622  1
  H  H18  1  0.51345800  0.24887360  0.14410516  1
  H  H19  1  0.51345800  0.25112640  0.64410516  1
  H  H20  1  0.48654200  0.74887360  0.35589484  1
  H  H21  1  0.48654200  0.75112640  0.85589484  1
  H  H22  1  0.53659453  0.70433638  0.98304378  1
  H  H23  1  0.53659453  0.79566362  0.48304378  1
  H  H24  1  0.61891647  0.68366202  0.41352477  1
  H  H25  1  0.61891647  0.81633798  0.91352477  1
  H  H26  1  0.88108353  0.18366202  0.41352477  1
  H  H27  1  0.88108353  0.31633798  0.91352477  1
  H  H28  1  0.96340547  0.20433638  0.98304378  1
  H  H29  1  0.96340547  0.29566362  0.48304378  1
  H  H30  1  0.01345800  0.25112640  0.85589484  1
  H  H31  1  0.01345800  0.24887360  0.35589484  1
  N  N32  1  0.06943103  0.76952530  0.09658932  1
  N  N33  1  0.06943103  0.73047470  0.59658932  1
  N  N34  1  0.43056897  0.23047470  0.59658932  1
  N  N35  1  0.43056897  0.26952530  0.09658932  1
  N  N36  1  0.56943103  0.76952530  0.40341068  1
  N  N37  1  0.56943103  0.73047470  0.90341068  1
  N  N38  1  0.93056897  0.23047470  0.90341068  1
  N  N39  1  0.93056897  0.26952530  0.40341068  1
  Cl  Cl40  1  0.05382342  0.06952367  0.16871305  1
  Cl  Cl41  1  0.05382342  0.43047633  0.66871305  1
  Cl  Cl42  1  0.15037121  0.42644177  0.06662374  1
  Cl  Cl43  1  0.15037121  0.07355823  0.56662374  1
  Cl  Cl44  1  0.22168032  0.67476610  0.83407365  1
  Cl  Cl45  1  0.22168032  0.82523390  0.33407365  1
  Cl  Cl46  1  0.27831968  0.17476610  0.83407365  1
  Cl  Cl47  1  0.27831968  0.32523390  0.33407365  1
  Cl  Cl48  1  0.34962879  0.57355823  0.56662374  1
  Cl  Cl49  1  0.34962879  0.92644177  0.06662374  1
  Cl  Cl50  1  0.44617658  0.56952367  0.16871305  1
  Cl  Cl51  1  0.44617658  0.93047633  0.66871305  1
  Cl  Cl52  1  0.55382342  0.06952367  0.33128695  1
  Cl  Cl53  1  0.55382342  0.43047633  0.83128695  1
  Cl  Cl54  1  0.65037121  0.42644177  0.43337626  1
  Cl  Cl55  1  0.65037121  0.07355823  0.93337626  1
  Cl  Cl56  1  0.72168032  0.67476610  0.66592635  1
  Cl  Cl57  1  0.72168032  0.82523390  0.16592635  1
  Cl  Cl58  1  0.77831968  0.32523390  0.16592635  1
  Cl  Cl59  1  0.77831968  0.17476610  0.66592635  1
  Cl  Cl60  1  0.84962879  0.57355823  0.93337626  1
  Cl  Cl61  1  0.84962879  0.92644177  0.43337626  1
  Cl  Cl62  1  0.94617658  0.93047633  0.83128695  1
  Cl  Cl63  1  0.94617658  0.56952367  0.33128695  1
