# generated using pymatgen
data_MoH12Pd(NO)4
_symmetry_space_group_name_H-M   'P 1'
_cell_length_a   7.55335963
_cell_length_b   7.55335963
_cell_length_c   9.53451794
_cell_angle_alpha   113.33497270
_cell_angle_beta   113.33497270
_cell_angle_gamma   90.00000000
_symmetry_Int_Tables_number   1
_chemical_formula_structural   MoH12Pd(NO)4
_chemical_formula_sum   'Mo2 H24 Pd2 N8 O8'
_cell_volume   450.61373673
_cell_formula_units_Z   2
loop_
 _symmetry_equiv_pos_site_id
 _symmetry_equiv_pos_as_xyz
  1  'x, y, z'
loop_
 _atom_site_type_symbol
 _atom_site_label
 _atom_site_symmetry_multiplicity
 _atom_site_fract_x
 _atom_site_fract_y
 _atom_site_fract_z
 _atom_site_occupancy
  Mo  Mo0  1  0.62500000  0.37500000  0.25000000  1
  Mo  Mo1  1  0.37500000  0.62500000  0.75000000  1
  H  H2  1  0.75332224  0.80746655  0.11493310  1
  H  H3  1  0.80746655  0.75332224  0.61493310  1
  H  H4  1  0.80746655  0.36161086  0.61493310  1
  H  H5  1  0.36161086  0.80746655  0.11493310  1
  H  H6  1  0.24667776  0.19253345  0.88506690  1
  H  H7  1  0.19253345  0.24667776  0.38506690  1
  H  H8  1  0.19253345  0.63838914  0.38506690  1
  H  H9  1  0.63838914  0.19253345  0.88506690  1
  H  H10  1  0.81765703  0.00882521  0.29822302  1
  H  H11  1  0.81765703  0.78939781  0.29822302  1
  H  H12  1  0.00882521  0.81765703  0.79822302  1
  H  H13  1  0.00882521  0.48056599  0.79822302  1
  H  H14  1  0.48056599  0.00882521  0.29822302  1
  H  H15  1  0.48056599  0.78939781  0.29822302  1
  H  H16  1  0.78939781  0.81765703  0.79822302  1
  H  H17  1  0.78939781  0.48056599  0.79822302  1
  H  H18  1  0.18234297  0.99117479  0.70177698  1
  H  H19  1  0.18234297  0.21060219  0.70177698  1
  H  H20  1  0.99117479  0.18234297  0.20177698  1
  H  H21  1  0.99117479  0.51943401  0.20177698  1
  H  H22  1  0.51943401  0.99117479  0.70177698  1
  H  H23  1  0.51943401  0.21060219  0.70177698  1
  H  H24  1  0.21060219  0.18234297  0.20177698  1
  H  H25  1  0.21060219  0.51943401  0.20177698  1
  Pd  Pd26  1  0.12500000  0.87500000  0.25000000  1
  Pd  Pd27  1  0.87500000  0.12500000  0.75000000  1
  N  N28  1  0.84797694  0.87154178  0.24308356  1
  N  N29  1  0.87154178  0.84797694  0.74308356  1
  N  N30  1  0.87154178  0.39510662  0.74308356  1
  N  N31  1  0.39510662  0.87154178  0.24308356  1
  N  N32  1  0.15202306  0.12845822  0.75691644  1
  N  N33  1  0.12845822  0.15202306  0.25691644  1
  N  N34  1  0.12845822  0.60489338  0.25691644  1
  N  N35  1  0.60489338  0.12845822  0.75691644  1
  O  O36  1  0.68934371  0.24242664  0.37868741  1
  O  O37  1  0.68934371  0.63626077  0.37868741  1
  O  O38  1  0.24242664  0.68934371  0.87868741  1
  O  O39  1  0.63626077  0.68934371  0.87868741  1
  O  O40  1  0.31065629  0.75757336  0.62131259  1
  O  O41  1  0.31065629  0.36373923  0.62131259  1
  O  O42  1  0.75757336  0.31065629  0.12131259  1
  O  O43  1  0.36373923  0.31065629  0.12131259  1
