# generated using pymatgen
data_Fe6H12Pb(SO7)4
_symmetry_space_group_name_H-M   'P 1'
_cell_length_a   12.33334217
_cell_length_b   12.33334253
_cell_length_c   12.33334177
_cell_angle_alpha   34.82015684
_cell_angle_beta   34.82015451
_cell_angle_gamma   34.82015473
_symmetry_Int_Tables_number   1
_chemical_formula_structural   Fe6H12Pb(SO7)4
_chemical_formula_sum   'Fe6 H12 Pb1 S4 O28'
_cell_volume   545.98219923
_cell_formula_units_Z   1
loop_
 _symmetry_equiv_pos_site_id
 _symmetry_equiv_pos_as_xyz
  1  'x, y, z'
loop_
 _atom_site_type_symbol
 _atom_site_label
 _atom_site_symmetry_multiplicity
 _atom_site_fract_x
 _atom_site_fract_y
 _atom_site_fract_z
 _atom_site_occupancy
  Fe  Fe0  1  0.75247792  0.24668210  0.75247792  1
  Fe  Fe1  1  0.75247792  0.75247792  0.24668210  1
  Fe  Fe2  1  0.24668210  0.75247792  0.75247792  1
  Fe  Fe3  1  0.75331790  0.24752208  0.24752208  1
  Fe  Fe4  1  0.24752208  0.24752208  0.75331790  1
  Fe  Fe5  1  0.24752208  0.75331790  0.24752208  1
  H  H6  1  0.35779645  0.35779645  0.95527442  1
  H  H7  1  0.35779645  0.95527443  0.35779645  1
  H  H8  1  0.95527442  0.35779645  0.35779645  1
  H  H9  1  0.57741092  0.13698699  0.13698698  1
  H  H10  1  0.13698699  0.13698699  0.57741092  1
  H  H11  1  0.13698699  0.57741092  0.13698699  1
  H  H12  1  0.86301301  0.42258908  0.86301301  1
  H  H13  1  0.86301301  0.86301301  0.42258908  1
  H  H14  1  0.42258908  0.86301301  0.86301302  1
  H  H15  1  0.04472558  0.64220355  0.64220355  1
  H  H16  1  0.64220355  0.04472557  0.64220355  1
  H  H17  1  0.64220355  0.64220355  0.04472558  1
  Pb  Pb18  1  0.50000000  0.50000000  0.50000000  1
  S  S19  1  0.34747193  0.34747193  0.34747193  1
  S  S20  1  0.84471614  0.84471614  0.84471614  1
  S  S21  1  0.15528386  0.15528386  0.15528386  1
  S  S22  1  0.65252807  0.65252807  0.65252807  1
  O  O23  1  0.30511028  0.30511028  0.30511028  1
  O  O24  1  0.25075534  0.92003703  0.25075534  1
  O  O25  1  0.25075534  0.25075534  0.92003703  1
  O  O26  1  0.92003703  0.25075534  0.25075534  1
  O  O27  1  0.43989031  0.43989032  0.81347248  1
  O  O28  1  0.43989031  0.81347248  0.43989032  1
  O  O29  1  0.81347248  0.43989031  0.43989031  1
  O  O30  1  0.80223338  0.80223338  0.80223338  1
  O  O31  1  0.66462376  0.06290177  0.06290177  1
  O  O32  1  0.06290177  0.66462376  0.06290177  1
  O  O33  1  0.06290177  0.06290177  0.66462376  1
  O  O34  1  0.74862001  0.41733216  0.74862001  1
  O  O35  1  0.74862001  0.74862001  0.41733216  1
  O  O36  1  0.58266784  0.25137999  0.25137999  1
  O  O37  1  0.41733216  0.74862001  0.74862001  1
  O  O38  1  0.25137999  0.25137999  0.58266784  1
  O  O39  1  0.25137999  0.58266784  0.25137999  1
  O  O40  1  0.93709823  0.93709823  0.33537624  1
  O  O41  1  0.93709823  0.33537624  0.93709823  1
  O  O42  1  0.33537624  0.93709823  0.93709823  1
  O  O43  1  0.19776662  0.19776662  0.19776662  1
  O  O44  1  0.18652752  0.56010969  0.56010969  1
  O  O45  1  0.56010969  0.18652752  0.56010968  1
  O  O46  1  0.56010969  0.56010968  0.18652752  1
  O  O47  1  0.07996297  0.74924466  0.74924466  1
  O  O48  1  0.74924466  0.74924466  0.07996297  1
  O  O49  1  0.74924466  0.07996297  0.74924466  1
  O  O50  1  0.69488972  0.69488972  0.69488972  1
