# generated using pymatgen
data_Lu2Pt2O7
_symmetry_space_group_name_H-M   'P 1'
_cell_length_a   7.18266888
_cell_length_b   7.18266888
_cell_length_c   7.18266888
_cell_angle_alpha   60.00000000
_cell_angle_beta   90.00000000
_cell_angle_gamma   120.00000000
_symmetry_Int_Tables_number   1
_chemical_formula_structural   Lu2Pt2O7
_chemical_formula_sum   'Lu4 Pt4 O14'
_cell_volume   262.02488532
_cell_formula_units_Z   2
loop_
 _symmetry_equiv_pos_site_id
 _symmetry_equiv_pos_as_xyz
  1  'x, y, z'
loop_
 _atom_site_type_symbol
 _atom_site_label
 _atom_site_symmetry_multiplicity
 _atom_site_fract_x
 _atom_site_fract_y
 _atom_site_fract_z
 _atom_site_occupancy
  Lu  Lu0  1  0.50000000  0.00000000  0.00000000  1
  Lu  Lu1  1  0.50000000  0.00000000  0.50000000  1
  Lu  Lu2  1  0.50000000  0.50000000  0.50000000  1
  Lu  Lu3  1  0.00000000  0.50000000  0.50000000  1
  Pt  Pt4  1  0.00000000  0.00000000  0.00000000  1
  Pt  Pt5  1  0.50000000  0.50000000  0.00000000  1
  Pt  Pt6  1  0.00000000  0.00000000  0.50000000  1
  Pt  Pt7  1  0.00000000  0.50000000  0.00000000  1
  O  O8  1  0.90494169  0.25000000  0.34505831  1
  O  O9  1  0.65494169  0.30988239  0.09505831  1
  O  O10  1  0.65494169  0.75000000  0.09505831  1
  O  O11  1  0.34505831  0.25000000  0.34505831  1
  O  O12  1  0.62500000  0.25000000  0.62500000  1
  O  O13  1  0.90494169  0.25000000  0.90494169  1
  O  O14  1  0.90494169  0.80988239  0.34505831  1
  O  O15  1  0.09505831  0.75000000  0.09505831  1
  O  O16  1  0.09505831  0.19011761  0.65494169  1
  O  O17  1  0.65494169  0.75000000  0.65494169  1
  O  O18  1  0.37500000  0.75000000  0.37500000  1
  O  O19  1  0.34505831  0.25000000  0.90494169  1
  O  O20  1  0.34505831  0.69011761  0.90494169  1
  O  O21  1  0.09505831  0.75000000  0.65494169  1
