# generated using pymatgen
data_Na3GaP2H2O9
_symmetry_space_group_name_H-M   'P 1'
_cell_length_a   8.59792080
_cell_length_b   8.59792080
_cell_length_c   7.14522838
_cell_angle_alpha   84.03025905
_cell_angle_beta   95.96974095
_cell_angle_gamma   130.20340257
_symmetry_Int_Tables_number   1
_chemical_formula_structural   Na3GaP2H2O9
_chemical_formula_sum   'Na6 Ga2 P4 H4 O18'
_cell_volume   400.76043511
_cell_formula_units_Z   2
loop_
 _symmetry_equiv_pos_site_id
 _symmetry_equiv_pos_as_xyz
  1  'x, y, z'
loop_
 _atom_site_type_symbol
 _atom_site_label
 _atom_site_symmetry_multiplicity
 _atom_site_fract_x
 _atom_site_fract_y
 _atom_site_fract_z
 _atom_site_occupancy
  Na  Na0  1  0.23563304  0.23563304  0.00000000  1
  Na  Na1  1  0.76436696  0.76436696  0.00000000  1
  Na  Na2  1  0.38936965  0.61063035  0.29323772  1
  Na  Na3  1  0.61063035  0.38936965  0.70676228  1
  Na  Na4  1  0.00000000  0.50000000  0.50000000  1
  Na  Na5  1  0.50000000  0.00000000  0.50000000  1
  Ga  Ga6  1  0.00000000  0.50000000  0.00000000  1
  Ga  Ga7  1  0.50000000  0.00000000  0.00000000  1
  P  P8  1  0.62110353  0.37889647  0.22706093  1
  P  P9  1  0.37889647  0.62110353  0.77293907  1
  P  P10  1  0.88187169  0.11812831  0.29658077  1
  P  P11  1  0.11812831  0.88187169  0.70341923  1
  H  H12  1  0.94118908  0.05881092  0.60360538  1
  H  H13  1  0.05881092  0.94118908  0.39639462  1
  H  H14  1  0.81188820  0.18811180  0.82332134  1
  H  H15  1  0.18811180  0.81188820  0.17667866  1
  O  O16  1  0.52291209  0.47708791  0.21828559  1
  O  O17  1  0.47708791  0.52291209  0.78171441  1
  O  O18  1  0.66731199  0.33268801  0.42828457  1
  O  O19  1  0.33268801  0.66731199  0.57171543  1
  O  O20  1  0.82493566  0.52985372  0.11712418  1
  O  O21  1  0.47014628  0.17506434  0.11712418  1
  O  O22  1  0.17506434  0.47014628  0.88287582  1
  O  O23  1  0.52985372  0.82493566  0.88287582  1
  O  O24  1  0.00902617  0.34653854  0.23376199  1
  O  O25  1  0.65346146  0.99097383  0.23376199  1
  O  O26  1  0.99097383  0.65346146  0.76623801  1
  O  O27  1  0.34653854  0.00902617  0.76623801  1
  O  O28  1  0.97356243  0.02643757  0.23960830  1
  O  O29  1  0.02643757  0.97356243  0.76039170  1
  O  O30  1  0.88322950  0.11677050  0.52233043  1
  O  O31  1  0.11677050  0.88322950  0.47766957  1
  O  O32  1  0.75839629  0.24160371  0.88160702  1
  O  O33  1  0.24160371  0.75839629  0.11839298  1
