# generated using pymatgen
data_CaFeSn(PO4)3
_symmetry_space_group_name_H-M   'P 1'
_cell_length_a   8.96791811
_cell_length_b   8.96791789
_cell_length_c   8.96791787
_cell_angle_alpha   58.14976101
_cell_angle_beta   58.14976191
_cell_angle_gamma   58.14976147
_symmetry_Int_Tables_number   1
_chemical_formula_structural   CaFeSn(PO4)3
_chemical_formula_sum   'Ca2 Fe2 Sn2 P6 O24'
_cell_volume   488.36039077
_cell_formula_units_Z   2
loop_
 _symmetry_equiv_pos_site_id
 _symmetry_equiv_pos_as_xyz
  1  'x, y, z'
loop_
 _atom_site_type_symbol
 _atom_site_label
 _atom_site_symmetry_multiplicity
 _atom_site_fract_x
 _atom_site_fract_y
 _atom_site_fract_z
 _atom_site_occupancy
  Ca  Ca0  1  0.99719094  0.99719094  0.99719094  1
  Ca  Ca1  1  0.49719094  0.49719094  0.49719094  1
  Fe  Fe2  1  0.35226516  0.35226516  0.35226516  1
  Fe  Fe3  1  0.85226516  0.85226516  0.85226516  1
  Sn  Sn4  1  0.14757626  0.14757626  0.14757626  1
  Sn  Sn5  1  0.64757626  0.64757626  0.64757626  1
  P  P6  1  0.04514995  0.74822778  0.46044323  1
  P  P7  1  0.46044323  0.04514995  0.74822778  1
  P  P8  1  0.74822778  0.46044323  0.04514995  1
  P  P9  1  0.24822778  0.54514995  0.96044323  1
  P  P10  1  0.54514995  0.96044323  0.24822778  1
  P  P11  1  0.96044323  0.24822778  0.54514995  1
  O  O12  1  0.12179420  0.29171149  0.50834725  1
  O  O13  1  0.29171149  0.50834725  0.12179420  1
  O  O14  1  0.06426967  0.91775080  0.27064963  1
  O  O15  1  0.50834725  0.12179420  0.29171149  1
  O  O16  1  0.00834725  0.79171149  0.62179420  1
  O  O17  1  0.22952182  0.58010727  0.43811579  1
  O  O18  1  0.27064963  0.06426967  0.91775080  1
  O  O19  1  0.43811579  0.22952182  0.58010727  1
  O  O20  1  0.58010727  0.43811579  0.22952182  1
  O  O21  1  0.21147423  0.38348352  0.98192100  1
  O  O22  1  0.08010727  0.72952182  0.93811579  1
  O  O23  1  0.38348352  0.98192100  0.21147423  1
  O  O24  1  0.62179420  0.00834725  0.79171149  1
  O  O25  1  0.91775080  0.27064963  0.06426967  1
  O  O26  1  0.79171149  0.62179420  0.00834725  1
  O  O27  1  0.41775080  0.56426967  0.77064963  1
  O  O28  1  0.56426967  0.77064963  0.41775080  1
  O  O29  1  0.72952182  0.93811579  0.08010727  1
  O  O30  1  0.77064963  0.41775080  0.56426967  1
  O  O31  1  0.98192100  0.21147423  0.38348352  1
  O  O32  1  0.48192100  0.88348352  0.71147423  1
  O  O33  1  0.93811579  0.08010727  0.72952182  1
  O  O34  1  0.71147423  0.48192100  0.88348352  1
  O  O35  1  0.88348352  0.71147423  0.48192100  1
