# generated using pymatgen
data_Na2SnO3
_symmetry_space_group_name_H-M   'P 1'
_cell_length_a   5.61485289
_cell_length_b   5.61559208
_cell_length_c   11.20844588
_cell_angle_alpha   94.75169159
_cell_angle_beta   80.46225844
_cell_angle_gamma   119.99564470
_symmetry_Int_Tables_number   1
_chemical_formula_structural   Na2SnO3
_chemical_formula_sum   'Na8 Sn4 O12'
_cell_volume   301.84483445
_cell_formula_units_Z   4
loop_
 _symmetry_equiv_pos_site_id
 _symmetry_equiv_pos_as_xyz
  1  'x, y, z'
loop_
 _atom_site_type_symbol
 _atom_site_label
 _atom_site_symmetry_multiplicity
 _atom_site_fract_x
 _atom_site_fract_y
 _atom_site_fract_z
 _atom_site_occupancy
  Na  Na0  1  0.15691132  0.83938983  0.49893817  1
  Na  Na1  1  0.00000000  0.50000000  0.00000000  1
  Na  Na2  1  0.08416068  0.16832137  0.75000000  1
  Na  Na3  1  0.50000000  0.50000000  0.50000000  1
  Na  Na4  1  0.31752249  0.16061017  0.99893817  1
  Na  Na5  1  0.68247751  0.83938983  0.00106183  1
  Na  Na6  1  0.91583932  0.83167863  0.25000000  1
  Na  Na7  1  0.84308868  0.16061017  0.50106183  1
  Sn  Sn8  1  0.41768678  0.83537357  0.75000000  1
  Sn  Sn9  1  0.24975140  0.49950280  0.25000000  1
  Sn  Sn10  1  0.75024860  0.50049720  0.75000000  1
  Sn  Sn11  1  0.58231322  0.16462643  0.25000000  1
  O  O12  1  0.04856686  0.79998751  0.85703181  1
  O  O13  1  0.11874372  0.53818639  0.64436073  1
  O  O14  1  0.41944267  0.53818639  0.85563927  1
  O  O15  1  0.32005494  0.83208725  0.14375904  1
  O  O16  1  0.24858035  0.20001249  0.35703181  1
  O  O17  1  0.51203131  0.83208725  0.35624096  1
  O  O18  1  0.48796869  0.16791275  0.64375904  1
  O  O19  1  0.75141965  0.79998751  0.64296819  1
  O  O20  1  0.67994506  0.16791275  0.85624096  1
  O  O21  1  0.58055733  0.46181361  0.14436073  1
  O  O22  1  0.88125628  0.46181361  0.35563927  1
  O  O23  1  0.95143314  0.20001249  0.14296819  1
