# generated using pymatgen
data_Sr12Fe8O27
_symmetry_space_group_name_H-M   'P 1'
_cell_length_a   10.56314313
_cell_length_b   7.83485777
_cell_length_c   8.76169640
_cell_angle_alpha   63.42936416
_cell_angle_beta   75.59581891
_cell_angle_gamma   79.31133783
_symmetry_Int_Tables_number   1
_chemical_formula_structural   Sr12Fe8O27
_chemical_formula_sum   'Sr12 Fe8 O27'
_cell_volume   625.84386560
_cell_formula_units_Z   1
loop_
 _symmetry_equiv_pos_site_id
 _symmetry_equiv_pos_as_xyz
  1  'x, y, z'
loop_
 _atom_site_type_symbol
 _atom_site_label
 _atom_site_symmetry_multiplicity
 _atom_site_fract_x
 _atom_site_fract_y
 _atom_site_fract_z
 _atom_site_occupancy
  Sr  Sr0  1  0.63711524  0.91981489  0.83923742  1
  Sr  Sr1  1  0.63389947  0.42307044  0.83989373  1
  Sr  Sr2  1  0.00027992  0.87071995  0.74154377  1
  Sr  Sr3  1  0.36591307  0.82899432  0.65614481  1
  Sr  Sr4  1  0.99998316  0.38743632  0.74191426  1
  Sr  Sr5  1  0.36579449  0.33122046  0.65770754  1
  Sr  Sr6  1  0.63420551  0.66877954  0.34229246  1
  Sr  Sr7  1  0.63408693  0.17100568  0.34385519  1
  Sr  Sr8  1  0.00001684  0.61256368  0.25808574  1
  Sr  Sr9  1  0.36610053  0.57692956  0.16010627  1
  Sr  Sr10  1  0.36288476  0.08018511  0.16076258  1
  Sr  Sr11  1  0.99972008  0.12928005  0.25845623  1
  Fe  Fe12  1  0.21016950  0.97342771  0.94725130  1
  Fe  Fe13  1  0.19195990  0.47654754  0.95177148  1
  Fe  Fe14  1  0.80589710  0.77512402  0.54598066  1
  Fe  Fe15  1  0.80574418  0.27368203  0.55063763  1
  Fe  Fe16  1  0.19425582  0.72631797  0.44936237  1
  Fe  Fe17  1  0.19410290  0.22487598  0.45401934  1
  Fe  Fe18  1  0.80804010  0.52345246  0.04822852  1
  Fe  Fe19  1  0.78983050  0.02657229  0.05274870  1
  O  O20  1  0.39785242  0.94862317  0.89968509  1
  O  O21  1  0.17990934  0.73757251  0.95483344  1
  O  O22  1  0.80879703  0.64734247  0.79922346  1
  O  O23  1  0.38447265  0.45372863  0.90318360  1
  O  O24  1  0.18030812  0.21735875  0.95479386  1
  O  O25  1  0.82041429  0.14327687  0.80421298  1
  O  O26  1  0.61295710  0.80039640  0.58983177  1
  O  O27  1  0.19115693  0.60035284  0.70351629  1
  O  O28  1  0.80899215  0.52398679  0.54765634  1
  O  O29  1  0.61265975  0.29719171  0.60234764  1
  O  O30  1  0.80895601  0.02403519  0.54730297  1
  O  O31  1  0.17951595  0.09788600  0.71444154  1
  O  O32  1  0.82048405  0.90211400  0.28555846  1
  O  O33  1  0.99978731  0.74837014  0.50326058  1
  O  O34  1  0.19104399  0.97596481  0.45269703  1
  O  O35  1  0.38734025  0.70280829  0.39765236  1
  O  O36  1  0.80884307  0.39964716  0.29648371  1
  O  O37  1  0.38704290  0.19960360  0.41016823  1
  O  O38  1  0.00021269  0.25162986  0.49673942  1
  O  O39  1  0.19100785  0.47601321  0.45234366  1
  O  O40  1  0.82009066  0.26242749  0.04516656  1
  O  O41  1  0.61552735  0.54627137  0.09681640  1
  O  O42  1  0.17958571  0.85672313  0.19578702  1
  O  O43  1  0.81969188  0.78264125  0.04520614  1
  O  O44  1  0.60214758  0.05137683  0.10031491  1
  O  O45  1  0.19120297  0.35265753  0.20077654  1
  O  O46  1  0.00000000  0.50000000  0.00000000  1
