# generated using pymatgen
data_Te2MoW3(SeS2)2
_symmetry_space_group_name_H-M   'P 1'
_cell_length_a   3.30896811
_cell_length_b   3.30863135
_cell_length_c   40.41864403
_cell_angle_alpha   89.99261889
_cell_angle_beta   90.00000000
_cell_angle_gamma   120.00336692
_symmetry_Int_Tables_number   1
_chemical_formula_structural   Te2MoW3(SeS2)2
_chemical_formula_sum   'Te2 Mo1 W3 Se2 S4'
_cell_volume   383.21155224
_cell_formula_units_Z   1
loop_
 _symmetry_equiv_pos_site_id
 _symmetry_equiv_pos_as_xyz
  1  'x, y, z'
loop_
 _atom_site_type_symbol
 _atom_site_label
 _atom_site_symmetry_multiplicity
 _atom_site_fract_x
 _atom_site_fract_y
 _atom_site_fract_z
 _atom_site_occupancy
  Te  Te0  1  0.33321988  0.66644076  0.32767259  1
  Te  Te1  1  0.33333032  0.66666163  0.23247468  1
  Mo  Mo2  1  0.33337317  0.66674635  0.09288972  1
  W  W3  1  0.33330706  0.66661413  0.47207365  1
  W  W4  1  0.66662810  0.33325619  0.28005818  1
  W  W5  1  0.66668660  0.33337321  0.65786060  1
  Se  Se6  1  0.66670247  0.33340393  0.43033270  1
  Se  Se7  1  0.66651604  0.33303108  0.51379903  1
  S  S8  1  0.33331390  0.66662880  0.69577395  1
  S  S9  1  0.66680703  0.33361307  0.05516934  1
  S  S10  1  0.66670019  0.33339937  0.13067730  1
  S  S11  1  0.33341524  0.66683148  0.61996626  1
