# generated using pymatgen
data_NdAsO4
_symmetry_space_group_name_H-M   'P 1'
_cell_length_a   6.14508980
_cell_length_b   6.14508980
_cell_length_c   6.14508980
_cell_angle_alpha   106.42244321
_cell_angle_beta   106.41055069
_cell_angle_gamma   115.77032167
_symmetry_Int_Tables_number   1
_chemical_formula_structural   NdAsO4
_chemical_formula_sum   'Nd2 As2 O8'
_cell_volume   176.99663938
_cell_formula_units_Z   2
loop_
 _symmetry_equiv_pos_site_id
 _symmetry_equiv_pos_as_xyz
  1  'x, y, z'
loop_
 _atom_site_type_symbol
 _atom_site_label
 _atom_site_symmetry_multiplicity
 _atom_site_fract_x
 _atom_site_fract_y
 _atom_site_fract_z
 _atom_site_occupancy
  Nd  Nd0  1  0.87488752  0.12488752  0.75000000  1
  Nd  Nd1  1  0.12511248  0.87511248  0.25000000  1
  As  As2  1  0.62518972  0.37518972  0.25000000  1
  As  As3  1  0.37481028  0.62481028  0.75000000  1
  O  O4  1  0.79435044  0.36531045  0.07096001  1
  O  O5  1  0.27607843  0.20524630  0.07083112  1
  O  O6  1  0.63441518  0.20524630  0.42916888  1
  O  O7  1  0.79435044  0.72339043  0.42903999  1
  O  O8  1  0.20564956  0.27660957  0.57096001  1
  O  O9  1  0.72392157  0.79475370  0.92916888  1
  O  O10  1  0.36558482  0.79475370  0.57083112  1
  O  O11  1  0.20564956  0.63468955  0.92903999  1
