# generated using pymatgen
data_Fe4As10PbO22
_symmetry_space_group_name_H-M   'P 1'
_cell_length_a   10.58216793
_cell_length_b   10.07676643
_cell_length_c   12.17739483
_cell_angle_alpha   66.03920880
_cell_angle_beta   97.49618948
_cell_angle_gamma   99.78056684
_symmetry_Int_Tables_number   1
_chemical_formula_structural   Fe4As10PbO22
_chemical_formula_sum   'Fe8 As20 Pb2 O44'
_cell_volume   1166.64807205
_cell_formula_units_Z   2
loop_
 _symmetry_equiv_pos_site_id
 _symmetry_equiv_pos_as_xyz
  1  'x, y, z'
loop_
 _atom_site_type_symbol
 _atom_site_label
 _atom_site_symmetry_multiplicity
 _atom_site_fract_x
 _atom_site_fract_y
 _atom_site_fract_z
 _atom_site_occupancy
  Fe  Fe0  1  0.51516852  0.21701379  0.25890579  1
  Fe  Fe1  1  0.48483148  0.78298621  0.74109421  1
  Fe  Fe2  1  0.74956399  0.66864024  0.83541577  1
  Fe  Fe3  1  0.25043601  0.33135976  0.16458423  1
  Fe  Fe4  1  0.98129354  0.24417632  0.27225470  1
  Fe  Fe5  1  0.01870646  0.75582368  0.72774530  1
  Fe  Fe6  1  0.74822552  0.39989048  0.09293272  1
  Fe  Fe7  1  0.25177448  0.60010952  0.90706728  1
  As  As8  1  0.82888074  0.45830234  0.69688557  1
  As  As9  1  0.17111926  0.54169766  0.30311443  1
  As  As10  1  0.76109406  0.37838975  0.37472474  1
  As  As11  1  0.23890594  0.62161025  0.62527526  1
  As  As12  1  0.56246363  0.59341574  0.59988410  1
  As  As13  1  0.43753637  0.40658426  0.40011590  1
  As  As14  1  0.50952848  0.60020399  0.12004830  1
  As  As15  1  0.49047152  0.39979601  0.87995170  1
  As  As16  1  0.96803792  0.71131930  0.47436130  1
  As  As17  1  0.03196208  0.28868070  0.52563870  1
  As  As18  1  0.54146089  0.13369699  0.68021745  1
  As  As19  1  0.45853911  0.86630301  0.31978255  1
  As  As20  1  0.94385871  0.99282458  0.82539627  1
  As  As21  1  0.05614129  0.00717542  0.17460373  1
  As  As22  1  0.66665279  0.92433276  0.93239902  1
  As  As23  1  0.33334721  0.07566724  0.06760098  1
  As  As24  1  0.99659979  0.32018553  0.96269935  1
  As  As25  1  0.00340021  0.67981447  0.03730065  1
  As  As26  1  0.73135627  0.03266186  0.20602239  1
  As  As27  1  0.26864373  0.96733814  0.79397761  1
  Pb  Pb28  1  0.75404477  0.99390017  0.51074322  1
  Pb  Pb29  1  0.24595523  0.00609983  0.48925678  1
  O  O30  1  0.86896629  0.58784999  0.76912119  1
  O  O31  1  0.13103371  0.41215001  0.23087881  1
  O  O32  1  0.64987488  0.19460525  0.16384545  1
  O  O33  1  0.35012512  0.80539475  0.83615455  1
  O  O34  1  0.84257122  0.60300372  0.00171158  1
  O  O35  1  0.15742878  0.39699628  0.99828842  1
  O  O36  1  0.63145307  0.78222288  0.87181945  1
  O  O37  1  0.36854693  0.21777712  0.12818055  1
  O  O38  1  0.88192612  0.85450195  0.76353193  1
  O  O39  1  0.11807388  0.14549805  0.23646807  1
  O  O40  1  0.90829058  0.30481879  0.08643509  1
  O  O41  1  0.09170942  0.69518121  0.91356491  1
  O  O42  1  0.59015753  0.43953541  0.15955900  1
  O  O43  1  0.40984247  0.56046459  0.84044100  1
  O  O44  1  0.65248844  0.46443208  0.92368268  1
  O  O45  1  0.34751156  0.53556792  0.07631732  1
  O  O46  1  0.62362040  0.70880231  0.68290397  1
  O  O47  1  0.37637960  0.29119769  0.31709603  1
  O  O48  1  0.79303499  0.04647528  0.83396023  1
  O  O49  1  0.20696501  0.95352472  0.16603977  1
  O  O50  1  0.85324009  0.06469846  0.31216249  1
  O  O51  1  0.14675991  0.93530154  0.68783751  1
  O  O52  1  0.55862791  0.98540615  0.64365357  1
  O  O53  1  0.44137209  0.01459385  0.35634643  1
  O  O54  1  0.71354520  0.55543046  0.57418819  1
  O  O55  1  0.28645480  0.44456954  0.42581181  1
  O  O56  1  0.63689057  0.89607552  0.33258546  1
  O  O57  1  0.36310943  0.10392448  0.66741454  1
  O  O58  1  0.95477702  0.81792408  0.55640961  1
  O  O59  1  0.04522298  0.18207592  0.44359039  1
  O  O60  1  0.95785611  0.52424588  0.59742206  1
  O  O61  1  0.04214389  0.47575412  0.40257794  1
  O  O62  1  0.54738968  0.04301337  0.84814785  1
  O  O63  1  0.45261032  0.95698663  0.15185215  1
  O  O64  1  0.51991375  0.42252817  0.72782084  1
  O  O65  1  0.48008625  0.57747183  0.27217916  1
  O  O66  1  0.84609750  0.37475943  0.25490875  1
  O  O67  1  0.15390250  0.62524057  0.74509125  1
  O  O68  1  0.85418768  0.26221919  0.51176418  1
  O  O69  1  0.14581232  0.73778081  0.48823582  1
  O  O70  1  0.64203947  0.22190064  0.39427748  1
  O  O71  1  0.35796053  0.77809936  0.60572252  1
  O  O72  1  0.96726878  0.86706113  0.98275356  1
  O  O73  1  0.03273122  0.13293887  0.01724644  1
