# generated using pymatgen
data_BaCaP2(HO4)2
_symmetry_space_group_name_H-M   'P 1'
_cell_length_a   9.66133312
_cell_length_b   8.03805952
_cell_length_c   9.97688787
_cell_angle_alpha   90.00000000
_cell_angle_beta   115.46858029
_cell_angle_gamma   90.00000000
_symmetry_Int_Tables_number   1
_chemical_formula_structural   BaCaP2(HO4)2
_chemical_formula_sum   'Ba4 Ca4 P8 H8 O32'
_cell_volume   699.49582935
_cell_formula_units_Z   4
loop_
 _symmetry_equiv_pos_site_id
 _symmetry_equiv_pos_as_xyz
  1  'x, y, z'
loop_
 _atom_site_type_symbol
 _atom_site_label
 _atom_site_symmetry_multiplicity
 _atom_site_fract_x
 _atom_site_fract_y
 _atom_site_fract_z
 _atom_site_occupancy
  Ba  Ba0  1  0.55152368  0.35446778  0.22662814  1
  Ba  Ba1  1  0.94847632  0.85446778  0.77337186  1
  Ba  Ba2  1  0.44847632  0.64553222  0.77337186  1
  Ba  Ba3  1  0.05152368  0.14553222  0.22662814  1
  Ca  Ca4  1  0.78937893  0.35831654  0.72553894  1
  Ca  Ca5  1  0.71062107  0.85831654  0.27446106  1
  Ca  Ca6  1  0.21062107  0.64168346  0.27446106  1
  Ca  Ca7  1  0.28937893  0.14168346  0.72553894  1
  P  P8  1  0.92576960  0.23740263  0.50101901  1
  P  P9  1  0.57423040  0.73740263  0.49898099  1
  P  P10  1  0.07423040  0.76259737  0.49898099  1
  P  P11  1  0.42576960  0.26259737  0.50101901  1
  P  P12  1  0.16586657  0.43729599  0.92668300  1
  P  P13  1  0.33413343  0.93729599  0.07331700  1
  P  P14  1  0.83413343  0.56270401  0.07331700  1
  P  P15  1  0.66586657  0.06270401  0.92668300  1
  H  H16  1  0.87154043  0.52135666  0.48412989  1
  H  H17  1  0.62845957  0.02135666  0.51587011  1
  H  H18  1  0.12845957  0.47864334  0.51587011  1
  H  H19  1  0.37154043  0.97864334  0.48412989  1
  H  H20  1  0.66173765  0.33177006  0.95260031  1
  H  H21  1  0.83826235  0.83177006  0.04739969  1
  H  H22  1  0.33826235  0.66822994  0.04739969  1
  H  H23  1  0.16173765  0.16822994  0.95260031  1
  O  O24  1  0.55989681  0.66056213  0.35305255  1
  O  O25  1  0.94010319  0.16056213  0.64694745  1
  O  O26  1  0.44010319  0.33943787  0.64694745  1
  O  O27  1  0.05989681  0.83943787  0.35305255  1
  O  O28  1  0.33220328  0.36540314  0.36118707  1
  O  O29  1  0.16779672  0.86540314  0.63881293  1
  O  O30  1  0.66779672  0.63459686  0.63881293  1
  O  O31  1  0.83220328  0.13459686  0.36118707  1
  O  O32  1  0.58348377  0.21333649  0.50867894  1
  O  O33  1  0.91651623  0.71333649  0.49132106  1
  O  O34  1  0.41651623  0.78666351  0.49132106  1
  O  O35  1  0.08348377  0.28666351  0.50867894  1
  O  O36  1  0.82611327  0.40605393  0.48326452  1
  O  O37  1  0.67388673  0.90605393  0.51673548  1
  O  O38  1  0.17388673  0.59394607  0.51673548  1
  O  O39  1  0.32611327  0.09394607  0.48326452  1
  O  O40  1  0.48002109  0.02798741  0.17820224  1
  O  O41  1  0.01997891  0.52798741  0.82179776  1
  O  O42  1  0.51997891  0.97201259  0.82179776  1
  O  O43  1  0.98002109  0.47201259  0.17820224  1
  O  O44  1  0.27622521  0.39145780  0.85760873  1
  O  O45  1  0.22377479  0.89145780  0.14239127  1
  O  O46  1  0.72377479  0.60854220  0.14239127  1
  O  O47  1  0.77622521  0.10854220  0.85760873  1
  O  O48  1  0.25842535  0.53520489  0.07352786  1
  O  O49  1  0.24157465  0.03520489  0.92647214  1
  O  O50  1  0.74157465  0.46479511  0.92647214  1
  O  O51  1  0.75842535  0.96479511  0.07352786  1
  O  O52  1  0.60930616  0.22862196  0.97802456  1
  O  O53  1  0.89069384  0.72862196  0.02197544  1
  O  O54  1  0.39069384  0.77137804  0.02197544  1
  O  O55  1  0.10930616  0.27137804  0.97802456  1
