# generated using pymatgen
data_Cs2WO4
_symmetry_space_group_name_H-M   'P 1'
_cell_length_a   6.70126959
_cell_length_b   7.62815346
_cell_length_c   8.44223952
_cell_angle_alpha   66.74720939
_cell_angle_beta   90.00000000
_cell_angle_gamma   63.94422638
_symmetry_Int_Tables_number   1
_chemical_formula_structural   Cs2WO4
_chemical_formula_sum   'Cs4 W2 O8'
_cell_volume   348.25154836
_cell_formula_units_Z   2
loop_
 _symmetry_equiv_pos_site_id
 _symmetry_equiv_pos_as_xyz
  1  'x, y, z'
loop_
 _atom_site_type_symbol
 _atom_site_label
 _atom_site_symmetry_multiplicity
 _atom_site_fract_x
 _atom_site_fract_y
 _atom_site_fract_z
 _atom_site_occupancy
  Cs  Cs0  1  0.51288607  0.97422886  0.23999740  1
  Cs  Cs1  1  0.15623941  0.68752117  0.74249610  1
  Cs  Cs2  1  0.84376059  0.31247883  0.25750390  1
  Cs  Cs3  1  0.48711393  0.02577114  0.76000260  1
  W  W4  1  0.17478477  0.65043045  0.22156984  1
  W  W5  1  0.82521523  0.34956955  0.77843016  1
  O  O6  1  0.09508408  0.80983183  0.34653758  1
  O  O7  1  0.67971924  0.64056152  0.63286717  1
  O  O8  1  0.07910816  0.28762360  0.91543011  1
  O  O9  1  0.63326825  0.28762360  0.91543011  1
  O  O10  1  0.92089184  0.71237640  0.08456989  1
  O  O11  1  0.36673175  0.71237640  0.08456989  1
  O  O12  1  0.32028076  0.35943848  0.36713283  1
  O  O13  1  0.90491592  0.19016817  0.65346242  1
