# generated using pymatgen
data_Li2Fe12P7
_symmetry_space_group_name_H-M   'P 1'
_cell_length_a   8.87502665
_cell_length_b   8.86606974
_cell_length_c   3.55244579
_cell_angle_alpha   90.00000000
_cell_angle_beta   90.00000000
_cell_angle_gamma   119.89708824
_symmetry_Int_Tables_number   1
_chemical_formula_structural   Li2Fe12P7
_chemical_formula_sum   'Li2 Fe12 P7'
_cell_volume   242.33064220
_cell_formula_units_Z   1
loop_
 _symmetry_equiv_pos_site_id
 _symmetry_equiv_pos_as_xyz
  1  'x, y, z'
loop_
 _atom_site_type_symbol
 _atom_site_label
 _atom_site_symmetry_multiplicity
 _atom_site_fract_x
 _atom_site_fract_y
 _atom_site_fract_z
 _atom_site_occupancy
  Li  Li0  1  0.33306709  0.66646525  0.00000000  1
  Li  Li1  1  0.66693189  0.33356897  0.50000000  1
  Fe  Fe2  1  0.11582745  0.83944674  0.00000000  1
  Fe  Fe3  1  0.04251279  0.61007032  0.50000000  1
  Fe  Fe4  1  0.16064165  0.27650167  0.00000000  1
  Fe  Fe5  1  0.56759114  0.95731456  0.50000000  1
  Fe  Fe6  1  0.38950018  0.43215737  0.50000000  1
  Fe  Fe7  1  0.22003896  0.09394864  0.50000000  1
  Fe  Fe8  1  0.72345637  0.88416329  0.00000000  1
  Fe  Fe9  1  0.61739571  0.56816204  0.00000000  1
  Fe  Fe10  1  0.43206199  0.04913905  0.00000000  1
  Fe  Fe11  1  0.87398597  0.78012119  0.50000000  1
  Fe  Fe12  1  0.95100911  0.38297235  0.00000000  1
  Fe  Fe13  1  0.90595222  0.12611836  0.50000000  1
  P  P14  1  0.28499059  0.87825399  0.50000000  1
  P  P15  1  0.12135546  0.40666957  0.50000000  1
  P  P16  1  -0.00010302  0.99980633  0.00000000  1
  P  P17  1  0.59354159  0.71511408  0.50000000  1
  P  P18  1  0.41416124  0.28638663  0.00000000  1
  P  P19  1  0.87221373  0.58562448  0.00000000  1
  P  P20  1  0.71386690  0.12799412  0.00000000  1
