# generated using pymatgen
data_Na3YH6(CO4)3
_symmetry_space_group_name_H-M   'P 1'
_cell_length_a   17.43962884
_cell_length_b   10.21030545
_cell_length_c   5.96381910
_cell_angle_alpha   90.00000000
_cell_angle_beta   90.00000000
_cell_angle_gamma   90.00000000
_symmetry_Int_Tables_number   1
_chemical_formula_structural   Na3YH6(CO4)3
_chemical_formula_sum   'Na12 Y4 H24 C12 O48'
_cell_volume   1061.94111083
_cell_formula_units_Z   4
loop_
 _symmetry_equiv_pos_site_id
 _symmetry_equiv_pos_as_xyz
  1  'x, y, z'
loop_
 _atom_site_type_symbol
 _atom_site_label
 _atom_site_symmetry_multiplicity
 _atom_site_fract_x
 _atom_site_fract_y
 _atom_site_fract_z
 _atom_site_occupancy
  Na  Na0  1  0.95104506  0.12773295  0.91359942  1
  Na  Na1  1  0.04895494  0.87226705  0.41359942  1
  Na  Na2  1  0.54895494  0.62773295  0.41359942  1
  Na  Na3  1  0.45104506  0.37226705  0.91359942  1
  Na  Na4  1  0.86755318  0.35841905  0.40675644  1
  Na  Na5  1  0.13244682  0.64158095  0.90675644  1
  Na  Na6  1  0.63244682  0.85841905  0.90675644  1
  Na  Na7  1  0.36755318  0.14158095  0.40675644  1
  Na  Na8  1  0.58209945  0.01480016  0.41655393  1
  Na  Na9  1  0.41790055  0.98519984  0.91655393  1
  Na  Na10  1  0.91790055  0.51480016  0.91655393  1
  Na  Na11  1  0.08209945  0.48519984  0.41655393  1
  Y  Y12  1  0.66128011  0.32122513  0.68528433  1
  Y  Y13  1  0.33871989  0.67877487  0.18528433  1
  Y  Y14  1  0.83871989  0.82122513  0.18528433  1
  Y  Y15  1  0.16128011  0.17877487  0.68528433  1
  H  H16  1  0.51076195  0.30894390  0.44756969  1
  H  H17  1  0.48923805  0.69105610  0.94756969  1
  H  H18  1  0.98923805  0.80894390  0.94756969  1
  H  H19  1  0.01076195  0.19105610  0.44756969  1
  H  H20  1  0.56870176  0.27281896  0.24333286  1
  H  H21  1  0.43129824  0.72718104  0.74333286  1
  H  H22  1  0.93129824  0.77281896  0.74333286  1
  H  H23  1  0.06870176  0.22718104  0.24333286  1
  H  H24  1  0.73406734  0.21309880  0.23635004  1
  H  H25  1  0.26593266  0.78690120  0.73635004  1
  H  H26  1  0.76593266  0.71309880  0.73635004  1
  H  H27  1  0.23406734  0.28690120  0.23635004  1
  H  H28  1  0.76100742  0.11802406  0.43463065  1
  H  H29  1  0.23899258  0.88197594  0.93463065  1
  H  H30  1  0.73899258  0.61802406  0.93463065  1
  H  H31  1  0.26100742  0.38197594  0.43463065  1
  H  H32  1  0.68208416  0.47847188  0.23020090  1
  H  H33  1  0.31791584  0.52152812  0.73020090  1
  H  H34  1  0.81791584  0.97847188  0.73020090  1
  H  H35  1  0.18208416  0.02152812  0.23020090  1
  H  H36  1  0.72872431  0.55180291  0.42032526  1
  H  H37  1  0.27127569  0.44819709  0.92032526  1
  H  H38  1  0.77127569  0.05180291  0.92032526  1
  H  H39  1  0.22872431  0.94819709  0.42032526  1
  C  C40  1  0.90180218  0.05049936  0.40825725  1
  C  C41  1  0.09819782  0.94950064  0.90825725  1
  C  C42  1  0.59819782  0.55049936  0.90825725  1
  C  C43  1  0.40180218  0.44950064  0.40825725  1
  C  C44  1  0.80487012  0.30415846  0.91178907  1
  C  C45  1  0.19512988  0.69584154  0.41178907  1
  C  C46  1  0.69512988  0.80415846  0.41178907  1
  C  C47  1  0.30487012  0.19584154  0.91178907  1
  C  C48  1  0.57900475  0.12046002  0.92211067  1
  C  C49  1  0.42099525  0.87953998  0.42211067  1
  C  C50  1  0.92099525  0.62046002  0.42211067  1
  C  C51  1  0.07900475  0.37953998  0.92211067  1
  O  O52  1  0.74469001  0.23124283  0.96509278  1
  O  O53  1  0.25530999  0.76875717  0.46509278  1
  O  O54  1  0.75530999  0.73124283  0.46509278  1
  O  O55  1  0.24469001  0.26875717  0.96509278  1
  O  O56  1  0.54665397  0.03053791  0.03821518  1
  O  O57  1  0.45334603  0.96946209  0.53821518  1
  O  O58  1  0.95334603  0.53053791  0.53821518  1
  O  O59  1  0.04665397  0.46946209  0.03821518  1
  O  O60  1  0.56851968  0.24634748  0.96386981  1
  O  O61  1  0.43148032  0.75365252  0.46386981  1
  O  O62  1  0.93148032  0.74634748  0.46386981  1
  O  O63  1  0.06851968  0.25365252  0.96386981  1
  O  O64  1  0.62504591  0.09343858  0.75688689  1
  O  O65  1  0.37495409  0.90656142  0.25688689  1
  O  O66  1  0.87495409  0.59343858  0.25688689  1
  O  O67  1  0.12504591  0.40656142  0.75688689  1
  O  O68  1  0.66462903  0.49635431  0.95997792  1
  O  O69  1  0.33537097  0.50364569  0.45997792  1
  O  O70  1  0.83537097  0.99635431  0.45997792  1
  O  O71  1  0.16462903  0.00364569  0.95997792  1
  O  O72  1  0.79632493  0.37914455  0.73764062  1
  O  O73  1  0.20367507  0.62085545  0.23764062  1
  O  O74  1  0.70367507  0.87914455  0.23764062  1
  O  O75  1  0.29632493  0.12085545  0.73764062  1
  O  O76  1  0.86669153  0.30027214  0.02607979  1
  O  O77  1  0.13330847  0.69972786  0.52607979  1
  O  O78  1  0.63330847  0.80027214  0.52607979  1
  O  O79  1  0.36669153  0.19972786  0.02607979  1
  O  O80  1  0.92620481  0.14999485  0.51791817  1
  O  O81  1  0.07379519  0.85000515  0.01791817  1
  O  O82  1  0.57379519  0.64999485  0.01791817  1
  O  O83  1  0.42620481  0.35000515  0.51791817  1
  O  O84  1  0.93902994  0.99741835  0.24294256  1
  O  O85  1  0.06097006  0.00258165  0.74294256  1
  O  O86  1  0.56097006  0.49741835  0.74294256  1
  O  O87  1  0.43902994  0.50258165  0.24294256  1
  O  O88  1  0.56482144  0.27794746  0.41127237  1
  O  O89  1  0.43517856  0.72205254  0.91127237  1
  O  O90  1  0.93517856  0.77794746  0.91127237  1
  O  O91  1  0.06482144  0.22205254  0.41127237  1
  O  O92  1  0.72797083  0.19449653  0.40186135  1
  O  O93  1  0.27202917  0.80550347  0.90186135  1
  O  O94  1  0.77202917  0.69449653  0.90186135  1
  O  O95  1  0.22797083  0.30550347  0.40186135  1
  O  O96  1  0.69539932  0.47520563  0.39388206  1
  O  O97  1  0.30460068  0.52479437  0.89388206  1
  O  O98  1  0.80460068  0.97520563  0.89388206  1
  O  O99  1  0.19539932  0.02479437  0.39388206  1
