# generated using pymatgen
data_Bi2(SO4)3
_symmetry_space_group_name_H-M   'P 1'
_cell_length_a   9.14581389
_cell_length_b   9.76973925
_cell_length_c   9.14581438
_cell_angle_alpha   62.09100986
_cell_angle_beta   60.00000182
_cell_angle_gamma   90.00000000
_symmetry_Int_Tables_number   1
_chemical_formula_structural   Bi2(SO4)3
_chemical_formula_sum   'Bi4 S6 O24'
_cell_volume   595.44130347
_cell_formula_units_Z   2
loop_
 _symmetry_equiv_pos_site_id
 _symmetry_equiv_pos_as_xyz
  1  'x, y, z'
loop_
 _atom_site_type_symbol
 _atom_site_label
 _atom_site_symmetry_multiplicity
 _atom_site_fract_x
 _atom_site_fract_y
 _atom_site_fract_z
 _atom_site_occupancy
  Bi  Bi0  1  0.34861789  0.04585368  0.30276421  1
  Bi  Bi1  1  0.14363302  0.43089907  0.71273395  1
  Bi  Bi2  1  0.85636698  0.56910093  0.28726605  1
  Bi  Bi3  1  0.65138211  0.95414632  0.69723579  1
  S  S4  1  0.03444411  0.24870899  0.21078701  1
  S  S5  1  0.24523112  0.75129101  0.21426488  1
  S  S6  1  0.45949600  0.24870899  0.50606089  1
  S  S7  1  0.54050400  0.75129101  0.49393911  1
  S  S8  1  0.75476888  0.24870899  0.78573512  1
  S  S9  1  0.96555589  0.75129101  0.78921299  1
  O  O10  1  0.02352905  0.41136743  0.17885748  1
  O  O11  1  0.11847496  0.26019564  0.01582322  1
  O  O12  1  0.13429817  0.73980436  0.14172069  1
  O  O13  1  0.14290529  0.19417606  0.29287258  1
  O  O14  1  0.20435780  0.87088150  0.27664640  1
  O  O15  1  0.20238653  0.58863257  0.38783938  1
  O  O16  1  0.43577786  0.80582394  0.05127078  1
  O  O17  1  0.14752791  0.87088150  0.64811329  1
  O  O18  1  0.27601886  0.26019564  0.60550619  1
  O  O19  1  0.48704864  0.19417606  0.37004608  1
  O  O20  1  0.51899580  0.87088150  0.33347630  1
  O  O21  1  0.40977509  0.58863257  0.61375396  1
  O  O22  1  0.59022491  0.41136743  0.38624604  1
  O  O23  1  0.48100420  0.12911850  0.66652370  1
  O  O24  1  0.51295136  0.80582394  0.62995392  1
  O  O25  1  0.72398114  0.73980436  0.39449381  1
  O  O26  1  0.85247209  0.12911850  0.35188671  1
  O  O27  1  0.56422214  0.19417606  0.94872922  1
  O  O28  1  0.79761347  0.41136743  0.61216062  1
  O  O29  1  0.79564220  0.12911850  0.72335360  1
  O  O30  1  0.85709471  0.80582394  0.70712742  1
  O  O31  1  0.86570183  0.26019564  0.85827931  1
  O  O32  1  0.88152504  0.73980436  0.98417678  1
  O  O33  1  0.97647095  0.58863257  0.82114252  1
