# generated using pymatgen
data_LiWF6
_symmetry_space_group_name_H-M   'P 1'
_cell_length_a   5.23018170
_cell_length_b   8.97323670
_cell_length_c   10.24825079
_cell_angle_alpha   87.99398518
_cell_angle_beta   90.00000000
_cell_angle_gamma   90.00000000
_symmetry_Int_Tables_number   1
_chemical_formula_structural   LiWF6
_chemical_formula_sum   'Li4 W4 F24'
_cell_volume   480.67264759
_cell_formula_units_Z   4
loop_
 _symmetry_equiv_pos_site_id
 _symmetry_equiv_pos_as_xyz
  1  'x, y, z'
loop_
 _atom_site_type_symbol
 _atom_site_label
 _atom_site_symmetry_multiplicity
 _atom_site_fract_x
 _atom_site_fract_y
 _atom_site_fract_z
 _atom_site_occupancy
  Li  Li0  1  0.39534490  0.89466874  0.91878515  1
  Li  Li1  1  0.89537994  0.10532106  0.58111913  1
  Li  Li2  1  0.10465510  0.89466874  0.41878515  1
  Li  Li3  1  0.60462006  0.10532106  0.08111913  1
  W  W4  1  0.10359537  0.26092864  0.86920397  1
  W  W5  1  0.60361604  0.73905333  0.63078387  1
  W  W6  1  0.39640463  0.26092864  0.36920397  1
  W  W7  1  0.89638396  0.73905333  0.13078387  1
  F  F8  1  0.80465552  0.24190632  0.98477057  1
  F  F9  1  0.28596519  0.09325724  0.97596428  1
  F  F10  1  0.23517146  0.39686587  0.98870544  1
  F  F11  1  0.92811554  0.40360466  0.75959095  1
  F  F12  1  0.94115208  0.10518573  0.76290021  1
  F  F13  1  0.38272058  0.24353857  0.75269132  1
  F  F14  1  0.88254829  0.75640485  0.74744402  1
  F  F15  1  0.42829232  0.59639319  0.74049386  1
  F  F16  1  0.44120798  0.89488639  0.73696703  1
  F  F17  1  0.73501706  0.60311458  0.51125401  1
  F  F18  1  0.78596548  0.90676034  0.52405626  1
  F  F19  1  0.30453593  0.75811051  0.51527091  1
  F  F20  1  0.69534448  0.24190632  0.48477057  1
  F  F21  1  0.26482854  0.39686587  0.48870544  1
  F  F22  1  0.21403481  0.09325724  0.47596428  1
  F  F23  1  0.57188446  0.40360466  0.25959095  1
  F  F24  1  0.55884792  0.10518573  0.26290021  1
  F  F25  1  0.11727942  0.24353857  0.25269132  1
  F  F26  1  0.61745171  0.75640485  0.24744402  1
  F  F27  1  0.05879202  0.89488639  0.23696703  1
  F  F28  1  0.07170768  0.59639319  0.24049386  1
  F  F29  1  0.76498294  0.60311458  0.01125401  1
  F  F30  1  0.71403452  0.90676034  0.02405626  1
  F  F31  1  0.19546407  0.75811051  0.01527091  1
