# generated using pymatgen
data_Sn(SO4)2
_symmetry_space_group_name_H-M   'P 1'
_cell_length_a   9.33391030
_cell_length_b   9.13502624
_cell_length_c   13.80475084
_cell_angle_alpha   90.00000000
_cell_angle_beta   90.00000000
_cell_angle_gamma   90.00000000
_symmetry_Int_Tables_number   1
_chemical_formula_structural   Sn(SO4)2
_chemical_formula_sum   'Sn8 S16 O64'
_cell_volume   1177.06919689
_cell_formula_units_Z   8
loop_
 _symmetry_equiv_pos_site_id
 _symmetry_equiv_pos_as_xyz
  1  'x, y, z'
loop_
 _atom_site_type_symbol
 _atom_site_label
 _atom_site_symmetry_multiplicity
 _atom_site_fract_x
 _atom_site_fract_y
 _atom_site_fract_z
 _atom_site_occupancy
  Sn  Sn0  1  0.14018188  0.10282003  0.12569131  1
  Sn  Sn1  1  0.14018188  0.39717997  0.62569131  1
  Sn  Sn2  1  0.35981812  0.60282003  0.12569131  1
  Sn  Sn3  1  0.35981812  0.89717997  0.62569131  1
  Sn  Sn4  1  0.64018188  0.10282003  0.37430869  1
  Sn  Sn5  1  0.64018188  0.39717997  0.87430869  1
  Sn  Sn6  1  0.85981812  0.60282003  0.37430869  1
  Sn  Sn7  1  0.85981812  0.89717997  0.87430869  1
  S  S8  1  0.07383446  0.06663145  0.72309339  1
  S  S9  1  0.07383446  0.43336855  0.22309339  1
  S  S10  1  0.42616554  0.93336855  0.22309339  1
  S  S11  1  0.42616554  0.56663145  0.72309339  1
  S  S12  1  0.57383446  0.43336855  0.27690661  1
  S  S13  1  0.57383446  0.06663145  0.77690661  1
  S  S14  1  0.92616554  0.56663145  0.77690661  1
  S  S15  1  0.92616554  0.93336855  0.27690661  1
  S  S16  1  0.16158145  0.68874053  0.48718933  1
  S  S17  1  0.16158145  0.81125947  0.98718933  1
  S  S18  1  0.33841855  0.18874053  0.48718933  1
  S  S19  1  0.33841855  0.31125947  0.98718933  1
  S  S20  1  0.66158145  0.68874053  0.01281067  1
  S  S21  1  0.66158145  0.81125947  0.51281067  1
  S  S22  1  0.83841855  0.18874053  0.01281067  1
  S  S23  1  0.83841855  0.31125947  0.51281067  1
  O  O24  1  0.00062602  0.69747358  0.47587165  1
  O  O25  1  0.00062602  0.80252642  0.97587165  1
  O  O26  1  0.01566567  0.99445051  0.35024954  1
  O  O27  1  0.01566567  0.50554949  0.85024954  1
  O  O28  1  0.02348892  0.46710091  0.32600549  1
  O  O29  1  0.02348892  0.03289909  0.82600549  1
  O  O30  1  0.08130897  0.23300644  0.72381805  1
  O  O31  1  0.08130897  0.26699356  0.22381805  1
  O  O32  1  0.18832705  0.72933292  0.08179829  1
  O  O33  1  0.18832705  0.77066708  0.58179829  1
  O  O34  1  0.19985648  0.96909811  0.01039924  1
  O  O35  1  0.19985648  0.53090189  0.51039924  1
  O  O36  1  0.22788428  0.01261901  0.72164742  1
  O  O37  1  0.22788428  0.48738099  0.22164742  1
  O  O38  1  0.24001661  0.74105350  0.40579525  1
  O  O39  1  0.24001661  0.75894650  0.90579525  1
  O  O40  1  0.25998339  0.24105350  0.40579525  1
  O  O41  1  0.25998339  0.25894650  0.90579525  1
  O  O42  1  0.27211572  0.98738099  0.22164742  1
  O  O43  1  0.27211572  0.51261901  0.72164742  1
  O  O44  1  0.30014352  0.03090189  0.51039924  1
  O  O45  1  0.30014352  0.46909811  0.01039924  1
  O  O46  1  0.31167295  0.22933292  0.08179829  1
  O  O47  1  0.31167295  0.27066708  0.58179829  1
  O  O48  1  0.41869103  0.76699356  0.22381805  1
  O  O49  1  0.41869103  0.73300644  0.72381805  1
  O  O50  1  0.47651108  0.53289909  0.82600549  1
  O  O51  1  0.47651108  0.96710091  0.32600549  1
  O  O52  1  0.48433433  0.49445051  0.35024954  1
  O  O53  1  0.48433433  0.00554949  0.85024954  1
  O  O54  1  0.49937398  0.19747358  0.47587165  1
  O  O55  1  0.49937398  0.30252642  0.97587165  1
  O  O56  1  0.50062602  0.69747358  0.02412835  1
  O  O57  1  0.50062602  0.80252642  0.52412835  1
  O  O58  1  0.51566567  0.50554949  0.64975046  1
  O  O59  1  0.51566567  0.99445051  0.14975046  1
  O  O60  1  0.52348892  0.46710091  0.17399451  1
  O  O61  1  0.52348892  0.03289909  0.67399451  1
  O  O62  1  0.58130897  0.26699356  0.27618195  1
  O  O63  1  0.58130897  0.23300644  0.77618195  1
  O  O64  1  0.68832705  0.72933292  0.41820171  1
  O  O65  1  0.68832705  0.77066708  0.91820171  1
  O  O66  1  0.69985648  0.53090189  0.98960076  1
  O  O67  1  0.69985648  0.96909811  0.48960076  1
  O  O68  1  0.72788428  0.48738099  0.27835258  1
  O  O69  1  0.72788428  0.01261901  0.77835258  1
  O  O70  1  0.74001661  0.74105350  0.09420475  1
  O  O71  1  0.74001661  0.75894650  0.59420475  1
  O  O72  1  0.75998339  0.24105350  0.09420475  1
  O  O73  1  0.75998339  0.25894650  0.59420475  1
  O  O74  1  0.77211572  0.51261901  0.77835258  1
  O  O75  1  0.77211572  0.98738099  0.27835258  1
  O  O76  1  0.80014352  0.46909811  0.48960076  1
  O  O77  1  0.80014352  0.03090189  0.98960076  1
  O  O78  1  0.81167295  0.22933292  0.41820171  1
  O  O79  1  0.81167295  0.27066708  0.91820171  1
  O  O80  1  0.91869103  0.73300644  0.77618195  1
  O  O81  1  0.91869103  0.76699356  0.27618195  1
  O  O82  1  0.97651108  0.53289909  0.67399451  1
  O  O83  1  0.97651108  0.96710091  0.17399451  1
  O  O84  1  0.98433433  0.00554949  0.64975046  1
  O  O85  1  0.98433433  0.49445051  0.14975046  1
  O  O86  1  0.99937398  0.19747358  0.02412835  1
  O  O87  1  0.99937398  0.30252642  0.52412835  1
