# generated using pymatgen
data_NaAs3H2O9
_symmetry_space_group_name_H-M   'P 1'
_cell_length_a   7.33859902
_cell_length_b   7.71689500
_cell_length_c   8.03865946
_cell_angle_alpha   110.52739043
_cell_angle_beta   107.50462593
_cell_angle_gamma   106.20215484
_symmetry_Int_Tables_number   1
_chemical_formula_structural   NaAs3H2O9
_chemical_formula_sum   'Na2 As6 H4 O18'
_cell_volume   366.98467026
_cell_formula_units_Z   2
loop_
 _symmetry_equiv_pos_site_id
 _symmetry_equiv_pos_as_xyz
  1  'x, y, z'
loop_
 _atom_site_type_symbol
 _atom_site_label
 _atom_site_symmetry_multiplicity
 _atom_site_fract_x
 _atom_site_fract_y
 _atom_site_fract_z
 _atom_site_occupancy
  Na  Na0  1  0.68590400  0.17832700  0.95939140  1
  Na  Na1  1  0.31409600  0.82167300  0.04060860  1
  As  As2  1  0.63600886  0.65549170  0.83273488  1
  As  As3  1  0.36399114  0.34450830  0.16726512  1
  As  As4  1  0.84722155  0.56675310  0.52316704  1
  As  As5  1  0.15277845  0.43324690  0.47683296  1
  As  As6  1  0.80995285  0.16374911  0.54453898  1
  As  As7  1  0.19004715  0.83625089  0.45546102  1
  H  H8  1  0.87842922  0.64146329  0.07775431  1
  H  H9  1  0.12157078  0.35853671  0.92224569  1
  H  H10  1  0.62991469  0.80725166  0.37450776  1
  H  H11  1  0.37008531  0.19274834  0.62549224  1
  O  O12  1  0.60805781  0.86054613  0.95464987  1
  O  O13  1  0.39194219  0.13945387  0.04535013  1
  O  O14  1  0.72675230  0.53728439  0.96789595  1
  O  O15  1  0.27324770  0.46271561  0.03210405  1
  O  O16  1  0.89284898  0.19542629  0.77526907  1
  O  O17  1  0.10715102  0.80457371  0.22473093  1
  O  O18  1  0.81916589  0.72294415  0.73996233  1
  O  O19  1  0.18083411  0.27705585  0.26003767  1
  O  O20  1  0.90781548  0.43063792  0.31800014  1
  O  O21  1  0.09218452  0.56936208  0.68199986  1
  O  O22  1  0.60410855  0.56009561  0.35210294  1
  O  O23  1  0.39589145  0.43990439  0.64789706  1
  O  O24  1  0.60173596  0.92349836  0.36503737  1
  O  O25  1  0.39826404  0.07650164  0.63496263  1
  O  O26  1  0.99335711  0.81922427  0.53996890  1
  O  O27  1  0.00664289  0.18077573  0.46003110  1
  O  O28  1  0.68158815  0.31581551  0.49948257  1
  O  O29  1  0.31841185  0.68418449  0.50051743  1
