# generated using pymatgen
data_SrTiFe(PO4)3
_symmetry_space_group_name_H-M   'P 1'
_cell_length_a   9.08380211
_cell_length_b   9.08380268
_cell_length_c   9.08380187
_cell_angle_alpha   56.48483105
_cell_angle_beta   56.48482869
_cell_angle_gamma   56.48482790
_symmetry_Int_Tables_number   1
_chemical_formula_structural   SrTiFe(PO4)3
_chemical_formula_sum   'Sr2 Ti2 Fe2 P6 O24'
_cell_volume   486.94901301
_cell_formula_units_Z   2
loop_
 _symmetry_equiv_pos_site_id
 _symmetry_equiv_pos_as_xyz
  1  'x, y, z'
loop_
 _atom_site_type_symbol
 _atom_site_label
 _atom_site_symmetry_multiplicity
 _atom_site_fract_x
 _atom_site_fract_y
 _atom_site_fract_z
 _atom_site_occupancy
  Sr  Sr0  1  0.99834803  0.99834803  0.99834803  1
  Sr  Sr1  1  0.49834803  0.49834803  0.49834803  1
  Ti  Ti2  1  0.14931347  0.14931347  0.14931347  1
  Ti  Ti3  1  0.64931347  0.64931347  0.64931347  1
  Fe  Fe4  1  0.35034036  0.35034036  0.35034036  1
  Fe  Fe5  1  0.85034036  0.85034036  0.85034036  1
  P  P6  1  0.03781425  0.74895921  0.46500469  1
  P  P7  1  0.46500469  0.03781425  0.74895921  1
  P  P8  1  0.74895921  0.46500469  0.03781425  1
  P  P9  1  0.24895921  0.53781425  0.96500469  1
  P  P10  1  0.53781425  0.96500469  0.24895921  1
  P  P11  1  0.96500469  0.24895921  0.53781425  1
  O  O12  1  0.13358864  0.26790719  0.51467484  1
  O  O13  1  0.26790719  0.51467484  0.13358864  1
  O  O14  1  0.06131789  0.92806446  0.28338646  1
  O  O15  1  0.51467484  0.13358864  0.26790719  1
  O  O16  1  0.21707013  0.57558896  0.43409826  1
  O  O17  1  0.01467484  0.76790719  0.63358864  1
  O  O18  1  0.28338646  0.06131789  0.92806446  1
  O  O19  1  0.43409826  0.21707013  0.57558896  1
  O  O20  1  0.57558896  0.43409826  0.21707013  1
  O  O21  1  0.22898331  0.36300683  0.99253302  1
  O  O22  1  0.07558896  0.71707013  0.93409826  1
  O  O23  1  0.36300683  0.99253302  0.22898331  1
  O  O24  1  0.63358864  0.01467484  0.76790719  1
  O  O25  1  0.92806446  0.28338646  0.06131789  1
  O  O26  1  0.76790719  0.63358864  0.01467484  1
  O  O27  1  0.42806446  0.56131789  0.78338646  1
  O  O28  1  0.56131789  0.78338646  0.42806446  1
  O  O29  1  0.71707013  0.93409826  0.07558896  1
  O  O30  1  0.99253302  0.22898331  0.36300683  1
  O  O31  1  0.78338646  0.42806446  0.56131789  1
  O  O32  1  0.49253302  0.86300683  0.72898331  1
  O  O33  1  0.93409826  0.07558896  0.71707013  1
  O  O34  1  0.72898331  0.49253302  0.86300683  1
  O  O35  1  0.86300683  0.72898331  0.49253302  1
