# generated using pymatgen
data_Na3Ca18Fe(PO4)14
_symmetry_space_group_name_H-M   'P 1'
_cell_length_a   13.88255150
_cell_length_b   13.87098095
_cell_length_c   13.89229037
_cell_angle_alpha   44.51599191
_cell_angle_beta   44.41018579
_cell_angle_gamma   44.42731544
_symmetry_Int_Tables_number   1
_chemical_formula_structural   Na3Ca18Fe(PO4)14
_chemical_formula_sum   'Na3 Ca18 Fe1 P14 O56'
_cell_volume   1192.73316286
_cell_formula_units_Z   1
loop_
 _symmetry_equiv_pos_site_id
 _symmetry_equiv_pos_as_xyz
  1  'x, y, z'
loop_
 _atom_site_type_symbol
 _atom_site_label
 _atom_site_symmetry_multiplicity
 _atom_site_fract_x
 _atom_site_fract_y
 _atom_site_fract_z
 _atom_site_occupancy
  Na  Na0  1  0.18230027  0.18440193  0.18268245  1
  Na  Na1  1  0.05819329  0.44871394  0.46946528  1
  Na  Na2  1  0.68978392  0.67967583  0.67956327  1
  Ca  Ca3  1  0.06286584  0.65383116  0.08121868  1
  Ca  Ca4  1  0.07574345  0.06862588  0.65383429  1
  Ca  Ca5  1  0.65588442  0.07836034  0.06257822  1
  Ca  Ca6  1  0.44475190  0.46910109  0.06231722  1
  Ca  Ca7  1  0.46526480  0.06319297  0.44654739  1
  Ca  Ca8  1  0.15697675  0.56451164  0.57142817  1
  Ca  Ca9  1  0.56428037  0.57395556  0.15750666  1
  Ca  Ca10  1  0.57354356  0.15715401  0.56481643  1
  Ca  Ca11  1  0.50083331  0.50045121  0.50027559  1
  Ca  Ca12  1  0.40717774  0.85128432  0.43665623  1
  Ca  Ca13  1  0.43686970  0.40739340  0.85087300  1
  Ca  Ca14  1  0.85184013  0.43754570  0.41058114  1
  Ca  Ca15  1  0.34934166  0.90489619  0.93870337  1
  Ca  Ca16  1  0.90722464  0.93527457  0.34993611  1
  Ca  Ca17  1  0.94013530  0.34972915  0.90272696  1
  Ca  Ca18  1  0.55799574  0.97167275  0.94652770  1
  Ca  Ca19  1  0.94691561  0.55751718  0.97151570  1
  Ca  Ca20  1  0.97148348  0.94607779  0.55853815  1
  Fe  Fe21  1  0.00143093  0.00008592  0.99982748  1
  P  P22  1  0.26774139  0.26619168  0.26475665  1
  P  P23  1  0.18169027  0.68608764  0.22256783  1
  P  P24  1  0.22350947  0.18139413  0.68670529  1
  P  P25  1  0.68696973  0.22243856  0.18237278  1
  P  P26  1  0.26660911  0.82753909  0.30620532  1
  P  P27  1  0.30609898  0.26634775  0.82758102  1
  P  P28  1  0.18331369  0.68593969  0.72846668  1
  P  P29  1  0.82728048  0.30618091  0.26600413  1
  P  P30  1  0.68559095  0.72854033  0.18330518  1
  P  P31  1  0.72877850  0.18360486  0.68488064  1
  P  P32  1  0.32381903  0.77209534  0.81046618  1
  P  P33  1  0.77021044  0.81274704  0.32230657  1
  P  P34  1  0.80888361  0.32271603  0.77549973  1
  P  P35  1  0.76620507  0.76677554  0.76676293  1
  O  O36  1  0.11306768  0.38898797  0.25240792  1
  O  O37  1  0.25741087  0.11017129  0.39080768  1
  O  O38  1  0.39266292  0.25380395  0.10930838  1
  O  O39  1  0.31235893  0.30668664  0.30286681  1
  O  O40  1  0.17491207  0.61351823  0.18227265  1
  O  O41  1  0.19369513  0.16657861  0.61141666  1
  O  O42  1  0.08651223  0.65344981  0.39140207  1
  O  O43  1  0.11299377  0.86555943  0.13085257  1
  O  O44  1  0.13374285  0.10955623  0.86561453  1
  O  O45  1  0.16681003  0.34675009  0.64179406  1
  O  O46  1  0.61267358  0.18786068  0.17098756  1
  O  O47  1  0.39573124  0.08650108  0.64887860  1
  O  O48  1  0.35079928  0.63461827  0.16572818  1
  O  O49  1  0.10325436  0.84264586  0.39026365  1
  O  O50  1  0.64673768  0.39410896  0.08961672  1
  O  O51  1  0.63396603  0.16613802  0.35078251  1
  O  O52  1  0.13221701  0.33779503  0.89090489  1
  O  O53  1  0.86533757  0.13312601  0.11246266  1
  O  O54  1  0.38962612  0.10324550  0.84193697  1
  O  O55  1  0.33793661  0.88926358  0.13274870  1
  O  O56  1  0.11957627  0.66915436  0.68615263  1
  O  O57  1  0.36359567  0.65190147  0.36853522  1
  O  O58  1  0.36865702  0.36341161  0.65233518  1
  O  O59  1  0.25619385  0.91141109  0.35114920  1
  O  O60  1  0.65134969  0.36879998  0.36338565  1
  O  O61  1  0.35243289  0.25464049  0.91109449  1
  O  O62  1  0.84123583  0.38958032  0.10343123  1
  O  O63  1  0.14119410  0.58959659  0.90057028  1
  O  O64  1  0.11929788  0.85631157  0.67741735  1
  O  O65  1  0.88896304  0.13246760  0.33779065  1
  O  O66  1  0.66855758  0.68618463  0.11980852  1
  O  O67  1  0.68621741  0.11964502  0.66858247  1
  O  O68  1  0.35964762  0.62391765  0.64444974  1
  O  O69  1  0.58892579  0.90109761  0.14116236  1
  O  O70  1  0.62397213  0.64494999  0.35908382  1
  O  O71  1  0.64449951  0.35954008  0.62382701  1
  O  O72  1  0.91085461  0.35212212  0.25465550  1
  O  O73  1  0.67839188  0.11863458  0.85493385  1
  O  O74  1  0.14690502  0.87378001  0.88146709  1
  O  O75  1  0.33244654  0.61254637  0.89268323  1
  O  O76  1  0.90132306  0.14115861  0.58818289  1
  O  O77  1  0.85586490  0.67854629  0.11751255  1
  O  O78  1  0.37461840  0.84836290  0.63854664  1
  O  O79  1  0.60978957  0.89846719  0.33003789  1
  O  O80  1  0.63638609  0.36978665  0.85482875  1
  O  O81  1  0.41849040  0.75390652  0.84844467  1
  O  O82  1  0.88860902  0.33050550  0.61820501  1
  O  O83  1  0.84470627  0.64282934  0.36908078  1
  O  O84  1  0.87286105  0.88406729  0.14598126  1
  O  O85  1  0.88209466  0.14487884  0.87604052  1
  O  O86  1  0.75233140  0.84994796  0.41748223  1
  O  O87  1  0.84218017  0.41586038  0.76442454  1
  O  O88  1  0.61089054  0.75581374  0.89238370  1
  O  O89  1  0.75557054  0.89170469  0.61158709  1
  O  O90  1  0.89207678  0.61149792  0.75555014  1
  O  O91  1  0.80730932  0.80855669  0.80814161  1
