# generated using pymatgen
data_Cs2H6CO6
_symmetry_space_group_name_H-M   'P 1'
_cell_length_a   6.65296747
_cell_length_b   6.81865879
_cell_length_c   8.95288144
_cell_angle_alpha   90.00000000
_cell_angle_beta   90.64211242
_cell_angle_gamma   90.00000000
_symmetry_Int_Tables_number   1
_chemical_formula_structural   Cs2H6CO6
_chemical_formula_sum   'Cs4 H12 C2 O12'
_cell_volume   406.11582992
_cell_formula_units_Z   2
loop_
 _symmetry_equiv_pos_site_id
 _symmetry_equiv_pos_as_xyz
  1  'x, y, z'
loop_
 _atom_site_type_symbol
 _atom_site_label
 _atom_site_symmetry_multiplicity
 _atom_site_fract_x
 _atom_site_fract_y
 _atom_site_fract_z
 _atom_site_occupancy
  Cs  Cs0  1  0.24541813  0.84631342  0.57432483  1
  Cs  Cs1  1  0.24541813  0.15368658  0.07432483  1
  Cs  Cs2  1  0.75458187  0.84631342  0.92567517  1
  Cs  Cs3  1  0.75458187  0.15368658  0.42567517  1
  H  H4  1  0.11936270  0.27657066  0.74562099  1
  H  H5  1  0.11936270  0.72342934  0.24562099  1
  H  H6  1  0.27709236  0.60396904  0.85625751  1
  H  H7  1  0.27709236  0.39603096  0.35625751  1
  H  H8  1  0.27055906  0.34230383  0.52852485  1
  H  H9  1  0.27055906  0.65769617  0.02852485  1
  H  H10  1  0.72944094  0.34230383  0.97147515  1
  H  H11  1  0.72944094  0.65769617  0.47147515  1
  H  H12  1  0.72290764  0.60396904  0.64374249  1
  H  H13  1  0.72290764  0.39603096  0.14374249  1
  H  H14  1  0.88063730  0.27657066  0.75437901  1
  H  H15  1  0.88063730  0.72342934  0.25437901  1
  C  C16  1  0.50000000  0.32900524  0.75000000  1
  C  C17  1  0.50000000  0.67099476  0.25000000  1
  O  O18  1  0.00000000  0.18799515  0.75000000  1
  O  O19  1  0.00000000  0.81200485  0.25000000  1
  O  O20  1  0.23962735  0.71021285  0.92731661  1
  O  O21  1  0.23962735  0.28978715  0.42731661  1
  O  O22  1  0.33340148  0.42790512  0.72198187  1
  O  O23  1  0.33340148  0.57209488  0.22198187  1
  O  O24  1  0.50000000  0.14109903  0.75000000  1
  O  O25  1  0.50000000  0.85890097  0.25000000  1
  O  O26  1  0.66659852  0.42790512  0.77801813  1
  O  O27  1  0.66659852  0.57209488  0.27801813  1
  O  O28  1  0.76037265  0.71021285  0.57268339  1
  O  O29  1  0.76037265  0.28978715  0.07268339  1
