# generated using pymatgen
data_MgH12(NO6)2
_symmetry_space_group_name_H-M   'P 1'
_cell_length_a   6.23985883
_cell_length_b   12.69511110
_cell_length_c   6.60187940
_cell_angle_alpha   90.00000000
_cell_angle_beta   93.84595415
_cell_angle_gamma   90.00000000
_symmetry_Int_Tables_number   1
_chemical_formula_structural   MgH12(NO6)2
_chemical_formula_sum   'Mg2 H24 N4 O24'
_cell_volume   521.79476659
_cell_formula_units_Z   2
loop_
 _symmetry_equiv_pos_site_id
 _symmetry_equiv_pos_as_xyz
  1  'x, y, z'
loop_
 _atom_site_type_symbol
 _atom_site_label
 _atom_site_symmetry_multiplicity
 _atom_site_fract_x
 _atom_site_fract_y
 _atom_site_fract_z
 _atom_site_occupancy
  Mg  Mg0  1  0.00000000  0.50000000  0.50000000  1
  Mg  Mg1  1  0.00000000  0.00000000  0.00000000  1
  H  H2  1  0.07221033  0.28584668  0.50992519  1
  H  H3  1  0.92778967  0.78584668  0.99007481  1
  H  H4  1  0.92778967  0.71415332  0.49007481  1
  H  H5  1  0.07221033  0.21415332  0.00992519  1
  H  H6  1  0.81850628  0.30910665  0.48244621  1
  H  H7  1  0.18149372  0.80910665  0.01755379  1
  H  H8  1  0.18149372  0.69089335  0.51755379  1
  H  H9  1  0.81850628  0.19089335  0.98244621  1
  H  H10  1  0.36685475  0.51568150  0.76537171  1
  H  H11  1  0.63314525  0.01568150  0.73462829  1
  H  H12  1  0.63314525  0.48431850  0.23462829  1
  H  H13  1  0.36685475  0.98431850  0.26537171  1
  H  H14  1  0.40029622  0.42053626  0.61260645  1
  H  H15  1  0.59970378  0.92053626  0.88739355  1
  H  H16  1  0.59970378  0.57946374  0.38739355  1
  H  H17  1  0.40029622  0.07946374  0.11260645  1
  H  H18  1  0.19382257  0.43682179  0.15936475  1
  H  H19  1  0.80617743  0.93682179  0.34063525  1
  H  H20  1  0.80617743  0.56317821  0.84063525  1
  H  H21  1  0.19382257  0.06317821  0.65936475  1
  H  H22  1  0.19688854  0.56129825  0.14617839  1
  H  H23  1  0.80311146  0.06129825  0.35382161  1
  H  H24  1  0.80311146  0.43870175  0.85382161  1
  H  H25  1  0.19688854  0.93870175  0.64617839  1
  N  N26  1  0.47065583  0.20342075  0.54355122  1
  N  N27  1  0.52934417  0.70342075  0.95644878  1
  N  N28  1  0.52934417  0.79657925  0.45644878  1
  N  N29  1  0.47065583  0.29657925  0.04355122  1
  O  O30  1  0.96293257  0.33917637  0.46798114  1
  O  O31  1  0.03706743  0.83917637  0.03201886  1
  O  O32  1  0.03706743  0.66082363  0.53201886  1
  O  O33  1  0.96293257  0.16082363  0.96798114  1
  O  O34  1  0.30174370  0.47650391  0.64892018  1
  O  O35  1  0.69825630  0.97650391  0.85107982  1
  O  O36  1  0.69825630  0.52349609  0.35107982  1
  O  O37  1  0.30174370  0.02349609  0.14892018  1
  O  O38  1  0.14394411  0.50219483  0.22330972  1
  O  O39  1  0.85605589  0.00219483  0.27669028  1
  O  O40  1  0.85605589  0.49780517  0.77669028  1
  O  O41  1  0.14394411  0.99780517  0.72330972  1
  O  O42  1  0.53888577  0.29642266  0.51503901  1
  O  O43  1  0.46111423  0.79642266  0.98496099  1
  O  O44  1  0.46111423  0.70357734  0.48496099  1
  O  O45  1  0.53888577  0.20357734  0.01503901  1
  O  O46  1  0.27596533  0.18944782  0.58188209  1
  O  O47  1  0.72403467  0.68944782  0.91811791  1
  O  O48  1  0.72403467  0.81055218  0.41811791  1
  O  O49  1  0.27596533  0.31055218  0.08188209  1
  O  O50  1  0.59604172  0.12581426  0.53351595  1
  O  O51  1  0.40395828  0.62581426  0.96648405  1
  O  O52  1  0.40395828  0.87418574  0.46648405  1
  O  O53  1  0.59604172  0.37418574  0.03351595  1
