# generated using pymatgen
data_K2FeH2OF5
_symmetry_space_group_name_H-M   'P 1'
_cell_length_a   6.31365115
_cell_length_b   6.31365115
_cell_length_c   8.04885400
_cell_angle_alpha   84.82700739
_cell_angle_beta   95.17299261
_cell_angle_gamma   102.16134633
_symmetry_Int_Tables_number   1
_chemical_formula_structural   K2FeH2OF5
_chemical_formula_sum   'K4 Fe2 H4 O2 F10'
_cell_volume   311.53144433
_cell_formula_units_Z   2
loop_
 _symmetry_equiv_pos_site_id
 _symmetry_equiv_pos_as_xyz
  1  'x, y, z'
loop_
 _atom_site_type_symbol
 _atom_site_label
 _atom_site_symmetry_multiplicity
 _atom_site_fract_x
 _atom_site_fract_y
 _atom_site_fract_z
 _atom_site_occupancy
  K  K0  1  0.30040181  0.70479947  0.96743612  1
  K  K1  1  0.70479947  0.30040181  0.53256388  1
  K  K2  1  0.69959819  0.29520053  0.03256388  1
  K  K3  1  0.29520053  0.69959819  0.46743612  1
  Fe  Fe4  1  0.79351907  0.79351907  0.75000000  1
  Fe  Fe5  1  0.20648093  0.20648093  0.25000000  1
  H  H6  1  0.09703645  0.14987785  0.84502232  1
  H  H7  1  0.14987785  0.09703645  0.65497768  1
  H  H8  1  0.90296355  0.85012215  0.15497768  1
  H  H9  1  0.85012215  0.90296355  0.34502232  1
  O  O10  1  0.05464573  0.05464573  0.75000000  1
  O  O11  1  0.94535427  0.94535427  0.25000000  1
  F  F12  1  0.86719850  0.72548185  0.98948003  1
  F  F13  1  0.72548185  0.86719850  0.51051997  1
  F  F14  1  0.13280150  0.27451815  0.01051997  1
  F  F15  1  0.27451815  0.13280150  0.48948003  1
  F  F16  1  0.98980289  0.61558833  0.69332584  1
  F  F17  1  0.61558833  0.98980289  0.80667416  1
  F  F18  1  0.01019711  0.38441167  0.30667416  1
  F  F19  1  0.38441167  0.01019711  0.19332584  1
  F  F20  1  0.54732005  0.54732005  0.75000000  1
  F  F21  1  0.45267995  0.45267995  0.25000000  1
