# generated using pymatgen
data_LiCuF4
_symmetry_space_group_name_H-M   'P 1'
_cell_length_a   5.62736260
_cell_length_b   4.99185865
_cell_length_c   5.86099968
_cell_angle_alpha   90.00000000
_cell_angle_beta   119.35637025
_cell_angle_gamma   90.00000000
_symmetry_Int_Tables_number   1
_chemical_formula_structural   LiCuF4
_chemical_formula_sum   'Li2 Cu2 F8'
_cell_volume   143.49930792
_cell_formula_units_Z   2
loop_
 _symmetry_equiv_pos_site_id
 _symmetry_equiv_pos_as_xyz
  1  'x, y, z'
loop_
 _atom_site_type_symbol
 _atom_site_label
 _atom_site_symmetry_multiplicity
 _atom_site_fract_x
 _atom_site_fract_y
 _atom_site_fract_z
 _atom_site_occupancy
  Li  Li0  1  0.50000000  0.00000000  0.50000000  1
  Li  Li1  1  0.50000000  0.50000000  0.00000000  1
  Cu  Cu2  1  0.00000000  0.50000000  0.50000000  1
  Cu  Cu3  1  0.00000000  0.00000000  0.00000000  1
  F  F4  1  0.14639626  0.31185378  0.80265100  1
  F  F5  1  0.14639626  0.18814622  0.30265100  1
  F  F6  1  0.32533327  0.66976449  0.63256891  1
  F  F7  1  0.67466673  0.16976449  0.86743109  1
  F  F8  1  0.32533327  0.83023551  0.13256891  1
  F  F9  1  0.67466673  0.33023551  0.36743109  1
  F  F10  1  0.85360374  0.81185378  0.69734900  1
  F  F11  1  0.85360374  0.68814622  0.19734900  1
