# generated using pymatgen
data_K2TiSi3(HO5)2
_symmetry_space_group_name_H-M   'P 1'
_cell_length_a   7.22189568
_cell_length_b   10.02585651
_cell_length_c   13.09708337
_cell_angle_alpha   90.00000000
_cell_angle_beta   90.00000000
_cell_angle_gamma   90.00000000
_symmetry_Int_Tables_number   1
_chemical_formula_structural   K2TiSi3(HO5)2
_chemical_formula_sum   'K8 Ti4 Si12 H8 O40'
_cell_volume   948.30335601
_cell_formula_units_Z   4
loop_
 _symmetry_equiv_pos_site_id
 _symmetry_equiv_pos_as_xyz
  1  'x, y, z'
loop_
 _atom_site_type_symbol
 _atom_site_label
 _atom_site_symmetry_multiplicity
 _atom_site_fract_x
 _atom_site_fract_y
 _atom_site_fract_z
 _atom_site_occupancy
  K  K0  1  0.15108964  0.79337552  0.63574278  1
  K  K1  1  0.20465349  0.93312954  0.92102234  1
  K  K2  1  0.29534651  0.06687046  0.42102234  1
  K  K3  1  0.34891036  0.20662448  0.13574278  1
  K  K4  1  0.65108964  0.70662448  0.36425722  1
  K  K5  1  0.70465349  0.56687046  0.07897766  1
  K  K6  1  0.79534651  0.43312954  0.57897766  1
  K  K7  1  0.84891036  0.29337552  0.86425722  1
  Ti  Ti8  1  0.24105517  0.45404667  0.71143880  1
  Ti  Ti9  1  0.25894483  0.54595333  0.21143880  1
  Ti  Ti10  1  0.74105517  0.04595333  0.28856120  1
  Ti  Ti11  1  0.75894483  0.95404667  0.78856120  1
  Si  Si12  1  0.00694997  0.82086316  0.17383927  1
  Si  Si13  1  0.08153447  0.14257280  0.66835705  1
  Si  Si14  1  0.23149159  0.53785371  0.95319486  1
  Si  Si15  1  0.26850841  0.46214629  0.45319486  1
  Si  Si16  1  0.41846553  0.85742720  0.16835705  1
  Si  Si17  1  0.49305003  0.17913684  0.67383927  1
  Si  Si18  1  0.50694997  0.67913684  0.82616073  1
  Si  Si19  1  0.58153447  0.35742720  0.33164295  1
  Si  Si20  1  0.73149159  0.96214629  0.04680514  1
  Si  Si21  1  0.76850841  0.03785371  0.54680514  1
  Si  Si22  1  0.91846553  0.64257280  0.83164295  1
  Si  Si23  1  0.99305003  0.32086316  0.32616073  1
  H  H24  1  0.02221494  0.84845227  0.39355856  1
  H  H25  1  0.16063145  0.72794377  0.40799252  1
  H  H26  1  0.33936855  0.27205623  0.90799252  1
  H  H27  1  0.47778506  0.15154773  0.89355856  1
  H  H28  1  0.52221494  0.65154773  0.60644144  1
  H  H29  1  0.66063145  0.77205623  0.59200748  1
  H  H30  1  0.83936855  0.22794377  0.09200748  1
  H  H31  1  0.97778506  0.34845227  0.10644144  1
  O  O32  1  0.01071861  0.55951498  0.73827592  1
  O  O33  1  0.01961185  0.60075962  0.94108063  1
  O  O34  1  0.04951757  0.66325992  0.19104484  1
  O  O35  1  0.07156466  0.30204405  0.68937960  1
  O  O36  1  0.10185622  0.38526899  0.22940953  1
  O  O37  1  0.12318640  0.33689847  0.42938536  1
  O  O38  1  0.12609893  0.81651505  0.43694064  1
  O  O39  1  0.20070967  0.90444626  0.14983973  1
  O  O40  1  0.22911553  0.51422347  0.56787257  1
  O  O41  1  0.24378980  0.57621993  0.36472716  1
  O  O42  1  0.25621020  0.42378007  0.86472716  1
  O  O43  1  0.27088447  0.48577653  0.06787257  1
  O  O44  1  0.29929033  0.09555374  0.64983973  1
  O  O45  1  0.37390107  0.18348495  0.93694064  1
  O  O46  1  0.37681360  0.66310153  0.92938536  1
  O  O47  1  0.39814378  0.61473101  0.72940953  1
  O  O48  1  0.42843534  0.69795595  0.18937960  1
  O  O49  1  0.45048243  0.33674008  0.69104484  1
  O  O50  1  0.48038815  0.39924038  0.44108063  1
  O  O51  1  0.48928139  0.44048502  0.23827592  1
  O  O52  1  0.51071861  0.94048502  0.26172408  1
  O  O53  1  0.51961185  0.89924038  0.05891937  1
  O  O54  1  0.54951757  0.83674008  0.80895516  1
  O  O55  1  0.57156466  0.19795595  0.31062040  1
  O  O56  1  0.60185622  0.11473101  0.77059047  1
  O  O57  1  0.62318640  0.16310153  0.57061464  1
  O  O58  1  0.62609893  0.68348495  0.56305936  1
  O  O59  1  0.70070967  0.59555374  0.85016027  1
  O  O60  1  0.72911553  0.98577653  0.43212743  1
  O  O61  1  0.74378980  0.92378007  0.63527284  1
  O  O62  1  0.75621020  0.07621993  0.13527284  1
  O  O63  1  0.77088447  0.01422347  0.93212743  1
  O  O64  1  0.79929033  0.40444626  0.35016027  1
  O  O65  1  0.87390107  0.31651505  0.06305936  1
  O  O66  1  0.87681360  0.83689847  0.07061464  1
  O  O67  1  0.89814378  0.88526899  0.27059047  1
  O  O68  1  0.92843534  0.80204405  0.81062040  1
  O  O69  1  0.95048243  0.16325992  0.30895516  1
  O  O70  1  0.98038815  0.10075962  0.55891937  1
  O  O71  1  0.98928139  0.05951498  0.76172408  1
