# generated using pymatgen
data_Sr5Nb4O15
_symmetry_space_group_name_H-M   'P 1'
_cell_length_a   5.73789581
_cell_length_b   5.73788260
_cell_length_c   23.29696990
_cell_angle_alpha   89.99978526
_cell_angle_beta   90.00005900
_cell_angle_gamma   120.00022431
_symmetry_Int_Tables_number   1
_chemical_formula_structural   Sr5Nb4O15
_chemical_formula_sum   'Sr10 Nb8 O30'
_cell_volume   664.25281625
_cell_formula_units_Z   2
loop_
 _symmetry_equiv_pos_site_id
 _symmetry_equiv_pos_as_xyz
  1  'x, y, z'
loop_
 _atom_site_type_symbol
 _atom_site_label
 _atom_site_symmetry_multiplicity
 _atom_site_fract_x
 _atom_site_fract_y
 _atom_site_fract_z
 _atom_site_occupancy
  Sr  Sr0  1  0.33331990  0.66666844  0.14019681  1
  Sr  Sr1  1  0.33331330  0.66665919  0.47088223  1
  Sr  Sr2  1  0.99998613  0.99999209  0.25000041  1
  Sr  Sr3  1  0.00000265  0.00000458  0.75000042  1
  Sr  Sr4  1  0.33332782  0.66665961  0.64019684  1
  Sr  Sr5  1  0.33332631  0.66666585  0.97088312  1
  Sr  Sr6  1  0.66666164  0.33332874  0.02911649  1
  Sr  Sr7  1  0.66666127  0.33333446  0.35980414  1
  Sr  Sr8  1  0.66666090  0.33334577  0.52911607  1
  Sr  Sr9  1  0.66667292  0.33333504  0.85980321  1
  Nb  Nb10  1  0.33331740  0.66666130  0.30262687  1
  Nb  Nb11  1  0.99998912  0.00000503  0.09078658  1
  Nb  Nb12  1  0.99998589  0.99999997  0.40921217  1
  Nb  Nb13  1  0.00000331  0.00000506  0.59078692  1
  Nb  Nb14  1  0.99999434  0.99999557  0.90921279  1
  Nb  Nb15  1  0.33333154  0.66666355  0.80262555  1
  Nb  Nb16  1  0.66665895  0.33333841  0.19737435  1
  Nb  Nb17  1  0.66666382  0.33333205  0.69737241  1
  O  O18  1  0.10094926  0.76810805  0.55510833  1
  O  O19  1  0.11832086  0.78712718  0.34628763  1
  O  O20  1  0.00000232  0.54400360  0.75000032  1
  O  O21  1  0.99999502  0.45599876  0.24999879  1
  O  O22  1  0.21286605  0.88166961  0.84628721  1
  O  O23  1  0.23188511  0.89904826  0.05510917  1
  O  O24  1  0.10094414  0.33284064  0.05510832  1
  O  O25  1  0.11832970  0.33120244  0.84628716  1
  O  O26  1  0.21286105  0.33120263  0.34628721  1
  O  O27  1  0.23188826  0.33284627  0.55511019  1
  O  O28  1  0.33284001  0.23189083  0.94489023  1
  O  O29  1  0.66714899  0.89904595  0.55510802  1
  O  O30  1  0.66878987  0.88167139  0.34628767  1
  O  O31  1  0.33119194  0.21287314  0.15371233  1
  O  O32  1  0.45599687  0.45599738  0.75000065  1
  O  O33  1  0.54399730  0.54400052  0.25000063  1
  O  O34  1  0.66879749  0.78713241  0.84628722  1
  O  O35  1  0.33120264  0.11833085  0.65371214  1
  O  O36  1  0.33283396  0.10095334  0.44488974  1
  O  O37  1  0.66714348  0.76810691  0.05510928  1
  O  O38  1  0.76809287  0.66715583  0.44489066  1
  O  O39  1  0.78712677  0.66879941  0.65371295  1
  O  O40  1  0.45599081  0.00000349  0.25000044  1
  O  O41  1  0.54400113  -0.00000262  0.74999980  1
  O  O42  1  0.88166005  0.66879970  0.15371346  1
  O  O43  1  0.89904485  0.66715782  0.94489119  1
  O  O44  1  0.76810135  0.10095206  0.94489067  1
  O  O45  1  0.78712430  0.11833388  0.15371253  1
  O  O46  1  0.88166793  0.21286893  0.65371310  1
  O  O47  1  0.89903144  0.23188963  0.44489155  1
