# generated using pymatgen
data_TiP2O7
_symmetry_space_group_name_H-M   'P 1'
_cell_length_a   8.80612916
_cell_length_b   5.20305285
_cell_length_c   12.22951433
_cell_angle_alpha   90.00000000
_cell_angle_beta   76.29451808
_cell_angle_gamma   90.00000000
_symmetry_Int_Tables_number   1
_chemical_formula_structural   TiP2O7
_chemical_formula_sum   'Ti4 P8 O28'
_cell_volume   544.38622759
_cell_formula_units_Z   4
loop_
 _symmetry_equiv_pos_site_id
 _symmetry_equiv_pos_as_xyz
  1  'x, y, z'
loop_
 _atom_site_type_symbol
 _atom_site_label
 _atom_site_symmetry_multiplicity
 _atom_site_fract_x
 _atom_site_fract_y
 _atom_site_fract_z
 _atom_site_occupancy
  Ti  Ti0  1  0.23641355  0.24004137  0.03692758  1
  Ti  Ti1  1  0.26358645  0.74004137  0.46307242  1
  Ti  Ti2  1  0.73641355  0.25995863  0.53692758  1
  Ti  Ti3  1  0.76358645  0.75995863  0.96307242  1
  P  P4  1  0.01865805  0.75587679  0.13977287  1
  P  P5  1  0.07147453  0.22777862  0.61348305  1
  P  P6  1  0.48134195  0.25587679  0.36022713  1
  P  P7  1  0.57147453  0.27222138  0.11348305  1
  P  P8  1  0.42852547  0.72777862  0.88651695  1
  P  P9  1  0.51865805  0.74412321  0.63977287  1
  P  P10  1  0.92852547  0.77222138  0.38651695  1
  P  P11  1  0.98134195  0.24412321  0.86022713  1
  O  O12  1  0.09590640  0.01845999  0.14342501  1
  O  O13  1  0.13752193  0.53629099  0.12154324  1
  O  O14  1  0.10377255  0.73318167  0.37768183  1
  O  O15  1  0.12307418  0.95456904  0.57880621  1
  O  O16  1  0.09742696  0.27915081  0.73800264  1
  O  O17  1  0.17458927  0.42739704  0.54115246  1
  O  O18  1  0.08545010  0.25551850  0.94273413  1
  O  O19  1  0.39622745  0.23318167  0.12231817  1
  O  O20  1  0.36247807  0.03629099  0.37845676  1
  O  O21  1  0.40409360  0.51845999  0.35657499  1
  O  O22  1  0.41454990  0.75551850  0.55726587  1
  O  O23  1  0.62307418  0.54543096  0.07880621  1
  O  O24  1  0.32541073  0.92739704  0.95884754  1
  O  O25  1  0.40257304  0.77915081  0.76199736  1
  O  O26  1  0.59742696  0.22084919  0.23800264  1
  O  O27  1  0.67458927  0.07260296  0.04115246  1
  O  O28  1  0.37692582  0.45456904  0.92119379  1
  O  O29  1  0.58545010  0.24448150  0.44273413  1
  O  O30  1  0.59590640  0.48154001  0.64342501  1
  O  O31  1  0.63752193  0.96370901  0.62154324  1
  O  O32  1  0.60377255  0.76681833  0.87768183  1
  O  O33  1  0.91454990  0.74448150  0.05726587  1
  O  O34  1  0.82541073  0.57260296  0.45884754  1
  O  O35  1  0.90257304  0.72084919  0.26199736  1
  O  O36  1  0.87692582  0.04543096  0.42119379  1
  O  O37  1  0.89622745  0.26681833  0.62231817  1
  O  O38  1  0.86247807  0.46370901  0.87845676  1
  O  O39  1  0.90409360  0.98154001  0.85657499  1
