# generated using pymatgen
data_Fe3PH6PbSO14
_symmetry_space_group_name_H-M   'P 1'
_cell_length_a   7.10989931
_cell_length_b   7.10989931
_cell_length_c   7.10989933
_cell_angle_alpha   62.58320269
_cell_angle_beta   62.58320269
_cell_angle_gamma   62.58320230
_symmetry_Int_Tables_number   1
_chemical_formula_structural   Fe3PH6PbSO14
_chemical_formula_sum   'Fe3 P1 H6 Pb1 S1 O14'
_cell_volume   268.76246306
_cell_formula_units_Z   1
loop_
 _symmetry_equiv_pos_site_id
 _symmetry_equiv_pos_as_xyz
  1  'x, y, z'
loop_
 _atom_site_type_symbol
 _atom_site_label
 _atom_site_symmetry_multiplicity
 _atom_site_fract_x
 _atom_site_fract_y
 _atom_site_fract_z
 _atom_site_occupancy
  Fe  Fe0  1  0.00765892  0.00765892  0.49849022  1
  Fe  Fe1  1  0.00765892  0.49849022  0.00765892  1
  Fe  Fe2  1  0.49849022  0.00765892  0.00765892  1
  P  P3  1  0.31439789  0.31439789  0.31439789  1
  H  H4  1  0.28953168  0.69394368  0.69394368  1
  H  H5  1  0.69394368  0.69394368  0.28953168  1
  H  H6  1  0.69394368  0.28953168  0.69394368  1
  H  H7  1  0.70718275  0.31381682  0.31381682  1
  H  H8  1  0.31381682  0.31381682  0.70718274  1
  H  H9  1  0.31381682  0.70718275  0.31381682  1
  Pb  Pb10  1  0.99836334  0.99836334  0.99836334  1
  S  S11  1  0.69275754  0.69275754  0.69275754  1
  O  O12  1  0.60612673  0.60612673  0.60612673  1
  O  O13  1  0.40463063  0.40463063  0.40463063  1
  O  O14  1  0.50156856  0.83242549  0.83242549  1
  O  O15  1  0.83242549  0.83242549  0.50156856  1
  O  O16  1  0.83242549  0.50156856  0.83242549  1
  O  O17  1  0.51096368  0.16742614  0.16742614  1
  O  O18  1  0.16742614  0.16742614  0.51096368  1
  O  O19  1  0.16742614  0.51096368  0.16742614  1
  O  O20  1  0.12411913  0.74524682  0.74524682  1
  O  O21  1  0.74524682  0.74524682  0.12411913  1
  O  O22  1  0.74524682  0.12411913  0.74524682  1
  O  O23  1  0.87486246  0.26013482  0.26013482  1
  O  O24  1  0.26013482  0.26013482  0.87486246  1
  O  O25  1  0.26013482  0.87486246  0.26013482  1
