# generated using pymatgen
data_Cs3B6H12Se4Br
_symmetry_space_group_name_H-M   'P 1'
_cell_length_a   11.01503691
_cell_length_b   11.01494603
_cell_length_c   9.04026149
_cell_angle_alpha   90.00000000
_cell_angle_beta   90.00000000
_cell_angle_gamma   120.00027290
_symmetry_Int_Tables_number   1
_chemical_formula_structural   Cs3B6H12Se4Br
_chemical_formula_sum   'Cs6 B12 H24 Se8 Br2'
_cell_volume   949.90190872
_cell_formula_units_Z   2
loop_
 _symmetry_equiv_pos_site_id
 _symmetry_equiv_pos_as_xyz
  1  'x, y, z'
loop_
 _atom_site_type_symbol
 _atom_site_label
 _atom_site_symmetry_multiplicity
 _atom_site_fract_x
 _atom_site_fract_y
 _atom_site_fract_z
 _atom_site_occupancy
  Cs  Cs0  1  0.69331370  0.84665710  0.75027944  1
  Cs  Cs1  1  0.15334340  0.84665710  0.75027944  1
  Cs  Cs2  1  0.15333631  0.30667262  0.75027745  1
  Cs  Cs3  1  0.30668630  0.15334290  0.25027944  1
  Cs  Cs4  1  0.84665660  0.15334290  0.25027944  1
  Cs  Cs5  1  0.84666369  0.69332738  0.25027745  1
  B  B6  1  0.76678990  0.23321547  0.88852452  1
  B  B7  1  0.76679507  0.53359014  0.88851636  1
  B  B8  1  0.46642558  0.23321547  0.88852452  1
  B  B9  1  0.23321010  0.76678453  0.38852452  1
  B  B10  1  0.23320493  0.46640986  0.38851636  1
  B  B11  1  0.53357442  0.76678453  0.38852452  1
  B  B12  1  0.56765902  0.43233967  0.58333743  1
  B  B13  1  0.56765958  0.13531916  0.58334105  1
  B  B14  1  0.86468065  0.43233967  0.58333743  1
  B  B15  1  0.43234098  0.56766033  0.08333743  1
  B  B16  1  0.43234042  0.86468084  0.08334105  1
  B  B17  1  0.13531935  0.56766033  0.08333743  1
  H  H18  1  0.70289796  0.11244917  0.92951735  1
  H  H19  1  0.88756310  0.59046786  0.92950745  1
  H  H20  1  0.40954303  0.29710266  0.92951359  1
  H  H21  1  0.88755963  0.29710266  0.92951359  1
  H  H22  1  0.40955121  0.11244917  0.92951735  1
  H  H23  1  0.70290476  0.59046786  0.92950745  1
  H  H24  1  0.29710204  0.88755083  0.42951735  1
  H  H25  1  0.11243690  0.40953214  0.42950745  1
  H  H26  1  0.59045697  0.70289734  0.42951359  1
  H  H27  1  0.11244037  0.70289734  0.42951359  1
  H  H28  1  0.59044879  0.88755083  0.42951735  1
  H  H29  1  0.29709524  0.40953214  0.42950745  1
  H  H30  1  0.50654267  0.49345844  0.62053913  1
  H  H31  1  0.50654215  0.01308430  0.62054165  1
  H  H32  1  0.98691577  0.49345844  0.62053913  1
  H  H33  1  0.49345733  0.50654156  0.12053913  1
  H  H34  1  0.49345785  0.98691570  0.12054165  1
  H  H35  1  0.01308423  0.50654156  0.12053913  1
  H  H36  1  0.57757424  0.42242423  0.45104976  1
  H  H37  1  0.57757564  0.15515128  0.45105193  1
  H  H38  1  0.84484999  0.42242423  0.45104976  1
  H  H39  1  0.42242576  0.57757577  0.95104976  1
  H  H40  1  0.42242436  0.84484872  0.95105193  1
  H  H41  1  0.15515001  0.57757577  0.95104976  1
  Se  Se42  1  0.77180784  0.22819205  0.66025922  1
  Se  Se43  1  0.77181170  0.54362340  0.66024710  1
  Se  Se44  1  0.45638422  0.22819205  0.66025922  1
  Se  Se45  1  0.22819216  0.77180795  0.16025922  1
  Se  Se46  1  0.22818830  0.45637660  0.16024710  1
  Se  Se47  1  0.54361578  0.77180795  0.16025922  1
  Se  Se48  1  0.66667199  0.33334399  0.97791975  1
  Se  Se49  1  0.33332801  0.66665601  0.47791975  1
  Br  Br50  1  0.99999974  0.99999949  0.49585891  1
  Br  Br51  1  0.00000026  0.00000051  0.99585891  1
