# generated using pymatgen
data_Te4Mo3W(SeS)2
_symmetry_space_group_name_H-M   'P 1'
_cell_length_a   3.40149599
_cell_length_b   3.40151821
_cell_length_c   40.68593184
_cell_angle_alpha   89.99915062
_cell_angle_beta   90.00000000
_cell_angle_gamma   119.99978403
_symmetry_Int_Tables_number   1
_chemical_formula_structural   Te4Mo3W(SeS)2
_chemical_formula_sum   'Te4 Mo3 W1 Se2 S2'
_cell_volume   407.67924994
_cell_formula_units_Z   1
loop_
 _symmetry_equiv_pos_site_id
 _symmetry_equiv_pos_as_xyz
  1  'x, y, z'
loop_
 _atom_site_type_symbol
 _atom_site_label
 _atom_site_symmetry_multiplicity
 _atom_site_fract_x
 _atom_site_fract_y
 _atom_site_fract_z
 _atom_site_occupancy
  Te  Te0  1  0.33340061  0.66680223  0.70620466  1
  Te  Te1  1  0.66661179  0.33322258  0.42128935  1
  Te  Te2  1  0.66660543  0.33320986  0.51337610  1
  Te  Te3  1  0.33343204  0.66686509  0.61359179  1
  Mo  Mo4  1  0.33327165  0.66654329  0.09397473  1
  Mo  Mo5  1  0.33327149  0.66654298  0.46733892  1
  Mo  Mo6  1  0.66671487  0.33342974  0.28170081  1
  W  W7  1  0.66675482  0.33350963  0.65991317  1
  Se  Se8  1  0.66660623  0.33321145  0.05346900  1
  Se  Se9  1  0.66659253  0.33318405  0.13448404  1
  S  S10  1  0.33339440  0.66678979  0.31863403  1
  S  S11  1  0.33334415  0.66668929  0.24477140  1
