# generated using pymatgen
data_Te2MoW3(SeS2)2
_symmetry_space_group_name_H-M   'P 1'
_cell_length_a   3.30837910
_cell_length_b   3.30833964
_cell_length_c   37.68473779
_cell_angle_alpha   90.00008486
_cell_angle_beta   90.00000000
_cell_angle_gamma   120.00039457
_symmetry_Int_Tables_number   1
_chemical_formula_structural   Te2MoW3(SeS2)2
_chemical_formula_sum   'Te2 Mo1 W3 Se2 S4'
_cell_volume   357.20683456
_cell_formula_units_Z   1
loop_
 _symmetry_equiv_pos_site_id
 _symmetry_equiv_pos_as_xyz
  1  'x, y, z'
loop_
 _atom_site_type_symbol
 _atom_site_label
 _atom_site_symmetry_multiplicity
 _atom_site_fract_x
 _atom_site_fract_y
 _atom_site_fract_z
 _atom_site_occupancy
  Te  Te0  1  0.33336088  0.66672277  0.33283368  1
  Te  Te1  1  0.33335122  0.66670343  0.23073048  1
  Mo  Mo2  1  0.33332734  0.66665468  0.09390664  1
  W  W3  1  0.33331147  0.66662294  0.46968517  1
  W  W4  1  0.66668956  0.33337912  0.28180052  1
  W  W5  1  0.66668909  0.33337819  0.65753563  1
  Se  Se6  1  0.33335165  0.66670431  0.70237194  1
  Se  Se7  1  0.33335332  0.66670764  0.61269579  1
  S  S8  1  0.66663389  0.33326677  0.05337591  1
  S  S9  1  0.66664856  0.33329613  0.42898034  1
  S  S10  1  0.66663924  0.33327747  0.13446006  1
  S  S11  1  0.66664378  0.33328655  0.51037185  1
