# generated using pymatgen
data_K3ErSi3(HO5)2
_symmetry_space_group_name_H-M   'P 1'
_cell_length_a   5.92850131
_cell_length_b   13.17733983
_cell_length_c   13.74090862
_cell_angle_alpha   90.00000000
_cell_angle_beta   90.00000000
_cell_angle_gamma   90.00000000
_symmetry_Int_Tables_number   1
_chemical_formula_structural   K3ErSi3(HO5)2
_chemical_formula_sum   'K12 Er4 Si12 H8 O40'
_cell_volume   1073.46556545
_cell_formula_units_Z   4
loop_
 _symmetry_equiv_pos_site_id
 _symmetry_equiv_pos_as_xyz
  1  'x, y, z'
loop_
 _atom_site_type_symbol
 _atom_site_label
 _atom_site_symmetry_multiplicity
 _atom_site_fract_x
 _atom_site_fract_y
 _atom_site_fract_z
 _atom_site_occupancy
  K  K0  1  0.58281539  0.87733562  0.25000000  1
  K  K1  1  0.91718461  0.37733562  0.25000000  1
  K  K2  1  0.41718461  0.12266438  0.75000000  1
  K  K3  1  0.08281539  0.62266438  0.75000000  1
  K  K4  1  0.90317501  0.86346285  0.48624631  1
  K  K5  1  0.59682499  0.36346285  0.01375369  1
  K  K6  1  0.09682499  0.13653715  0.98624631  1
  K  K7  1  0.40317501  0.63653715  0.51375369  1
  K  K8  1  0.09682499  0.13653715  0.51375369  1
  K  K9  1  0.40317501  0.63653715  0.98624631  1
  K  K10  1  0.90317501  0.86346285  0.01375369  1
  K  K11  1  0.59682499  0.36346285  0.48624631  1
  Er  Er12  1  0.40692120  0.54550661  0.25000000  1
  Er  Er13  1  0.09307880  0.04550661  0.25000000  1
  Er  Er14  1  0.59307880  0.45449339  0.75000000  1
  Er  Er15  1  0.90692120  0.95449339  0.75000000  1
  Si  Si16  1  0.08339972  0.75765429  0.25000000  1
  Si  Si17  1  0.41660028  0.25765429  0.25000000  1
  Si  Si18  1  0.91660028  0.24234571  0.75000000  1
  Si  Si19  1  0.58339972  0.74234571  0.75000000  1
  Si  Si20  1  0.90750662  0.60283746  0.39464235  1
  Si  Si21  1  0.59249338  0.10283746  0.10535765  1
  Si  Si22  1  0.09249338  0.39716254  0.89464235  1
  Si  Si23  1  0.40750662  0.89716254  0.60535765  1
  Si  Si24  1  0.09249338  0.39716254  0.60535765  1
  Si  Si25  1  0.40750662  0.89716254  0.89464235  1
  Si  Si26  1  0.90750662  0.60283746  0.10535765  1
  Si  Si27  1  0.59249338  0.10283746  0.39464235  1
  H  H28  1  0.88425981  0.57591285  0.55889373  1
  H  H29  1  0.61574019  0.07591285  0.94110627  1
  H  H30  1  0.11574019  0.42408715  0.05889373  1
  H  H31  1  0.38425981  0.92408715  0.44110627  1
  H  H32  1  0.11574019  0.42408715  0.44110627  1
  H  H33  1  0.38425981  0.92408715  0.05889373  1
  H  H34  1  0.88425981  0.57591285  0.94110627  1
  H  H35  1  0.61574019  0.07591285  0.55889373  1
  O  O36  1  0.33152782  0.70896225  0.25000000  1
  O  O37  1  0.16847218  0.20896225  0.25000000  1
  O  O38  1  0.66847218  0.29103775  0.75000000  1
  O  O39  1  0.83152782  0.79103775  0.75000000  1
  O  O40  1  0.93324791  0.71793422  0.34605820  1
  O  O41  1  0.56675209  0.21793422  0.15394180  1
  O  O42  1  0.06675209  0.28206578  0.84605820  1
  O  O43  1  0.43324791  0.78206578  0.65394180  1
  O  O44  1  0.06675209  0.28206578  0.65394180  1
  O  O45  1  0.43324791  0.78206578  0.84605820  1
  O  O46  1  0.93324791  0.71793422  0.15394180  1
  O  O47  1  0.56675209  0.21793422  0.34605820  1
  O  O48  1  0.90619050  0.63523096  0.51361256  1
  O  O49  1  0.59380950  0.13523096  0.98638744  1
  O  O50  1  0.09380950  0.36476904  0.01361256  1
  O  O51  1  0.40619050  0.86476904  0.48638744  1
  O  O52  1  0.09380950  0.36476904  0.48638744  1
  O  O53  1  0.40619050  0.86476904  0.01361256  1
  O  O54  1  0.90619050  0.63523096  0.98638744  1
  O  O55  1  0.59380950  0.13523096  0.51361256  1
  O  O56  1  0.12775916  0.53330903  0.36949981  1
  O  O57  1  0.37224084  0.03330903  0.13050019  1
  O  O58  1  0.87224084  0.46669097  0.86949981  1
  O  O59  1  0.62775916  0.96669097  0.63050019  1
  O  O60  1  0.87224084  0.46669097  0.63050019  1
  O  O61  1  0.62775916  0.96669097  0.86949981  1
  O  O62  1  0.12775916  0.53330903  0.13050019  1
  O  O63  1  0.37224084  0.03330903  0.36949981  1
  O  O64  1  0.66957176  0.54964489  0.36729049  1
  O  O65  1  0.83042824  0.04964489  0.13270951  1
  O  O66  1  0.33042824  0.45035511  0.86729049  1
  O  O67  1  0.16957176  0.95035511  0.63270951  1
  O  O68  1  0.33042824  0.45035511  0.63270951  1
  O  O69  1  0.16957176  0.95035511  0.86729049  1
  O  O70  1  0.66957176  0.54964489  0.13270951  1
  O  O71  1  0.83042824  0.04964489  0.36729049  1
  O  O72  1  0.42574039  0.37966253  0.25000000  1
  O  O73  1  0.07425961  0.87966253  0.25000000  1
  O  O74  1  0.57425961  0.62033747  0.75000000  1
  O  O75  1  0.92574039  0.12033747  0.75000000  1
