# generated using pymatgen
data_Li2Ti6Zn3O16
_symmetry_space_group_name_H-M   'P 1'
_cell_length_a   8.47282367
_cell_length_b   8.46236111
_cell_length_c   8.46416483
_cell_angle_alpha   90.00159757
_cell_angle_beta   90.00230045
_cell_angle_gamma   90.32292384
_symmetry_Int_Tables_number   1
_chemical_formula_structural   Li2Ti6Zn3O16
_chemical_formula_sum   'Li4 Ti12 Zn6 O32'
_cell_volume   606.87176990
_cell_formula_units_Z   2
loop_
 _symmetry_equiv_pos_site_id
 _symmetry_equiv_pos_as_xyz
  1  'x, y, z'
loop_
 _atom_site_type_symbol
 _atom_site_label
 _atom_site_symmetry_multiplicity
 _atom_site_fract_x
 _atom_site_fract_y
 _atom_site_fract_z
 _atom_site_occupancy
  Li  Li0  1  0.12400160  0.87478615  0.37553985  1
  Li  Li1  1  0.37601439  0.12521427  0.87552290  1
  Li  Li2  1  0.50181535  0.00453054  0.49763413  1
  Li  Li3  1  0.99819990  0.99547366  0.99764323  1
  Ti  Ti4  1  0.11507153  0.62529769  0.13229235  1
  Ti  Ti5  1  0.11813808  0.36292973  0.88542160  1
  Ti  Ti6  1  0.13502797  0.11701950  0.62757759  1
  Ti  Ti7  1  0.36499336  0.88298486  0.12757134  1
  Ti  Ti8  1  0.38187947  0.63707985  0.38539085  1
  Ti  Ti9  1  0.38490075  0.37473100  0.63229538  1
  Ti  Ti10  1  0.61923013  0.87283143  0.86236381  1
  Ti  Ti11  1  0.63428461  0.13290050  0.12009720  1
  Ti  Ti12  1  0.63555556  0.38168931  0.37452599  1
  Ti  Ti13  1  0.86443895  0.61829359  0.87450409  1
  Ti  Ti14  1  0.86570915  0.86712275  0.62009587  1
  Ti  Ti15  1  0.88079311  0.12717404  0.36235717  1
  Zn  Zn16  1  0.00565768  0.49892238  0.50417713  1
  Zn  Zn17  1  0.24542941  0.74890217  0.75252712  1
  Zn  Zn18  1  0.25457308  0.25109057  0.25251829  1
  Zn  Zn19  1  0.49437747  0.50110984  0.00417233  1
  Zn  Zn20  1  0.74781687  0.75635824  0.24539426  1
  Zn  Zn21  1  0.75216291  0.24362363  0.74537936  1
  O  O22  1  0.10700830  0.12922051  0.38936428  1
  O  O23  1  0.11070288  0.89419850  0.62753818  1
  O  O24  1  0.11137492  0.61125672  0.89024697  1
  O  O25  1  0.12317123  0.14436342  0.85914396  1
  O  O26  1  0.13971645  0.39175180  0.10505947  1
  O  O27  1  0.13785626  0.36122783  0.63871347  1
  O  O28  1  0.14007213  0.62154366  0.35600344  1
  O  O29  1  0.14621656  0.85693670  0.12360741  1
  O  O30  1  0.35379690  0.14306878  0.62361013  1
  O  O31  1  0.35993267  0.37844952  0.85602056  1
  O  O32  1  0.36214545  0.63877443  0.13870328  1
  O  O33  1  0.36028397  0.60826724  0.60503688  1
  O  O34  1  0.37682929  0.85565069  0.35914221  1
  O  O35  1  0.38862642  0.38874579  0.39023740  1
  O  O36  1  0.38931167  0.10580805  0.12753168  1
  O  O37  1  0.39300673  0.87080354  0.88936505  1
  O  O38  1  0.60481227  0.36089221  0.60747859  1
  O  O39  1  0.60912510  0.60553692  0.36005769  1
  O  O40  1  0.61017036  0.89045071  0.11205721  1
  O  O41  1  0.61005707  0.35393030  0.14204299  1
  O  O42  1  0.62763538  0.11017977  0.89317290  1
  O  O43  1  0.64241176  0.14093230  0.35842297  1
  O  O44  1  0.64350354  0.64044147  0.88969989  1
  O  O45  1  0.64161507  0.88855858  0.64510436  1
  O  O46  1  0.85838415  0.11146814  0.14510012  1
  O  O47  1  0.85648824  0.35956360  0.38973417  1
  O  O48  1  0.85759591  0.85906117  0.85844042  1
  O  O49  1  0.87238615  0.88982296  0.39316953  1
  O  O50  1  0.88995541  0.64608915  0.64203567  1
  O  O51  1  0.88983738  0.10954654  0.61206134  1
  O  O52  1  0.89087383  0.39446576  0.86004568  1
  O  O53  1  0.89516820  0.63911353  0.10747231  1
