# generated using pymatgen
data_Tl16O15F17
_symmetry_space_group_name_H-M   'P 1'
_cell_length_a   9.67471957
_cell_length_b   9.66335249
_cell_length_c   9.66335249
_cell_angle_alpha   109.02090770
_cell_angle_beta   109.62600174
_cell_angle_gamma   109.62600174
_symmetry_Int_Tables_number   1
_chemical_formula_structural   Tl16O15F17
_chemical_formula_sum   'Tl16 O15 F17'
_cell_volume   696.64599837
_cell_formula_units_Z   1
loop_
 _symmetry_equiv_pos_site_id
 _symmetry_equiv_pos_as_xyz
  1  'x, y, z'
loop_
 _atom_site_type_symbol
 _atom_site_label
 _atom_site_symmetry_multiplicity
 _atom_site_fract_x
 _atom_site_fract_y
 _atom_site_fract_z
 _atom_site_occupancy
  Tl  Tl0  1  0.72869906  0.24776444  0.00086096  1
  Tl  Tl1  1  0.72869906  0.00086096  0.24776444  1
  Tl  Tl2  1  0.00085131  0.97840224  0.97840224  1
  Tl  Tl3  1  0.51277514  0.03091264  0.53063416  1
  Tl  Tl4  1  0.51277514  0.53063416  0.03091264  1
  Tl  Tl5  1  0.50219465  0.23786897  0.23786897  1
  Tl  Tl6  1  0.26535850  0.76169901  0.01242565  1
  Tl  Tl7  1  0.73387369  0.48553127  0.77072815  1
  Tl  Tl8  1  0.73387369  0.77072815  0.48553127  1
  Tl  Tl9  1  0.26535850  0.01242565  0.76169901  1
  Tl  Tl10  1  0.25990170  0.23557818  0.50387552  1
  Tl  Tl11  1  0.25990170  0.50387552  0.23557818  1
  Tl  Tl12  1  0.98663957  0.76017507  0.26276940  1
  Tl  Tl13  1  0.98663957  0.26276940  0.76017507  1
  Tl  Tl14  1  0.98763474  0.47350940  0.47350940  1
  Tl  Tl15  1  0.52466599  0.78564897  0.78564897  1
  O  O16  1  0.78428298  0.98832058  0.98832058  1
  O  O17  1  0.77707519  0.24507956  0.24507956  1
  O  O18  1  0.20670292  0.95075329  0.95075329  1
  O  O19  1  0.49294353  0.25601875  0.01358864  1
  O  O20  1  0.49294353  0.01358864  0.25601875  1
  O  O21  1  0.74726643  0.53319476  0.02843183  1
  O  O22  1  0.74726643  0.02843183  0.53319476  1
  O  O23  1  0.50209061  0.26256514  0.53100318  1
  O  O24  1  0.50209061  0.53100318  0.26256514  1
  O  O25  1  0.49457373  0.75589980  0.99807668  1
  O  O26  1  0.49457373  0.99807668  0.75589980  1
  O  O27  1  0.77408138  0.28071792  0.80461060  1
  O  O28  1  0.21630228  0.50523547  0.98334622  1
  O  O29  1  0.77408138  0.80461060  0.28071792  1
  O  O30  1  0.21630228  0.98334622  0.50523547  1
  F  F31  1  0.03568027  0.24251586  0.00879736  1
  F  F32  1  0.03568027  0.00879736  0.24251586  1
  F  F33  1  0.26866779  0.23732461  0.23732461  1
  F  F34  1  0.72772980  0.47061569  0.47061569  1
  F  F35  1  0.22304784  0.44574426  0.44574426  1
  F  F36  1  0.99945231  0.72031109  0.99844267  1
  F  F37  1  0.02278137  0.23872845  0.50780658  1
  F  F38  1  0.99945231  0.99844267  0.72031109  1
  F  F39  1  0.02278137  0.50780658  0.23872845  1
  F  F40  1  0.76285168  0.71950473  0.71950473  1
  F  F41  1  0.49204525  0.74149166  0.52532989  1
  F  F42  1  0.49204525  0.52532989  0.74149166  1
  F  F43  1  0.27197502  0.76904866  0.27878879  1
  F  F44  1  0.27197502  0.27878879  0.76904866  1
  F  F45  1  0.22767031  0.69274755  0.69274755  1
  F  F46  1  0.96687203  0.70576134  0.48181439  1
  F  F47  1  0.96687203  0.48181439  0.70576134  1
