# generated using pymatgen
data_ZrFeP3PbO12
_symmetry_space_group_name_H-M   'P 1'
_cell_length_a   9.35135702
_cell_length_b   9.35135695
_cell_length_c   9.35135664
_cell_angle_alpha   56.01506596
_cell_angle_beta   56.01506630
_cell_angle_gamma   56.01506865
_symmetry_Int_Tables_number   1
_chemical_formula_structural   ZrFeP3PbO12
_chemical_formula_sum   'Zr2 Fe2 P6 Pb2 O24'
_cell_volume   524.86190422
_cell_formula_units_Z   2
loop_
 _symmetry_equiv_pos_site_id
 _symmetry_equiv_pos_as_xyz
  1  'x, y, z'
loop_
 _atom_site_type_symbol
 _atom_site_label
 _atom_site_symmetry_multiplicity
 _atom_site_fract_x
 _atom_site_fract_y
 _atom_site_fract_z
 _atom_site_occupancy
  Zr  Zr0  1  0.14607370  0.14607370  0.14607370  1
  Zr  Zr1  1  0.64607370  0.64607370  0.64607370  1
  Fe  Fe2  1  0.34654271  0.34654271  0.34654271  1
  Fe  Fe3  1  0.84654271  0.84654271  0.84654271  1
  P  P4  1  0.04392810  0.73658604  0.47412122  1
  P  P5  1  0.47412122  0.04392810  0.73658604  1
  P  P6  1  0.73658604  0.47412122  0.04392810  1
  P  P7  1  0.23658604  0.54392810  0.97412122  1
  P  P8  1  0.54392810  0.97412122  0.23658604  1
  P  P9  1  0.97412122  0.23658604  0.54392810  1
  Pb  Pb10  1  0.98747522  0.98747522  0.98747522  1
  Pb  Pb11  1  0.48747522  0.48747522  0.48747522  1
  O  O12  1  0.14094620  0.25611470  0.51621133  1
  O  O13  1  0.25611470  0.51621133  0.14094620  1
  O  O14  1  0.51621133  0.14094620  0.25611470  1
  O  O15  1  0.07829629  0.90677831  0.29564104  1
  O  O16  1  0.21824787  0.55967077  0.45080532  1
  O  O17  1  0.01621133  0.75611470  0.64094620  1
  O  O18  1  0.29564104  0.07829629  0.90677831  1
  O  O19  1  0.45080532  0.21824787  0.55967077  1
  O  O20  1  0.55967077  0.45080532  0.21824787  1
  O  O21  1  0.21785996  0.37864637  0.99605484  1
  O  O22  1  0.05967077  0.71824787  0.95080532  1
  O  O23  1  0.37864637  0.99605484  0.21785996  1
  O  O24  1  0.64094620  0.01621133  0.75611470  1
  O  O25  1  0.90677831  0.29564104  0.07829629  1
  O  O26  1  0.75611470  0.64094620  0.01621133  1
  O  O27  1  0.40677831  0.57829629  0.79564104  1
  O  O28  1  0.57829629  0.79564104  0.40677831  1
  O  O29  1  0.71824787  0.95080532  0.05967077  1
  O  O30  1  0.99605484  0.21785996  0.37864637  1
  O  O31  1  0.79564104  0.40677831  0.57829629  1
  O  O32  1  0.95080532  0.05967077  0.71824787  1
  O  O33  1  0.49605484  0.87864637  0.71785996  1
  O  O34  1  0.71785996  0.49605484  0.87864637  1
  O  O35  1  0.87864637  0.71785996  0.49605484  1
