# generated using pymatgen
data_KSmH4(N2O7)2
_symmetry_space_group_name_H-M   'P 1'
_cell_length_a   13.01281545
_cell_length_b   11.74866970
_cell_length_c   8.04395337
_cell_angle_alpha   90.00000000
_cell_angle_beta   90.00000000
_cell_angle_gamma   90.00000000
_symmetry_Int_Tables_number   1
_chemical_formula_structural   KSmH4(N2O7)2
_chemical_formula_sum   'K4 Sm4 H16 N16 O56'
_cell_volume   1229.78589967
_cell_formula_units_Z   4
loop_
 _symmetry_equiv_pos_site_id
 _symmetry_equiv_pos_as_xyz
  1  'x, y, z'
loop_
 _atom_site_type_symbol
 _atom_site_label
 _atom_site_symmetry_multiplicity
 _atom_site_fract_x
 _atom_site_fract_y
 _atom_site_fract_z
 _atom_site_occupancy
  K  K0  1  0.02244975  0.83319540  0.41204416  1
  K  K1  1  0.47755025  0.33319540  0.91204416  1
  K  K2  1  0.52244975  0.66680460  0.41204416  1
  K  K3  1  0.97755025  0.16680460  0.91204416  1
  Sm  Sm4  1  0.20581477  0.66738012  0.87500936  1
  Sm  Sm5  1  0.29418523  0.16738012  0.37500936  1
  Sm  Sm6  1  0.70581477  0.83261988  0.87500936  1
  Sm  Sm7  1  0.79418523  0.33261988  0.37500936  1
  H  H8  1  0.01689411  0.43252124  0.34946116  1
  H  H9  1  0.03269291  0.29980526  0.33630438  1
  H  H10  1  0.18661673  0.41802342  0.79145811  1
  H  H11  1  0.19315535  0.46404323  0.60937810  1
  H  H12  1  0.30684465  0.96404323  0.10937810  1
  H  H13  1  0.31338327  0.91802342  0.29145811  1
  H  H14  1  0.46730709  0.79980526  0.83630438  1
  H  H15  1  0.48310589  0.93252124  0.84946116  1
  H  H16  1  0.51689411  0.06747876  0.34946116  1
  H  H17  1  0.53269291  0.20019474  0.33630438  1
  H  H18  1  0.68661673  0.08197658  0.79145811  1
  H  H19  1  0.69315535  0.03595677  0.60937810  1
  H  H20  1  0.80684465  0.53595677  0.10937810  1
  H  H21  1  0.81338327  0.58197658  0.29145811  1
  H  H22  1  0.96730709  0.70019474  0.83630438  1
  H  H23  1  0.98310589  0.56747876  0.84946116  1
  N  N24  1  0.09919257  0.08807236  0.53276766  1
  N  N25  1  0.11191115  0.60895367  0.19624422  1
  N  N26  1  0.17591437  0.92115763  0.88437553  1
  N  N27  1  0.20496490  0.24520234  0.05383270  1
  N  N28  1  0.29503510  0.74520234  0.55383270  1
  N  N29  1  0.32408563  0.42115763  0.38437553  1
  N  N30  1  0.38808885  0.10895367  0.69624422  1
  N  N31  1  0.40080743  0.58807236  0.03276766  1
  N  N32  1  0.59919257  0.41192764  0.53276766  1
  N  N33  1  0.61191115  0.89104633  0.19624422  1
  N  N34  1  0.67591437  0.57884237  0.88437553  1
  N  N35  1  0.70496490  0.25479766  0.05383270  1
  N  N36  1  0.79503510  0.75479766  0.55383270  1
  N  N37  1  0.82408563  0.07884237  0.38437553  1
  N  N38  1  0.88808885  0.39104633  0.69624422  1
  N  N39  1  0.90080743  0.91192764  0.03276766  1
  O  O40  1  0.01961837  0.64090179  0.84337364  1
  O  O41  1  0.02135260  0.05224266  0.60428300  1
  O  O42  1  0.06400061  0.58681433  0.32649793  1
  O  O43  1  0.10430808  0.85543212  0.83625063  1
  O  O44  1  0.13083575  0.71254474  0.15475802  1
  O  O45  1  0.13203187  0.19030027  0.55115987  1
  O  O46  1  0.14362897  0.53125160  0.09772815  1
  O  O47  1  0.14715930  0.20443659  0.16920863  1
  O  O48  1  0.15209054  0.02393769  0.43539079  1
  O  O49  1  0.16769251  0.28565342  0.92485935  1
  O  O50  1  0.16725644  0.02602537  0.89045851  1
  O  O51  1  0.18073582  0.48812241  0.72483363  1
  O  O52  1  0.19811491  0.74039964  0.57905209  1
  O  O53  1  0.23884597  0.37209532  0.42893739  1
  O  O54  1  0.26115403  0.87209532  0.92893739  1
  O  O55  1  0.30188509  0.24039964  0.07905209  1
  O  O56  1  0.31926418  0.98812241  0.22483363  1
  O  O57  1  0.33274356  0.52602537  0.39045851  1
  O  O58  1  0.33230749  0.78565342  0.42485935  1
  O  O59  1  0.34790946  0.52393769  0.93539079  1
  O  O60  1  0.35284070  0.70443659  0.66920863  1
  O  O61  1  0.35637103  0.03125160  0.59772815  1
  O  O62  1  0.36796813  0.69030027  0.05115987  1
  O  O63  1  0.36916425  0.21254474  0.65475802  1
  O  O64  1  0.39569192  0.35543212  0.33625063  1
  O  O65  1  0.43599939  0.08681433  0.82649793  1
  O  O66  1  0.47864740  0.55224266  0.10428300  1
  O  O67  1  0.48038163  0.14090179  0.34337364  1
  O  O68  1  0.51961837  0.85909821  0.84337364  1
  O  O69  1  0.52135260  0.44775734  0.60428300  1
  O  O70  1  0.56400061  0.91318567  0.32649793  1
  O  O71  1  0.60430808  0.64456788  0.83625063  1
  O  O72  1  0.63083575  0.78745526  0.15475802  1
  O  O73  1  0.63203187  0.30969973  0.55115987  1
  O  O74  1  0.64362897  0.96874840  0.09772815  1
  O  O75  1  0.64715930  0.29556341  0.16920863  1
  O  O76  1  0.65209054  0.47606231  0.43539079  1
  O  O77  1  0.66769251  0.21434658  0.92485935  1
  O  O78  1  0.66725644  0.47397463  0.89045851  1
  O  O79  1  0.68073582  0.01187759  0.72483363  1
  O  O80  1  0.69811491  0.75960036  0.57905209  1
  O  O81  1  0.73884597  0.12790468  0.42893739  1
  O  O82  1  0.76115403  0.62790468  0.92893739  1
  O  O83  1  0.80188509  0.25960036  0.07905209  1
  O  O84  1  0.81926418  0.51187759  0.22483363  1
  O  O85  1  0.83274356  0.97397463  0.39045851  1
  O  O86  1  0.83230749  0.71434658  0.42485935  1
  O  O87  1  0.84790946  0.97606231  0.93539079  1
  O  O88  1  0.85284070  0.79556341  0.66920863  1
  O  O89  1  0.85637103  0.46874840  0.59772815  1
  O  O90  1  0.86796813  0.80969973  0.05115987  1
  O  O91  1  0.86916425  0.28745526  0.65475802  1
  O  O92  1  0.89569192  0.14456788  0.33625063  1
  O  O93  1  0.93599939  0.41318567  0.82649793  1
  O  O94  1  0.97864740  0.94775734  0.10428300  1
  O  O95  1  0.98038163  0.35909821  0.34337364  1
