# generated using pymatgen
data_KH3(SO4)2
_symmetry_space_group_name_H-M   'P 1'
_cell_length_a   7.72703896
_cell_length_b   11.63947612
_cell_length_c   8.92399758
_cell_angle_alpha   90.00000000
_cell_angle_beta   112.86870848
_cell_angle_gamma   90.00000000
_symmetry_Int_Tables_number   1
_chemical_formula_structural   KH3(SO4)2
_chemical_formula_sum   'K4 H12 S8 O32'
_cell_volume   739.52548153
_cell_formula_units_Z   4
loop_
 _symmetry_equiv_pos_site_id
 _symmetry_equiv_pos_as_xyz
  1  'x, y, z'
loop_
 _atom_site_type_symbol
 _atom_site_label
 _atom_site_symmetry_multiplicity
 _atom_site_fract_x
 _atom_site_fract_y
 _atom_site_fract_z
 _atom_site_occupancy
  K  K0  1  0.86255986  0.25060142  0.44570599  1
  K  K1  1  0.13744014  0.75060142  0.05429401  1
  K  K2  1  0.13744014  0.74939858  0.55429401  1
  K  K3  1  0.86255986  0.24939858  0.94570599  1
  H  H4  1  0.23674473  0.08213297  0.99337363  1
  H  H5  1  0.76325527  0.58213297  0.50662637  1
  H  H6  1  0.76325527  0.91786703  0.00662637  1
  H  H7  1  0.23674473  0.41786703  0.49337363  1
  H  H8  1  0.36123298  0.07287903  0.70407526  1
  H  H9  1  0.63876702  0.57287903  0.79592474  1
  H  H10  1  0.63876702  0.92712097  0.29592474  1
  H  H11  1  0.36123298  0.42712097  0.20407526  1
  H  H12  1  0.25466962  0.11582234  0.35275798  1
  H  H13  1  0.74533038  0.61582234  0.14724202  1
  H  H14  1  0.74533038  0.88417766  0.64724202  1
  H  H15  1  0.25466962  0.38417766  0.85275798  1
  S  S16  1  0.06741253  0.00379794  0.76419313  1
  S  S17  1  0.93258747  0.50379794  0.73580687  1
  S  S18  1  0.93258747  0.99620206  0.23580687  1
  S  S19  1  0.06741253  0.49620206  0.26419313  1
  S  S20  1  0.43430257  0.20871307  0.56786058  1
  S  S21  1  0.56569743  0.70871307  0.93213942  1
  S  S22  1  0.56569743  0.79128693  0.43213942  1
  S  S23  1  0.43430257  0.29128693  0.06786058  1
  O  O24  1  0.96127967  0.89521360  0.74232779  1
  O  O25  1  0.03872033  0.39521360  0.75767221  1
  O  O26  1  0.03872033  0.10478640  0.25767221  1
  O  O27  1  0.96127967  0.60478640  0.24232779  1
  O  O28  1  0.95307729  0.10714950  0.72621601  1
  O  O29  1  0.04692271  0.60714950  0.77378399  1
  O  O30  1  0.04692271  0.89285050  0.27378399  1
  O  O31  1  0.95307729  0.39285050  0.22621601  1
  O  O32  1  0.19813700  0.99708725  0.67896448  1
  O  O33  1  0.80186300  0.49708725  0.82103552  1
  O  O34  1  0.80186300  0.00291275  0.32103552  1
  O  O35  1  0.19813700  0.50291275  0.17896448  1
  O  O36  1  0.19264173  0.00205761  0.95448832  1
  O  O37  1  0.80735827  0.50205761  0.54551168  1
  O  O38  1  0.80735827  0.99794239  0.04551168  1
  O  O39  1  0.19264173  0.49794239  0.45448832  1
  O  O40  1  0.26669958  0.27743198  0.53918581  1
  O  O41  1  0.73330042  0.77743198  0.96081419  1
  O  O42  1  0.73330042  0.72256802  0.46081419  1
  O  O43  1  0.26669958  0.22256802  0.03918581  1
  O  O44  1  0.60724846  0.26894395  0.59961552  1
  O  O45  1  0.39275154  0.76894395  0.90038448  1
  O  O46  1  0.39275154  0.73105605  0.40038448  1
  O  O47  1  0.60724846  0.23105605  0.09961552  1
  O  O48  1  0.47264796  0.12810483  0.71576716  1
  O  O49  1  0.52735204  0.62810483  0.78423284  1
  O  O50  1  0.52735204  0.87189517  0.28423284  1
  O  O51  1  0.47264796  0.37189517  0.21576716  1
  O  O52  1  0.39654940  0.12804802  0.41920704  1
  O  O53  1  0.60345060  0.62804802  0.08079296  1
  O  O54  1  0.60345060  0.87195198  0.58079296  1
  O  O55  1  0.39654940  0.37195198  0.91920704  1
