# generated using pymatgen
data_ZnPH4NO4
_symmetry_space_group_name_H-M   'P 1'
_cell_length_a   10.80876753
_cell_length_b   10.80868972
_cell_length_c   8.76916672
_cell_angle_alpha   90.00025257
_cell_angle_beta   89.99974526
_cell_angle_gamma   120.00029642
_symmetry_Int_Tables_number   1
_chemical_formula_structural   ZnPH4NO4
_chemical_formula_sum   'Zn8 P8 H32 N8 O32'
_cell_volume   887.23136779
_cell_formula_units_Z   8
loop_
 _symmetry_equiv_pos_site_id
 _symmetry_equiv_pos_as_xyz
  1  'x, y, z'
loop_
 _atom_site_type_symbol
 _atom_site_label
 _atom_site_symmetry_multiplicity
 _atom_site_fract_x
 _atom_site_fract_y
 _atom_site_fract_z
 _atom_site_occupancy
  Zn  Zn0  1  0.14832100  0.82228409  0.45224945  1
  Zn  Zn1  1  0.33334632  0.66667435  0.07487780  1
  Zn  Zn2  1  0.17771756  0.32603816  0.45224913  1
  Zn  Zn3  1  0.67397458  0.85168419  0.45224790  1
  Zn  Zn4  1  0.32603617  0.14832013  0.95224980  1
  Zn  Zn5  1  0.82228604  0.67396046  0.95225036  1
  Zn  Zn6  1  0.66667334  0.33332615  0.57487775  1
  Zn  Zn7  1  0.85168668  0.17771441  0.95224899  1
  P  P8  1  0.14637404  0.81924989  0.07178495  1
  P  P9  1  0.33335324  0.66667696  0.46701275  1
  P  P10  1  0.18075060  0.32712224  0.07178536  1
  P  P11  1  0.67288628  0.85363053  0.07178166  1
  P  P12  1  0.32712120  0.14637241  0.57178249  1
  P  P13  1  0.81925248  0.67287698  0.57178416  1
  P  P14  1  0.66667689  0.33332384  0.96701340  1
  P  P15  1  0.85363315  0.18074666  0.57178317  1
  H  H16  1  0.03192797  0.93088420  0.79346139  1
  H  H17  1  0.00697361  0.58738621  0.69363555  1
  H  H18  1  0.02846752  0.57349761  0.27099991  1
  H  H19  1  0.09325907  0.58681612  0.85531105  1
  H  H20  1  0.12547091  0.53021916  0.68383884  1
  H  H21  1  0.40474807  0.87453079  0.68383985  1
  H  H22  1  0.00000004  0.00000005  0.13369345  1
  H  H23  1  0.00000022  -0.00000002  0.63369308  1
  H  H24  1  0.06911581  0.10104399  0.79346161  1
  H  H25  1  0.49355947  0.90674317  0.85531107  1
  H  H26  1  0.54502653  0.97153120  0.27100079  1
  H  H27  1  0.10104406  0.03192916  0.29346169  1
  H  H28  1  0.58041241  0.99302707  0.69363535  1
  H  H29  1  0.41318361  0.50644099  0.85531127  1
  H  H30  1  0.46978407  0.59525283  0.68384031  1
  H  H31  1  0.41261381  0.41958610  0.69363458  1
  H  H32  1  0.42650424  0.45497090  0.27100090  1
  H  H33  1  0.57349623  0.54502911  0.77100111  1
  H  H34  1  0.58738666  0.58041291  0.19363590  1
  H  H35  1  0.53021927  0.40474864  0.18383952  1
  H  H36  1  0.58681556  0.49355632  0.35531175  1
  H  H37  1  0.41958699  0.00697221  0.19363536  1
  H  H38  1  0.89895598  0.96807013  0.79346205  1
  H  H39  1  0.45497239  0.02846879  0.77100007  1
  H  H40  1  0.50644084  0.09325705  0.35531124  1
  H  H41  1  0.93088502  0.89895525  0.29346183  1
  H  H42  1  0.59525368  0.12546953  0.18383974  1
  H  H43  1  0.87453101  0.46978171  0.18383943  1
  H  H44  1  0.90674306  0.41318255  0.35531139  1
  H  H45  1  0.97153168  0.42650332  0.77100049  1
  H  H46  1  0.99302722  0.41261462  0.19363431  1
  H  H47  1  0.96807220  0.06911578  0.29346198  1
  N  N48  1  0.04806229  0.53221487  0.75375557  1
  N  N49  1  -0.00000047  -0.00000057  0.25109258  1
  N  N50  1  0.00000056  0.99999956  0.75109311  1
  N  N51  1  0.48415354  0.95193794  0.75375649  1
  N  N52  1  0.46778326  0.51584502  0.75375586  1
  N  N53  1  0.53221615  0.48415232  0.25375709  1
  N  N54  1  0.51584533  0.04806012  0.25375571  1
  N  N55  1  0.95193883  0.46778464  0.25375627  1
  O  O56  1  0.02569827  0.81759434  0.97330359  1
  O  O57  1  0.09197228  0.77237838  0.23734757  1
  O  O58  1  0.27632125  0.97375409  0.07265697  1
  O  O59  1  0.18935077  0.71354414  0.00160797  1
  O  O60  1  0.02625050  0.30256886  0.07265614  1
  O  O61  1  0.28786385  0.77261825  0.53148900  1
  O  O62  1  0.22739296  0.51524736  0.53148281  1
  O  O63  1  0.33338341  0.66669224  0.29367331  1
  O  O64  1  0.28645653  0.47580505  0.00160328  1
  O  O65  1  0.22762035  0.31959452  0.23734760  1
  O  O66  1  0.18240523  0.20810055  0.97330509  1
  O  O67  1  0.52421068  0.81066379  0.00159538  1
  O  O68  1  0.48477164  0.71215184  0.53150598  1
  O  O69  1  0.30256887  0.27632100  0.57265672  1
  O  O70  1  0.20809959  0.02569431  0.47330405  1
  O  O71  1  0.68041111  0.90802871  0.23734674  1
  O  O72  1  0.31959285  0.09197451  0.73734778  1
  O  O73  1  0.79191190  0.97430563  0.97330479  1
  O  O74  1  0.69743374  0.72367890  0.07265995  1
  O  O75  1  0.51524809  0.28785510  0.03148105  1
  O  O76  1  0.47580300  0.18934772  0.50160628  1
  O  O77  1  0.81759957  0.79189858  0.47330345  1
  O  O78  1  0.77238083  0.68040647  0.73734817  1
  O  O79  1  0.71354841  0.52419462  0.50160899  1
  O  O80  1  0.66669268  0.33330887  0.79367327  1
  O  O81  1  0.77261898  0.48475446  0.03149073  1
  O  O82  1  0.71215246  0.22738047  0.03150711  1
  O  O83  1  0.97375533  0.69743191  0.57265910  1
  O  O84  1  0.81066572  0.28645349  0.50159719  1
  O  O85  1  0.72368164  0.02624551  0.57265804  1
  O  O86  1  0.90802976  0.22761878  0.73734565  1
  O  O87  1  0.97430948  0.18239776  0.47330561  1
