# generated using pymatgen
data_TiMnCr(PO4)3
_symmetry_space_group_name_H-M   'P 1'
_cell_length_a   8.64397278
_cell_length_b   8.64397287
_cell_length_c   8.64397309
_cell_angle_alpha   59.80551787
_cell_angle_beta   59.80551752
_cell_angle_gamma   59.80551833
_symmetry_Int_Tables_number   1
_chemical_formula_structural   TiMnCr(PO4)3
_chemical_formula_sum   'Ti2 Mn2 Cr2 P6 O24'
_cell_volume   454.67768870
_cell_formula_units_Z   2
loop_
 _symmetry_equiv_pos_site_id
 _symmetry_equiv_pos_as_xyz
  1  'x, y, z'
loop_
 _atom_site_type_symbol
 _atom_site_label
 _atom_site_symmetry_multiplicity
 _atom_site_fract_x
 _atom_site_fract_y
 _atom_site_fract_z
 _atom_site_occupancy
  Ti  Ti0  1  0.14489582  0.14489582  0.14489582  1
  Ti  Ti1  1  0.64489582  0.64489582  0.64489582  1
  Mn  Mn2  1  0.99879738  0.99879738  0.99879738  1
  Mn  Mn3  1  0.49879738  0.49879738  0.49879738  1
  Cr  Cr4  1  0.35705060  0.35705060  0.35705060  1
  Cr  Cr5  1  0.85705060  0.85705060  0.85705060  1
  P  P6  1  0.04266609  0.74963202  0.45990224  1
  P  P7  1  0.45990224  0.04266609  0.74963202  1
  P  P8  1  0.74963202  0.45990224  0.04266609  1
  P  P9  1  0.24963202  0.54266609  0.95990224  1
  P  P10  1  0.54266609  0.95990224  0.24963202  1
  P  P11  1  0.95990224  0.24963202  0.54266609  1
  O  O12  1  0.11716358  0.30638813  0.50614763  1
  O  O13  1  0.30638813  0.50614763  0.11716358  1
  O  O14  1  0.05670048  0.91479086  0.26434497  1
  O  O15  1  0.50614763  0.11716358  0.30638813  1
  O  O16  1  0.00614763  0.80638813  0.61716358  1
  O  O17  1  0.23531400  0.58505447  0.44124658  1
  O  O18  1  0.26434497  0.05670048  0.91479086  1
  O  O19  1  0.44124658  0.23531400  0.58505447  1
  O  O20  1  0.19304810  0.37745057  0.99940649  1
  O  O21  1  0.58505447  0.44124658  0.23531400  1
  O  O22  1  0.08505447  0.73531400  0.94124658  1
  O  O23  1  0.37745057  0.99940649  0.19304810  1
  O  O24  1  0.61716358  0.00614763  0.80638813  1
  O  O25  1  0.91479086  0.26434497  0.05670048  1
  O  O26  1  0.41479086  0.55670048  0.76434497  1
  O  O27  1  0.80638813  0.61716358  0.00614763  1
  O  O28  1  0.55670048  0.76434497  0.41479086  1
  O  O29  1  0.73531400  0.94124658  0.08505447  1
  O  O30  1  0.76434497  0.41479086  0.55670048  1
  O  O31  1  0.99940649  0.19304810  0.37745057  1
  O  O32  1  0.49940649  0.87745057  0.69304810  1
  O  O33  1  0.94124658  0.08505447  0.73531400  1
  O  O34  1  0.69304810  0.49940649  0.87745057  1
  O  O35  1  0.87745057  0.69304810  0.49940649  1
