# generated using pymatgen
data_Li2Co3SbO8
_symmetry_space_group_name_H-M   'P 1'
_cell_length_a   8.25879580
_cell_length_b   8.25889283
_cell_length_c   8.25878690
_cell_angle_alpha   89.97709033
_cell_angle_beta   89.98473590
_cell_angle_gamma   90.00727869
_symmetry_Int_Tables_number   1
_chemical_formula_structural   Li2Co3SbO8
_chemical_formula_sum   'Li8 Co12 Sb4 O32'
_cell_volume   563.31947447
_cell_formula_units_Z   4
loop_
 _symmetry_equiv_pos_site_id
 _symmetry_equiv_pos_as_xyz
  1  'x, y, z'
loop_
 _atom_site_type_symbol
 _atom_site_label
 _atom_site_symmetry_multiplicity
 _atom_site_fract_x
 _atom_site_fract_y
 _atom_site_fract_z
 _atom_site_occupancy
  Li  Li0  1  0.99605416  0.99604505  0.99604374  1
  Li  Li1  1  0.25395310  0.25398185  0.25397129  1
  Li  Li2  1  0.24608301  0.74606113  0.75390635  1
  Li  Li3  1  0.50389086  0.00393129  0.49609480  1
  Li  Li4  1  0.49603728  0.50395519  0.00391705  1
  Li  Li5  1  0.75394888  0.24607417  0.74606177  1
  Li  Li6  1  0.74608186  0.75393742  0.24604555  1
  Li  Li7  1  0.00397809  0.49607281  0.50394648  1
  Co  Co8  1  0.11797877  0.13208088  0.62500108  1
  Co  Co9  1  0.12502767  0.38208115  0.86791678  1
  Co  Co10  1  0.13206663  0.62499370  0.11793171  1
  Co  Co11  1  0.36794050  0.37502419  0.61796927  1
  Co  Co12  1  0.37497184  0.61792384  0.36797863  1
  Co  Co13  1  0.38205507  0.86790738  0.12499204  1
  Co  Co14  1  0.61788486  0.36794666  0.37504212  1
  Co  Co15  1  0.62498618  0.11791956  0.13206069  1
  Co  Co16  1  0.63205435  0.87498745  0.88203500  1
  Co  Co17  1  0.86794057  0.12499914  0.38210555  1
  Co  Co18  1  0.87502063  0.88206475  0.63207357  1
  Co  Co19  1  0.88207999  0.63206288  0.87498815  1
  Sb  Sb20  1  0.12499562  0.87500485  0.37498270  1
  Sb  Sb21  1  0.37500143  0.12501242  0.87500159  1
  Sb  Sb22  1  0.62500855  0.62500934  0.62499991  1
  Sb  Sb23  1  0.87498738  0.37499403  0.12500824  1
  O  O24  1  0.10585655  0.11971978  0.39010456  1
  O  O25  1  0.10991414  0.89421261  0.61970093  1
  O  O26  1  0.11219953  0.61219267  0.88781329  1
  O  O27  1  0.13030591  0.14420766  0.85990072  1
  O  O28  1  0.11970770  0.39010511  0.10577630  1
  O  O29  1  0.13787124  0.36220302  0.63781086  1
  O  O30  1  0.14008779  0.63028395  0.35581002  1
  O  O31  1  0.14419061  0.85990798  0.13026784  1
  O  O32  1  0.35582464  0.14018082  0.63029729  1
  O  O33  1  0.35992686  0.36973365  0.85575065  1
  O  O34  1  0.36217225  0.63781802  0.13783840  1
  O  O35  1  0.38028288  0.60985946  0.60585951  1
  O  O36  1  0.36969632  0.85576117  0.35991691  1
  O  O37  1  0.38778135  0.38783349  0.38789153  1
  O  O38  1  0.39004358  0.10580273  0.11970612  1
  O  O39  1  0.39417534  0.88029994  0.89006636  1
  O  O40  1  0.60573552  0.38029743  0.60997365  1
  O  O41  1  0.60988821  0.60583959  0.38031165  1
  O  O42  1  0.61215735  0.88779140  0.11215494  1
  O  O43  1  0.63027086  0.35581592  0.14009910  1
  O  O44  1  0.61970067  0.10990511  0.89413950  1
  O  O45  1  0.63780031  0.13781994  0.36220088  1
  O  O46  1  0.64009207  0.86971026  0.64417243  1
  O  O47  1  0.64418885  0.64007473  0.86970160  1
  O  O48  1  0.85576722  0.35992386  0.36973155  1
  O  O49  1  0.85993152  0.13028903  0.14421715  1
  O  O50  1  0.86217464  0.86217703  0.86215820  1
  O  O51  1  0.88029922  0.89005777  0.39422229  1
  O  O52  1  0.86973741  0.64419256  0.64007998  1
  O  O53  1  0.88784934  0.11216146  0.61220743  1
  O  O54  1  0.89013163  0.39420153  0.88029543  1
  O  O55  1  0.89420924  0.61969117  0.10989288  1
