# generated using pymatgen
data_RbPH3O4F
_symmetry_space_group_name_H-M   'P 1'
_cell_length_a   9.17079486
_cell_length_b   4.65848954
_cell_length_c   12.11251427
_cell_angle_alpha   90.00000000
_cell_angle_beta   90.00000000
_cell_angle_gamma   90.00000000
_symmetry_Int_Tables_number   1
_chemical_formula_structural   RbPH3O4F
_chemical_formula_sum   'Rb4 P4 H12 O16 F4'
_cell_volume   517.47146363
_cell_formula_units_Z   4
loop_
 _symmetry_equiv_pos_site_id
 _symmetry_equiv_pos_as_xyz
  1  'x, y, z'
loop_
 _atom_site_type_symbol
 _atom_site_label
 _atom_site_symmetry_multiplicity
 _atom_site_fract_x
 _atom_site_fract_y
 _atom_site_fract_z
 _atom_site_occupancy
  Rb  Rb0  1  0.15463586  0.36763551  0.69909664  1
  Rb  Rb1  1  0.34536414  0.86763551  0.19909664  1
  Rb  Rb2  1  0.65463586  0.13236449  0.69909664  1
  Rb  Rb3  1  0.84536414  0.63236449  0.19909664  1
  P  P4  1  0.02224649  0.07931627  0.95553318  1
  P  P5  1  0.47775351  0.57931627  0.45553318  1
  P  P6  1  0.52224649  0.42068373  0.95553318  1
  P  P7  1  0.97775351  0.92068373  0.45553318  1
  H  H8  1  0.10310513  0.63677933  0.99296240  1
  H  H9  1  0.10087115  0.24854782  0.29528049  1
  H  H10  1  0.21322005  0.81643964  0.48975254  1
  H  H11  1  0.28677995  0.31643964  0.98975254  1
  H  H12  1  0.39912885  0.74854782  0.79528049  1
  H  H13  1  0.39689487  0.13677933  0.49296240  1
  H  H14  1  0.60310513  0.86322067  0.99296240  1
  H  H15  1  0.60087115  0.25145218  0.29528049  1
  H  H16  1  0.71322005  0.68356036  0.48975254  1
  H  H17  1  0.78677995  0.18356036  0.98975254  1
  H  H18  1  0.89912885  0.75145218  0.79528049  1
  H  H19  1  0.89689487  0.36322067  0.49296240  1
  O  O20  1  0.02499112  0.03441905  0.34405565  1
  O  O21  1  0.09789986  0.83739636  0.02842600  1
  O  O22  1  0.11245258  0.81657541  0.52763242  1
  O  O23  1  0.12951603  0.33181669  0.94757171  1
  O  O24  1  0.37048397  0.83181669  0.44757171  1
  O  O25  1  0.38754742  0.31657541  0.02763242  1
  O  O26  1  0.40210014  0.33739636  0.52842600  1
  O  O27  1  0.47500888  0.53441905  0.84405565  1
  O  O28  1  0.52499112  0.46558095  0.34405565  1
  O  O29  1  0.59789986  0.66260364  0.02842600  1
  O  O30  1  0.61245258  0.68342459  0.52763242  1
  O  O31  1  0.62951603  0.16818331  0.94757171  1
  O  O32  1  0.87048397  0.66818331  0.44757171  1
  O  O33  1  0.88754742  0.18342459  0.02763242  1
  O  O34  1  0.90210014  0.16260364  0.52842600  1
  O  O35  1  0.97500888  0.96558095  0.84405565  1
  F  F36  1  0.15615554  0.39844221  0.24771997  1
  F  F37  1  0.34384446  0.89844221  0.74771997  1
  F  F38  1  0.65615554  0.10155779  0.24771997  1
  F  F39  1  0.84384446  0.60155779  0.74771997  1
