# generated using pymatgen
data_PrH(SeO3)2
_symmetry_space_group_name_H-M   'P 1'
_cell_length_a   7.14464931
_cell_length_b   8.47112919
_cell_length_c   19.51156674
_cell_angle_alpha   90.00000000
_cell_angle_beta   90.00000000
_cell_angle_gamma   90.00000000
_symmetry_Int_Tables_number   1
_chemical_formula_structural   PrH(SeO3)2
_chemical_formula_sum   'Pr8 H8 Se16 O48'
_cell_volume   1180.90337945
_cell_formula_units_Z   8
loop_
 _symmetry_equiv_pos_site_id
 _symmetry_equiv_pos_as_xyz
  1  'x, y, z'
loop_
 _atom_site_type_symbol
 _atom_site_label
 _atom_site_symmetry_multiplicity
 _atom_site_fract_x
 _atom_site_fract_y
 _atom_site_fract_z
 _atom_site_occupancy
  Pr  Pr0  1  0.91664241  0.65673943  -0.00000024  1
  Pr  Pr1  1  0.08335759  0.34326057  0.49999976  1
  Pr  Pr2  1  0.91664241  0.84326057  0.49999976  1
  Pr  Pr3  1  0.08335759  0.15673943  -0.00000024  1
  Pr  Pr4  1  0.41524189  0.55829998  0.91340154  1
  Pr  Pr5  1  0.58475811  0.44170002  0.41340154  1
  Pr  Pr6  1  0.41524189  0.94170002  0.41340154  1
  Pr  Pr7  1  0.58475811  0.05829998  0.91340154  1
  H  H8  1  0.69021723  0.34671262  0.70053591  1
  H  H9  1  0.30978277  0.65328738  0.20053591  1
  H  H10  1  0.69021723  0.15328738  0.20053591  1
  H  H11  1  0.30978277  0.84671262  0.70053591  1
  H  H12  1  0.21483623  0.89686060  0.21628083  1
  H  H13  1  0.78516377  0.10313940  0.71628083  1
  H  H14  1  0.21483623  0.60313940  0.71628083  1
  H  H15  1  0.78516377  0.39686060  0.21628083  1
  Se  Se16  1  0.92863778  0.40843296  0.86210307  1
  Se  Se17  1  0.07136222  0.59156704  0.36210307  1
  Se  Se18  1  0.92863778  0.09156704  0.36210307  1
  Se  Se19  1  0.07136222  0.90843296  0.86210307  1
  Se  Se20  1  0.40900257  0.33791706  0.76319220  1
  Se  Se21  1  0.59099743  0.66208294  0.26319220  1
  Se  Se22  1  0.40900257  0.16208294  0.26319220  1
  Se  Se23  1  0.59099743  0.83791706  0.76319220  1
  Se  Se24  1  0.94133218  0.87263022  0.14726112  1
  Se  Se25  1  0.05866782  0.12736978  0.64726112  1
  Se  Se26  1  0.94133218  0.62736978  0.64726112  1
  Se  Se27  1  0.05866782  0.37263022  0.14726112  1
  Se  Se28  1  0.43415050  0.80643959  0.05074488  1
  Se  Se29  1  0.56584950  0.19356041  0.55074488  1
  Se  Se30  1  0.43415050  0.69356041  0.55074488  1
  Se  Se31  1  0.56584950  0.30643959  0.05074488  1
  O  O32  1  0.76125943  0.53589174  0.89490438  1
  O  O33  1  0.23874057  0.46410826  0.39490438  1
  O  O34  1  0.76125943  0.96410826  0.39490438  1
  O  O35  1  0.23874057  0.03589174  0.89490438  1
  O  O36  1  0.09466481  0.42958723  0.92812834  1
  O  O37  1  0.90533519  0.57041277  0.42812834  1
  O  O38  1  0.09466481  0.07041277  0.42812834  1
  O  O39  1  0.90533519  0.92958723  0.92812834  1
  O  O40  1  0.86512340  0.22146939  0.88541747  1
  O  O41  1  0.13487660  0.77853061  0.38541747  1
  O  O42  1  0.86512340  0.27853061  0.38541747  1
  O  O43  1  0.13487660  0.72146939  0.88541747  1
  O  O44  1  0.48777277  0.30151379  0.84430231  1
  O  O45  1  0.51222723  0.69848621  0.34430231  1
  O  O46  1  0.48777277  0.19848621  0.34430231  1
  O  O47  1  0.51222723  0.80151379  0.84430231  1
  O  O48  1  0.29904977  0.51074491  0.78113191  1
  O  O49  1  0.70095023  0.48925509  0.28113191  1
  O  O50  1  0.29904977  0.98925509  0.28113191  1
  O  O51  1  0.70095023  0.01074491  0.78113191  1
  O  O52  1  0.60777629  0.43044605  0.72042097  1
  O  O53  1  0.39222371  0.56955395  0.22042097  1
  O  O54  1  0.60777629  0.06955395  0.22042097  1
  O  O55  1  0.39222371  0.93044605  0.72042097  1
  O  O56  1  0.17544484  0.81877648  0.17847380  1
  O  O57  1  0.82455516  0.18122352  0.67847380  1
  O  O58  1  0.17544484  0.68122352  0.67847380  1
  O  O59  1  0.82455516  0.31877648  0.17847380  1
  O  O60  1  0.98072567  0.91705342  0.06310182  1
  O  O61  1  0.01927433  0.08294658  0.56310182  1
  O  O62  1  0.98072567  0.58294658  0.56310182  1
  O  O63  1  0.01927433  0.41705342  0.06310182  1
  O  O64  1  0.85385612  0.69008621  0.13405630  1
  O  O65  1  0.14614388  0.30991379  0.63405630  1
  O  O66  1  0.85385612  0.80991379  0.63405630  1
  O  O67  1  0.14614388  0.19008621  0.13405630  1
  O  O68  1  0.36649334  0.99327640  0.02896367  1
  O  O69  1  0.63350666  0.00672360  0.52896367  1
  O  O70  1  0.36649334  0.50672360  0.52896367  1
  O  O71  1  0.63350666  0.49327640  0.02896367  1
  O  O72  1  0.26474227  0.67903982  0.01902930  1
  O  O73  1  0.73525773  0.32096018  0.51902930  1
  O  O74  1  0.26474227  0.82096018  0.51902930  1
  O  O75  1  0.73525773  0.17903982  0.01902930  1
  O  O76  1  0.59453987  0.78568484  0.98221041  1
  O  O77  1  0.40546013  0.21431516  0.48221041  1
  O  O78  1  0.59453987  0.71431516  0.48221041  1
  O  O79  1  0.40546013  0.28568484  0.98221041  1
