# generated using pymatgen
data_LiV(CO3)2
_symmetry_space_group_name_H-M   'P 1'
_cell_length_a   4.69259395
_cell_length_b   5.76796168
_cell_length_c   4.69259363
_cell_angle_alpha   114.00277881
_cell_angle_beta   59.99999774
_cell_angle_gamma   114.00277938
_symmetry_Int_Tables_number   1
_chemical_formula_structural   LiV(CO3)2
_chemical_formula_sum   'Li1 V1 C2 O6'
_cell_volume   97.10719451
_cell_formula_units_Z   1
loop_
 _symmetry_equiv_pos_site_id
 _symmetry_equiv_pos_as_xyz
  1  'x, y, z'
loop_
 _atom_site_type_symbol
 _atom_site_label
 _atom_site_symmetry_multiplicity
 _atom_site_fract_x
 _atom_site_fract_y
 _atom_site_fract_z
 _atom_site_occupancy
  Li  Li0  1  0.00000000  0.00000000  0.00000000  1
  V  V1  1  0.50000000  0.50000000  0.50000000  1
  C  C2  1  0.24490907  0.73472820  0.24490907  1
  C  C3  1  0.75509093  0.26527180  0.75509093  1
  O  O4  1  0.03678224  0.26415706  0.48492389  1
  O  O5  1  0.51507611  0.73584294  0.25754906  1
  O  O6  1  0.25754906  0.73584294  0.96321776  1
  O  O7  1  0.74245094  0.26415706  0.03678224  1
  O  O8  1  0.48492389  0.26415706  0.74245094  1
  O  O9  1  0.96321776  0.73584294  0.51507611  1
