# generated using pymatgen
data_Ba2Mg3H10
_symmetry_space_group_name_H-M   'P 1'
_cell_length_a   9.48190243
_cell_length_b   9.48190243
_cell_length_c   7.86710793
_cell_angle_alpha   68.87406264
_cell_angle_beta   111.12593736
_cell_angle_gamma   143.94384141
_symmetry_Int_Tables_number   1
_chemical_formula_structural   Ba2Mg3H10
_chemical_formula_sum   'Ba4 Mg6 H20'
_cell_volume   385.24117326
_cell_formula_units_Z   2
loop_
 _symmetry_equiv_pos_site_id
 _symmetry_equiv_pos_as_xyz
  1  'x, y, z'
loop_
 _atom_site_type_symbol
 _atom_site_label
 _atom_site_symmetry_multiplicity
 _atom_site_fract_x
 _atom_site_fract_y
 _atom_site_fract_z
 _atom_site_occupancy
  Ba  Ba0  1  0.71424837  0.28575163  0.30727520  1
  Ba  Ba1  1  0.28575163  0.71424837  0.69272480  1
  Ba  Ba2  1  0.61562401  0.38437599  0.72382658  1
  Ba  Ba3  1  0.38437599  0.61562401  0.27617342  1
  Mg  Mg4  1  0.92727266  0.07272734  0.55474194  1
  Mg  Mg5  1  0.07272734  0.92727266  0.44525806  1
  Mg  Mg6  1  0.82692237  0.17307763  0.98866202  1
  Mg  Mg7  1  0.17307763  0.82692237  0.01133798  1
  Mg  Mg8  1  0.25500290  0.25500290  0.00000000  1
  Mg  Mg9  1  0.74499710  0.74499710  0.00000000  1
  H  H10  1  0.15105596  0.36995821  0.98455580  1
  H  H11  1  0.63004179  0.84894404  0.98455580  1
  H  H12  1  0.84894404  0.63004179  0.01544420  1
  H  H13  1  0.36995821  0.15105596  0.01544420  1
  H  H14  1  0.08544538  0.38520185  0.51553273  1
  H  H15  1  0.61479815  0.91455462  0.51553273  1
  H  H16  1  0.91455462  0.61479815  0.48446727  1
  H  H17  1  0.38520185  0.08544538  0.48446727  1
  H  H18  1  0.97710366  0.02289634  0.82353582  1
  H  H19  1  0.02289634  0.97710366  0.17646418  1
  H  H20  1  0.86466312  0.13533688  0.25643150  1
  H  H21  1  0.13533688  0.86466312  0.74356850  1
  H  H22  1  0.76850160  0.23149840  0.72439743  1
  H  H23  1  0.23149840  0.76850160  0.27560257  1
  H  H24  1  0.47399212  0.52600788  0.81603845  1
  H  H25  1  0.52600788  0.47399212  0.18396155  1
  H  H26  1  0.22033993  0.22033993  0.50000000  1
  H  H27  1  0.77966007  0.77966007  0.50000000  1
  H  H28  1  0.00000000  0.50000000  0.00000000  1
  H  H29  1  0.50000000  0.00000000  0.00000000  1
