# generated using pymatgen
data_AlH6N2Cl3
_symmetry_space_group_name_H-M   'P 1'
_cell_length_a   11.50503593
_cell_length_b   18.32680304
_cell_length_c   6.58683849
_cell_angle_alpha   90.00000000
_cell_angle_beta   90.00000000
_cell_angle_gamma   90.00000000
_symmetry_Int_Tables_number   1
_chemical_formula_structural   AlH6N2Cl3
_chemical_formula_sum   'Al8 H48 N16 Cl24'
_cell_volume   1388.83836989
_cell_formula_units_Z   8
loop_
 _symmetry_equiv_pos_site_id
 _symmetry_equiv_pos_as_xyz
  1  'x, y, z'
loop_
 _atom_site_type_symbol
 _atom_site_label
 _atom_site_symmetry_multiplicity
 _atom_site_fract_x
 _atom_site_fract_y
 _atom_site_fract_z
 _atom_site_occupancy
  Al  Al0  1  0.50000000  0.50000000  0.00000000  1
  Al  Al1  1  0.00000000  0.00000000  0.50000000  1
  Al  Al2  1  0.50000000  0.00000000  0.00000000  1
  Al  Al3  1  0.00000000  0.50000000  0.50000000  1
  Al  Al4  1  0.76017430  0.25000000  0.05490546  1
  Al  Al5  1  0.26017430  0.25000000  0.44509454  1
  Al  Al6  1  0.23982570  0.75000000  0.94509454  1
  Al  Al7  1  0.73982570  0.75000000  0.55490546  1
  H  H8  1  0.58176821  0.38755965  0.79497710  1
  H  H9  1  0.08176821  0.11244035  0.70502290  1
  H  H10  1  0.41823179  0.88755965  0.20502290  1
  H  H11  1  0.91823179  0.61244035  0.29497710  1
  H  H12  1  0.41823179  0.61244035  0.20502290  1
  H  H13  1  0.91823179  0.88755965  0.29497710  1
  H  H14  1  0.58176821  0.11244035  0.79497710  1
  H  H15  1  0.08176821  0.38755965  0.70502290  1
  H  H16  1  0.68830937  0.44508833  0.82790163  1
  H  H17  1  0.18830937  0.05491167  0.67209837  1
  H  H18  1  0.31169063  0.94508833  0.17209837  1
  H  H19  1  0.81169063  0.55491167  0.32790163  1
  H  H20  1  0.31169063  0.55491167  0.17209837  1
  H  H21  1  0.81169063  0.94508833  0.32790163  1
  H  H22  1  0.68830937  0.05491167  0.82790163  1
  H  H23  1  0.18830937  0.44508833  0.67209837  1
  H  H24  1  0.59061450  0.45999266  0.64912446  1
  H  H25  1  0.09061450  0.04000734  0.85087554  1
  H  H26  1  0.40938550  0.95999266  0.35087554  1
  H  H27  1  0.90938550  0.54000734  0.14912446  1
  H  H28  1  0.40938550  0.54000734  0.35087554  1
  H  H29  1  0.90938550  0.95999266  0.14912446  1
  H  H30  1  0.59061450  0.04000734  0.64912446  1
  H  H31  1  0.09061450  0.45999266  0.85087554  1
  H  H32  1  0.54598373  0.62642522  0.85439113  1
  H  H33  1  0.04598373  0.87357478  0.64560887  1
  H  H34  1  0.45401627  0.12642522  0.14560887  1
  H  H35  1  0.95401627  0.37357478  0.35439113  1
  H  H36  1  0.45401627  0.37357478  0.14560887  1
  H  H37  1  0.95401627  0.12642522  0.35439113  1
  H  H38  1  0.54598373  0.87357478  0.85439113  1
  H  H39  1  0.04598373  0.62642522  0.64560887  1
  H  H40  1  0.67033908  0.58286299  0.86931194  1
  H  H41  1  0.17033908  0.91713701  0.63068806  1
  H  H42  1  0.32966092  0.08286299  0.13068806  1
  H  H43  1  0.82966092  0.41713701  0.36931194  1
  H  H44  1  0.32966092  0.41713701  0.13068806  1
  H  H45  1  0.82966092  0.08286299  0.36931194  1
  H  H46  1  0.67033908  0.91713701  0.86931194  1
  H  H47  1  0.17033908  0.58286299  0.63068806  1
  H  H48  1  0.61420080  0.62016793  0.07296381  1
  H  H49  1  0.11420080  0.87983207  0.42703619  1
  H  H50  1  0.38579920  0.12016793  0.92703619  1
  H  H51  1  0.88579920  0.37983207  0.57296381  1
  H  H52  1  0.38579920  0.37983207  0.92703619  1
  H  H53  1  0.88579920  0.12016793  0.57296381  1
  H  H54  1  0.61420080  0.87983207  0.07296381  1
  H  H55  1  0.11420080  0.62016793  0.42703619  1
  N  N56  1  0.89913458  0.55743766  0.29704301  1
  N  N57  1  0.39913458  0.94256234  0.20295699  1
  N  N58  1  0.10086542  0.05743766  0.70295699  1
  N  N59  1  0.60086542  0.44256234  0.79704301  1
  N  N60  1  0.10086542  0.44256234  0.70295699  1
  N  N61  1  0.60086542  0.05743766  0.79704301  1
  N  N62  1  0.89913458  0.94256234  0.29704301  1
  N  N63  1  0.39913458  0.55743766  0.20295699  1
  N  N64  1  0.59302293  0.59148378  0.94350622  1
  N  N65  1  0.09302293  0.90851622  0.55649378  1
  N  N66  1  0.40697707  0.09148378  0.05649378  1
  N  N67  1  0.90697707  0.40851622  0.44350622  1
  N  N68  1  0.40697707  0.40851622  0.05649378  1
  N  N69  1  0.90697707  0.09148378  0.44350622  1
  N  N70  1  0.59302293  0.90851622  0.94350622  1
  N  N71  1  0.09302293  0.59148378  0.55649378  1
  Cl  Cl72  1  0.62622665  0.46820527  0.26603527  1
  Cl  Cl73  1  0.12622665  0.03179473  0.23396473  1
  Cl  Cl74  1  0.37377335  0.96820527  0.73396473  1
  Cl  Cl75  1  0.87377335  0.53179473  0.76603527  1
  Cl  Cl76  1  0.37377335  0.53179473  0.73396473  1
  Cl  Cl77  1  0.87377335  0.96820527  0.76603527  1
  Cl  Cl78  1  0.62622665  0.03179473  0.26603527  1
  Cl  Cl79  1  0.12622665  0.46820527  0.23396473  1
  Cl  Cl80  1  0.85467721  0.34542574  0.95173418  1
  Cl  Cl81  1  0.35467721  0.15457426  0.54826582  1
  Cl  Cl82  1  0.14532279  0.84542574  0.04826582  1
  Cl  Cl83  1  0.64532279  0.65457426  0.45173418  1
  Cl  Cl84  1  0.14532279  0.65457426  0.04826582  1
  Cl  Cl85  1  0.64532279  0.84542574  0.45173418  1
  Cl  Cl86  1  0.85467721  0.15457426  0.95173418  1
  Cl  Cl87  1  0.35467721  0.34542574  0.54826582  1
  Cl  Cl88  1  0.58754522  0.25000000  0.92152834  1
  Cl  Cl89  1  0.08754522  0.25000000  0.57847166  1
  Cl  Cl90  1  0.41245478  0.75000000  0.07847166  1
  Cl  Cl91  1  0.91245478  0.75000000  0.42152834  1
  Cl  Cl92  1  0.24607971  0.25000000  0.12030482  1
  Cl  Cl93  1  0.74607971  0.25000000  0.37969518  1
  Cl  Cl94  1  0.75392029  0.75000000  0.87969518  1
  Cl  Cl95  1  0.25392029  0.75000000  0.62030482  1
