# generated using pymatgen
data_BeH8(IO5)2
_symmetry_space_group_name_H-M   'P 1'
_cell_length_a   15.88971053
_cell_length_b   6.56898553
_cell_length_c   8.88047109
_cell_angle_alpha   90.00000745
_cell_angle_beta   90.00006751
_cell_angle_gamma   89.99996762
_symmetry_Int_Tables_number   1
_chemical_formula_structural   BeH8(IO5)2
_chemical_formula_sum   'Be4 H32 I8 O40'
_cell_volume   926.93716554
_cell_formula_units_Z   4
loop_
 _symmetry_equiv_pos_site_id
 _symmetry_equiv_pos_as_xyz
  1  'x, y, z'
loop_
 _atom_site_type_symbol
 _atom_site_label
 _atom_site_symmetry_multiplicity
 _atom_site_fract_x
 _atom_site_fract_y
 _atom_site_fract_z
 _atom_site_occupancy
  Be  Be0  1  0.75000011  0.75000004  0.66900180  1
  Be  Be1  1  0.25000051  0.25000041  0.83099859  1
  Be  Be2  1  0.25000003  0.25000188  0.33099674  1
  Be  Be3  1  0.74999905  0.74999804  0.16899980  1
  H  H4  1  0.70973919  0.02167182  0.51187866  1
  H  H5  1  0.79026100  0.47832871  0.51187779  1
  H  H6  1  0.20973935  0.97832830  0.98812176  1
  H  H7  1  0.29026070  0.52167120  0.98812159  1
  H  H8  1  0.29026069  0.97832973  0.48812157  1
  H  H9  1  0.20973912  0.52167016  0.48812133  1
  H  H10  1  0.79026060  0.02167083  0.01187873  1
  H  H11  1  0.70973910  0.47832826  0.01187825  1
  H  H12  1  0.81195216  0.00648962  0.53992599  1
  H  H13  1  0.68804783  0.49351043  0.53992574  1
  H  H14  1  0.31195189  0.99351046  0.96007413  1
  H  H15  1  0.18804793  0.50648975  0.96007394  1
  H  H16  1  0.18804805  0.99351060  0.46007394  1
  H  H17  1  0.31195140  0.50648873  0.46007328  1
  H  H18  1  0.68804794  0.00648960  0.03992593  1
  H  H19  1  0.81195185  0.49351088  0.03992632  1
  H  H20  1  0.86502416  0.86357496  0.31812715  1
  H  H21  1  0.63497513  0.63642490  0.31812789  1
  H  H22  1  0.36502445  0.13642508  0.18187214  1
  H  H23  1  0.13497546  0.36357472  0.18187204  1
  H  H24  1  0.13497572  0.13642530  0.68187266  1
  H  H25  1  0.36502428  0.36357464  0.68187263  1
  H  H26  1  0.63497586  0.86357499  0.81812743  1
  H  H27  1  0.86502429  0.63642537  0.81812763  1
  H  H28  1  0.85864096  0.61639469  0.30371098  1
  H  H29  1  0.64135881  0.88360663  0.30371111  1
  H  H30  1  0.35864106  0.38360568  0.19628919  1
  H  H31  1  0.14135842  0.11639375  0.19628896  1
  H  H32  1  0.14135916  0.38360559  0.69628915  1
  H  H33  1  0.35864112  0.11639438  0.69628924  1
  H  H34  1  0.64135892  0.61639452  0.80371085  1
  H  H35  1  0.85864099  0.88360603  0.80371043  1
  I  I36  1  0.95592082  0.26356578  0.43117636  1
  I  I37  1  0.54407938  0.23643463  0.43117692  1
  I  I38  1  0.45592077  0.73643492  0.06882413  1
  I  I39  1  0.04407901  0.76356643  0.06882403  1
  I  I40  1  0.04407894  0.73643463  0.56882400  1
  I  I41  1  0.45592084  0.76356535  0.56882316  1
  I  I42  1  0.54407888  0.26356569  0.93117599  1
  I  I43  1  0.95592116  0.23643402  0.93117687  1
  O  O44  1  0.85926795  0.40226014  0.38241936  1
  O  O45  1  0.64073382  0.09773966  0.38242028  1
  O  O46  1  0.35926790  0.59774166  0.11758127  1
  O  O47  1  0.14073238  0.90226037  0.11758074  1
  O  O48  1  0.14073232  0.59773965  0.61758124  1
  O  O49  1  0.35926809  0.90225949  0.61758156  1
  O  O50  1  0.64073288  0.40226030  0.88241864  1
  O  O51  1  0.85926769  0.09774043  0.88241930  1
  O  O52  1  0.90590205  0.01384721  0.46757257  1
  O  O53  1  0.59409801  0.48615343  0.46757179  1
  O  O54  1  0.40590208  0.98615266  0.03242765  1
  O  O55  1  0.09409780  0.51384719  0.03242818  1
  O  O56  1  0.09409724  0.98615276  0.53242904  1
  O  O57  1  0.40590212  0.51384750  0.53242755  1
  O  O58  1  0.59409823  0.01384756  0.96757188  1
  O  O59  1  0.90590184  0.48615403  0.96757140  1
  O  O60  1  0.97096295  0.35661643  0.62420410  1
  O  O61  1  0.52903784  0.14338352  0.62420439  1
  O  O62  1  0.47096356  0.64338547  0.87579554  1
  O  O63  1  0.02903704  0.85661679  0.87579570  1
  O  O64  1  0.02903666  0.64338366  0.37579568  1
  O  O65  1  0.47096266  0.85661664  0.37579535  1
  O  O66  1  0.52903682  0.35661547  0.12420414  1
  O  O67  1  0.97096276  0.14338413  0.12420356  1
  O  O68  1  0.75489562  0.96524535  0.57894602  1
  O  O69  1  0.74510381  0.53475346  0.57894538  1
  O  O70  1  0.25489544  0.03475264  0.92105527  1
  O  O71  1  0.24510484  0.46524530  0.92105515  1
  O  O72  1  0.24510467  0.03475445  0.42105588  1
  O  O73  1  0.25489620  0.46524523  0.42105427  1
  O  O74  1  0.74510455  0.96524544  0.07894541  1
  O  O75  1  0.75489587  0.53475361  0.07894562  1
  O  O76  1  0.84083432  0.75085141  0.25651081  1
  O  O77  1  0.65916491  0.74914623  0.25650975  1
  O  O78  1  0.34083463  0.24914614  0.24348901  1
  O  O79  1  0.15916458  0.25085371  0.24348943  1
  O  O80  1  0.15916428  0.24914716  0.74348985  1
  O  O81  1  0.34083518  0.25085212  0.74348936  1
  O  O82  1  0.65916579  0.75085327  0.75651075  1
  O  O83  1  0.84083555  0.74914619  0.75651035  1
