# generated using pymatgen
data_Ca2P6O17
_symmetry_space_group_name_H-M   'P 1'
_cell_length_a   5.86184700
_cell_length_b   18.40467364
_cell_length_c   7.79773559
_cell_angle_alpha   90.00000000
_cell_angle_beta   112.05819796
_cell_angle_gamma   90.00000000
_symmetry_Int_Tables_number   1
_chemical_formula_structural   Ca2P6O17
_chemical_formula_sum   'Ca4 P12 O34'
_cell_volume   779.68373560
_cell_formula_units_Z   2
loop_
 _symmetry_equiv_pos_site_id
 _symmetry_equiv_pos_as_xyz
  1  'x, y, z'
loop_
 _atom_site_type_symbol
 _atom_site_label
 _atom_site_symmetry_multiplicity
 _atom_site_fract_x
 _atom_site_fract_y
 _atom_site_fract_z
 _atom_site_occupancy
  Ca  Ca0  1  0.09325230  0.42667908  0.85555487  1
  Ca  Ca1  1  0.08902258  0.07449607  0.35598996  1
  Ca  Ca2  1  0.90674770  0.92667908  0.64444513  1
  Ca  Ca3  1  0.91097742  0.57449607  0.14401004  1
  P  P4  1  0.31535250  0.67964389  0.97707468  1
  P  P5  1  0.27318688  0.66772614  0.58340451  1
  P  P6  1  0.31530455  0.82119643  0.47678363  1
  P  P7  1  0.48255928  0.02839305  0.80637675  1
  P  P8  1  0.51744072  0.52839305  0.69362325  1
  P  P9  1  0.27197595  0.83294491  0.08126273  1
  P  P10  1  0.72681312  0.16772614  0.91659549  1
  P  P11  1  0.49386754  0.47242071  0.30394117  1
  P  P12  1  0.50613246  0.97242071  0.19605883  1
  P  P13  1  0.68464750  0.17964389  0.52292532  1
  P  P14  1  0.72802405  0.33294491  0.41873727  1
  P  P15  1  0.68469545  0.32119643  0.02321637  1
  O  O16  1  0.06131637  0.86187859  0.92338925  1
  O  O17  1  0.19614755  0.68816473  0.75072234  1
  O  O18  1  0.10815746  0.84041035  0.53400727  1
  O  O19  1  0.06455469  0.63777959  0.42572687  1
  O  O20  1  0.23402213  0.01325187  0.65794671  1
  O  O21  1  0.28711443  0.50271798  0.71241697  1
  O  O22  1  0.45319477  0.36387807  0.96641378  1
  O  O23  1  0.19879461  0.81273834  0.25046696  1
  O  O24  1  0.49274379  0.11666038  0.83693075  1
  O  O25  1  0.10809828  0.66055421  0.03414596  1
  O  O26  1  0.60024818  0.23696794  0.96238216  1
  O  O27  1  0.39975182  0.73696794  0.53761784  1
  O  O28  1  0.23817918  0.48889936  0.16784241  1
  O  O29  1  0.50725621  0.61666038  0.66306925  1
  O  O30  1  0.28577163  0.99146406  0.23783552  1
  O  O31  1  0.45474957  0.13623661  0.46651253  1
  O  O32  1  0.54680523  0.86387807  0.53358622  1
  O  O33  1  0.53114474  0.50406386  0.50216911  1
  O  O34  1  0.71288557  0.00271798  0.78758303  1
  O  O35  1  0.49567677  0.38503411  0.34508446  1
  O  O36  1  0.76597787  0.51325187  0.84205329  1
  O  O37  1  0.59891153  0.26367468  0.46211628  1
  O  O38  1  0.40108847  0.76367468  0.03788372  1
  O  O39  1  0.89184254  0.34041035  0.96599273  1
  O  O40  1  0.50432323  0.88503411  0.15491554  1
  O  O41  1  0.80385245  0.18816473  0.74927766  1
  O  O42  1  0.46885526  0.00406386  0.99783089  1
  O  O43  1  0.54525043  0.63623661  0.03348747  1
  O  O44  1  0.71422837  0.49146406  0.26216448  1
  O  O45  1  0.76182082  0.98889936  0.33215759  1
  O  O46  1  0.93868363  0.36187859  0.57661075  1
  O  O47  1  0.89190172  0.16055421  0.46585404  1
  O  O48  1  0.80120539  0.31273834  0.24953304  1
  O  O49  1  0.93544531  0.13777959  0.07427313  1
