# generated using pymatgen
data_Zn2Hg2H2Se2O11
_symmetry_space_group_name_H-M   'P 1'
_cell_length_a   6.30183519
_cell_length_b   11.63805904
_cell_length_c   13.69536254
_cell_angle_alpha   90.00000000
_cell_angle_beta   90.00000000
_cell_angle_gamma   90.00000000
_symmetry_Int_Tables_number   1
_chemical_formula_structural   Zn2Hg2H2Se2O11
_chemical_formula_sum   'Zn8 Hg8 H8 Se8 O44'
_cell_volume   1004.43336446
_cell_formula_units_Z   4
loop_
 _symmetry_equiv_pos_site_id
 _symmetry_equiv_pos_as_xyz
  1  'x, y, z'
loop_
 _atom_site_type_symbol
 _atom_site_label
 _atom_site_symmetry_multiplicity
 _atom_site_fract_x
 _atom_site_fract_y
 _atom_site_fract_z
 _atom_site_occupancy
  Zn  Zn0  1  0.02025981  0.16941840  0.13079400  1
  Zn  Zn1  1  0.02025981  0.16941840  0.36920600  1
  Zn  Zn2  1  0.02025981  0.33058160  0.63079400  1
  Zn  Zn3  1  0.02025981  0.33058160  0.86920600  1
  Zn  Zn4  1  0.97974019  0.66941840  0.13079400  1
  Zn  Zn5  1  0.97974019  0.66941840  0.36920600  1
  Zn  Zn6  1  0.97974019  0.83058160  0.86920600  1
  Zn  Zn7  1  0.97974019  0.83058160  0.63079400  1
  Hg  Hg8  1  0.20627681  0.42017168  0.25000000  1
  Hg  Hg9  1  0.20627681  0.07982832  0.75000000  1
  Hg  Hg10  1  0.47597590  0.67080963  0.25000000  1
  Hg  Hg11  1  0.47597590  0.82919037  0.75000000  1
  Hg  Hg12  1  0.52402410  0.17080963  0.25000000  1
  Hg  Hg13  1  0.52402410  0.32919037  0.75000000  1
  Hg  Hg14  1  0.79372319  0.57982832  0.75000000  1
  Hg  Hg15  1  0.79372319  0.92017168  0.25000000  1
  H  H16  1  0.28361635  0.30826788  0.02755415  1
  H  H17  1  0.28361635  0.30826788  0.47244585  1
  H  H18  1  0.28361635  0.19173212  0.52755415  1
  H  H19  1  0.28361635  0.19173212  0.97244585  1
  H  H20  1  0.71638365  0.69173212  0.52755415  1
  H  H21  1  0.71638365  0.80826788  0.02755415  1
  H  H22  1  0.71638365  0.80826788  0.47244585  1
  H  H23  1  0.71638365  0.69173212  0.97244585  1
  Se  Se24  1  0.27440920  0.91193334  0.07595916  1
  Se  Se25  1  0.27440920  0.58806666  0.92404084  1
  Se  Se26  1  0.27440920  0.58806666  0.57595916  1
  Se  Se27  1  0.27440920  0.91193334  0.42404084  1
  Se  Se28  1  0.72559080  0.41193334  0.42404084  1
  Se  Se29  1  0.72559080  0.41193334  0.07595916  1
  Se  Se30  1  0.72559080  0.08806666  0.57595916  1
  Se  Se31  1  0.72559080  0.08806666  0.92404084  1
  O  O32  1  0.10128882  0.83434867  0.14244133  1
  O  O33  1  0.10128882  0.83434867  0.35755867  1
  O  O34  1  0.10128882  0.66565133  0.64244133  1
  O  O35  1  0.10128882  0.66565133  0.85755867  1
  O  O36  1  0.16823027  0.60215566  0.25000000  1
  O  O37  1  0.16823027  0.89784434  0.75000000  1
  O  O38  1  0.18329414  0.25000000  0.00000000  1
  O  O39  1  0.18329414  0.25000000  0.50000000  1
  O  O40  1  0.22004530  0.59579199  0.04353380  1
  O  O41  1  0.22004530  0.59579199  0.45646620  1
  O  O42  1  0.22004530  0.90420801  0.54353380  1
  O  O43  1  0.22004530  0.90420801  0.95646620  1
  O  O44  1  0.21586897  0.23511196  0.25000000  1
  O  O45  1  0.21586897  0.26488804  0.75000000  1
  O  O46  1  0.25737742  0.04770486  0.11714352  1
  O  O47  1  0.25737742  0.04770486  0.38285648  1
  O  O48  1  0.25737742  0.45229514  0.61714352  1
  O  O49  1  0.25737742  0.45229514  0.88285648  1
  O  O50  1  0.48125119  0.13537017  0.60042137  1
  O  O51  1  0.48125119  0.36462983  0.10042137  1
  O  O52  1  0.48125119  0.13537017  0.89957863  1
  O  O53  1  0.48125119  0.36462983  0.39957863  1
  O  O54  1  0.51874881  0.63537017  0.60042137  1
  O  O55  1  0.51874881  0.86462983  0.10042137  1
  O  O56  1  0.51874881  0.86462983  0.39957863  1
  O  O57  1  0.51874881  0.63537017  0.89957863  1
  O  O58  1  0.74262258  0.54770486  0.11714352  1
  O  O59  1  0.74262258  0.54770486  0.38285648  1
  O  O60  1  0.74262258  0.95229514  0.61714352  1
  O  O61  1  0.74262258  0.95229514  0.88285648  1
  O  O62  1  0.78413103  0.73511196  0.25000000  1
  O  O63  1  0.78413103  0.76488804  0.75000000  1
  O  O64  1  0.77995470  0.09579199  0.45646620  1
  O  O65  1  0.77995470  0.40420801  0.54353380  1
  O  O66  1  0.77995470  0.09579199  0.04353380  1
  O  O67  1  0.77995470  0.40420801  0.95646620  1
  O  O68  1  0.81670586  0.75000000  0.50000000  1
  O  O69  1  0.81670586  0.75000000  0.00000000  1
  O  O70  1  0.83176973  0.10215566  0.25000000  1
  O  O71  1  0.83176973  0.39784434  0.75000000  1
  O  O72  1  0.89871118  0.33434867  0.14244133  1
  O  O73  1  0.89871118  0.33434867  0.35755867  1
  O  O74  1  0.89871118  0.16565133  0.64244133  1
  O  O75  1  0.89871118  0.16565133  0.85755867  1
