# generated using pymatgen
data_RbH3(SO4)2
_symmetry_space_group_name_H-M   'P 1'
_cell_length_a   7.51364276
_cell_length_b   12.64979098
_cell_length_c   8.00983596
_cell_angle_alpha   90.00000000
_cell_angle_beta   92.17374799
_cell_angle_gamma   90.00000000
_symmetry_Int_Tables_number   1
_chemical_formula_structural   RbH3(SO4)2
_chemical_formula_sum   'Rb4 H12 S8 O32'
_cell_volume   760.75511854
_cell_formula_units_Z   4
loop_
 _symmetry_equiv_pos_site_id
 _symmetry_equiv_pos_as_xyz
  1  'x, y, z'
loop_
 _atom_site_type_symbol
 _atom_site_label
 _atom_site_symmetry_multiplicity
 _atom_site_fract_x
 _atom_site_fract_y
 _atom_site_fract_z
 _atom_site_occupancy
  Rb  Rb0  1  0.71521610  0.06673556  0.65752288  1
  Rb  Rb1  1  0.28478390  0.56673556  0.84247712  1
  Rb  Rb2  1  0.28478390  0.93326444  0.34247712  1
  Rb  Rb3  1  0.71521610  0.43326444  0.15752288  1
  H  H4  1  0.61864108  0.74625172  0.11977650  1
  H  H5  1  0.38135892  0.24625172  0.38022350  1
  H  H6  1  0.38135892  0.25374828  0.88022350  1
  H  H7  1  0.61864108  0.75374828  0.61977650  1
  H  H8  1  0.01299905  0.33963972  0.72730413  1
  H  H9  1  0.98700095  0.83963972  0.77269587  1
  H  H10  1  0.98700095  0.66036028  0.27269587  1
  H  H11  1  0.01299905  0.16036028  0.22730413  1
  H  H12  1  0.83081649  0.54401934  0.60892198  1
  H  H13  1  0.16918351  0.04401934  0.89107802  1
  H  H14  1  0.16918351  0.45598066  0.39107802  1
  H  H15  1  0.83081649  0.95598066  0.10892198  1
  S  S16  1  0.76565138  0.80539182  0.33583801  1
  S  S17  1  0.23434862  0.30539182  0.16416199  1
  S  S18  1  0.23434862  0.19460818  0.66416199  1
  S  S19  1  0.76565138  0.69460818  0.83583801  1
  S  S20  1  0.73831454  0.38890624  0.66770010  1
  S  S21  1  0.26168546  0.88890624  0.83229990  1
  S  S22  1  0.26168546  0.61109376  0.33229990  1
  S  S23  1  0.73831454  0.11109376  0.16770010  1
  O  O24  1  0.89780221  0.87563149  0.26284169  1
  O  O25  1  0.10219779  0.37563149  0.23715831  1
  O  O26  1  0.10219779  0.12436851  0.73715831  1
  O  O27  1  0.89780221  0.62436851  0.76284169  1
  O  O28  1  0.69206471  0.84738316  0.48931892  1
  O  O29  1  0.30793529  0.34738316  0.01068108  1
  O  O30  1  0.30793529  0.15261684  0.51068108  1
  O  O31  1  0.69206471  0.65261684  0.98931892  1
  O  O32  1  0.83258678  0.69627628  0.35836523  1
  O  O33  1  0.16741322  0.19627628  0.14163477  1
  O  O34  1  0.16741322  0.30372372  0.64163477  1
  O  O35  1  0.83258678  0.80372372  0.85836523  1
  O  O36  1  0.59883223  0.80089634  0.20941090  1
  O  O37  1  0.40116777  0.30089634  0.29058910  1
  O  O38  1  0.40116777  0.19910366  0.79058910  1
  O  O39  1  0.59883223  0.69910366  0.70941090  1
  O  O40  1  0.70721538  0.29695287  0.56451320  1
  O  O41  1  0.29278462  0.79695287  0.93548680  1
  O  O42  1  0.29278462  0.70304713  0.43548680  1
  O  O43  1  0.70721538  0.20304713  0.06451320  1
  O  O44  1  0.59815675  0.42707563  0.76986863  1
  O  O45  1  0.40184325  0.92707563  0.73013137  1
  O  O46  1  0.40184325  0.57292437  0.23013137  1
  O  O47  1  0.59815675  0.07292437  0.26986863  1
  O  O48  1  0.90434627  0.37371624  0.78828589  1
  O  O49  1  0.09565373  0.87371624  0.71171411  1
  O  O50  1  0.09565373  0.62628376  0.21171411  1
  O  O51  1  0.90434627  0.12628376  0.28828589  1
  O  O52  1  0.79601284  0.47818225  0.54202815  1
  O  O53  1  0.20398716  0.97818225  0.95797185  1
  O  O54  1  0.20398716  0.52181775  0.45797185  1
  O  O55  1  0.79601284  0.02181775  0.04202815  1
