# generated using pymatgen
data_Ca2Fe3Sb(PO4)6
_symmetry_space_group_name_H-M   'P 1'
_cell_length_a   8.91176263
_cell_length_b   8.91176222
_cell_length_c   8.91176244
_cell_angle_alpha   58.22929293
_cell_angle_beta   58.22929451
_cell_angle_gamma   58.22929683
_symmetry_Int_Tables_number   1
_chemical_formula_structural   Ca2Fe3Sb(PO4)6
_chemical_formula_sum   'Ca2 Fe3 Sb1 P6 O24'
_cell_volume   480.16478969
_cell_formula_units_Z   1
loop_
 _symmetry_equiv_pos_site_id
 _symmetry_equiv_pos_as_xyz
  1  'x, y, z'
loop_
 _atom_site_type_symbol
 _atom_site_label
 _atom_site_symmetry_multiplicity
 _atom_site_fract_x
 _atom_site_fract_y
 _atom_site_fract_z
 _atom_site_occupancy
  Ca  Ca0  1  0.99433173  0.99433173  0.99433173  1
  Ca  Ca1  1  0.50011463  0.50011463  0.50011463  1
  Fe  Fe2  1  0.35274962  0.35274962  0.35274962  1
  Fe  Fe3  1  0.64809505  0.64809505  0.64809505  1
  Fe  Fe4  1  0.85147333  0.85147333  0.85147333  1
  Sb  Sb5  1  0.14680204  0.14680204  0.14680204  1
  P  P6  1  0.04201781  0.74775537  0.46236212  1
  P  P7  1  0.46236212  0.04201781  0.74775537  1
  P  P8  1  0.74775537  0.46236212  0.04201781  1
  P  P9  1  0.25224821  0.54430596  0.95789921  1
  P  P10  1  0.54430596  0.95789921  0.25224821  1
  P  P11  1  0.95789921  0.25224821  0.54430596  1
  O  O12  1  0.12391521  0.29109432  0.50656171  1
  O  O13  1  0.29109432  0.50656171  0.12391521  1
  O  O14  1  0.06208226  0.92473894  0.26893665  1
  O  O15  1  0.50656171  0.12391521  0.29109432  1
  O  O16  1  0.01002609  0.79498028  0.62048765  1
  O  O17  1  0.22986209  0.58449785  0.43430976  1
  O  O18  1  0.26893665  0.06208226  0.92473894  1
  O  O19  1  0.43430976  0.22986209  0.58449785  1
  O  O20  1  0.58449785  0.43430976  0.22986209  1
  O  O21  1  0.21222241  0.37627629  0.98455459  1
  O  O22  1  0.08022181  0.72604288  0.93924698  1
  O  O23  1  0.37627629  0.98455459  0.21222241  1
  O  O24  1  0.62048765  0.01002609  0.79498028  1
  O  O25  1  0.92473894  0.26893665  0.06208226  1
  O  O26  1  0.79498028  0.62048765  0.01002609  1
  O  O27  1  0.42013623  0.55955749  0.77191691  1
  O  O28  1  0.55955749  0.77191691  0.42013623  1
  O  O29  1  0.72604288  0.93924698  0.08022181  1
  O  O30  1  0.77191691  0.42013623  0.55955749  1
  O  O31  1  0.98455459  0.21222241  0.37627629  1
  O  O32  1  0.48516502  0.87740572  0.71560577  1
  O  O33  1  0.93924698  0.08022181  0.72604288  1
  O  O34  1  0.71560577  0.48516502  0.87740572  1
  O  O35  1  0.87740572  0.71560577  0.48516502  1
