# generated using pymatgen
data_Bi14SO24
_symmetry_space_group_name_H-M   'P 1'
_cell_length_a   8.80437132
_cell_length_b   8.83476347
_cell_length_c   10.66882867
_cell_angle_alpha   65.52347787
_cell_angle_beta   65.61305936
_cell_angle_gamma   89.96185924
_symmetry_Int_Tables_number   1
_chemical_formula_structural   Bi14SO24
_chemical_formula_sum   'Bi14 S1 O24'
_cell_volume   673.20925718
_cell_formula_units_Z   1
loop_
 _symmetry_equiv_pos_site_id
 _symmetry_equiv_pos_as_xyz
  1  'x, y, z'
loop_
 _atom_site_type_symbol
 _atom_site_label
 _atom_site_symmetry_multiplicity
 _atom_site_fract_x
 _atom_site_fract_y
 _atom_site_fract_z
 _atom_site_occupancy
  Bi  Bi0  1  0.44331824  0.21604285  1.00000000  1
  Bi  Bi1  1  0.94116388  0.12900358  0.34022660  1
  Bi  Bi2  1  0.46685583  0.05943439  0.66141523  1
  Bi  Bi3  1  0.78527522  0.44477867  1.00000000  1
  Bi  Bi4  1  0.33778627  0.34067463  0.31886664  1
  Bi  Bi5  1  0.21252770  0.56070975  0.00000000  1
  Bi  Bi6  1  0.87034793  0.27760063  0.66428571  1
  Bi  Bi7  1  0.72320318  0.53289590  0.33676147  1
  Bi  Bi8  1  0.56004996  0.78825997  0.00000000  1
  Bi  Bi9  1  0.28139048  0.46923018  0.65977340  1
  Bi  Bi10  1  0.12827006  0.72084962  0.33858477  1
  Bi  Bi11  1  0.65665291  0.65954027  0.68113336  1
  Bi  Bi12  1  0.53463465  0.94188634  0.33571429  1
  Bi  Bi13  1  0.05996565  0.86965737  0.66323853  1
  S  S14  1  0.98141376  0.97528412  1.00000000  1
  O  O15  1  0.33156608  0.00786953  0.49001833  1
  O  O16  1  0.54379085  0.23956815  0.15626140  1
  O  O17  1  0.23836397  0.29823746  0.15770221  1
  O  O18  1  0.01021138  0.17968436  0.49254613  1
  O  O19  1  0.88009648  0.38028725  0.23873056  1
  O  O20  1  0.61919212  0.11884128  0.76104807  1
  O  O21  1  0.11673584  0.11931049  0.85840806  1
  O  O22  1  0.50212834  0.33199668  0.49027483  1
  O  O23  1  0.60597165  0.54422324  0.15647920  1
  O  O24  1  0.29791117  0.60469371  0.15784138  1
  O  O25  1  0.82158342  0.49788786  0.50998167  1
  O  O26  1  0.17768705  0.50010465  0.49072114  1
  O  O27  1  0.70005225  0.39582855  0.84373860  1
  O  O28  1  0.01977567  0.80991819  0.00000000  1
  O  O29  1  0.39606618  0.45594066  0.84229779  1
  O  O30  1  0.50275851  0.67223049  0.50745387  1
  O  O31  1  0.81162545  0.99336860  0.00000000  1
  O  O32  1  0.38024019  0.87988935  0.23895193  1
  O  O33  1  0.11882704  0.61901782  0.76126944  1
  O  O34  1  0.97514390  0.97771855  0.14159194  1
  O  O35  1  0.99240417  0.82227251  0.50972517  1
  O  O36  1  0.76245085  0.70070244  0.84352080  1
  O  O37  1  0.45575254  0.76253509  0.84215862  1
  O  O38  1  0.66840719  0.99082579  0.50927886  1
