# generated using pymatgen
data_K3TbSi3(HO5)2
_symmetry_space_group_name_H-M   'P 1'
_cell_length_a   13.30964179
_cell_length_b   13.81363360
_cell_length_c   5.95958765
_cell_angle_alpha   90.00000000
_cell_angle_beta   90.00000000
_cell_angle_gamma   90.00000000
_symmetry_Int_Tables_number   1
_chemical_formula_structural   K3TbSi3(HO5)2
_chemical_formula_sum   'K12 Tb4 Si12 H8 O40'
_cell_volume   1095.69709720
_cell_formula_units_Z   4
loop_
 _symmetry_equiv_pos_site_id
 _symmetry_equiv_pos_as_xyz
  1  'x, y, z'
loop_
 _atom_site_type_symbol
 _atom_site_label
 _atom_site_symmetry_multiplicity
 _atom_site_fract_x
 _atom_site_fract_y
 _atom_site_fract_z
 _atom_site_occupancy
  Tb  Tb0  1  0.04148212  0.25000000  0.08481463  1
  Tb  Tb1  1  0.45851788  0.75000000  0.58481463  1
  Tb  Tb2  1  0.54148212  0.25000000  0.41518537  1
  Tb  Tb3  1  0.95851788  0.75000000  0.91518537  1
  K  K4  1  0.12768480  0.75000000  0.42373920  1
  K  K5  1  0.13797962  0.51619731  0.08577105  1
  K  K6  1  0.13797962  0.98380269  0.08577105  1
  K  K7  1  0.36202038  0.48380269  0.58577105  1
  K  K8  1  0.36202038  0.01619731  0.58577105  1
  K  K9  1  0.37231520  0.25000000  0.92373920  1
  K  K10  1  0.62768480  0.75000000  0.07626080  1
  K  K11  1  0.63797962  0.51619731  0.41422895  1
  K  K12  1  0.63797962  0.98380269  0.41422895  1
  K  K13  1  0.86202038  0.01619731  0.91422895  1
  K  K14  1  0.86202038  0.48380269  0.91422895  1
  K  K15  1  0.87231520  0.25000000  0.57626080  1
  Si  Si16  1  0.09870571  0.10403844  0.58689593  1
  Si  Si17  1  0.09870571  0.39596156  0.58689593  1
  Si  Si18  1  0.24739193  0.75000000  0.92009837  1
  Si  Si19  1  0.25260807  0.25000000  0.42009837  1
  Si  Si20  1  0.40129429  0.60403844  0.08689593  1
  Si  Si21  1  0.40129429  0.89596156  0.08689593  1
  Si  Si22  1  0.59870571  0.10403844  0.91310407  1
  Si  Si23  1  0.59870571  0.39596156  0.91310407  1
  Si  Si24  1  0.74739193  0.75000000  0.57990163  1
  Si  Si25  1  0.75260807  0.25000000  0.07990163  1
  Si  Si26  1  0.90129429  0.60403844  0.41310407  1
  Si  Si27  1  0.90129429  0.89596156  0.41310407  1
  H  H28  1  0.07037242  0.55889830  0.60847768  1
  H  H29  1  0.07037242  0.94110170  0.60847768  1
  H  H30  1  0.42962758  0.05889830  0.10847768  1
  H  H31  1  0.42962758  0.44110170  0.10847768  1
  H  H32  1  0.57037242  0.94110170  0.89152232  1
  H  H33  1  0.57037242  0.55889830  0.89152232  1
  H  H34  1  0.92962758  0.05889830  0.39152232  1
  H  H35  1  0.92962758  0.44110170  0.39152232  1
  O  O36  1  0.03065917  0.12994880  0.36668096  1
  O  O37  1  0.03065917  0.37005120  0.36668096  1
  O  O38  1  0.04441688  0.12992365  0.82302264  1
  O  O39  1  0.04441688  0.37007635  0.82302264  1
  O  O40  1  0.12666039  0.75000000  0.93353639  1
  O  O41  1  0.13004069  0.51433853  0.58438199  1
  O  O42  1  0.13004069  0.98566147  0.58438199  1
  O  O43  1  0.20571536  0.25000000  0.17039639  1
  O  O44  1  0.21239803  0.15394959  0.56784157  1
  O  O45  1  0.21239803  0.34605041  0.56784157  1
  O  O46  1  0.28760197  0.65394959  0.06784157  1
  O  O47  1  0.28760197  0.84605041  0.06784157  1
  O  O48  1  0.29428464  0.75000000  0.67039639  1
  O  O49  1  0.36995931  0.48566147  0.08438199  1
  O  O50  1  0.36995931  0.01433853  0.08438199  1
  O  O51  1  0.37333961  0.25000000  0.43353639  1
  O  O52  1  0.45558312  0.62992365  0.32302264  1
  O  O53  1  0.45558312  0.87007635  0.32302264  1
  O  O54  1  0.46934083  0.62994880  0.86668096  1
  O  O55  1  0.46934083  0.87005120  0.86668096  1
  O  O56  1  0.53065917  0.12994880  0.13331904  1
  O  O57  1  0.53065917  0.37005120  0.13331904  1
  O  O58  1  0.54441688  0.12992365  0.67697736  1
  O  O59  1  0.54441688  0.37007635  0.67697736  1
  O  O60  1  0.62666039  0.75000000  0.56646361  1
  O  O61  1  0.63004069  0.98566147  0.91561801  1
  O  O62  1  0.63004069  0.51433853  0.91561801  1
  O  O63  1  0.70571536  0.25000000  0.32960361  1
  O  O64  1  0.71239803  0.15394959  0.93215843  1
  O  O65  1  0.71239803  0.34605041  0.93215843  1
  O  O66  1  0.78760197  0.65394959  0.43215843  1
  O  O67  1  0.78760197  0.84605041  0.43215843  1
  O  O68  1  0.79428464  0.75000000  0.82960361  1
  O  O69  1  0.86995931  0.01433853  0.41561801  1
  O  O70  1  0.86995931  0.48566147  0.41561801  1
  O  O71  1  0.87333961  0.25000000  0.06646361  1
  O  O72  1  0.95558312  0.62992365  0.17697736  1
  O  O73  1  0.95558312  0.87007635  0.17697736  1
  O  O74  1  0.96934083  0.62994880  0.63331904  1
  O  O75  1  0.96934083  0.87005120  0.63331904  1
