# generated using pymatgen
data_HfMg14Ga
_symmetry_space_group_name_H-M   'P 1'
_cell_length_a   6.35494947
_cell_length_b   6.20642932
_cell_length_c   10.23307740
_cell_angle_alpha   90.00000000
_cell_angle_beta   90.00000000
_cell_angle_gamma   119.22987085
_symmetry_Int_Tables_number   1
_chemical_formula_structural   HfMg14Ga
_chemical_formula_sum   'Hf1 Mg14 Ga1'
_cell_volume   352.21596256
_cell_formula_units_Z   1
loop_
 _symmetry_equiv_pos_site_id
 _symmetry_equiv_pos_as_xyz
  1  'x, y, z'
loop_
 _atom_site_type_symbol
 _atom_site_label
 _atom_site_symmetry_multiplicity
 _atom_site_fract_x
 _atom_site_fract_y
 _atom_site_fract_z
 _atom_site_occupancy
  Hf  Hf0  1  0.16136883  0.83068392  0.12500000  1
  Mg  Mg1  1  0.16563511  0.33281706  0.62500000  1
  Mg  Mg2  1  0.16642082  0.83320991  0.62500000  1
  Mg  Mg3  1  0.66428100  0.33460950  0.12500000  1
  Mg  Mg4  1  0.66593906  0.33195528  0.62500000  1
  Mg  Mg5  1  0.66428100  0.82967050  0.12500000  1
  Mg  Mg6  1  0.66593906  0.83398278  0.62500000  1
  Mg  Mg7  1  0.33222256  0.16505733  0.37205563  1
  Mg  Mg8  1  0.33222256  0.16505733  0.87794437  1
  Mg  Mg9  1  0.33222256  0.66716623  0.37205563  1
  Mg  Mg10  1  0.33222256  0.66716623  0.87794437  1
  Mg  Mg11  1  0.83609356  0.16804728  0.37131776  1
  Mg  Mg12  1  0.83609356  0.16804728  0.87868224  1
  Mg  Mg13  1  0.83761511  0.66880805  0.37454199  1
  Mg  Mg14  1  0.83761511  0.66880805  0.87545801  1
  Ga  Ga15  1  0.16982755  0.33491328  0.12500000  1
