# generated using pymatgen
data_TiBi2O5
_symmetry_space_group_name_H-M   'P 1'
_cell_length_a   5.68903218
_cell_length_b   8.45556212
_cell_length_c   5.61132020
_cell_angle_alpha   90.01986549
_cell_angle_beta   90.00000000
_cell_angle_gamma   70.34183861
_symmetry_Int_Tables_number   1
_chemical_formula_structural   TiBi2O5
_chemical_formula_sum   'Ti2 Bi4 O10'
_cell_volume   254.19444319
_cell_formula_units_Z   2
loop_
 _symmetry_equiv_pos_site_id
 _symmetry_equiv_pos_as_xyz
  1  'x, y, z'
loop_
 _atom_site_type_symbol
 _atom_site_label
 _atom_site_symmetry_multiplicity
 _atom_site_fract_x
 _atom_site_fract_y
 _atom_site_fract_z
 _atom_site_occupancy
  Ti  Ti0  1  0.31100043  0.99710367  0.72592772  1
  Ti  Ti1  1  0.69189590  0.99710367  0.22592772  1
  Bi  Bi2  1  0.96585762  0.65559295  0.77282904  1
  Bi  Bi3  1  0.37855043  0.65559295  0.27282904  1
  Bi  Bi4  1  0.62444575  0.33732877  0.76997651  1
  Bi  Bi5  1  0.03822548  0.33732877  0.26997651  1
  O  O6  1  0.24691319  0.80673642  0.65531290  1
  O  O7  1  0.94635038  0.80673642  0.15531290  1
  O  O8  1  0.23523057  0.49331275  0.49265998  1
  O  O9  1  0.27145668  0.49331275  0.99265998  1
  O  O10  1  0.76939808  0.49905969  0.99041532  1
  O  O11  1  0.73154223  0.49905969  0.49041532  1
  O  O12  1  0.05342284  0.18428615  0.65184907  1
  O  O13  1  0.76229100  0.18428615  0.15184907  1
  O  O14  1  0.58088787  0.99961960  0.54121846  1
  O  O15  1  0.41949254  0.99961960  0.04121846  1
