# generated using pymatgen
data_Eu6WO12
_symmetry_space_group_name_H-M   'P 1'
_cell_length_a   6.62593334
_cell_length_b   6.63195087
_cell_length_c   6.63085129
_cell_angle_alpha   98.36269813
_cell_angle_beta   98.35554511
_cell_angle_gamma   98.26540552
_symmetry_Int_Tables_number   1
_chemical_formula_structural   Eu6WO12
_chemical_formula_sum   'Eu6 W1 O12'
_cell_volume   281.14453936
_cell_formula_units_Z   1
loop_
 _symmetry_equiv_pos_site_id
 _symmetry_equiv_pos_as_xyz
  1  'x, y, z'
loop_
 _atom_site_type_symbol
 _atom_site_label
 _atom_site_symmetry_multiplicity
 _atom_site_fract_x
 _atom_site_fract_y
 _atom_site_fract_z
 _atom_site_occupancy
  Eu  Eu0  1  0.39441859  0.86068076  0.69669915  1
  Eu  Eu1  1  0.30347752  0.60572876  0.13937293  1
  Eu  Eu2  1  0.13940893  0.30345106  0.60561874  1
  Eu  Eu3  1  0.86063180  0.69653007  0.39444125  1
  Eu  Eu4  1  0.69648376  0.39433623  0.86061224  1
  Eu  Eu5  1  0.60556717  0.13937169  0.30343599  1
  W  W6  1  0.00001343  -0.00002456  -0.00005814  1
  O  O7  1  0.03300488  0.92683079  0.70982384  1
  O  O8  1  0.29032833  0.96705842  0.07302682  1
  O  O9  1  0.17636121  0.59351882  0.43359711  1
  O  O10  1  0.56646486  0.82373687  0.40661679  1
  O  O11  1  0.07317928  0.29013197  0.96696963  1
  O  O12  1  0.40671647  0.56654461  0.82374343  1
  O  O13  1  0.59308684  0.43356564  0.17631248  1
  O  O14  1  0.92679435  0.70980298  0.03295455  1
  O  O15  1  0.43353599  0.17612663  0.59362136  1
  O  O16  1  0.82362559  0.40651636  0.56633476  1
  O  O17  1  0.70983749  0.03292292  0.92681826  1
  O  O18  1  0.96706350  0.07316997  0.29005882  1
