# generated using pymatgen
data_K6BiH3(Cl2F)4
_symmetry_space_group_name_H-M   'P 1'
_cell_length_a   9.25267501
_cell_length_b   9.25251549
_cell_length_c   14.66797620
_cell_angle_alpha   90.00000000
_cell_angle_beta   90.00000000
_cell_angle_gamma   120.00057036
_symmetry_Int_Tables_number   1
_chemical_formula_structural   K6BiH3(Cl2F)4
_chemical_formula_sum   'K12 Bi2 H6 Cl16 F8'
_cell_volume   1087.49047403
_cell_formula_units_Z   2
loop_
 _symmetry_equiv_pos_site_id
 _symmetry_equiv_pos_as_xyz
  1  'x, y, z'
loop_
 _atom_site_type_symbol
 _atom_site_label
 _atom_site_symmetry_multiplicity
 _atom_site_fract_x
 _atom_site_fract_y
 _atom_site_fract_z
 _atom_site_occupancy
  K  K0  1  0.50000000  0.50000000  0.50000000  1
  K  K1  1  0.50000000  0.00000000  0.50000000  1
  K  K2  1  0.00000000  0.50000000  0.50000000  1
  K  K3  1  0.50000000  0.50000000  0.00000000  1
  K  K4  1  0.50000000  0.00000000  0.00000000  1
  K  K5  1  0.00000000  0.50000000  0.00000000  1
  K  K6  1  0.17890388  0.35780776  0.25000000  1
  K  K7  1  0.64218692  0.82108970  0.25000000  1
  K  K8  1  0.17890278  0.82108970  0.25000000  1
  K  K9  1  0.82109612  0.64219224  0.75000000  1
  K  K10  1  0.35781308  0.17891030  0.75000000  1
  K  K11  1  0.82109722  0.17891030  0.75000000  1
  Bi  Bi12  1  0.00000000  0.00000000  0.50000000  1
  Bi  Bi13  1  0.00000000  0.00000000  0.00000000  1
  H  H14  1  0.42169542  0.84339085  0.75000000  1
  H  H15  1  0.15659646  0.57829039  0.75000000  1
  H  H16  1  0.42169393  0.57829039  0.75000000  1
  H  H17  1  0.57830458  0.15660915  0.25000000  1
  H  H18  1  0.84340354  0.42170961  0.25000000  1
  H  H19  1  0.57830607  0.42170961  0.25000000  1
  Cl  Cl20  1  0.13989395  0.86011053  0.89264476  1
  Cl  Cl21  1  0.13989093  0.27978186  0.89264399  1
  Cl  Cl22  1  0.72021658  0.86011053  0.89264476  1
  Cl  Cl23  1  0.86010605  0.13988947  0.10735524  1
  Cl  Cl24  1  0.86010907  0.72021814  0.10735601  1
  Cl  Cl25  1  0.27978342  0.13988947  0.10735524  1
  Cl  Cl26  1  0.86010605  0.13988947  0.39264476  1
  Cl  Cl27  1  0.86010907  0.72021814  0.39264399  1
  Cl  Cl28  1  0.27978342  0.13988947  0.39264476  1
  Cl  Cl29  1  0.13989395  0.86011053  0.60735524  1
  Cl  Cl30  1  0.13989093  0.27978186  0.60735601  1
  Cl  Cl31  1  0.72021658  0.86011053  0.60735524  1
  Cl  Cl32  1  0.33331061  0.66662123  0.10650991  1
  Cl  Cl33  1  0.66668939  0.33337877  0.89349009  1
  Cl  Cl34  1  0.66668939  0.33337877  0.60650991  1
  Cl  Cl35  1  0.33331061  0.66662123  0.39349009  1
  F  F36  1  0.33332729  0.66665458  0.75000000  1
  F  F37  1  0.66667271  0.33334542  0.25000000  1
  F  F38  1  0.48439243  0.96878486  0.75000000  1
  F  F39  1  0.03120440  0.51560417  0.75000000  1
  F  F40  1  0.48439977  0.51560417  0.75000000  1
  F  F41  1  0.51560757  0.03121514  0.25000000  1
  F  F42  1  0.96879560  0.48439583  0.25000000  1
  F  F43  1  0.51560023  0.48439583  0.25000000  1
