# generated using pymatgen
data_La2UO6
_symmetry_space_group_name_H-M   'P 1'
_cell_length_a   3.97628013
_cell_length_b   6.70487106
_cell_length_c   5.59790610
_cell_angle_alpha   114.67083845
_cell_angle_beta   89.99762306
_cell_angle_gamma   72.75560185
_symmetry_Int_Tables_number   1
_chemical_formula_structural   La2UO6
_chemical_formula_sum   'La2 U1 O6'
_cell_volume   128.19950455
_cell_formula_units_Z   1
loop_
 _symmetry_equiv_pos_site_id
 _symmetry_equiv_pos_as_xyz
  1  'x, y, z'
loop_
 _atom_site_type_symbol
 _atom_site_label
 _atom_site_symmetry_multiplicity
 _atom_site_fract_x
 _atom_site_fract_y
 _atom_site_fract_z
 _atom_site_occupancy
  La  La0  1  0.66360818  0.67277069  0.33644032  1
  La  La1  1  0.33639182  0.32722931  0.66355968  1
  U  U2  1  -0.00000000  0.00000000  0.00000000  1
  O  O3  1  0.14903699  0.70186878  0.08370769  1
  O  O4  1  0.49995149  0.00007378  0.22163719  1
  O  O5  1  0.14911994  0.70172172  0.61805653  1
  O  O6  1  0.85088006  0.29827828  0.38194347  1
  O  O7  1  0.50004851  0.99992622  0.77836281  1
  O  O8  1  0.85096301  0.29813122  0.91629231  1
