# generated using pymatgen
data_NaH8O5
_symmetry_space_group_name_H-M   'P 1'
_cell_length_a   7.90981301
_cell_length_b   7.90981301
_cell_length_c   11.56070326
_cell_angle_alpha   64.53510596
_cell_angle_beta   115.46489404
_cell_angle_gamma   131.27138247
_symmetry_Int_Tables_number   1
_chemical_formula_structural   NaH8O5
_chemical_formula_sum   'Na4 H32 O20'
_cell_volume   479.26138629
_cell_formula_units_Z   4
loop_
 _symmetry_equiv_pos_site_id
 _symmetry_equiv_pos_as_xyz
  1  'x, y, z'
loop_
 _atom_site_type_symbol
 _atom_site_label
 _atom_site_symmetry_multiplicity
 _atom_site_fract_x
 _atom_site_fract_y
 _atom_site_fract_z
 _atom_site_occupancy
  Na  Na0  1  0.30594857  0.70394913  0.56799325  1
  Na  Na1  1  0.70394913  0.30594857  0.93200675  1
  Na  Na2  1  0.69405143  0.29605087  0.43200675  1
  Na  Na3  1  0.29605087  0.69405143  0.06799325  1
  H  H4  1  0.90267116  0.65556659  0.57034007  1
  H  H5  1  0.65556659  0.90267116  0.92965993  1
  H  H6  1  0.09732884  0.34443341  0.42965993  1
  H  H7  1  0.34443341  0.09732884  0.07034007  1
  H  H8  1  0.95948299  0.79480926  0.42870161  1
  H  H9  1  0.79480926  0.95948299  0.07129839  1
  H  H10  1  0.04051701  0.20519074  0.57129839  1
  H  H11  1  0.20519074  0.04051701  0.92870161  1
  H  H12  1  0.15539658  0.32092532  0.78658117  1
  H  H13  1  0.32092532  0.15539658  0.71341883  1
  H  H14  1  0.84460342  0.67907468  0.21341883  1
  H  H15  1  0.67907468  0.84460342  0.28658117  1
  H  H16  1  0.41377583  0.54049923  0.82829894  1
  H  H17  1  0.54049923  0.41377583  0.67170106  1
  H  H18  1  0.58622417  0.45950077  0.17170106  1
  H  H19  1  0.45950077  0.58622417  0.32829894  1
  H  H20  1  0.78582153  0.82036584  0.63122074  1
  H  H21  1  0.82036584  0.78582153  0.86877926  1
  H  H22  1  0.21417847  0.17963416  0.36877926  1
  H  H23  1  0.17963416  0.21417847  0.13122074  1
  H  H24  1  0.61645238  0.73753338  0.49473782  1
  H  H25  1  0.73753338  0.61645238  0.00526218  1
  H  H26  1  0.38354762  0.26246662  0.50526218  1
  H  H27  1  0.26246662  0.38354762  0.99473782  1
  H  H28  1  0.59271827  0.11822065  0.68358080  1
  H  H29  1  0.11822065  0.59271827  0.81641920  1
  H  H30  1  0.40728173  0.88177935  0.31641920  1
  H  H31  1  0.88177935  0.40728173  0.18358080  1
  H  H32  1  0.76343859  0.05558939  0.70420372  1
  H  H33  1  0.05558939  0.76343859  0.79579628  1
  H  H34  1  0.23656141  0.94441061  0.29579628  1
  H  H35  1  0.94441061  0.23656141  0.20420372  1
  O  O36  1  0.99882372  0.03900918  0.79924150  1
  O  O37  1  0.03900918  0.99882372  0.70075850  1
  O  O38  1  0.00117628  0.96099082  0.20075850  1
  O  O39  1  0.96099082  0.00117628  0.29924150  1
  O  O40  1  0.95745750  0.66609670  0.50516630  1
  O  O41  1  0.66609670  0.95745750  0.99483370  1
  O  O42  1  0.04254250  0.33390330  0.49483370  1
  O  O43  1  0.33390330  0.04254250  0.00516630  1
  O  O44  1  0.25086830  0.48924015  0.78914602  1
  O  O45  1  0.48924015  0.25086830  0.71085398  1
  O  O46  1  0.74913170  0.51075985  0.21085398  1
  O  O47  1  0.51075985  0.74913170  0.28914602  1
  O  O48  1  0.62337773  0.69671549  0.58884599  1
  O  O49  1  0.69671549  0.62337773  0.91115401  1
  O  O50  1  0.37662227  0.30328451  0.41115401  1
  O  O51  1  0.30328451  0.37662227  0.08884599  1
  O  O52  1  0.62515014  0.05366514  0.64587459  1
  O  O53  1  0.05366514  0.62515014  0.85412541  1
  O  O54  1  0.37484986  0.94633486  0.35412541  1
  O  O55  1  0.94633486  0.37484986  0.14587459  1
