# generated using pymatgen
data_Na(WO3)9
_symmetry_space_group_name_H-M   'P 1'
_cell_length_a   8.65712660
_cell_length_b   8.65712660
_cell_length_c   8.65712660
_cell_angle_alpha   66.42269745
_cell_angle_beta   66.42269745
_cell_angle_gamma   66.42269745
_symmetry_Int_Tables_number   1
_chemical_formula_structural   Na(WO3)9
_chemical_formula_sum   'Na1 W9 O27'
_cell_volume   522.29464141
_cell_formula_units_Z   1
loop_
 _symmetry_equiv_pos_site_id
 _symmetry_equiv_pos_as_xyz
  1  'x, y, z'
loop_
 _atom_site_type_symbol
 _atom_site_label
 _atom_site_symmetry_multiplicity
 _atom_site_fract_x
 _atom_site_fract_y
 _atom_site_fract_z
 _atom_site_occupancy
  Na  Na0  1  0.11111100  0.77777800  0.44444400  1
  W  W1  1  0.61111100  0.27777800  0.94444400  1
  W  W2  1  0.83154208  0.83464381  0.83492968  1
  W  W3  1  0.27877651  0.94544351  0.61210951  1
  W  W4  1  0.72062632  0.05734692  0.38757819  1
  W  W5  1  0.94344549  0.61011249  0.27677849  1
  W  W6  1  0.50159568  0.49820908  0.50131081  1
  W  W7  1  0.05424519  0.38729332  0.72401292  1
  W  W8  1  0.16797681  0.16826268  0.16487508  1
  W  W9  1  0.39067992  0.72091219  0.05395932  1
  O  O10  1  0.83317437  0.33315087  0.83350419  1
  O  O11  1  0.94608720  0.61273126  0.77463848  1
  O  O12  1  0.61111100  0.77777800  0.94444400  1
  O  O13  1  0.72205181  0.05571463  0.88907113  1
  O  O14  1  0.33349284  0.83333583  0.83333214  1
  O  O15  1  0.78091752  0.94280180  0.60949074  1
  O  O16  1  0.11111100  0.27777800  0.94444400  1
  O  O17  1  0.55573813  0.38871781  0.72238063  1
  O  O18  1  0.05609846  0.88785956  0.71958020  1
  O  O19  1  0.38624620  0.72276546  0.55452556  1
  O  O20  1  0.27615774  0.44758452  0.60946880  1
  O  O21  1  0.72222386  0.55539616  0.38888617  1
  O  O22  1  0.94606426  0.10797148  0.27942020  1
  O  O23  1  0.49999814  0.00015984  0.50000283  1
  O  O24  1  0.83597580  0.83279054  0.33436344  1
  O  O25  1  0.61111100  0.27777800  0.44444400  1
  O  O26  1  0.16666983  0.16666514  0.66682584  1
  O  O27  1  0.22119256  0.05291320  0.38943246  1
  O  O28  1  0.88872916  0.72221917  0.05555686  1
  O  O29  1  0.66648487  0.16683719  0.16650837  1
  O  O30  1  0.00102944  0.50264180  0.49945654  1
  O  O31  1  0.44130448  0.61275320  0.27939826  1
  O  O32  1  0.27613580  0.94282474  0.11425052  1
  O  O33  1  0.50017019  0.49984137  0.99981787  1
  O  O34  1  0.05555217  0.38889086  0.22206316  1
  O  O35  1  0.16612354  0.66769644  0.16930880  1
  O  O36  1  0.38904763  0.22240413  0.05538481  1
