# generated using pymatgen
data_Tm2SeO2
_symmetry_space_group_name_H-M   'P 1'
_cell_length_a   3.78368589
_cell_length_b   3.78367516
_cell_length_c   6.75352083
_cell_angle_alpha   89.99972272
_cell_angle_beta   89.99980854
_cell_angle_gamma   120.00029279
_symmetry_Int_Tables_number   1
_chemical_formula_structural   Tm2SeO2
_chemical_formula_sum   'Tm2 Se1 O2'
_cell_volume   83.73143095
_cell_formula_units_Z   1
loop_
 _symmetry_equiv_pos_site_id
 _symmetry_equiv_pos_as_xyz
  1  'x, y, z'
loop_
 _atom_site_type_symbol
 _atom_site_label
 _atom_site_symmetry_multiplicity
 _atom_site_fract_x
 _atom_site_fract_y
 _atom_site_fract_z
 _atom_site_occupancy
  Tm  Tm0  1  0.33330888  0.66667634  0.29207785  1
  Tm  Tm1  1  0.66663044  0.33332375  0.70792060  1
  Se  Se2  1  0.99990747  0.00000044  0.99999975  1
  O  O3  1  0.33330605  0.66665746  0.62550949  1
  O  O4  1  0.66664716  0.33334301  0.37449131  1
