# generated using pymatgen
data_YbV4O8
_symmetry_space_group_name_H-M   'P 1'
_cell_length_a   9.17125160
_cell_length_b   11.16700049
_cell_length_c   11.20578685
_cell_angle_alpha   149.53958050
_cell_angle_beta   90.00000000
_cell_angle_gamma   90.00000000
_symmetry_Int_Tables_number   1
_chemical_formula_structural   YbV4O8
_chemical_formula_sum   'Yb4 V16 O32'
_cell_volume   581.79053016
_cell_formula_units_Z   4
loop_
 _symmetry_equiv_pos_site_id
 _symmetry_equiv_pos_as_xyz
  1  'x, y, z'
loop_
 _atom_site_type_symbol
 _atom_site_label
 _atom_site_symmetry_multiplicity
 _atom_site_fract_x
 _atom_site_fract_y
 _atom_site_fract_z
 _atom_site_occupancy
  Yb  Yb0  1  0.74342201  0.95234448  0.79547389  1
  Yb  Yb1  1  0.25657799  0.04765552  0.20452611  1
  Yb  Yb2  1  0.24342201  0.54765552  0.20452611  1
  Yb  Yb3  1  0.75657799  0.45234448  0.79547389  1
  V  V4  1  0.07369120  0.93458035  0.81694023  1
  V  V5  1  0.92630880  0.06541965  0.18305977  1
  V  V6  1  0.57369120  0.56541965  0.18305977  1
  V  V7  1  0.42630880  0.43458035  0.81694023  1
  V  V8  1  0.09085763  0.17341722  0.57227679  1
  V  V9  1  0.90914237  0.82658278  0.42772321  1
  V  V10  1  0.59085763  0.32658278  0.42772321  1
  V  V11  1  0.40914237  0.67341722  0.57227679  1
  V  V12  1  0.04747381  0.42693309  0.31524522  1
  V  V13  1  0.95252619  0.57306691  0.68475478  1
  V  V14  1  0.54747381  0.07306691  0.68475478  1
  V  V15  1  0.45252619  0.92693309  0.31524522  1
  V  V16  1  0.07932795  0.68250919  0.07889430  1
  V  V17  1  0.92067205  0.31749081  0.92110570  1
  V  V18  1  0.57932795  0.81749081  0.92110570  1
  V  V19  1  0.42067205  0.18250919  0.07889430  1
  O  O20  1  0.29989242  0.17970658  0.52644775  1
  O  O21  1  0.70010758  0.82029342  0.47355225  1
  O  O22  1  0.79989242  0.32029342  0.47355225  1
  O  O23  1  0.20010758  0.67970658  0.52644775  1
  O  O24  1  0.38915226  0.34911230  0.37114603  1
  O  O25  1  0.61084774  0.65088770  0.62885397  1
  O  O26  1  0.88915226  0.15088770  0.62885397  1
  O  O27  1  0.11084774  0.84911230  0.37114603  1
  O  O28  1  0.96493389  0.02284416  0.74474748  1
  O  O29  1  0.03506611  0.97715584  0.25525252  1
  O  O30  1  0.46493389  0.47715584  0.25525252  1
  O  O31  1  0.53506611  0.52284416  0.74474748  1
  O  O32  1  0.07896120  0.33920246  0.41027606  1
  O  O33  1  0.92103880  0.66079754  0.58972394  1
  O  O34  1  0.57896120  0.16079754  0.58972394  1
  O  O35  1  0.42103880  0.83920246  0.41027606  1
  O  O36  1  0.29186308  0.71776220  0.06889848  1
  O  O37  1  0.70813692  0.28223780  0.93110152  1
  O  O38  1  0.79186308  0.78223780  0.93110152  1
  O  O39  1  0.20813692  0.21776220  0.06889848  1
  O  O40  1  0.38170361  0.87776096  0.89814392  1
  O  O41  1  0.61829639  0.12223904  0.10185608  1
  O  O42  1  0.88170361  0.62223904  0.10185608  1
  O  O43  1  0.11829639  0.37776096  0.89814392  1
  O  O44  1  0.98220499  0.50964051  0.22295676  1
  O  O45  1  0.01779501  0.49035949  0.77704324  1
  O  O46  1  0.48220499  0.99035949  0.77704324  1
  O  O47  1  0.51779501  0.00964051  0.22295676  1
  O  O48  1  0.08010905  0.83733562  0.90847248  1
  O  O49  1  0.91989095  0.16266438  0.09152752  1
  O  O50  1  0.58010905  0.66266438  0.09152752  1
  O  O51  1  0.41989095  0.33733562  0.90847248  1
