# generated using pymatgen
data_GdIO
_symmetry_space_group_name_H-M   'P 1'
_cell_length_a   7.32754066
_cell_length_b   7.04113414
_cell_length_c   7.04113414
_cell_angle_alpha   110.00904027
_cell_angle_beta   71.57520170
_cell_angle_gamma   71.57520170
_symmetry_Int_Tables_number   1
_chemical_formula_structural   GdIO
_chemical_formula_sum   'Gd4 I4 O4'
_cell_volume   284.83978079
_cell_formula_units_Z   4
loop_
 _symmetry_equiv_pos_site_id
 _symmetry_equiv_pos_as_xyz
  1  'x, y, z'
loop_
 _atom_site_type_symbol
 _atom_site_label
 _atom_site_symmetry_multiplicity
 _atom_site_fract_x
 _atom_site_fract_y
 _atom_site_fract_z
 _atom_site_occupancy
  Gd  Gd0  1  0.25000000  0.97653309  0.02346691  1
  Gd  Gd1  1  0.75000000  0.72653309  0.27346691  1
  Gd  Gd2  1  0.25000000  0.27346691  0.72653309  1
  Gd  Gd3  1  0.75000000  0.02346691  0.97653309  1
  I  I4  1  0.50000000  0.50000000  0.00000000  1
  I  I5  1  0.00000000  0.50000000  0.50000000  1
  I  I6  1  0.50000000  0.50000000  0.50000000  1
  I  I7  1  0.00000000  0.00000000  0.50000000  1
  O  O8  1  0.48109881  0.00945060  0.75945060  1
  O  O9  1  0.01890119  0.24054940  0.99054940  1
  O  O10  1  0.98109881  0.75945060  0.00945060  1
  O  O11  1  0.51890119  0.99054940  0.24054940  1
