# generated using pymatgen
data_Sr21Co14O43
_symmetry_space_group_name_H-M   'P 1'
_cell_length_a   14.03031695
_cell_length_b   11.88443623
_cell_length_c   11.88443623
_cell_angle_alpha   117.07228230
_cell_angle_beta   65.61300600
_cell_angle_gamma   65.61300600
_symmetry_Int_Tables_number   1
_chemical_formula_structural   Sr21Co14O43
_chemical_formula_sum   'Sr21 Co14 O43'
_cell_volume   1079.44291025
_cell_formula_units_Z   1
loop_
 _symmetry_equiv_pos_site_id
 _symmetry_equiv_pos_as_xyz
  1  'x, y, z'
loop_
 _atom_site_type_symbol
 _atom_site_label
 _atom_site_symmetry_multiplicity
 _atom_site_fract_x
 _atom_site_fract_y
 _atom_site_fract_z
 _atom_site_occupancy
  Sr  Sr0  1  0.00301604  0.50371129  0.50371129  1
  Sr  Sr1  1  0.99906998  0.32140024  0.68365662  1
  Sr  Sr2  1  0.99906998  0.68365662  0.32140024  1
  Sr  Sr3  1  0.14285700  0.07142900  0.07142900  1
  Sr  Sr4  1  0.14285700  0.25607367  0.88678333  1
  Sr  Sr5  1  0.14285700  0.88678333  0.25607367  1
  Sr  Sr6  1  0.42766069  0.39824911  0.03597263  1
  Sr  Sr7  1  0.28664402  0.45920038  0.82145676  1
  Sr  Sr8  1  0.42766069  0.03597263  0.39824911  1
  Sr  Sr9  1  0.41969822  0.22775600  0.22775600  1
  Sr  Sr10  1  0.28269896  0.63914571  0.63914571  1
  Sr  Sr11  1  0.28664402  0.82145676  0.45920038  1
  Sr  Sr12  1  0.71410016  0.53834300  0.17366188  1
  Sr  Sr13  1  0.71410016  0.17366188  0.53834300  1
  Sr  Sr14  1  0.57161384  0.96919512  0.60451400  1
  Sr  Sr15  1  0.57392921  0.78533851  0.78533851  1
  Sr  Sr16  1  0.57161384  0.60451400  0.96919512  1
  Sr  Sr17  1  0.71178479  0.35751849  0.35751849  1
  Sr  Sr18  1  0.85805331  0.74460889  0.10688437  1
  Sr  Sr19  1  0.85805331  0.10688437  0.74460889  1
  Sr  Sr20  1  0.86601578  0.91510100  0.91510100  1
  Co  Co21  1  0.99842785  0.10521590  0.90078040  1
  Co  Co22  1  0.99842785  0.90078040  0.10521590  1
  Co  Co23  1  0.14285700  0.66649439  0.47636361  1
  Co  Co24  1  0.28728615  0.24207660  0.03764110  1
  Co  Co25  1  0.28728615  0.03764110  0.24207660  1
  Co  Co26  1  0.14285700  0.47636361  0.66649439  1
  Co  Co27  1  0.57414606  0.38425358  0.18027616  1
  Co  Co28  1  0.42998118  0.81134053  0.60801994  1
  Co  Co29  1  0.57414606  0.18027616  0.38425358  1
  Co  Co30  1  0.42998118  0.60801994  0.81134053  1
  Co  Co31  1  0.71156894  0.96258184  0.75860342  1
  Co  Co32  1  0.71156894  0.75860342  0.96258184  1
  Co  Co33  1  0.85573282  0.33151647  0.53483706  1
  Co  Co34  1  0.85573282  0.53483706  0.33151647  1
  O  O35  1  0.05885000  0.20741443  0.37398210  1
  O  O36  1  0.05885000  0.37398210  0.20741443  1
  O  O37  1  0.00061019  0.20180395  0.80644355  1
  O  O38  1  0.00061019  0.80644355  0.20180395  1
  O  O39  1  0.21941860  0.42812919  0.25079949  1
  O  O40  1  0.06629540  0.71472781  0.89205751  1
  O  O41  1  0.06629540  0.89205751  0.71472781  1
  O  O42  1  0.14285700  0.38018779  0.76267021  1
  O  O43  1  0.14285700  0.76267021  0.38018779  1
  O  O44  1  0.21941860  0.25079949  0.42812919  1
  O  O45  1  0.14285700  0.57142900  0.57142900  1
  O  O46  1  0.35565863  0.02441736  0.85613596  1
  O  O47  1  0.37109482  0.50903833  0.33096626  1
  O  O48  1  0.37109482  0.33096626  0.50903833  1
  O  O49  1  0.22686500  0.93544257  0.76887490  1
  O  O50  1  0.28510381  0.33641345  0.94105305  1
  O  O51  1  0.22686500  0.76887490  0.93544257  1
  O  O52  1  0.35565863  0.85613596  0.02441736  1
  O  O53  1  0.28510381  0.94105305  0.33641345  1
  O  O54  1  0.50239730  0.41347476  0.58437638  1
  O  O55  1  0.50239730  0.58437638  0.41347476  1
  O  O56  1  0.51049217  0.90942549  0.07838509  1
  O  O57  1  0.57632288  0.08512423  0.47991550  1
  O  O58  1  0.42883919  0.91526655  0.52262902  1
  O  O59  1  0.51049217  0.07838509  0.90942549  1
  O  O60  1  0.57632288  0.47991550  0.08512423  1
  O  O61  1  0.42883919  0.52262902  0.91526655  1
  O  O62  1  0.64285700  0.98587166  0.15698534  1
  O  O63  1  0.70939112  0.66294150  0.05773277  1
  O  O64  1  0.64285700  0.15698534  0.98587166  1
  O  O65  1  0.64285700  0.48743790  0.65541910  1
  O  O66  1  0.77522283  0.06447191  0.23343151  1
  O  O67  1  0.77522283  0.23343151  0.06447191  1
  O  O68  1  0.64285700  0.65541910  0.48743790  1
  O  O69  1  0.70939112  0.05773277  0.66294150  1
  O  O70  1  0.78331670  0.72938224  0.55848062  1
  O  O71  1  0.78331670  0.55848062  0.72938224  1
  O  O72  1  0.85687581  0.22759145  0.62022798  1
  O  O73  1  0.93005537  0.28672104  0.11843964  1
  O  O74  1  0.85687581  0.62022798  0.22759145  1
  O  O75  1  0.93005537  0.11843964  0.28672104  1
  O  O76  1  0.91462018  0.81189074  0.63381867  1
  O  O77  1  0.91462018  0.63381867  0.81189074  1
