# generated using pymatgen
data_TeMoWSeS2
_symmetry_space_group_name_H-M   'P 1'
_cell_length_a   3.30899800
_cell_length_b   3.30897748
_cell_length_c   37.61481928
_cell_angle_alpha   90.00003378
_cell_angle_beta   90.00000000
_cell_angle_gamma   120.00020518
_symmetry_Int_Tables_number   1
_chemical_formula_structural   TeMoWSeS2
_chemical_formula_sum   'Te2 Mo2 W2 Se2 S4'
_cell_volume   356.68022260
_cell_formula_units_Z   2
loop_
 _symmetry_equiv_pos_site_id
 _symmetry_equiv_pos_as_xyz
  1  'x, y, z'
loop_
 _atom_site_type_symbol
 _atom_site_label
 _atom_site_symmetry_multiplicity
 _atom_site_fract_x
 _atom_site_fract_y
 _atom_site_fract_z
 _atom_site_occupancy
  Te  Te0  1  0.33335205  0.66670510  0.70868112  1
  Te  Te1  1  0.33335476  0.66671052  0.60641257  1
  Mo  Mo2  1  0.33330935  0.66661870  0.09391740  1
  Mo  Mo3  1  0.66666837  0.33333674  0.28179618  1
  W  W4  1  0.33331130  0.66662260  0.46963022  1
  W  W5  1  0.66668964  0.33337929  0.65758054  1
  Se  Se6  1  0.66664058  0.33328016  0.04931617  1
  Se  Se7  1  0.66664620  0.33329139  0.13854944  1
  S  S8  1  0.33336685  0.66673471  0.32241863  1
  S  S9  1  0.66664624  0.33329148  0.42888286  1
  S  S10  1  0.66664682  0.33329263  0.51038868  1
  S  S11  1  0.33336783  0.66673666  0.24117419  1
