# generated using pymatgen
data_Li3CuF6
_symmetry_space_group_name_H-M   'P 1'
_cell_length_a   8.46315135
_cell_length_b   8.46315186
_cell_length_c   10.10373598
_cell_angle_alpha   86.18345869
_cell_angle_beta   93.81653994
_cell_angle_gamma   118.45857105
_symmetry_Int_Tables_number   1
_chemical_formula_structural   Li3CuF6
_chemical_formula_sum   'Li18 Cu6 F36'
_cell_volume   634.31942281
_cell_formula_units_Z   6
loop_
 _symmetry_equiv_pos_site_id
 _symmetry_equiv_pos_as_xyz
  1  'x, y, z'
loop_
 _atom_site_type_symbol
 _atom_site_label
 _atom_site_symmetry_multiplicity
 _atom_site_fract_x
 _atom_site_fract_y
 _atom_site_fract_z
 _atom_site_occupancy
  Li  Li0  1  0.05985360  0.65697983  0.93214049  1
  Li  Li1  1  0.00560903  0.28889418  0.73253257  1
  Li  Li2  1  0.34302017  0.94014640  0.43214049  1
  Li  Li3  1  0.12396154  0.45704339  0.44844543  1
  Li  Li4  1  0.54295661  0.87603846  0.94844543  1
  Li  Li5  1  0.32519383  0.37083152  0.96081780  1
  Li  Li6  1  0.18791477  0.18791477  0.25000000  1
  Li  Li7  1  0.37083152  0.32519383  0.53918220  1
  Li  Li8  1  0.28889418  0.00560903  0.76746743  1
  Li  Li9  1  0.71110582  0.99439097  0.23253257  1
  Li  Li10  1  0.62916848  0.67480617  0.46081780  1
  Li  Li11  1  0.81208523  0.81208523  0.75000000  1
  Li  Li12  1  0.67480617  0.62916848  0.03918220  1
  Li  Li13  1  0.45704339  0.12396154  0.05155457  1
  Li  Li14  1  0.87603846  0.54295661  0.55155457  1
  Li  Li15  1  0.65697983  0.05985360  0.56785951  1
  Li  Li16  1  0.99439097  0.71110582  0.26746743  1
  Li  Li17  1  0.94014640  0.34302017  0.06785951  1
  Cu  Cu18  1  0.00000000  0.00000000  0.50000000  1
  Cu  Cu19  1  0.33891689  0.66529118  0.70434835  1
  Cu  Cu20  1  0.00000000  0.00000000  0.00000000  1
  Cu  Cu21  1  0.33470882  0.66108311  0.20434835  1
  Cu  Cu22  1  0.66529118  0.33891689  0.79565165  1
  Cu  Cu23  1  0.66108311  0.33470882  0.29565165  1
  F  F24  1  0.06397863  0.91912228  0.66546720  1
  F  F25  1  0.08087772  0.93602137  0.16546720  1
  F  F26  1  0.10916003  0.56881664  0.61045112  1
  F  F27  1  0.10640021  0.58390140  0.10749443  1
  F  F28  1  0.26911270  0.77367205  0.83710714  1
  F  F29  1  0.22632795  0.73088730  0.33710714  1
  F  F30  1  0.08583498  0.23852651  0.56387463  1
  F  F31  1  0.41609860  0.89359979  0.60749443  1
  F  F32  1  0.24021762  0.44305432  0.80464257  1
  F  F33  1  0.09421771  0.23788110  0.06546763  1
  F  F34  1  0.43118336  0.89083997  0.11045112  1
  F  F35  1  0.24579450  0.43474764  0.30287440  1
  F  F36  1  0.41201283  0.57017190  0.56672255  1
  F  F37  1  0.23852651  0.08583498  0.93612537  1
  F  F38  1  0.56525236  0.75420550  0.80287440  1
  F  F39  1  0.42982810  0.58798717  0.06672255  1
  F  F40  1  0.23788110  0.09421771  0.43453237  1
  F  F41  1  0.55694568  0.75978238  0.30464257  1
  F  F42  1  0.44305432  0.24021762  0.69535743  1
  F  F43  1  0.76211890  0.90578229  0.56546763  1
  F  F44  1  0.57017190  0.41201283  0.93327745  1
  F  F45  1  0.43474764  0.24579450  0.19712560  1
  F  F46  1  0.76147349  0.91416502  0.06387463  1
  F  F47  1  0.58798717  0.42982810  0.43327745  1
  F  F48  1  0.75420550  0.56525236  0.69712560  1
  F  F49  1  0.56881664  0.10916003  0.88954888  1
  F  F50  1  0.90578229  0.76211890  0.93453237  1
  F  F51  1  0.75978238  0.55694568  0.19535743  1
  F  F52  1  0.58390140  0.10640021  0.39250557  1
  F  F53  1  0.91416502  0.76147349  0.43612537  1
  F  F54  1  0.77367205  0.26911270  0.66289286  1
  F  F55  1  0.73088730  0.22632795  0.16289286  1
  F  F56  1  0.89359979  0.41609860  0.89250557  1
  F  F57  1  0.89083997  0.43118336  0.38954888  1
  F  F58  1  0.91912228  0.06397863  0.83453280  1
  F  F59  1  0.93602137  0.08087772  0.33453280  1
