# generated using pymatgen
data_Rb2FeH2Cl5O
_symmetry_space_group_name_H-M   'P 1'
_cell_length_a   14.05443862
_cell_length_b   10.01856911
_cell_length_c   7.20839438
_cell_angle_alpha   90.00000000
_cell_angle_beta   90.00000000
_cell_angle_gamma   90.00000000
_symmetry_Int_Tables_number   1
_chemical_formula_structural   Rb2FeH2Cl5O
_chemical_formula_sum   'Rb8 Fe4 H8 Cl20 O4'
_cell_volume   1014.98059898
_cell_formula_units_Z   4
loop_
 _symmetry_equiv_pos_site_id
 _symmetry_equiv_pos_as_xyz
  1  'x, y, z'
loop_
 _atom_site_type_symbol
 _atom_site_label
 _atom_site_symmetry_multiplicity
 _atom_site_fract_x
 _atom_site_fract_y
 _atom_site_fract_z
 _atom_site_occupancy
  Rb  Rb0  1  0.85657812  0.50009563  0.34451300  1
  Rb  Rb1  1  0.35657812  0.99990437  0.15548700  1
  Rb  Rb2  1  0.14342188  0.00009563  0.65548700  1
  Rb  Rb3  1  0.64342188  0.49990437  0.84451300  1
  Rb  Rb4  1  0.14342188  0.49990437  0.65548700  1
  Rb  Rb5  1  0.64342188  0.00009563  0.84451300  1
  Rb  Rb6  1  0.85657812  0.99990437  0.34451300  1
  Rb  Rb7  1  0.35657812  0.50009563  0.15548700  1
  Fe  Fe8  1  0.61459074  0.25000000  0.30933632  1
  Fe  Fe9  1  0.11459074  0.25000000  0.19066368  1
  Fe  Fe10  1  0.38540926  0.75000000  0.69066368  1
  Fe  Fe11  1  0.88540926  0.75000000  0.80933632  1
  H  H12  1  0.46461094  0.33029670  0.54713072  1
  H  H13  1  0.96461094  0.16970330  0.95286928  1
  H  H14  1  0.53538906  0.83029670  0.45286928  1
  H  H15  1  0.03538906  0.66970330  0.04713072  1
  H  H16  1  0.53538906  0.66970330  0.45286928  1
  H  H17  1  0.03538906  0.83029670  0.04713072  1
  H  H18  1  0.46461094  0.16970330  0.54713072  1
  H  H19  1  0.96461094  0.33029670  0.95286928  1
  Cl  Cl20  1  0.74557747  0.25000000  0.10174398  1
  Cl  Cl21  1  0.24557747  0.25000000  0.39825602  1
  Cl  Cl22  1  0.25442253  0.75000000  0.89825602  1
  Cl  Cl23  1  0.75442253  0.75000000  0.60174398  1
  Cl  Cl24  1  0.72069126  0.25000000  0.56913280  1
  Cl  Cl25  1  0.22069126  0.25000000  0.93086720  1
  Cl  Cl26  1  0.27930874  0.75000000  0.43086720  1
  Cl  Cl27  1  0.77930874  0.75000000  0.06913280  1
  Cl  Cl28  1  0.50652761  0.25000000  0.04685812  1
  Cl  Cl29  1  0.00652761  0.25000000  0.45314188  1
  Cl  Cl30  1  0.49347239  0.75000000  0.95314188  1
  Cl  Cl31  1  0.99347239  0.75000000  0.54685812  1
  Cl  Cl32  1  0.60369714  0.49104692  0.32360988  1
  Cl  Cl33  1  0.10369714  0.00895308  0.17639012  1
  Cl  Cl34  1  0.39630286  0.99104692  0.67639012  1
  Cl  Cl35  1  0.89630286  0.50895308  0.82360988  1
  Cl  Cl36  1  0.39630286  0.50895308  0.67639012  1
  Cl  Cl37  1  0.89630286  0.99104692  0.82360988  1
  Cl  Cl38  1  0.60369714  0.00895308  0.32360988  1
  Cl  Cl39  1  0.10369714  0.49104692  0.17639012  1
  O  O40  1  0.49502907  0.25000000  0.49370217  1
  O  O41  1  0.99502907  0.25000000  0.00629783  1
  O  O42  1  0.50497093  0.75000000  0.50629783  1
  O  O43  1  0.00497093  0.75000000  0.99370217  1
