# generated using pymatgen
data_Na6Co2C4SO16
_symmetry_space_group_name_H-M   'P 1'
_cell_length_a   9.88670539
_cell_length_b   9.88670489
_cell_length_c   9.88670471
_cell_angle_alpha   59.99999859
_cell_angle_beta   60.00000111
_cell_angle_gamma   60.00000170
_symmetry_Int_Tables_number   1
_chemical_formula_structural   Na6Co2C4SO16
_chemical_formula_sum   'Na12 Co4 C8 S2 O32'
_cell_volume   683.34454808
_cell_formula_units_Z   2
loop_
 _symmetry_equiv_pos_site_id
 _symmetry_equiv_pos_as_xyz
  1  'x, y, z'
loop_
 _atom_site_type_symbol
 _atom_site_label
 _atom_site_symmetry_multiplicity
 _atom_site_fract_x
 _atom_site_fract_y
 _atom_site_fract_z
 _atom_site_occupancy
  Na  Na0  1  0.15936292  0.09063708  0.09063708  1
  Na  Na1  1  0.15936292  0.65936292  0.09063708  1
  Na  Na2  1  0.15936292  0.09063708  0.65936292  1
  Na  Na3  1  0.40936292  0.34063708  0.34063708  1
  Na  Na4  1  0.59063708  0.65936292  0.09063708  1
  Na  Na5  1  0.59063708  0.09063708  0.65936292  1
  Na  Na6  1  0.40936292  0.34063708  0.90936292  1
  Na  Na7  1  0.40936292  0.90936292  0.34063708  1
  Na  Na8  1  0.59063708  0.65936292  0.65936292  1
  Na  Na9  1  0.84063708  0.34063708  0.90936292  1
  Na  Na10  1  0.84063708  0.90936292  0.34063708  1
  Na  Na11  1  0.84063708  0.90936292  0.90936292  1
  Co  Co12  1  0.00000000  0.00000000  0.50000000  1
  Co  Co13  1  0.00000000  0.50000000  0.00000000  1
  Co  Co14  1  0.00000000  0.50000000  0.50000000  1
  Co  Co15  1  0.50000000  0.50000000  0.50000000  1
  C  C16  1  0.15766539  0.28077820  0.28077820  1
  C  C17  1  0.21922180  0.34233461  0.71922180  1
  C  C18  1  0.21922180  0.71922180  0.34233461  1
  C  C19  1  0.21922180  0.71922180  0.71922180  1
  C  C20  1  0.78077820  0.28077820  0.28077820  1
  C  C21  1  0.78077820  0.65766539  0.28077820  1
  C  C22  1  0.78077820  0.28077820  0.65766539  1
  C  C23  1  0.84233461  0.71922180  0.71922180  1
  S  S24  1  0.62500000  0.12500000  0.12500000  1
  S  S25  1  0.37500000  0.87500000  0.87500000  1
  O  O26  1  0.15954772  0.30153344  0.13904980  1
  O  O27  1  0.15954772  0.13904980  0.39987004  1
  O  O28  1  0.15954772  0.39987004  0.30153344  1
  O  O29  1  0.10012996  0.69846656  0.34045228  1
  O  O30  1  0.56315434  0.06315534  0.06315534  1
  O  O31  1  0.19846656  0.34045228  0.60012996  1
  O  O32  1  0.10012996  0.34045228  0.86095020  1
  O  O33  1  0.56315434  0.31053597  0.06315534  1
  O  O34  1  0.56315434  0.06315534  0.31053597  1
  O  O35  1  0.19846656  0.86095020  0.34045228  1
  O  O36  1  0.36095020  0.60012996  0.34045228  1
  O  O37  1  0.81053497  0.06315534  0.06315534  1
  O  O38  1  0.10012996  0.86095020  0.69846656  1
  O  O39  1  0.36095020  0.34045228  0.69846656  1
  O  O40  1  0.19846656  0.60012996  0.86095020  1
  O  O41  1  0.63904980  0.30153344  0.39987004  1
  O  O42  1  0.36095020  0.69846656  0.60012996  1
  O  O43  1  0.80153344  0.39987004  0.13904980  1
  O  O44  1  0.63904980  0.65954772  0.30153344  1
  O  O45  1  0.89987004  0.13904980  0.30153344  1
  O  O46  1  0.18946503  0.93684566  0.93684566  1
  O  O47  1  0.63904980  0.39987004  0.65954772  1
  O  O48  1  0.80153344  0.13904980  0.65954772  1
  O  O49  1  0.43684566  0.93684566  0.68946503  1
  O  O50  1  0.43684566  0.68946503  0.93684566  1
  O  O51  1  0.89987004  0.65954772  0.13904980  1
  O  O52  1  0.80153344  0.65954772  0.39987004  1
  O  O53  1  0.43684566  0.93684566  0.93684566  1
  O  O54  1  0.89987004  0.30153344  0.65954772  1
  O  O55  1  0.84045228  0.60012996  0.69846656  1
  O  O56  1  0.84045228  0.86095020  0.60012996  1
  O  O57  1  0.84045228  0.69846656  0.86095020  1
