# generated using pymatgen
data_KMnPCO7
_symmetry_space_group_name_H-M   'P 1'
_cell_length_a   10.00912786
_cell_length_b   6.21137712
_cell_length_c   5.40305676
_cell_angle_alpha   90.00000000
_cell_angle_beta   88.70652530
_cell_angle_gamma   90.00000000
_symmetry_Int_Tables_number   1
_chemical_formula_structural   KMnPCO7
_chemical_formula_sum   'K2 Mn2 P2 C2 O14'
_cell_volume   335.82497162
_cell_formula_units_Z   2
loop_
 _symmetry_equiv_pos_site_id
 _symmetry_equiv_pos_as_xyz
  1  'x, y, z'
loop_
 _atom_site_type_symbol
 _atom_site_label
 _atom_site_symmetry_multiplicity
 _atom_site_fract_x
 _atom_site_fract_y
 _atom_site_fract_z
 _atom_site_occupancy
  K  K0  1  0.23498325  0.40775923  0.24490015  1
  K  K1  1  0.76501675  0.90775923  0.75509985  1
  Mn  Mn2  1  0.35417590  0.77116259  0.77354012  1
  Mn  Mn3  1  0.64582410  0.27116259  0.22645988  1
  P  P4  1  0.44266135  0.26636545  0.72550061  1
  P  P5  1  0.55733865  0.76636545  0.27449939  1
  C  C6  1  0.11241806  0.74602732  0.71949228  1
  C  C7  1  0.88758194  0.24602732  0.28050772  1
  O  O8  1  0.00861148  0.22011429  0.31214273  1
  O  O9  1  0.17034113  0.75634917  0.93545540  1
  O  O10  1  0.20297487  0.76278986  0.53755481  1
  O  O11  1  0.34440063  0.07668140  0.77949506  1
  O  O12  1  0.34714021  0.46066133  0.77568226  1
  O  O13  1  0.43615920  0.76243630  0.10716615  1
  O  O14  1  0.48638128  0.26750307  0.44794297  1
  O  O15  1  0.51361872  0.76750307  0.55205703  1
  O  O16  1  0.56384080  0.26243630  0.89283385  1
  O  O17  1  0.65285979  0.96066133  0.22431774  1
  O  O18  1  0.65559937  0.57668140  0.22050494  1
  O  O19  1  0.79702513  0.26278986  0.46244519  1
  O  O20  1  0.82965887  0.25634917  0.06454460  1
  O  O21  1  0.99138852  0.72011429  0.68785727  1
