# generated using pymatgen
data_LiTiVO4
_symmetry_space_group_name_H-M   'P 1'
_cell_length_a   5.99990841
_cell_length_b   6.02439813
_cell_length_c   6.02439835
_cell_angle_alpha   58.99943945
_cell_angle_beta   60.13437690
_cell_angle_gamma   60.13437567
_symmetry_Int_Tables_number   1
_chemical_formula_structural   LiTiVO4
_chemical_formula_sum   'Li2 Ti2 V2 O8'
_cell_volume   153.08445866
_cell_formula_units_Z   2
loop_
 _symmetry_equiv_pos_site_id
 _symmetry_equiv_pos_as_xyz
  1  'x, y, z'
loop_
 _atom_site_type_symbol
 _atom_site_label
 _atom_site_symmetry_multiplicity
 _atom_site_fract_x
 _atom_site_fract_y
 _atom_site_fract_z
 _atom_site_occupancy
  Li  Li0  1  0.12771276  0.12228724  0.12228724  1
  Li  Li1  1  0.87228724  0.87771276  0.87771276  1
  Ti  Ti2  1  0.50000000  0.00000000  0.50000000  1
  Ti  Ti3  1  0.50000000  0.50000000  0.00000000  1
  V  V4  1  0.00000000  0.50000000  0.50000000  1
  V  V5  1  0.50000000  0.50000000  0.50000000  1
  O  O6  1  0.27524475  0.25502126  0.25502126  1
  O  O7  1  0.26860025  0.25410299  0.70869650  1
  O  O8  1  0.26860025  0.70869650  0.25410299  1
  O  O9  1  0.71471174  0.25502126  0.25502126  1
  O  O10  1  0.28528826  0.74497874  0.74497874  1
  O  O11  1  0.73139975  0.74589701  0.29130350  1
  O  O12  1  0.73139975  0.29130350  0.74589701  1
  O  O13  1  0.72475525  0.74497874  0.74497874  1
