# generated using pymatgen
data_TaFeO4
_symmetry_space_group_name_H-M   'P 1'
_cell_length_a   6.64095740
_cell_length_b   6.64095740
_cell_length_c   6.73438944
_cell_angle_alpha   73.23279472
_cell_angle_beta   106.76720528
_cell_angle_gamma   145.95819307
_symmetry_Int_Tables_number   1
_chemical_formula_structural   TaFeO4
_chemical_formula_sum   'Ta2 Fe2 O8'
_cell_volume   158.51390100
_cell_formula_units_Z   2
loop_
 _symmetry_equiv_pos_site_id
 _symmetry_equiv_pos_as_xyz
  1  'x, y, z'
loop_
 _atom_site_type_symbol
 _atom_site_label
 _atom_site_symmetry_multiplicity
 _atom_site_fract_x
 _atom_site_fract_y
 _atom_site_fract_z
 _atom_site_occupancy
  Ta  Ta0  1  0.10409524  0.89590476  0.22332100  1
  Ta  Ta1  1  0.89590476  0.10409524  0.77667900  1
  Fe  Fe2  1  0.19674959  0.80325041  0.80707663  1
  Fe  Fe3  1  0.80325041  0.19674959  0.19292337  1
  O  O4  1  0.05448408  0.94551592  0.86893080  1
  O  O5  1  0.13595858  0.86404142  0.50818116  1
  O  O6  1  0.36589240  0.63410760  0.79733071  1
  O  O7  1  0.25564380  0.74435620  0.14760469  1
  O  O8  1  0.74435620  0.25564380  0.85239531  1
  O  O9  1  0.63410760  0.36589240  0.20266929  1
  O  O10  1  0.86404142  0.13595858  0.49181884  1
  O  O11  1  0.94551592  0.05448408  0.13106920  1
