# generated using pymatgen
data_Li2Cr3SbO8
_symmetry_space_group_name_H-M   'P 1'
_cell_length_a   8.54062283
_cell_length_b   8.54064753
_cell_length_c   8.54102241
_cell_angle_alpha   90.00002039
_cell_angle_beta   89.99994606
_cell_angle_gamma   90.00004086
_symmetry_Int_Tables_number   1
_chemical_formula_structural   Li2Cr3SbO8
_chemical_formula_sum   'Li8 Cr12 Sb4 O32'
_cell_volume   623.00309392
_cell_formula_units_Z   4
loop_
 _symmetry_equiv_pos_site_id
 _symmetry_equiv_pos_as_xyz
  1  'x, y, z'
loop_
 _atom_site_type_symbol
 _atom_site_label
 _atom_site_symmetry_multiplicity
 _atom_site_fract_x
 _atom_site_fract_y
 _atom_site_fract_z
 _atom_site_occupancy
  Li  Li0  1  0.99686003  0.99688062  0.99686796  1
  Li  Li1  1  0.25312355  0.25312710  0.25313332  1
  Li  Li2  1  0.24686834  0.74687921  0.75311917  1
  Li  Li3  1  0.50312866  0.00313095  0.49686788  1
  Li  Li4  1  0.49686256  0.50312999  0.00314127  1
  Li  Li5  1  0.75313035  0.24687657  0.74687526  1
  Li  Li6  1  0.74686092  0.75313272  0.24687814  1
  Li  Li7  1  0.00313272  0.49687253  0.50313925  1
  Cr  Cr8  1  0.12053372  0.12947166  0.62497030  1
  Cr  Cr9  1  0.12496782  0.37946170  0.87051352  1
  Cr  Cr10  1  0.12949030  0.62497448  0.12051049  1
  Cr  Cr11  1  0.37051185  0.37502864  0.62053017  1
  Cr  Cr12  1  0.37502482  0.62052579  0.37050890  1
  Cr  Cr13  1  0.37947370  0.87053261  0.12496948  1
  Cr  Cr14  1  0.62052593  0.37053435  0.37504353  1
  Cr  Cr15  1  0.62497266  0.12054508  0.12949283  1
  Cr  Cr16  1  0.62949172  0.87502410  0.87948680  1
  Cr  Cr17  1  0.87051459  0.12498268  0.37948111  1
  Cr  Cr18  1  0.87503759  0.87946754  0.62948832  1
  Cr  Cr19  1  0.87947763  0.62947199  0.87502929  1
  Sb  Sb20  1  0.12499815  0.87499942  0.37495778  1
  Sb  Sb21  1  0.37500346  0.12500214  0.87496766  1
  Sb  Sb22  1  0.62499521  0.62500738  0.62504534  1
  Sb  Sb23  1  0.87499875  0.37500815  0.12504192  1
  O  O24  1  0.11257579  0.11155232  0.38648781  1
  O  O25  1  0.11352792  0.88742919  0.61151253  1
  O  O26  1  0.11217783  0.61216987  0.88782562  1
  O  O27  1  0.13845625  0.13743343  0.86345185  1
  O  O28  1  0.11155108  0.38648013  0.11255999  1
  O  O29  1  0.13782181  0.36217296  0.63780942  1
  O  O30  1  0.13654729  0.63845279  0.36256011  1
  O  O31  1  0.13743447  0.86345334  0.13841275  1
  O  O32  1  0.36256815  0.13655245  0.63842367  1
  O  O33  1  0.36344577  0.36154588  0.86257618  1
  O  O34  1  0.36217768  0.63782782  0.13780338  1
  O  O35  1  0.38844451  0.61352306  0.61256506  1
  O  O36  1  0.36154357  0.86255945  0.36344578  1
  O  O37  1  0.38782343  0.38782122  0.38784392  1
  O  O38  1  0.38647906  0.11257618  0.11152129  1
  O  O39  1  0.38742721  0.88845245  0.88648801  1
  O  O40  1  0.61257340  0.38845429  0.61352504  1
  O  O41  1  0.61352015  0.61257018  0.38849397  1
  O  O42  1  0.61217305  0.88783595  0.11216854  1
  O  O43  1  0.63845253  0.36257192  0.13656113  1
  O  O44  1  0.61155435  0.11352513  0.88744309  1
  O  O45  1  0.63782311  0.13783128  0.36219772  1
  O  O46  1  0.63655477  0.86154872  0.63743735  1
  O  O47  1  0.63743990  0.63654922  0.86159118  1
  O  O48  1  0.86256324  0.36345933  0.36158671  1
  O  O49  1  0.86344961  0.13846536  0.13743463  1
  O  O50  1  0.86218103  0.86217257  0.86219704  1
  O  O51  1  0.88844727  0.88648437  0.38744161  1
  O  O52  1  0.86154570  0.63744025  0.63655369  1
  O  O53  1  0.88783261  0.11217704  0.61216747  1
  O  O54  1  0.88647453  0.38742783  0.88848661  1
  O  O55  1  0.88742791  0.61155664  0.11350920  1
