# generated using pymatgen
data_Te2MoW3(SeS2)2
_symmetry_space_group_name_H-M   'P 1'
_cell_length_a   3.30932489
_cell_length_b   3.30941084
_cell_length_c   37.04867449
_cell_angle_alpha   89.95864175
_cell_angle_beta   90.00000000
_cell_angle_gamma   119.99914078
_symmetry_Int_Tables_number   1
_chemical_formula_structural   Te2MoW3(SeS2)2
_chemical_formula_sum   'Te2 Mo1 W3 Se2 S4'
_cell_volume   351.39615599
_cell_formula_units_Z   1
loop_
 _symmetry_equiv_pos_site_id
 _symmetry_equiv_pos_as_xyz
  1  'x, y, z'
loop_
 _atom_site_type_symbol
 _atom_site_label
 _atom_site_symmetry_multiplicity
 _atom_site_fract_x
 _atom_site_fract_y
 _atom_site_fract_z
 _atom_site_occupancy
  Te  Te0  1  0.33301049  0.66602199  0.70962094  1
  Te  Te1  1  0.33372336  0.66744773  0.60573413  1
  Mo  Mo2  1  0.33332846  0.66665692  0.09390749  1
  W  W3  1  0.33328186  0.66656372  0.46953875  1
  W  W4  1  0.66669965  0.33339931  0.28177838  1
  W  W5  1  0.66669558  0.33339116  0.65768957  1
  Se  Se6  1  0.33310222  0.66620544  0.32733361  1
  Se  Se7  1  0.33364285  0.66728671  0.23621278  1
  S  S8  1  0.66687464  0.33374829  0.05267482  1
  S  S9  1  0.66681496  0.33362892  0.42818649  1
  S  S10  1  0.66642407  0.33284713  0.13515072  1
  S  S11  1  0.66640185  0.33280270  0.51092032  1
