# generated using pymatgen
data_Er2TiO5
_symmetry_space_group_name_H-M   'P 1'
_cell_length_a   10.44028207
_cell_length_b   11.18869500
_cell_length_c   3.69492314
_cell_angle_alpha   90.00000000
_cell_angle_beta   90.00000000
_cell_angle_gamma   90.00000000
_symmetry_Int_Tables_number   1
_chemical_formula_structural   Er2TiO5
_chemical_formula_sum   'Er8 Ti4 O20'
_cell_volume   431.61554373
_cell_formula_units_Z   4
loop_
 _symmetry_equiv_pos_site_id
 _symmetry_equiv_pos_as_xyz
  1  'x, y, z'
loop_
 _atom_site_type_symbol
 _atom_site_label
 _atom_site_symmetry_multiplicity
 _atom_site_fract_x
 _atom_site_fract_y
 _atom_site_fract_z
 _atom_site_occupancy
  Er  Er0  1  0.11081414  0.72269274  0.25000000  1
  Er  Er1  1  0.13522627  0.05669087  0.25000000  1
  Er  Er2  1  0.36477373  0.55669087  0.75000000  1
  Er  Er3  1  0.38918586  0.22269274  0.75000000  1
  Er  Er4  1  0.61081414  0.77730726  0.25000000  1
  Er  Er5  1  0.63522627  0.44330913  0.25000000  1
  Er  Er6  1  0.86477373  0.94330913  0.75000000  1
  Er  Er7  1  0.88918586  0.27730726  0.75000000  1
  Ti  Ti8  1  0.18032024  0.37792857  0.25000000  1
  Ti  Ti9  1  0.31967976  0.87792857  0.75000000  1
  Ti  Ti10  1  0.68032024  0.12207143  0.25000000  1
  Ti  Ti11  1  0.81967976  0.62207143  0.75000000  1
  O  O12  1  0.00815040  0.10429509  0.75000000  1
  O  O13  1  0.01375871  0.33942494  0.25000000  1
  O  O14  1  0.22609877  0.54271528  0.25000000  1
  O  O15  1  0.23514719  0.72603429  0.75000000  1
  O  O16  1  0.24447506  0.38154087  0.75000000  1
  O  O17  1  0.25552494  0.88154087  0.25000000  1
  O  O18  1  0.26485281  0.22603429  0.25000000  1
  O  O19  1  0.27390123  0.04271528  0.75000000  1
  O  O20  1  0.48624129  0.83942494  0.75000000  1
  O  O21  1  0.49184960  0.60429509  0.25000000  1
  O  O22  1  0.50815040  0.39570491  0.75000000  1
  O  O23  1  0.51375871  0.16057506  0.25000000  1
  O  O24  1  0.72609877  0.95728472  0.25000000  1
  O  O25  1  0.73514719  0.77396571  0.75000000  1
  O  O26  1  0.74447506  0.11845913  0.75000000  1
  O  O27  1  0.75552494  0.61845913  0.25000000  1
  O  O28  1  0.76485281  0.27396571  0.25000000  1
  O  O29  1  0.77390123  0.45728472  0.75000000  1
  O  O30  1  0.98624129  0.66057506  0.75000000  1
  O  O31  1  0.99184960  0.89570491  0.25000000  1
