# generated using pymatgen
data_RbAl11O17
_symmetry_space_group_name_H-M   'P 1'
_cell_length_a   5.65482542
_cell_length_b   5.65481771
_cell_length_c   23.05340637
_cell_angle_alpha   90.00012362
_cell_angle_beta   90.00006611
_cell_angle_gamma   120.00016061
_symmetry_Int_Tables_number   1
_chemical_formula_structural   RbAl11O17
_chemical_formula_sum   'Rb2 Al22 O34'
_cell_volume   638.41465189
_cell_formula_units_Z   2
loop_
 _symmetry_equiv_pos_site_id
 _symmetry_equiv_pos_as_xyz
  1  'x, y, z'
loop_
 _atom_site_type_symbol
 _atom_site_label
 _atom_site_symmetry_multiplicity
 _atom_site_fract_x
 _atom_site_fract_y
 _atom_site_fract_z
 _atom_site_occupancy
  Rb  Rb0  1  0.33331251  0.66662695  0.75000021  1
  Rb  Rb1  1  0.66669194  0.33330330  0.24999951  1
  Al  Al2  1  0.16728135  0.83271358  0.89449370  1
  Al  Al3  1  0.16728238  0.83271370  0.60550661  1
  Al  Al4  1  0.33333646  0.66667503  0.17508085  1
  Al  Al5  1  0.33333065  0.66666636  0.02496830  1
  Al  Al6  1  0.33332439  0.66665633  0.32491851  1
  Al  Al7  1  0.99999576  -0.00000093  -0.00000024  1
  Al  Al8  1  0.99999871  0.00000083  0.50000033  1
  Al  Al9  1  0.33333114  0.66666763  0.47503160  1
  Al  Al10  1  0.16729173  0.33457336  0.60550579  1
  Al  Al11  1  0.16729191  0.33457370  0.89449397  1
  Al  Al12  1  0.66542677  0.83272902  0.60550649  1
  Al  Al13  1  0.66542621  0.83272838  0.89449348  1
  Al  Al14  1  0.33457055  0.16727720  0.39449391  1
  Al  Al15  1  0.33458263  0.16728753  0.10550658  1
  Al  Al16  1  0.83270522  0.66543003  0.39449357  1
  Al  Al17  1  0.66667343  0.33335081  0.67508204  1
  Al  Al18  1  0.66667317  0.33335099  0.82491844  1
  Al  Al19  1  0.66666668  0.33333706  0.52496908  1
  Al  Al20  1  0.66666632  0.33333306  0.97503118  1
  Al  Al21  1  0.83272133  0.66543004  0.10550554  1
  Al  Al22  1  0.83271648  0.16729026  0.39449504  1
  Al  Al23  1  0.83272749  0.16728946  0.10550405  1
  O  O24  1  0.15687113  0.84310984  0.04921944  1
  O  O25  1  0.15687270  0.84311476  0.45077972  1
  O  O26  1  0.00356409  0.50178231  0.85611791  1
  O  O27  1  0.00356429  0.50178292  0.64388177  1
  O  O28  1  0.33331409  0.66667738  0.25000023  1
  O  O29  1  0.15688313  0.31376171  0.04921866  1
  O  O30  1  0.00000985  0.00000183  0.14023592  1
  O  O31  1  0.33332332  0.66664920  0.94533846  1
  O  O32  1  0.33332371  0.66664982  0.55466174  1
  O  O33  1  0.99999851  0.00000125  0.35976626  1
  O  O34  1  0.99999971  0.00000190  0.85976633  1
  O  O35  1  0.99999832  0.00000143  0.64023311  1
  O  O36  1  0.49822065  0.99645373  0.64388182  1
  O  O37  1  0.49822056  0.99645430  0.85611756  1
  O  O38  1  0.15689480  0.31376291  0.45078059  1
  O  O39  1  0.31376088  0.15685914  0.54921793  1
  O  O40  1  0.31376077  0.15686383  0.95078212  1
  O  O41  1  0.49822309  0.50179045  0.85611794  1
  O  O42  1  0.49822462  0.50179232  0.64388198  1
  O  O43  1  0.50178410  0.49823227  0.14388314  1
  O  O44  1  0.50177067  0.49821190  0.35611537  1
  O  O45  1  0.68623745  0.84312731  0.04921892  1
  O  O46  1  0.68623682  0.84314356  0.45078147  1
  O  O47  1  0.84310481  0.68623838  0.95078203  1
  O  O48  1  0.84310443  0.68624134  0.54921880  1
  O  O49  1  0.50177780  0.00355028  0.35611919  1
  O  O50  1  0.66667409  0.33335683  0.44533733  1
  O  O51  1  0.66668530  0.33337433  0.74999965  1
  O  O52  1  0.50179374  0.00356462  0.14388328  1
  O  O53  1  0.66667082  0.33332537  0.05466228  1
  O  O54  1  0.99644561  0.49822146  0.14388451  1
  O  O55  1  0.99643688  0.49822074  0.35611743  1
  O  O56  1  0.84312452  0.15688508  0.95078122  1
  O  O57  1  0.84312558  0.15688981  0.54921938  1
