# generated using pymatgen
data_Li7Ti11O24
_symmetry_space_group_name_H-M   'P 1'
_cell_length_a   5.96701706
_cell_length_b   10.33232796
_cell_length_c   8.43597937
_cell_angle_alpha   114.23910765
_cell_angle_beta   90.00000000
_cell_angle_gamma   73.21658201
_symmetry_Int_Tables_number   1
_chemical_formula_structural   Li7Ti11O24
_chemical_formula_sum   'Li7 Ti11 O24'
_cell_volume   449.84509336
_cell_formula_units_Z   1
loop_
 _symmetry_equiv_pos_site_id
 _symmetry_equiv_pos_as_xyz
  1  'x, y, z'
loop_
 _atom_site_type_symbol
 _atom_site_label
 _atom_site_symmetry_multiplicity
 _atom_site_fract_x
 _atom_site_fract_y
 _atom_site_fract_z
 _atom_site_occupancy
  Li  Li0  1  0.00032664  0.99934672  0.99637923  1
  Li  Li1  1  0.66790156  0.66419787  0.33201785  1
  Li  Li2  1  0.16543244  0.66913513  0.58464915  1
  Li  Li3  1  0.49854663  0.00290574  0.25272947  1
  Li  Li4  1  0.33478637  0.33042726  0.66393653  1
  Li  Li5  1  0.83300736  0.33398628  0.92028777  1
  Li  Li6  1  0.41666700  0.16666700  0.95833300  1
  Ti  Ti7  1  0.25429286  0.49141428  0.11755955  1
  Ti  Ti8  1  0.08327954  0.83344193  0.29305796  1
  Ti  Ti9  1  0.09127576  0.32853733  0.28191713  1
  Ti  Ti10  1  0.58018691  0.32853733  0.28191713  1
  Ti  Ti11  1  0.75005446  0.49989207  0.62360804  1
  Ti  Ti12  1  0.91666700  0.16666700  0.45833300  1
  Ti  Ti13  1  0.57904014  0.84191872  0.79910645  1
  Ti  Ti14  1  0.25314709  0.00479567  0.63474987  1
  Ti  Ti15  1  0.91666700  0.66666700  0.95833300  1
  Ti  Ti16  1  0.74205724  0.00479567  0.63474987  1
  Ti  Ti17  1  0.41666700  0.66666700  0.95833300  1
  O  O18  1  0.59084865  0.81830269  0.02220770  1
  O  O19  1  0.09196504  0.81606992  0.04499295  1
  O  O20  1  0.94374577  0.66714014  0.19573624  1
  O  O21  1  0.38911409  0.66714014  0.19573624  1
  O  O22  1  0.09576160  0.34339682  0.06385673  1
  O  O23  1  0.56084158  0.34339682  0.06385673  1
  O  O24  1  0.25842625  0.48314851  0.35454758  1
  O  O25  1  0.40525528  0.18949044  0.21934249  1
  O  O26  1  0.07428022  0.85144056  0.53571626  1
  O  O27  1  0.90885955  0.18227990  0.22717383  1
  O  O28  1  0.75905378  0.48189344  0.38094974  1
  O  O29  1  0.57490775  0.85018449  0.56211842  1
  O  O30  1  0.61032811  0.33296709  0.52842064  1
  O  O31  1  0.05670479  0.33296709  0.52842064  1
  O  O32  1  0.44421991  0.66619286  0.72093076  1
  O  O33  1  0.22300489  0.00036691  0.38824636  1
  O  O34  1  0.88958723  0.66619286  0.72093076  1
  O  O35  1  0.77662821  0.00036691  0.38824636  1
  O  O36  1  0.92447345  0.15105310  0.68949317  1
  O  O37  1  0.74136796  0.51726408  0.87167405  1
  O  O38  1  0.42807872  0.14384356  0.69732351  1
  O  O39  1  0.24248535  0.51503031  0.89445830  1
  O  O40  1  0.27249242  0.98993618  0.85281027  1
  O  O41  1  0.73757140  0.98993618  0.85281027  1
