# generated using pymatgen
data_Ba9Rh8O27
_symmetry_space_group_name_H-M   'P 1'
_cell_length_a   10.12457036
_cell_length_b   10.12619540
_cell_length_c   15.22604091
_cell_angle_alpha   77.47906691
_cell_angle_beta   96.54017657
_cell_angle_gamma   119.72124880
_symmetry_Int_Tables_number   1
_chemical_formula_structural   Ba9Rh8O27
_chemical_formula_sum   'Ba18 Rh16 O54'
_cell_volume   1323.38875397
_cell_formula_units_Z   2
loop_
 _symmetry_equiv_pos_site_id
 _symmetry_equiv_pos_as_xyz
  1  'x, y, z'
loop_
 _atom_site_type_symbol
 _atom_site_label
 _atom_site_symmetry_multiplicity
 _atom_site_fract_x
 _atom_site_fract_y
 _atom_site_fract_z
 _atom_site_occupancy
  Ba  Ba0  1  0.01645788  0.25074104  0.24002023  1
  Ba  Ba1  1  0.32216897  0.01454796  0.92195047  1
  Ba  Ba2  1  0.33883161  0.31390345  0.07320133  1
  Ba  Ba3  1  0.00839136  0.65213072  0.07941871  1
  Ba  Ba4  1  0.64900678  0.04624145  0.74087128  1
  Ba  Ba5  1  0.33206300  0.41666747  0.74516801  1
  Ba  Ba6  1  0.67357170  0.19594576  0.42481047  1
  Ba  Ba7  1  0.34058005  0.53462164  0.41872851  1
  Ba  Ba8  1  0.00567093  0.87402066  0.40859168  1
  Ba  Ba9  1  0.65932927  0.46912655  0.58109214  1
  Ba  Ba10  1  0.32723109  0.79826890  0.57891610  1
  Ba  Ba11  1  0.99137792  0.12953612  0.58345331  1
  Ba  Ba12  1  0.70601065  0.62631339  0.23824158  1
  Ba  Ba13  1  0.32946240  0.93577630  0.24115061  1
  Ba  Ba14  1  0.66123371  0.69076332  0.90995892  1
  Ba  Ba15  1  0.98856566  0.34786480  0.92264136  1
  Ba  Ba16  1  0.67772146  0.98160922  0.08063177  1
  Ba  Ba17  1  0.96024213  0.73590829  0.73928655  1
  Rh  Rh18  1  0.00498033  0.00108474  0.01301600  1
  Rh  Rh19  1  0.31287010  0.08612695  0.67894182  1
  Rh  Rh20  1  0.33382642  0.16788646  0.50027259  1
  Rh  Rh21  1  0.99965209  0.49828244  0.50098113  1
  Rh  Rh22  1  0.36449676  0.25623494  0.32349084  1
  Rh  Rh23  1  0.01782866  0.57099947  0.32454991  1
  Rh  Rh24  1  0.33260189  0.66696392  0.00026880  1
  Rh  Rh25  1  0.66617964  0.33002899  0.00114555  1
  Rh  Rh26  1  0.68597068  0.29195675  0.18137054  1
  Rh  Rh27  1  0.35353799  0.62699752  0.17947153  1
  Rh  Rh28  1  0.98796153  0.04588046  0.82602387  1
  Rh  Rh29  1  0.30515434  0.70576118  0.82300010  1
  Rh  Rh30  1  0.64703331  0.36384804  0.82391472  1
  Rh  Rh31  1  0.97993147  0.42024848  0.67986382  1
  Rh  Rh32  1  0.66383220  0.82745612  0.51158180  1
  Rh  Rh33  1  0.67828685  0.90994813  0.32538934  1
  O  O34  1  0.00703021  0.14744874  0.07400532  1
  O  O35  1  0.22436341  0.14430806  0.23703303  1
  O  O36  1  0.13679735  0.05588230  0.74501196  1
  O  O37  1  0.00912719  0.37956259  0.41347768  1
  O  O38  1  0.34692574  0.06082089  0.40473325  1
  O  O39  1  0.19491815  0.21149128  0.40428073  1
  O  O40  1  0.14811619  0.17717700  0.91321900  1
  O  O41  1  0.52388657  0.15973633  0.10021777  1
  O  O42  1  0.19451995  0.49158237  0.09892408  1
  O  O43  1  0.47299528  0.12295129  0.59595640  1
  O  O44  1  0.14374094  0.46138128  0.59635321  1
  O  O45  1  0.32544908  0.27750513  0.59615394  1
  O  O46  1  0.69948426  0.11795203  0.26462959  1
  O  O47  1  0.20617500  0.61253463  0.26383270  1
  O  O48  1  0.02327327  0.75591352  0.25512578  1
  O  O49  1  0.55474035  0.30130980  0.26573108  1
  O  O50  1  0.38697419  0.46323569  0.26290685  1
  O  O51  1  0.46084674  0.19954854  0.77046510  1
  O  O52  1  0.12017247  0.53898031  0.77127436  1
  O  O53  1  0.82039974  0.01369167  0.42317751  1
  O  O54  1  0.50018061  0.35708137  0.42910622  1
  O  O55  1  0.15905993  0.68745606  0.42210268  1
  O  O56  1  0.16630917  0.68418602  0.92227347  1
  O  O57  1  0.84812208  0.02520984  0.91755435  1
  O  O58  1  0.65796790  0.19063485  0.92260847  1
  O  O59  1  0.32397452  0.53479074  0.91497021  1
  O  O60  1  0.50625091  0.35162791  0.91601735  1
  O  O61  1  0.33909959  0.79754391  0.08676614  1
  O  O62  1  0.82493226  0.30743763  0.08758375  1
  O  O63  1  0.67568460  0.46378589  0.08721369  1
  O  O64  1  0.49546735  0.64878369  0.08590796  1
  O  O65  1  0.17248926  0.98387688  0.07322232  1
  O  O66  1  0.17128794  0.98124037  0.57807148  1
  O  O67  1  0.84127246  0.31083026  0.58065762  1
  O  O68  1  0.49806100  0.63999263  0.56820070  1
  O  O69  1  0.52532982  0.79888152  0.23557267  1
  O  O70  1  0.88160599  0.45170699  0.23248285  1
  O  O71  1  0.78327658  0.36373750  0.73904416  1
  O  O72  1  0.97377261  0.22311025  0.74575584  1
  O  O73  1  0.44923693  0.72295039  0.74407196  1
  O  O74  1  0.27705163  0.87126919  0.73866066  1
  O  O75  1  0.63887876  0.53602577  0.74609820  1
  O  O76  1  0.66823867  0.72224322  0.40719186  1
  O  O77  1  0.51948772  0.87019825  0.41551712  1
  O  O78  1  0.85640558  0.53576979  0.40644249  1
  O  O79  1  0.80814019  0.50144943  0.90282979  1
  O  O80  1  0.47039477  0.84114917  0.90158785  1
  O  O81  1  0.84406103  0.81966259  0.07632205  1
  O  O82  1  0.98814821  0.60725670  0.59643095  1
  O  O83  1  0.66131542  0.96456649  0.57877144  1
  O  O84  1  0.82436306  0.79993485  0.57344611  1
  O  O85  1  0.84378821  0.93756277  0.25913714  1
  O  O86  1  0.82006601  0.89845964  0.76427118  1
  O  O87  1  0.99750027  0.87560937  0.91764549  1
