# generated using pymatgen
data_Dy5(ReO6)2
_symmetry_space_group_name_H-M   'P 1'
_cell_length_a   6.84440731
_cell_length_b   7.56613099
_cell_length_c   5.66871408
_cell_angle_alpha   90.00000000
_cell_angle_beta   65.53653437
_cell_angle_gamma   106.20831375
_symmetry_Int_Tables_number   1
_chemical_formula_structural   Dy5(ReO6)2
_chemical_formula_sum   'Dy5 Re2 O12'
_cell_volume   254.32999005
_cell_formula_units_Z   1
loop_
 _symmetry_equiv_pos_site_id
 _symmetry_equiv_pos_as_xyz
  1  'x, y, z'
loop_
 _atom_site_type_symbol
 _atom_site_label
 _atom_site_symmetry_multiplicity
 _atom_site_fract_x
 _atom_site_fract_y
 _atom_site_fract_z
 _atom_site_occupancy
  Dy  Dy0  1  0.10588140  0.63608580  0.69705930  1
  Dy  Dy1  1  0.12669460  0.17018940  0.68665270  1
  Dy  Dy2  1  0.49902910  0.49337820  0.00048495  1
  Dy  Dy3  1  0.89187155  0.35264296  0.30406372  1
  Dy  Dy4  1  0.87122563  0.81883142  0.31438669  1
  Re  Re5  1  0.49856990  0.99338003  0.21523182  1
  Re  Re6  1  0.49856990  0.99338003  0.78619828  1
  O  O7  1  0.16802089  0.90897533  0.91195689  1
  O  O8  1  0.16802089  0.90897533  0.42002322  1
  O  O9  1  0.19075713  0.42082700  0.40670541  1
  O  O10  1  0.19075713  0.42082700  0.90253745  1
  O  O11  1  0.49253823  0.19781521  0.00373038  1
  O  O12  1  0.49932754  0.16931641  0.50033623  1
  O  O13  1  0.49803223  0.81727852  0.50098438  1
  O  O14  1  0.50296164  0.78836113  0.99851918  1
  O  O15  1  0.82907511  0.07878900  0.58194745  1
  O  O16  1  0.82907511  0.07878900  0.08897743  1
  O  O17  1  0.80723950  0.56757763  0.59417585  1
  O  O18  1  0.80723950  0.56757763  0.09858466  1
