# generated using pymatgen
data_Dy2TiO5
_symmetry_space_group_name_H-M   'P 1'
_cell_length_a   3.72137521
_cell_length_b   10.44910018
_cell_length_c   11.30118712
_cell_angle_alpha   90.00000000
_cell_angle_beta   90.00000000
_cell_angle_gamma   90.00000000
_symmetry_Int_Tables_number   1
_chemical_formula_structural   Dy2TiO5
_chemical_formula_sum   'Dy8 Ti4 O20'
_cell_volume   439.44691404
_cell_formula_units_Z   4
loop_
 _symmetry_equiv_pos_site_id
 _symmetry_equiv_pos_as_xyz
  1  'x, y, z'
loop_
 _atom_site_type_symbol
 _atom_site_label
 _atom_site_symmetry_multiplicity
 _atom_site_fract_x
 _atom_site_fract_y
 _atom_site_fract_z
 _atom_site_occupancy
  Dy  Dy0  1  0.75000000  0.36392476  0.55521551  1
  Dy  Dy1  1  0.75000000  0.86392476  0.94478449  1
  Dy  Dy2  1  0.25000000  0.63607524  0.44478449  1
  Dy  Dy3  1  0.25000000  0.13607524  0.05521551  1
  Dy  Dy4  1  0.25000000  0.11439550  0.72320279  1
  Dy  Dy5  1  0.25000000  0.61439550  0.77679721  1
  Dy  Dy6  1  0.75000000  0.88560450  0.27679721  1
  Dy  Dy7  1  0.75000000  0.38560450  0.22320279  1
  Ti  Ti8  1  0.75000000  0.32447127  0.87930332  1
  Ti  Ti9  1  0.75000000  0.82447127  0.62069668  1
  Ti  Ti10  1  0.25000000  0.67552873  0.12069668  1
  Ti  Ti11  1  0.25000000  0.17552873  0.37930332  1
  O  O12  1  0.75000000  0.27407486  0.04193095  1
  O  O13  1  0.75000000  0.77407486  0.45806905  1
  O  O14  1  0.25000000  0.72592514  0.95806905  1
  O  O15  1  0.25000000  0.22592514  0.54193095  1
  O  O16  1  0.75000000  0.00565253  0.10469396  1
  O  O17  1  0.75000000  0.50565253  0.39530604  1
  O  O18  1  0.25000000  0.99434747  0.89530604  1
  O  O19  1  0.25000000  0.49434747  0.60469396  1
  O  O20  1  0.75000000  0.23718424  0.38180910  1
  O  O21  1  0.75000000  0.73718424  0.11819090  1
  O  O22  1  0.25000000  0.76281576  0.61819090  1
  O  O23  1  0.25000000  0.26281576  0.88180910  1
  O  O24  1  0.75000000  0.49094047  0.84334447  1
  O  O25  1  0.75000000  0.99094047  0.65665553  1
  O  O26  1  0.25000000  0.50905953  0.15665553  1
  O  O27  1  0.25000000  0.00905953  0.34334447  1
  O  O28  1  0.75000000  0.24092002  0.72790526  1
  O  O29  1  0.75000000  0.74092002  0.77209474  1
  O  O30  1  0.25000000  0.75907998  0.27209474  1
  O  O31  1  0.25000000  0.25907998  0.22790526  1
