# generated using pymatgen
data_K2InSi4HO11
_symmetry_space_group_name_H-M   'P 1'
_cell_length_a   11.58017219
_cell_length_b   8.50646804
_cell_length_c   11.81239534
_cell_angle_alpha   90.00000000
_cell_angle_beta   112.41698612
_cell_angle_gamma   90.00000000
_symmetry_Int_Tables_number   1
_chemical_formula_structural   K2InSi4HO11
_chemical_formula_sum   'K8 In4 Si16 H4 O44'
_cell_volume   1075.66667657
_cell_formula_units_Z   4
loop_
 _symmetry_equiv_pos_site_id
 _symmetry_equiv_pos_as_xyz
  1  'x, y, z'
loop_
 _atom_site_type_symbol
 _atom_site_label
 _atom_site_symmetry_multiplicity
 _atom_site_fract_x
 _atom_site_fract_y
 _atom_site_fract_z
 _atom_site_occupancy
  K  K0  1  0.08302292  0.25000000  0.58305997  1
  K  K1  1  0.01221094  0.75000000  0.02635917  1
  K  K2  1  0.56471185  0.25000000  0.93883477  1
  K  K3  1  0.47104335  0.25000000  0.54017698  1
  K  K4  1  0.52895665  0.75000000  0.45982302  1
  K  K5  1  0.43528815  0.75000000  0.06116523  1
  K  K6  1  0.98778906  0.25000000  0.97364083  1
  K  K7  1  0.91697708  0.75000000  0.41694003  1
  In  In8  1  0.28725706  0.00525107  0.21308220  1
  In  In9  1  0.28725706  0.49474893  0.21308220  1
  In  In10  1  0.71274294  0.50525107  0.78691780  1
  In  In11  1  0.71274294  0.99474893  0.78691780  1
  Si  Si12  1  0.24990083  0.06329207  0.89696930  1
  Si  Si13  1  0.24990083  0.43670793  0.89696930  1
  Si  Si14  1  0.00895899  0.06940969  0.25451461  1
  Si  Si15  1  0.00895899  0.43059031  0.25451461  1
  Si  Si16  1  0.22206764  0.56359332  0.46966150  1
  Si  Si17  1  0.22206764  0.93640668  0.46966150  1
  Si  Si18  1  0.39163364  0.55884859  0.73673532  1
  Si  Si19  1  0.39163364  0.94115141  0.73673532  1
  Si  Si20  1  0.60836636  0.05884859  0.26326468  1
  Si  Si21  1  0.60836636  0.44115141  0.26326468  1
  Si  Si22  1  0.77793236  0.06359332  0.53033850  1
  Si  Si23  1  0.77793236  0.43640668  0.53033850  1
  Si  Si24  1  0.99104101  0.56940969  0.74548539  1
  Si  Si25  1  0.99104101  0.93059031  0.74548539  1
  Si  Si26  1  0.75009917  0.56329207  0.10303070  1
  Si  Si27  1  0.75009917  0.93670793  0.10303070  1
  H  H28  1  0.23541579  0.75000000  0.28074863  1
  H  H29  1  0.57701416  0.75000000  0.74393417  1
  H  H30  1  0.42298584  0.25000000  0.25606583  1
  H  H31  1  0.76458421  0.25000000  0.71925137  1
  O  O32  1  0.04551954  0.75000000  0.75481040  1
  O  O33  1  0.11212940  0.05101952  0.78229470  1
  O  O34  1  0.11212940  0.44898048  0.78229470  1
  O  O35  1  0.08918331  0.03421061  0.40266970  1
  O  O36  1  0.08918331  0.46578939  0.40266970  1
  O  O37  1  0.29112387  0.25000000  0.90416172  1
  O  O38  1  0.17840458  0.75000000  0.46335617  1
  O  O39  1  0.08836896  0.03936155  0.17137196  1
  O  O40  1  0.08836896  0.46063845  0.17137196  1
  O  O41  1  0.35414466  0.53005255  0.85665220  1
  O  O42  1  0.35414466  0.96994745  0.85665220  1
  O  O43  1  0.27007513  0.99580296  0.61360597  1
  O  O44  1  0.27007513  0.50419704  0.61360597  1
  O  O45  1  0.41189399  0.75000000  0.72620347  1
  O  O46  1  0.32365314  0.53214399  0.41095674  1
  O  O47  1  0.32365314  0.96785601  0.41095674  1
  O  O48  1  0.25211544  0.75000000  0.20559672  1
  O  O49  1  0.51377960  0.03698399  0.74686500  1
  O  O50  1  0.51377960  0.46301601  0.74686500  1
  O  O51  1  0.33483080  0.25000000  0.24695970  1
  O  O52  1  0.24681964  0.99035847  0.01963186  1
  O  O53  1  0.24681964  0.50964153  0.01963186  1
  O  O54  1  0.75318036  0.00964153  0.98036814  1
  O  O55  1  0.75318036  0.49035847  0.98036814  1
  O  O56  1  0.66516920  0.75000000  0.75304030  1
  O  O57  1  0.48622040  0.53698399  0.25313500  1
  O  O58  1  0.48622040  0.96301601  0.25313500  1
  O  O59  1  0.74788456  0.25000000  0.79440328  1
  O  O60  1  0.67634686  0.03214399  0.58904326  1
  O  O61  1  0.67634686  0.46785601  0.58904326  1
  O  O62  1  0.58810601  0.25000000  0.27379653  1
  O  O63  1  0.72992487  0.00419704  0.38639403  1
  O  O64  1  0.72992487  0.49580296  0.38639403  1
  O  O65  1  0.64585534  0.03005255  0.14334780  1
  O  O66  1  0.64585534  0.46994745  0.14334780  1
  O  O67  1  0.91163104  0.53936155  0.82862804  1
  O  O68  1  0.91163104  0.96063845  0.82862804  1
  O  O69  1  0.82159542  0.25000000  0.53664383  1
  O  O70  1  0.70887613  0.75000000  0.09583828  1
  O  O71  1  0.91081669  0.53421061  0.59733030  1
  O  O72  1  0.91081669  0.96578939  0.59733030  1
  O  O73  1  0.88787060  0.55101952  0.21770530  1
  O  O74  1  0.88787060  0.94898048  0.21770530  1
  O  O75  1  0.95448046  0.25000000  0.24518960  1
