# generated using pymatgen
data_Sr4Ta2O9
_symmetry_space_group_name_H-M   'P 1'
_cell_length_a   5.95442215
_cell_length_b   15.84131307
_cell_length_c   5.94943242
_cell_angle_alpha   90.03470746
_cell_angle_beta   119.95920025
_cell_angle_gamma   89.94577868
_symmetry_Int_Tables_number   1
_chemical_formula_structural   Sr4Ta2O9
_chemical_formula_sum   'Sr8 Ta4 O18'
_cell_volume   486.20023955
_cell_formula_units_Z   2
loop_
 _symmetry_equiv_pos_site_id
 _symmetry_equiv_pos_as_xyz
  1  'x, y, z'
loop_
 _atom_site_type_symbol
 _atom_site_label
 _atom_site_symmetry_multiplicity
 _atom_site_fract_x
 _atom_site_fract_y
 _atom_site_fract_z
 _atom_site_occupancy
  Sr  Sr0  1  0.99792954  0.74437512  0.99923793  1
  Sr  Sr1  1  0.00000000  0.50000000  0.00000000  1
  Sr  Sr2  1  0.00000000  0.00000000  0.00000000  1
  Sr  Sr3  1  0.33090462  0.64388973  0.66625512  1
  Sr  Sr4  1  0.33643093  0.86797885  0.66737249  1
  Sr  Sr5  1  0.66356907  0.13202115  0.33262751  1
  Sr  Sr6  1  0.66909538  0.35611027  0.33374488  1
  Sr  Sr7  1  0.00207046  0.25562488  0.00076207  1
  Ta  Ta8  1  0.33047473  0.15014083  0.66481758  1
  Ta  Ta9  1  0.33509477  0.34033807  0.66727122  1
  Ta  Ta10  1  0.66490523  0.65966193  0.33272878  1
  Ta  Ta11  1  0.66952527  0.84985917  0.33518242  1
  O  O12  1  0.04079907  0.24714014  0.59488839  1
  O  O13  1  0.26957747  0.39312256  0.91906658  1
  O  O14  1  0.27343636  0.09896298  0.92142779  1
  O  O15  1  0.08391566  0.39276726  0.34873238  1
  O  O16  1  0.07307489  0.09770958  0.35485097  1
  O  O17  1  0.55519898  0.24607910  0.95774902  1
  O  O18  1  0.40545895  0.24569806  0.44597681  1
  O  O19  1  0.36456447  0.90574026  0.28315235  1
  O  O20  1  0.34711867  0.60736870  0.26720847  1
  O  O21  1  0.65288133  0.39263130  0.73279153  1
  O  O22  1  0.63543553  0.09425974  0.71684765  1
  O  O23  1  0.59454105  0.75430194  0.55402319  1
  O  O24  1  0.44480102  0.75392090  0.04225098  1
  O  O25  1  0.92692511  0.90229042  0.64514903  1
  O  O26  1  0.91608434  0.60723274  0.65126762  1
  O  O27  1  0.72656364  0.90103702  0.07857221  1
  O  O28  1  0.73042253  0.60687744  0.08093342  1
  O  O29  1  0.95920093  0.75285986  0.40511161  1
