# generated using pymatgen
data_Li2MgTi3O8
_symmetry_space_group_name_H-M   'P 1'
_cell_length_a   8.45034993
_cell_length_b   8.45034993
_cell_length_c   8.45034993
_cell_angle_alpha   90.00000000
_cell_angle_beta   90.00000000
_cell_angle_gamma   90.00000000
_symmetry_Int_Tables_number   1
_chemical_formula_structural   Li2MgTi3O8
_chemical_formula_sum   'Li8 Mg4 Ti12 O32'
_cell_volume   603.42608573
_cell_formula_units_Z   4
loop_
 _symmetry_equiv_pos_site_id
 _symmetry_equiv_pos_as_xyz
  1  'x, y, z'
loop_
 _atom_site_type_symbol
 _atom_site_label
 _atom_site_symmetry_multiplicity
 _atom_site_fract_x
 _atom_site_fract_y
 _atom_site_fract_z
 _atom_site_occupancy
  Li  Li0  1  0.00240892  0.49759108  0.50240892  1
  Li  Li1  1  0.12455494  0.87544506  0.37544506  1
  Li  Li2  1  0.37544506  0.12455494  0.87544506  1
  Li  Li3  1  0.49759108  0.50240892  0.00240892  1
  Li  Li4  1  0.50240892  0.00240892  0.49759108  1
  Li  Li5  1  0.62455494  0.62455494  0.62455494  1
  Li  Li6  1  0.87544506  0.37544506  0.12455494  1
  Li  Li7  1  0.99759108  0.99759108  0.99759108  1
  Mg  Mg8  1  0.24706940  0.74706940  0.75293060  1
  Mg  Mg9  1  0.25293060  0.25293060  0.25293060  1
  Mg  Mg10  1  0.74706940  0.75293060  0.24706940  1
  Mg  Mg11  1  0.75293060  0.24706940  0.74706940  1
  Ti  Ti12  1  0.11985687  0.62681797  0.13416388  1
  Ti  Ti13  1  0.12681797  0.36583612  0.88014313  1
  Ti  Ti14  1  0.13416388  0.11985687  0.62681797  1
  Ti  Ti15  1  0.36583612  0.88014313  0.12681797  1
  Ti  Ti16  1  0.37318203  0.63416388  0.38014313  1
  Ti  Ti17  1  0.38014313  0.37318203  0.63416388  1
  Ti  Ti18  1  0.61985687  0.87318203  0.86583612  1
  Ti  Ti19  1  0.62681797  0.13416388  0.11985687  1
  Ti  Ti20  1  0.63416388  0.38014313  0.37318203  1
  Ti  Ti21  1  0.86583612  0.61985687  0.87318203  1
  Ti  Ti22  1  0.87318203  0.86583612  0.61985687  1
  Ti  Ti23  1  0.88014313  0.12681797  0.36583612  1
  O  O24  1  0.10701927  0.12818773  0.38946033  1
  O  O25  1  0.11180166  0.61180166  0.88819834  1
  O  O26  1  0.11053967  0.89298073  0.62818773  1
  O  O27  1  0.12211478  0.14418534  0.85890882  1
  O  O28  1  0.12818773  0.38946033  0.10701927  1
  O  O29  1  0.14109118  0.62211478  0.35581466  1
  O  O30  1  0.13878460  0.36121540  0.63878460  1
  O  O31  1  0.14418534  0.85890882  0.12211478  1
  O  O32  1  0.35581466  0.14109118  0.62211478  1
  O  O33  1  0.36121540  0.63878460  0.13878460  1
  O  O34  1  0.35890882  0.37788522  0.85581466  1
  O  O35  1  0.37181227  0.61053967  0.60701927  1
  O  O36  1  0.37788522  0.85581466  0.35890882  1
  O  O37  1  0.38946033  0.10701927  0.12818773  1
  O  O38  1  0.38819834  0.38819834  0.38819834  1
  O  O39  1  0.39298073  0.87181227  0.88946033  1
  O  O40  1  0.60701927  0.37181227  0.61053967  1
  O  O41  1  0.61180166  0.88819834  0.11180166  1
  O  O42  1  0.61053967  0.60701927  0.37181227  1
  O  O43  1  0.62211478  0.35581466  0.14109118  1
  O  O44  1  0.62818773  0.11053967  0.89298073  1
  O  O45  1  0.64109118  0.87788522  0.64418534  1
  O  O46  1  0.63878460  0.13878460  0.36121540  1
  O  O47  1  0.64418534  0.64109118  0.87788522  1
  O  O48  1  0.85581466  0.35890882  0.37788522  1
  O  O49  1  0.86121540  0.86121540  0.86121540  1
  O  O50  1  0.85890882  0.12211478  0.14418534  1
  O  O51  1  0.87181227  0.88946033  0.39298073  1
  O  O52  1  0.87788522  0.64418534  0.64109118  1
  O  O53  1  0.88946033  0.39298073  0.87181227  1
  O  O54  1  0.88819834  0.11180166  0.61180166  1
  O  O55  1  0.89298073  0.62818773  0.11053967  1
