# generated using pymatgen
data_Li8Mn13Cr3O32
_symmetry_space_group_name_H-M   'P 1'
_cell_length_a   8.28480192
_cell_length_b   10.38461570
_cell_length_c   8.28546853
_cell_angle_alpha   66.28776040
_cell_angle_beta   89.30470799
_cell_angle_gamma   112.70328451
_symmetry_Int_Tables_number   1
_chemical_formula_structural   Li8Mn13Cr3O32
_chemical_formula_sum   'Li8 Mn13 Cr3 O32'
_cell_volume   590.14997345
_cell_formula_units_Z   1
loop_
 _symmetry_equiv_pos_site_id
 _symmetry_equiv_pos_as_xyz
  1  'x, y, z'
loop_
 _atom_site_type_symbol
 _atom_site_label
 _atom_site_symmetry_multiplicity
 _atom_site_fract_x
 _atom_site_fract_y
 _atom_site_fract_z
 _atom_site_occupancy
  Li  Li0  1  0.93436972  0.11562597  0.81912435  1
  Li  Li1  1  0.43195218  0.11213228  0.32003623  1
  Li  Li2  1  0.81534042  0.38303079  0.93307910  1
  Li  Li3  1  0.31608098  0.38293174  0.43253385  1
  Li  Li4  1  0.68398973  0.61575757  0.56751584  1
  Li  Li5  1  0.18312868  0.61587177  0.06821260  1
  Li  Li6  1  0.56478348  0.88324777  0.68168361  1
  Li  Li7  1  0.06708775  0.88655228  0.18088519  1
  Mn  Mn8  1  0.24947625  0.99949045  0.75049571  1
  Mn  Mn9  1  0.74964393  0.99942234  0.25036099  1
  Mn  Mn10  1  0.62280050  0.24463058  0.62660774  1
  Mn  Mn11  1  0.87106801  0.24488369  0.37815109  1
  Mn  Mn12  1  0.37511180  0.24964127  0.87529591  1
  Mn  Mn13  1  0.12482212  0.24978507  0.12558675  1
  Mn  Mn14  1  0.74965519  0.49933723  0.25041285  1
  Mn  Mn15  1  0.99830137  0.49843819  0.50017888  1
  Mn  Mn16  1  0.50093456  0.50033543  0.00058332  1
  Mn  Mn17  1  0.12412647  0.74929984  0.62539931  1
  Mn  Mn18  1  0.62811640  0.75390844  0.12254256  1
  Mn  Mn19  1  0.87634240  0.75410486  0.87420686  1
  Mn  Mn20  1  0.37438252  0.74898547  0.37518705  1
  Cr  Cr21  1  0.00094268  0.99951214  0.49908988  1
  Cr  Cr22  1  0.49810838  0.99932869  0.00183669  1
  Cr  Cr23  1  0.24960464  0.49944424  0.75036507  1
  O  O24  1  0.49532895  0.01971616  0.75034332  1
  O  O25  1  0.76967501  0.01994029  0.47564048  1
  O  O26  1  0.26850576  0.02358069  0.97423906  1
  O  O27  1  0.99748847  0.02371850  0.24514519  1
  O  O28  1  0.10472964  0.23593968  0.36859174  1
  O  O29  1  0.60419010  0.23564932  0.86921982  1
  O  O30  1  0.39445638  0.25470998  0.63892152  1
  O  O31  1  0.89349158  0.25488746  0.13977380  1
  O  O32  1  0.14525528  0.26377711  0.88182796  1
  O  O33  1  0.63813023  0.24563259  0.39269036  1
  O  O34  1  0.85483513  0.24157425  0.61331502  1
  O  O35  1  0.35552588  0.24332791  0.11235547  1
  O  O36  1  0.48128999  0.47653361  0.77691514  1
  O  O37  1  0.25348892  0.47662891  0.00490448  1
  O  O38  1  0.97461992  0.47370113  0.27584579  1
  O  O39  1  0.74922737  0.47352585  0.50125007  1
  O  O40  1  0.01796286  0.52238561  0.72380441  1
  O  O41  1  0.24572792  0.52217461  0.49591476  1
  O  O42  1  0.52467212  0.52502400  0.22498523  1
  O  O43  1  0.75000694  0.52516520  0.99955706  1
  O  O44  1  0.35397367  0.73512176  0.61888061  1
  O  O45  1  0.14371152  0.75551992  0.38836430  1
  O  O46  1  0.64433701  0.75713299  0.88747058  1
  O  O47  1  0.86103683  0.75305591  0.10812579  1
  O  O48  1  0.60575123  0.74389867  0.36093351  1
  O  O49  1  0.89496070  0.76320088  0.63156762  1
  O  O50  1  0.39445145  0.76287681  0.13218430  1
  O  O51  1  0.10478753  0.74414001  0.86180531  1
  O  O52  1  0.50174984  0.97507917  0.25571909  1
  O  O53  1  0.00360994  0.97904222  0.75066928  1
  O  O54  1  0.23056718  0.97539070  0.52677736  1
  O  O55  1  0.72941652  0.97886400  0.02507016  1
