# generated using pymatgen
data_Nb3Cr(PO4)6
_symmetry_space_group_name_H-M   'P 1'
_cell_length_a   8.97174518
_cell_length_b   8.97174487
_cell_length_c   8.97174519
_cell_angle_alpha   58.53179194
_cell_angle_beta   58.53179416
_cell_angle_gamma   58.53179391
_symmetry_Int_Tables_number   1
_chemical_formula_structural   Nb3Cr(PO4)6
_chemical_formula_sum   'Nb3 Cr1 P6 O24'
_cell_volume   493.49353438
_cell_formula_units_Z   1
loop_
 _symmetry_equiv_pos_site_id
 _symmetry_equiv_pos_as_xyz
  1  'x, y, z'
loop_
 _atom_site_type_symbol
 _atom_site_label
 _atom_site_symmetry_multiplicity
 _atom_site_fract_x
 _atom_site_fract_y
 _atom_site_fract_z
 _atom_site_occupancy
  Nb  Nb0  1  0.14054618  0.14054618  0.14054618  1
  Nb  Nb1  1  0.35843755  0.35843755  0.35843755  1
  Nb  Nb2  1  0.63953020  0.63953020  0.63953020  1
  Cr  Cr3  1  0.85716161  0.85716161  0.85716161  1
  P  P4  1  0.03212984  0.75045007  0.47190844  1
  P  P5  1  0.47190844  0.03212984  0.75045007  1
  P  P6  1  0.75045007  0.47190844  0.03212984  1
  P  P7  1  0.24142146  0.54098830  0.96521448  1
  P  P8  1  0.54098830  0.96521448  0.24142146  1
  P  P9  1  0.96521448  0.24142146  0.54098830  1
  O  O10  1  0.13303587  0.28222552  0.50156967  1
  O  O11  1  0.28222552  0.50156967  0.13303587  1
  O  O12  1  0.06203557  0.91984571  0.28969179  1
  O  O13  1  0.50156967  0.13303587  0.28222552  1
  O  O14  1  0.21022580  0.58011520  0.43535916  1
  O  O15  1  0.00958011  0.77693882  0.63532668  1
  O  O16  1  0.28969179  0.06203557  0.91984571  1
  O  O17  1  0.43535916  0.21022580  0.58011520  1
  O  O18  1  0.58011520  0.43535916  0.21022580  1
  O  O19  1  0.21983004  0.36497149  0.99636687  1
  O  O20  1  0.07695057  0.71503035  0.94001578  1
  O  O21  1  0.36497149  0.99636687  0.21983004  1
  O  O22  1  0.63532668  0.00958011  0.77693882  1
  O  O23  1  0.91984571  0.28969179  0.06203557  1
  O  O24  1  0.77693882  0.63532668  0.00958011  1
  O  O25  1  0.42013627  0.56133913  0.79009723  1
  O  O26  1  0.56133913  0.79009723  0.42013627  1
  O  O27  1  0.71503035  0.94001578  0.07695057  1
  O  O28  1  0.99636687  0.21983004  0.36497149  1
  O  O29  1  0.79009723  0.42013627  0.56133913  1
  O  O30  1  0.49702127  0.86512039  0.71938160  1
  O  O31  1  0.94001578  0.07695057  0.71503035  1
  O  O32  1  0.71938160  0.49702127  0.86512039  1
  O  O33  1  0.86512039  0.71938160  0.49702127  1
