# generated using pymatgen
data_Sm2TiO5
_symmetry_space_group_name_H-M   'P 1'
_cell_length_a   10.67958481
_cell_length_b   11.45601212
_cell_length_c   3.81047166
_cell_angle_alpha   90.00000000
_cell_angle_beta   90.00000000
_cell_angle_gamma   90.00000000
_symmetry_Int_Tables_number   1
_chemical_formula_structural   Sm2TiO5
_chemical_formula_sum   'Sm8 Ti4 O20'
_cell_volume   466.19388146
_cell_formula_units_Z   4
loop_
 _symmetry_equiv_pos_site_id
 _symmetry_equiv_pos_as_xyz
  1  'x, y, z'
loop_
 _atom_site_type_symbol
 _atom_site_label
 _atom_site_symmetry_multiplicity
 _atom_site_fract_x
 _atom_site_fract_y
 _atom_site_fract_z
 _atom_site_occupancy
  Sm  Sm0  1  0.10982870  0.72281061  0.25000000  1
  Sm  Sm1  1  0.13686149  0.05642661  0.25000000  1
  Sm  Sm2  1  0.36313851  0.55642661  0.75000000  1
  Sm  Sm3  1  0.39017130  0.22281061  0.75000000  1
  Sm  Sm4  1  0.60982870  0.77718939  0.25000000  1
  Sm  Sm5  1  0.63686149  0.44357339  0.25000000  1
  Sm  Sm6  1  0.86313851  0.94357339  0.75000000  1
  Sm  Sm7  1  0.89017130  0.27718939  0.75000000  1
  Ti  Ti8  1  0.17959739  0.37852958  0.25000000  1
  Ti  Ti9  1  0.32040261  0.87852958  0.75000000  1
  Ti  Ti10  1  0.67959739  0.12147042  0.25000000  1
  Ti  Ti11  1  0.82040261  0.62147042  0.75000000  1
  O  O12  1  0.00716701  0.10357848  0.75000000  1
  O  O13  1  0.01650720  0.34182508  0.25000000  1
  O  O14  1  0.22446972  0.53962368  0.25000000  1
  O  O15  1  0.23600623  0.38165422  0.75000000  1
  O  O16  1  0.23633915  0.73071632  0.75000000  1
  O  O17  1  0.26366085  0.23071632  0.25000000  1
  O  O18  1  0.26399377  0.88165422  0.25000000  1
  O  O19  1  0.27553028  0.03962368  0.75000000  1
  O  O20  1  0.48349280  0.84182508  0.75000000  1
  O  O21  1  0.49283299  0.60357848  0.25000000  1
  O  O22  1  0.50716701  0.39642152  0.75000000  1
  O  O23  1  0.51650720  0.15817492  0.25000000  1
  O  O24  1  0.72446972  0.96037632  0.25000000  1
  O  O25  1  0.73600623  0.11834578  0.75000000  1
  O  O26  1  0.73633915  0.76928368  0.75000000  1
  O  O27  1  0.76366085  0.26928368  0.25000000  1
  O  O28  1  0.76399377  0.61834578  0.25000000  1
  O  O29  1  0.77553028  0.46037632  0.75000000  1
  O  O30  1  0.98349280  0.65817492  0.75000000  1
  O  O31  1  0.99283299  0.89642152  0.25000000  1
