# generated using pymatgen
data_Dy2SeO2
_symmetry_space_group_name_H-M   'P 1'
_cell_length_a   3.84400961
_cell_length_b   3.84401629
_cell_length_c   6.82585735
_cell_angle_alpha   89.99993985
_cell_angle_beta   90.00001296
_cell_angle_gamma   120.00003077
_symmetry_Int_Tables_number   1
_chemical_formula_structural   Dy2SeO2
_chemical_formula_sum   'Dy2 Se1 O2'
_cell_volume   87.34888967
_cell_formula_units_Z   1
loop_
 _symmetry_equiv_pos_site_id
 _symmetry_equiv_pos_as_xyz
  1  'x, y, z'
loop_
 _atom_site_type_symbol
 _atom_site_label
 _atom_site_symmetry_multiplicity
 _atom_site_fract_x
 _atom_site_fract_y
 _atom_site_fract_z
 _atom_site_occupancy
  Dy  Dy0  1  0.33328630  0.66666843  0.29092238  1
  Dy  Dy1  1  0.66661893  0.33333176  0.70907772  1
  Se  Se2  1  -0.00000076  0.00000010  0.99999997  1
  O  O3  1  0.33328142  0.66666555  0.62599445  1
  O  O4  1  0.66661411  0.33333415  0.37400548  1
