# generated using pymatgen
data_Li2RhF6
_symmetry_space_group_name_H-M   'P 1'
_cell_length_a   4.72092855
_cell_length_b   4.71853871
_cell_length_c   9.24283500
_cell_angle_alpha   89.99729384
_cell_angle_beta   90.00000000
_cell_angle_gamma   90.00000000
_symmetry_Int_Tables_number   1
_chemical_formula_structural   Li2RhF6
_chemical_formula_sum   'Li4 Rh2 F12'
_cell_volume   205.89232118
_cell_formula_units_Z   2
loop_
 _symmetry_equiv_pos_site_id
 _symmetry_equiv_pos_as_xyz
  1  'x, y, z'
loop_
 _atom_site_type_symbol
 _atom_site_label
 _atom_site_symmetry_multiplicity
 _atom_site_fract_x
 _atom_site_fract_y
 _atom_site_fract_z
 _atom_site_occupancy
  Li  Li0  1  0.00040618  0.00023798  0.66580919  1
  Li  Li1  1  0.49959382  0.50023798  0.16580919  1
  Li  Li2  1  0.99959382  0.99976202  0.33419081  1
  Li  Li3  1  0.50040618  0.49976202  0.83419081  1
  F  F4  1  0.30567740  0.30460449  0.34116442  1
  F  F5  1  0.80567740  0.19539551  0.15883558  1
  F  F6  1  0.70854220  0.71035051  0.99990688  1
  F  F7  1  0.20854220  0.78964949  0.50009312  1
  F  F8  1  0.29145780  0.28964949  0.00009312  1
  F  F9  1  0.79145780  0.21035051  0.49990688  1
  F  F10  1  0.80659457  0.19547447  0.84079492  1
  F  F11  1  0.30659457  0.30452553  0.65920508  1
  F  F12  1  0.19340543  0.80452553  0.15920508  1
  F  F13  1  0.69340543  0.69547447  0.34079492  1
  F  F14  1  0.19432260  0.80460449  0.84116442  1
  F  F15  1  0.69432260  0.69539551  0.65883558  1
  Rh  Rh16  1  0.50000000  0.50000000  0.50000000  1
  Rh  Rh17  1  0.00000000  0.00000000  0.00000000  1
