# generated using pymatgen
data_Er2GeO5
_symmetry_space_group_name_H-M   'P 1'
_cell_length_a   8.00020448
_cell_length_b   11.27475729
_cell_length_c   8.00020456
_cell_angle_alpha   86.72893885
_cell_angle_beta   91.15377985
_cell_angle_gamma   93.27106065
_symmetry_Int_Tables_number   1
_chemical_formula_structural   Er2GeO5
_chemical_formula_sum   'Er12 Ge6 O30'
_cell_volume   719.16874237
_cell_formula_units_Z   6
loop_
 _symmetry_equiv_pos_site_id
 _symmetry_equiv_pos_as_xyz
  1  'x, y, z'
loop_
 _atom_site_type_symbol
 _atom_site_label
 _atom_site_symmetry_multiplicity
 _atom_site_fract_x
 _atom_site_fract_y
 _atom_site_fract_z
 _atom_site_occupancy
  Er  Er0  1  0.00576592  0.93667960  0.70161452  1
  Er  Er1  1  0.99775233  0.75166623  0.36029768  1
  Er  Er2  1  0.29838548  0.43667960  0.99423408  1
  Er  Er3  1  0.34586997  0.57171000  0.37203970  1
  Er  Er4  1  0.37203970  0.92829000  0.34586997  1
  Er  Er5  1  0.36029768  0.74833377  0.99775233  1
  Er  Er6  1  0.63970232  0.25166623  0.00224767  1
  Er  Er7  1  0.62796030  0.07171000  0.65413003  1
  Er  Er8  1  0.65413003  0.42829000  0.62796030  1
  Er  Er9  1  0.70161452  0.56332040  0.00576592  1
  Er  Er10  1  0.00224767  0.24833377  0.63970232  1
  Er  Er11  1  0.99423408  0.06332040  0.29838548  1
  Ge  Ge12  1  0.06409863  0.54608944  0.72518662  1
  Ge  Ge13  1  0.27481338  0.04608944  0.93590137  1
  Ge  Ge14  1  0.35931856  0.25000000  0.35931856  1
  Ge  Ge15  1  0.64068144  0.75000000  0.64068144  1
  Ge  Ge16  1  0.72518662  0.95391056  0.06409863  1
  Ge  Ge17  1  0.93590137  0.45391056  0.27481338  1
  O  O18  1  0.12235470  0.92314263  0.45740090  1
  O  O19  1  0.12208359  0.60779256  0.52550609  1
  O  O20  1  0.11675201  0.11592810  0.81300655  1
  O  O21  1  0.14218619  0.22131684  0.40109345  1
  O  O22  1  0.18699345  0.61592810  0.88324799  1
  O  O23  1  0.15143724  0.46069265  0.22771915  1
  O  O24  1  0.14210951  0.39908247  0.76260386  1
  O  O25  1  0.25893181  0.75000000  0.25893181  1
  O  O26  1  0.22771915  0.03930735  0.15143724  1
  O  O27  1  0.23739614  0.89908247  0.85789049  1
  O  O28  1  0.40109345  0.27868316  0.14218619  1
  O  O29  1  0.44037153  0.38171755  0.45667963  1
  O  O30  1  0.45740090  0.57685737  0.12235470  1
  O  O31  1  0.47449391  0.10779256  0.87791641  1
  O  O32  1  0.45667963  0.11828245  0.44037153  1
  O  O33  1  0.54332037  0.88171755  0.55962847  1
  O  O34  1  0.52550609  0.89220744  0.12208359  1
  O  O35  1  0.54259910  0.42314263  0.87764530  1
  O  O36  1  0.55962847  0.61828245  0.54332037  1
  O  O37  1  0.59890655  0.72131684  0.85781381  1
  O  O38  1  0.76260386  0.10091753  0.14210951  1
  O  O39  1  0.77228085  0.96069265  0.84856276  1
  O  O40  1  0.74106819  0.25000000  0.74106819  1
  O  O41  1  0.85789049  0.60091753  0.23739614  1
  O  O42  1  0.84856276  0.53930735  0.77228085  1
  O  O43  1  0.81300655  0.38407190  0.11675201  1
  O  O44  1  0.85781381  0.77868316  0.59890655  1
  O  O45  1  0.88324799  0.88407190  0.18699345  1
  O  O46  1  0.87791641  0.39220744  0.47449391  1
  O  O47  1  0.87764530  0.07685737  0.54259910  1
