# generated using pymatgen
data_Li2Ti3NiO8
_symmetry_space_group_name_H-M   'P 1'
_cell_length_a   8.42142903
_cell_length_b   8.42140737
_cell_length_c   8.42196652
_cell_angle_alpha   90.00024941
_cell_angle_beta   90.00019995
_cell_angle_gamma   89.99976276
_symmetry_Int_Tables_number   1
_chemical_formula_structural   Li2Ti3NiO8
_chemical_formula_sum   'Li8 Ti12 Ni4 O32'
_cell_volume   597.28826163
_cell_formula_units_Z   4
loop_
 _symmetry_equiv_pos_site_id
 _symmetry_equiv_pos_as_xyz
  1  'x, y, z'
loop_
 _atom_site_type_symbol
 _atom_site_label
 _atom_site_symmetry_multiplicity
 _atom_site_fract_x
 _atom_site_fract_y
 _atom_site_fract_z
 _atom_site_occupancy
  Li  Li0  1  0.99879793  0.99879847  0.99880764  1
  Li  Li1  1  0.25118960  0.25118675  0.25118418  1
  Li  Li2  1  0.24881862  0.74882067  0.75118696  1
  Li  Li3  1  0.50119721  0.00120432  0.49880319  1
  Li  Li4  1  0.49880146  0.50120078  0.00119768  1
  Li  Li5  1  0.75117665  0.24882173  0.74881607  1
  Li  Li6  1  0.74881776  0.75118471  0.24881870  1
  Li  Li7  1  0.00120220  0.49880465  0.50120162  1
  Ti  Ti8  1  0.12950764  0.12038738  0.62506743  1
  Ti  Ti9  1  0.12504957  0.37048588  0.87962634  1
  Ti  Ti10  1  0.12039623  0.62506802  0.12950814  1
  Ti  Ti11  1  0.37960792  0.37494606  0.62952021  1
  Ti  Ti12  1  0.37492767  0.62951914  0.37962990  1
  Ti  Ti13  1  0.37050319  0.87959073  0.12506539  1
  Ti  Ti14  1  0.62947389  0.37962356  0.37494841  1
  Ti  Ti15  1  0.62504994  0.12951073  0.12040121  1
  Ti  Ti16  1  0.62040257  0.87494397  0.87047329  1
  Ti  Ti17  1  0.87961666  0.12509062  0.37048615  1
  Ti  Ti18  1  0.87493240  0.87049495  0.62037619  1
  Ti  Ti19  1  0.87048099  0.62042839  0.87492211  1
  Ni  Ni20  1  0.12493289  0.87507429  0.37504027  1
  Ni  Ni21  1  0.37506828  0.12493175  0.87504815  1
  Ni  Ni22  1  0.62493417  0.62492706  0.62495117  1
  Ni  Ni23  1  0.87506443  0.37507575  0.12495759  1
  O  O24  1  0.10727100  0.12341716  0.39062227  1
  O  O25  1  0.10938478  0.89273861  0.62338794  1
  O  O26  1  0.11120425  0.61119938  0.88882246  1
  O  O27  1  0.12665366  0.14271584  0.85947719  1
  O  O28  1  0.12339743  0.39061824  0.10724682  1
  O  O29  1  0.13885087  0.36115730  0.63883701  1
  O  O30  1  0.14054385  0.62665852  0.35727935  1
  O  O31  1  0.14271751  0.85944625  0.12666632  1
  O  O32  1  0.35728721  0.14054304  0.62667905  1
  O  O33  1  0.35945000  0.37333791  0.85728661  1
  O  O34  1  0.36116833  0.63883670  0.13883265  1
  O  O35  1  0.37659998  0.60937980  0.60725587  1
  O  O36  1  0.37334427  0.85729492  0.35948462  1
  O  O37  1  0.38880914  0.38880055  0.38881850  1
  O  O38  1  0.39062069  0.10726614  0.12339378  1
  O  O39  1  0.39273290  0.87659413  0.89062499  1
  O  O40  1  0.60726511  0.37658698  0.60937186  1
  O  O41  1  0.60938321  0.60725407  0.37661035  1
  O  O42  1  0.61118600  0.88879830  0.11119390  1
  O  O43  1  0.62665619  0.35728435  0.14052173  1
  O  O44  1  0.62341506  0.10937685  0.89276575  1
  O  O45  1  0.63883559  0.13883747  0.36117127  1
  O  O46  1  0.64054196  0.87335387  0.64271736  1
  O  O47  1  0.64271727  0.64054436  0.87333576  1
  O  O48  1  0.85728763  0.35945852  0.37333939  1
  O  O49  1  0.85945974  0.12665686  0.14272544  1
  O  O50  1  0.86115988  0.86115520  0.86117973  1
  O  O51  1  0.87659240  0.89063193  0.39275338  1
  O  O52  1  0.87334948  0.64272312  0.64052749  1
  O  O53  1  0.88880936  0.11119543  0.61119012  1
  O  O54  1  0.89061850  0.39274615  0.87660897  1
  O  O55  1  0.89273787  0.62341472  0.10937609  1
