# generated using pymatgen
data_Li2Ti3MnO8
_symmetry_space_group_name_H-M   'P 1'
_cell_length_a   8.52650279
_cell_length_b   8.52660690
_cell_length_c   8.52681365
_cell_angle_alpha   89.99987119
_cell_angle_beta   89.99962310
_cell_angle_gamma   90.00022726
_symmetry_Int_Tables_number   1
_chemical_formula_structural   Li2Ti3MnO8
_chemical_formula_sum   'Li8 Ti12 Mn4 O32'
_cell_volume   619.91757860
_cell_formula_units_Z   4
loop_
 _symmetry_equiv_pos_site_id
 _symmetry_equiv_pos_as_xyz
  1  'x, y, z'
loop_
 _atom_site_type_symbol
 _atom_site_label
 _atom_site_symmetry_multiplicity
 _atom_site_fract_x
 _atom_site_fract_y
 _atom_site_fract_z
 _atom_site_occupancy
  Li  Li0  1  0.12633105  0.87367455  0.37368382  1
  Li  Li1  1  0.24726343  0.74726458  0.75274089  1
  Li  Li2  1  0.25274026  0.25273706  0.25274223  1
  Li  Li3  1  0.37367215  0.12633089  0.87368140  1
  Li  Li4  1  0.62633156  0.62632827  0.62631905  1
  Li  Li5  1  0.74726178  0.75274005  0.24726081  1
  Li  Li6  1  0.75273685  0.24726487  0.74725918  1
  Li  Li7  1  0.87367136  0.37367201  0.12632211  1
  Ti  Ti8  1  0.11706154  0.62215952  0.12854939  1
  Ti  Ti9  1  0.12215331  0.37146162  0.88295189  1
  Ti  Ti10  1  0.12853601  0.11707198  0.62215429  1
  Ti  Ti11  1  0.37145939  0.88293999  0.12214744  1
  Ti  Ti12  1  0.37785131  0.62854181  0.38293970  1
  Ti  Ti13  1  0.38293599  0.37785419  0.62854012  1
  Ti  Ti14  1  0.61706266  0.87784431  0.87145775  1
  Ti  Ti15  1  0.62216106  0.12853906  0.11705478  1
  Ti  Ti16  1  0.62854098  0.38293407  0.37784845  1
  Ti  Ti17  1  0.87145893  0.61706370  0.87785357  1
  Ti  Ti18  1  0.87784766  0.87146187  0.61705431  1
  Ti  Ti19  1  0.88293783  0.12215750  0.37145863  1
  Mn  Mn20  1  0.00144421  0.49854933  0.50144545  1
  Mn  Mn21  1  0.49855588  0.50143678  0.00144314  1
  Mn  Mn22  1  0.50145144  0.00144906  0.49856814  1
  Mn  Mn23  1  0.99854322  0.99855014  0.99857011  1
  O  O24  1  0.10344530  0.12876151  0.39250703  1
  O  O25  1  0.10749438  0.89656256  0.62877205  1
  O  O26  1  0.11135011  0.61134893  0.88866100  1
  O  O27  1  0.12876241  0.39250418  0.10345066  1
  O  O28  1  0.12367259  0.14714193  0.85751051  1
  O  O29  1  0.13944691  0.36055335  0.63943052  1
  O  O30  1  0.14249147  0.62367393  0.35285140  1
  O  O31  1  0.14713741  0.85751021  0.12367705  1
  O  O32  1  0.35286173  0.14249846  0.62367543  1
  O  O33  1  0.35750482  0.37633196  0.85284738  1
  O  O34  1  0.36055276  0.63944894  0.13942742  1
  O  O35  1  0.37632315  0.85286589  0.35750635  1
  O  O36  1  0.37123607  0.60750035  0.60344602  1
  O  O37  1  0.38865121  0.38865638  0.38865621  1
  O  O38  1  0.39250546  0.10344334  0.12875904  1
  O  O39  1  0.39655523  0.87123945  0.89250471  1
  O  O40  1  0.60344423  0.37124085  0.60749608  1
  O  O41  1  0.60749754  0.60344283  0.37123336  1
  O  O42  1  0.61135195  0.88865493  0.11134028  1
  O  O43  1  0.62876751  0.10749702  0.89655033  1
  O  O44  1  0.62368524  0.35286105  0.14249297  1
  O  O45  1  0.63944233  0.13944959  0.36057447  1
  O  O46  1  0.64249067  0.87633002  0.64714982  1
  O  O47  1  0.64713545  0.64249156  0.87632710  1
  O  O48  1  0.85286583  0.35750827  0.37632852  1
  O  O49  1  0.85750929  0.12367411  0.14715405  1
  O  O50  1  0.86054796  0.86054668  0.86057168  1
  O  O51  1  0.87632089  0.64713971  0.64249463  1
  O  O52  1  0.87123521  0.89250298  0.39655481  1
  O  O53  1  0.88864641  0.11134998  0.61134083  1
  O  O54  1  0.89250520  0.39655835  0.87124193  1
  O  O55  1  0.89655343  0.62876551  0.10749970  1
