# generated using pymatgen
data_KNaZrSi3H4O11
_symmetry_space_group_name_H-M   'P 1'
_cell_length_a   11.91553403
_cell_length_b   13.14011046
_cell_length_c   6.82688512
_cell_angle_alpha   90.00000000
_cell_angle_beta   90.00000000
_cell_angle_gamma   90.00000000
_symmetry_Int_Tables_number   1
_chemical_formula_structural   KNaZrSi3H4O11
_chemical_formula_sum   'K4 Na4 Zr4 Si12 H16 O44'
_cell_volume   1068.89518851
_cell_formula_units_Z   4
loop_
 _symmetry_equiv_pos_site_id
 _symmetry_equiv_pos_as_xyz
  1  'x, y, z'
loop_
 _atom_site_type_symbol
 _atom_site_label
 _atom_site_symmetry_multiplicity
 _atom_site_fract_x
 _atom_site_fract_y
 _atom_site_fract_z
 _atom_site_occupancy
  K  K0  1  0.25141951  0.34904998  0.91329819  1
  K  K1  1  0.25141951  0.84904998  0.58670181  1
  K  K2  1  0.75141951  0.15095002  0.41329819  1
  K  K3  1  0.75141951  0.65095002  0.08670181  1
  Na  Na4  1  0.49688797  0.11002124  0.82889704  1
  Na  Na5  1  0.49688797  0.61002124  0.67110296  1
  Na  Na6  1  0.99688797  0.38997876  0.32889704  1
  Na  Na7  1  0.99688797  0.88997876  0.17110296  1
  Zr  Zr8  1  0.24893746  0.05230376  0.14782766  1
  Zr  Zr9  1  0.24893746  0.55230376  0.35217234  1
  Zr  Zr10  1  0.74893746  0.44769624  0.64782766  1
  Zr  Zr11  1  0.74893746  0.94769624  0.85217234  1
  Si  Si12  1  0.21291673  0.10946393  0.64625734  1
  Si  Si13  1  0.21291673  0.60946393  0.85374266  1
  Si  Si14  1  0.28112870  0.78649116  0.11212610  1
  Si  Si15  1  0.28112870  0.28649116  0.38787390  1
  Si  Si16  1  0.49741312  0.41508441  0.39033928  1
  Si  Si17  1  0.49741312  0.91508441  0.10966072  1
  Si  Si18  1  0.71291673  0.39053607  0.14625734  1
  Si  Si19  1  0.71291673  0.89053607  0.35374266  1
  Si  Si20  1  0.78112870  0.21350884  0.88787390  1
  Si  Si21  1  0.78112870  0.71350884  0.61212610  1
  Si  Si22  1  0.99741312  0.08491559  0.89033928  1
  Si  Si23  1  0.99741312  0.58491559  0.60966072  1
  H  H24  1  0.00503991  0.16835859  0.26216223  1
  H  H25  1  0.00503991  0.66835859  0.23783777  1
  H  H26  1  0.01107443  0.18037125  0.48762749  1
  H  H27  1  0.01107443  0.68037125  0.01237251  1
  H  H28  1  0.48599112  0.18678731  0.43472302  1
  H  H29  1  0.48599112  0.68678731  0.06527698  1
  H  H30  1  0.49528618  0.07120018  0.39447127  1
  H  H31  1  0.49528618  0.57120018  0.10552873  1
  H  H32  1  0.50503991  0.33164141  0.76216223  1
  H  H33  1  0.50503991  0.83164141  0.73783777  1
  H  H34  1  0.51107443  0.31962875  0.98762749  1
  H  H35  1  0.51107443  0.81962875  0.51237251  1
  H  H36  1  0.98599112  0.31321269  0.93472302  1
  H  H37  1  0.98599112  0.81321269  0.56527698  1
  H  H38  1  0.99528618  0.92879982  0.60552873  1
  H  H39  1  0.99528618  0.42879982  0.89447127  1
  O  O40  1  0.02317734  0.37524316  0.98307119  1
  O  O41  1  0.02317734  0.87524316  0.51692881  1
  O  O42  1  0.07433333  0.07090016  0.08539914  1
  O  O43  1  0.07433333  0.57090016  0.41460086  1
  O  O44  1  0.07562845  0.10978101  0.69540981  1
  O  O45  1  0.07562845  0.60978101  0.80459019  1
  O  O46  1  0.21350257  0.39273551  0.36407652  1
  O  O47  1  0.21350257  0.89273551  0.13592348  1
  O  O48  1  0.23376552  0.04045239  0.45348052  1
  O  O49  1  0.23376552  0.54045239  0.04651948  1
  O  O50  1  0.24225983  0.22976497  0.59343349  1
  O  O51  1  0.24225983  0.72976497  0.90656651  1
  O  O52  1  0.27000527  0.20844058  0.20451537  1
  O  O53  1  0.27000527  0.70844058  0.29548463  1
  O  O54  1  0.28039815  0.07355819  0.84042272  1
  O  O55  1  0.28039815  0.57355919  0.65957728  1
  O  O56  1  0.41734240  0.31293970  0.41813971  1
  O  O57  1  0.41734240  0.81293970  0.08186029  1
  O  O58  1  0.42214754  0.01551047  0.15418578  1
  O  O59  1  0.42214754  0.51551047  0.34581422  1
  O  O60  1  0.47634847  0.28913147  0.87062997  1
  O  O61  1  0.47634847  0.78913147  0.62937003  1
  O  O62  1  0.52317734  0.12475684  0.48307119  1
  O  O63  1  0.52317734  0.62475684  0.01692881  1
  O  O64  1  0.57433333  0.42909984  0.58539914  1
  O  O65  1  0.57433333  0.92909984  0.91460086  1
  O  O66  1  0.57562845  0.39021899  0.19540981  1
  O  O67  1  0.57562845  0.89021899  0.30459019  1
  O  O68  1  0.71350257  0.10726449  0.86407652  1
  O  O69  1  0.71350257  0.60726449  0.63592348  1
  O  O70  1  0.73376552  0.95954761  0.54651948  1
  O  O71  1  0.73376552  0.45954761  0.95348052  1
  O  O72  1  0.74225983  0.27023503  0.09343349  1
  O  O73  1  0.74225983  0.77023503  0.40656651  1
  O  O74  1  0.77000527  0.29155942  0.70451537  1
  O  O75  1  0.77000527  0.79155942  0.79548463  1
  O  O76  1  0.78039815  0.42644081  0.34042272  1
  O  O77  1  0.78039815  0.92644081  0.15957728  1
  O  O78  1  0.91734240  0.18706030  0.91813971  1
  O  O79  1  0.91734240  0.68706030  0.58186029  1
  O  O80  1  0.92214754  0.98448953  0.84581422  1
  O  O81  1  0.92214754  0.48448953  0.65418578  1
  O  O82  1  0.97634847  0.21086853  0.37062997  1
  O  O83  1  0.97634847  0.71086853  0.12937003  1
