# generated using pymatgen
data_LiCoBO3
_symmetry_space_group_name_H-M   'P 1'
_cell_length_a   5.16072702
_cell_length_b   5.16072749
_cell_length_c   10.34376083
_cell_angle_alpha   89.61345335
_cell_angle_beta   90.38655100
_cell_angle_gamma   60.16072108
_symmetry_Int_Tables_number   1
_chemical_formula_structural   LiCoBO3
_chemical_formula_sum   'Li4 Co4 B4 O12'
_cell_volume   238.94208412
_cell_formula_units_Z   4
loop_
 _symmetry_equiv_pos_site_id
 _symmetry_equiv_pos_as_xyz
  1  'x, y, z'
loop_
 _atom_site_type_symbol
 _atom_site_label
 _atom_site_symmetry_multiplicity
 _atom_site_fract_x
 _atom_site_fract_y
 _atom_site_fract_z
 _atom_site_occupancy
  Li  Li0  1  0.15661654  0.83069637  0.66412841  1
  Li  Li1  1  0.16930363  0.84338346  0.16412841  1
  Li  Li2  1  0.83870654  0.16421264  0.91297096  1
  Li  Li3  1  0.83578736  0.16129346  0.41297096  1
  Co  Co4  1  0.17255303  0.49672765  0.39457275  1
  Co  Co5  1  0.49769832  0.17230527  0.14359251  1
  Co  Co6  1  0.50327235  0.82744697  0.89457275  1
  Co  Co7  1  0.82769473  0.50230168  0.64359251  1
  B  B8  1  0.16692112  0.49736873  0.87262047  1
  B  B9  1  0.49885242  0.16440998  0.62247470  1
  B  B10  1  0.50263127  0.83307888  0.37262047  1
  B  B11  1  0.83559002  0.50114758  0.12247470  1
  O  O12  1  0.08582032  0.51775041  0.15561195  1
  O  O13  1  0.23371254  0.43600217  0.59493035  1
  O  O14  1  0.15737616  0.76920891  0.85871939  1
  O  O15  1  0.42725768  0.24093463  0.90808743  1
  O  O16  1  0.51562575  0.09452159  0.34442036  1
  O  O17  1  0.23079109  0.84262384  0.35871939  1
  O  O18  1  0.77025521  0.15581726  0.60971972  1
  O  O19  1  0.48224959  0.91417968  0.65561195  1
  O  O20  1  0.56399683  0.76628746  0.09493035  1
  O  O21  1  0.84418274  0.22974479  0.10971972  1
  O  O22  1  0.75906537  0.57274232  0.40808743  1
  O  O23  1  0.90547841  0.48437425  0.84442036  1
