# generated using pymatgen
data_NaSb5O13
_symmetry_space_group_name_H-M   'P 1'
_cell_length_a   5.62216593
_cell_length_b   5.62216593
_cell_length_c   16.78283261
_cell_angle_alpha   90.00000000
_cell_angle_beta   90.00000000
_cell_angle_gamma   72.90912161
_symmetry_Int_Tables_number   1
_chemical_formula_structural   NaSb5O13
_chemical_formula_sum   'Na2 Sb10 O26'
_cell_volume   507.05806841
_cell_formula_units_Z   2
loop_
 _symmetry_equiv_pos_site_id
 _symmetry_equiv_pos_as_xyz
  1  'x, y, z'
loop_
 _atom_site_type_symbol
 _atom_site_label
 _atom_site_symmetry_multiplicity
 _atom_site_fract_x
 _atom_site_fract_y
 _atom_site_fract_z
 _atom_site_occupancy
  Na  Na0  1  0.15089667  0.10158273  0.25000000  1
  Na  Na1  1  0.89841727  0.84910333  0.75000000  1
  Sb  Sb2  1  0.61466479  0.61437375  0.92035644  1
  Sb  Sb3  1  0.38562625  0.38533521  0.07964356  1
  Sb  Sb4  1  0.00022769  0.99977231  0.00000000  1
  Sb  Sb5  1  0.61466479  0.61437375  0.57964356  1
  Sb  Sb6  1  0.38562625  0.38533521  0.42035644  1
  Sb  Sb7  1  0.00022769  0.99977231  0.50000000  1
  Sb  Sb8  1  0.23258094  0.23088799  0.63901812  1
  Sb  Sb9  1  0.23258094  0.23088799  0.86098188  1
  Sb  Sb10  1  0.76911201  0.76741906  0.13901812  1
  Sb  Sb11  1  0.76911201  0.76741906  0.36098188  1
  O  O12  1  0.06882344  0.46968820  0.13637622  1
  O  O13  1  0.53031180  0.93117656  0.63637622  1
  O  O14  1  0.53031180  0.93117656  0.86362378  1
  O  O15  1  0.06882344  0.46968820  0.36362378  1
  O  O16  1  0.31104904  0.68895096  0.00000000  1
  O  O17  1  0.31104904  0.68895096  0.50000000  1
  O  O18  1  0.98660881  0.98626236  0.38489316  1
  O  O19  1  0.82861375  0.82886312  0.25000000  1
  O  O20  1  0.77441060  0.77432164  0.01034419  1
  O  O21  1  0.77441060  0.77432164  0.48965581  1
  O  O22  1  0.55270981  0.55429093  0.34601010  1
  O  O23  1  0.44570907  0.44729019  0.84601010  1
  O  O24  1  0.22567836  0.22558940  0.51034419  1
  O  O25  1  0.01373764  0.01339119  0.61510684  1
  O  O26  1  0.44570907  0.44729019  0.65398990  1
  O  O27  1  0.01373764  0.01339119  0.88489316  1
  O  O28  1  0.17113688  0.17138625  0.75000000  1
  O  O29  1  0.22567836  0.22558940  0.98965581  1
  O  O30  1  0.98660881  0.98626236  0.11510684  1
  O  O31  1  0.55270981  0.55429093  0.15398990  1
  O  O32  1  0.68915931  0.31083969  0.50000000  1
  O  O33  1  0.68915931  0.31083969  0.00000000  1
  O  O34  1  0.93207368  0.52949357  0.63649363  1
  O  O35  1  0.47050643  0.06792632  0.36350637  1
  O  O36  1  0.47050643  0.06792632  0.13649363  1
  O  O37  1  0.93207368  0.52949357  0.86350637  1
