# generated using pymatgen
data_FeSb3(PO4)6
_symmetry_space_group_name_H-M   'P 1'
_cell_length_a   8.90051638
_cell_length_b   8.90051569
_cell_length_c   8.90051597
_cell_angle_alpha   58.02513527
_cell_angle_beta   58.02513773
_cell_angle_gamma   58.02513829
_symmetry_Int_Tables_number   1
_chemical_formula_structural   FeSb3(PO4)6
_chemical_formula_sum   'Fe1 Sb3 P6 O24'
_cell_volume   475.99213568
_cell_formula_units_Z   1
loop_
 _symmetry_equiv_pos_site_id
 _symmetry_equiv_pos_as_xyz
  1  'x, y, z'
loop_
 _atom_site_type_symbol
 _atom_site_label
 _atom_site_symmetry_multiplicity
 _atom_site_fract_x
 _atom_site_fract_y
 _atom_site_fract_z
 _atom_site_occupancy
  Fe  Fe0  1  0.85765682  0.85765682  0.85765682  1
  Sb  Sb1  1  0.14330560  0.14330560  0.14330560  1
  Sb  Sb2  1  0.35651246  0.35651246  0.35651246  1
  Sb  Sb3  1  0.64361844  0.64361844  0.64361844  1
  P  P4  1  0.03747745  0.75093087  0.46597998  1
  P  P5  1  0.46597998  0.03747745  0.75093087  1
  P  P6  1  0.75093087  0.46597998  0.03747745  1
  P  P7  1  0.24665206  0.54189812  0.96149577  1
  P  P8  1  0.54189812  0.96149577  0.24665206  1
  P  P9  1  0.96149577  0.24665206  0.54189812  1
  O  O10  1  0.13348194  0.27766718  0.51174074  1
  O  O11  1  0.27766718  0.51174074  0.13348194  1
  O  O12  1  0.05971303  0.92388859  0.27962763  1
  O  O13  1  0.51174074  0.13348194  0.27766718  1
  O  O14  1  0.21897134  0.57557235  0.43894945  1
  O  O15  1  0.01073261  0.77665269  0.63318418  1
  O  O16  1  0.27962763  0.05971303  0.92388859  1
  O  O17  1  0.43894945  0.21897134  0.57557235  1
  O  O18  1  0.57557235  0.43894945  0.21897134  1
  O  O19  1  0.22832280  0.36413496  0.98642069  1
  O  O20  1  0.07722201  0.71620754  0.94016119  1
  O  O21  1  0.36413496  0.98642069  0.22832280  1
  O  O22  1  0.63318418  0.01073261  0.77665269  1
  O  O23  1  0.92388859  0.27962763  0.05971303  1
  O  O24  1  0.77665269  0.63318418  0.01073261  1
  O  O25  1  0.42709847  0.55617915  0.78234546  1
  O  O26  1  0.55617915  0.78234546  0.42709847  1
  O  O27  1  0.71620754  0.94016119  0.07722201  1
  O  O28  1  0.98642069  0.22832280  0.36413496  1
  O  O29  1  0.78234546  0.42709847  0.55617915  1
  O  O30  1  0.48389778  0.86766453  0.72463713  1
  O  O31  1  0.94016119  0.07722201  0.71620754  1
  O  O32  1  0.72463713  0.48389778  0.86766453  1
  O  O33  1  0.86766453  0.72463713  0.48389778  1
