# generated using pymatgen
data_LiV2O5
_symmetry_space_group_name_H-M   'P 1'
_cell_length_a   7.70509427
_cell_length_b   6.68705550
_cell_length_c   7.64442036
_cell_angle_alpha   90.00000000
_cell_angle_beta   90.00000000
_cell_angle_gamma   90.00000000
_symmetry_Int_Tables_number   1
_chemical_formula_structural   LiV2O5
_chemical_formula_sum   'Li4 V8 O20'
_cell_volume   393.87411901
_cell_formula_units_Z   4
loop_
 _symmetry_equiv_pos_site_id
 _symmetry_equiv_pos_as_xyz
  1  'x, y, z'
loop_
 _atom_site_type_symbol
 _atom_site_label
 _atom_site_symmetry_multiplicity
 _atom_site_fract_x
 _atom_site_fract_y
 _atom_site_fract_z
 _atom_site_occupancy
  Li  Li0  1  0.00000000  0.00000000  0.00000000  1
  Li  Li1  1  0.00000000  0.50000000  0.00000000  1
  Li  Li2  1  0.50000000  0.00000000  0.50000000  1
  Li  Li3  1  0.50000000  0.50000000  0.50000000  1
  V  V4  1  0.16928508  0.25000000  0.72969441  1
  V  V5  1  0.33071492  0.75000000  0.22969441  1
  V  V6  1  0.66928508  0.25000000  0.77030559  1
  V  V7  1  0.83071492  0.75000000  0.27030559  1
  V  V8  1  0.12451180  0.75000000  0.62880932  1
  V  V9  1  0.37548820  0.25000000  0.12880932  1
  V  V10  1  0.62451180  0.75000000  0.87119068  1
  V  V11  1  0.87548820  0.25000000  0.37119068  1
  O  O12  1  0.05562628  0.25000000  0.50263017  1
  O  O13  1  0.12103778  0.75000000  0.16483421  1
  O  O14  1  0.12236683  0.53837975  0.76311956  1
  O  O15  1  0.12236683  0.96162025  0.76311956  1
  O  O16  1  0.19015709  0.25000000  0.99600844  1
  O  O17  1  0.30984291  0.75000000  0.49600844  1
  O  O18  1  0.37763317  0.03837975  0.26311956  1
  O  O19  1  0.37763317  0.46162025  0.26311956  1
  O  O20  1  0.37896222  0.25000000  0.66483421  1
  O  O21  1  0.44437372  0.75000000  0.00263017  1
  O  O22  1  0.55562628  0.25000000  0.99736983  1
  O  O23  1  0.62103778  0.75000000  0.33516579  1
  O  O24  1  0.62236683  0.53837975  0.73688044  1
  O  O25  1  0.62236683  0.96162025  0.73688044  1
  O  O26  1  0.69015709  0.25000000  0.50399156  1
  O  O27  1  0.80984291  0.75000000  0.00399156  1
  O  O28  1  0.87763317  0.03837975  0.23688044  1
  O  O29  1  0.87763317  0.46162025  0.23688044  1
  O  O30  1  0.87896222  0.25000000  0.83516579  1
  O  O31  1  0.94437372  0.75000000  0.49736983  1
