# generated using pymatgen
data_Er2TeO6
_symmetry_space_group_name_H-M   'P 1'
_cell_length_a   5.28219593
_cell_length_b   9.07449202
_cell_length_c   9.95882964
_cell_angle_alpha   90.00000000
_cell_angle_beta   90.00000000
_cell_angle_gamma   90.00000000
_symmetry_Int_Tables_number   1
_chemical_formula_structural   Er2TeO6
_chemical_formula_sum   'Er8 Te4 O24'
_cell_volume   477.35901920
_cell_formula_units_Z   4
loop_
 _symmetry_equiv_pos_site_id
 _symmetry_equiv_pos_as_xyz
  1  'x, y, z'
loop_
 _atom_site_type_symbol
 _atom_site_label
 _atom_site_symmetry_multiplicity
 _atom_site_fract_x
 _atom_site_fract_y
 _atom_site_fract_z
 _atom_site_occupancy
  Er  Er0  1  0.02489228  0.39687739  0.03920635  1
  Er  Er1  1  0.03598464  0.28208036  0.63470178  1
  Er  Er2  1  0.46401536  0.71791964  0.13470178  1
  Er  Er3  1  0.47510772  0.60312261  0.53920635  1
  Er  Er4  1  0.52489228  0.10312261  0.96079365  1
  Er  Er5  1  0.53598464  0.21791964  0.36529822  1
  Er  Er6  1  0.96401536  0.78208036  0.86529822  1
  Er  Er7  1  0.97510772  0.89687739  0.46079365  1
  Te  Te8  1  0.04072462  0.00535663  0.14722873  1
  Te  Te9  1  0.45927538  0.99464337  0.64722873  1
  Te  Te10  1  0.54072462  0.49464337  0.85277127  1
  Te  Te11  1  0.95927538  0.50535663  0.35277127  1
  O  O12  1  0.08209969  0.65614300  0.47505837  1
  O  O13  1  0.17615474  0.54897639  0.20301346  1
  O  O14  1  0.18775863  0.85815958  0.26298098  1
  O  O15  1  0.17953075  0.85706184  0.67890694  1
  O  O16  1  0.22854261  0.38431810  0.43586707  1
  O  O17  1  0.24810492  0.08653786  0.50517981  1
  O  O18  1  0.25189508  0.91346214  0.00517981  1
  O  O19  1  0.27145739  0.61568190  0.93586707  1
  O  O20  1  0.32046925  0.14293816  0.17890694  1
  O  O21  1  0.31224137  0.14184042  0.76298098  1
  O  O22  1  0.32384526  0.45102361  0.70301346  1
  O  O23  1  0.41790031  0.34385700  0.97505837  1
  O  O24  1  0.58209969  0.84385700  0.52494163  1
  O  O25  1  0.67615474  0.95102361  0.79698654  1
  O  O26  1  0.68775863  0.64184042  0.73701902  1
  O  O27  1  0.67953075  0.64293816  0.32109306  1
  O  O28  1  0.72854261  0.11568190  0.56413293  1
  O  O29  1  0.74810492  0.41346214  0.49482019  1
  O  O30  1  0.75189508  0.58653786  0.99482019  1
  O  O31  1  0.77145739  0.88431810  0.06413293  1
  O  O32  1  0.82046925  0.35706184  0.82109306  1
  O  O33  1  0.81224137  0.35815958  0.23701902  1
  O  O34  1  0.82384526  0.04897639  0.29698654  1
  O  O35  1  0.91790031  0.15614300  0.02494163  1
