# generated using pymatgen
data_Nb3Sb(PO4)6
_symmetry_space_group_name_H-M   'P 1'
_cell_length_a   9.12933737
_cell_length_b   9.12933718
_cell_length_c   9.12933760
_cell_angle_alpha   58.52819453
_cell_angle_beta   58.52819674
_cell_angle_gamma   58.52819461
_symmetry_Int_Tables_number   1
_chemical_formula_structural   Nb3Sb(PO4)6
_chemical_formula_sum   'Nb3 Sb1 P6 O24'
_cell_volume   519.91359492
_cell_formula_units_Z   1
loop_
 _symmetry_equiv_pos_site_id
 _symmetry_equiv_pos_as_xyz
  1  'x, y, z'
loop_
 _atom_site_type_symbol
 _atom_site_label
 _atom_site_symmetry_multiplicity
 _atom_site_fract_x
 _atom_site_fract_y
 _atom_site_fract_z
 _atom_site_occupancy
  Nb  Nb0  1  0.14055759  0.14055759  0.14055759  1
  Nb  Nb1  1  0.35731570  0.35731570  0.35731570  1
  Nb  Nb2  1  0.64134196  0.64134196  0.64134196  1
  Sb  Sb3  1  0.85979904  0.85979904  0.85979904  1
  P  P4  1  0.03749175  0.75054884  0.45890690  1
  P  P5  1  0.45890690  0.03749175  0.75054884  1
  P  P6  1  0.75054884  0.45890690  0.03749175  1
  P  P7  1  0.25692047  0.52932167  0.96559720  1
  P  P8  1  0.52932167  0.96559720  0.25692047  1
  P  P9  1  0.96559720  0.25692047  0.52932167  1
  O  O10  1  0.12868235  0.30221170  0.48378689  1
  O  O11  1  0.30221170  0.48378689  0.12868235  1
  O  O12  1  0.06232298  0.92338227  0.28306246  1
  O  O13  1  0.48378689  0.12868235  0.30221170  1
  O  O14  1  0.21046094  0.58537995  0.41264827  1
  O  O15  1  0.03281374  0.76685793  0.61660059  1
  O  O16  1  0.28306246  0.06232298  0.92338227  1
  O  O17  1  0.41264827  0.21046094  0.58537995  1
  O  O18  1  0.58537995  0.41264827  0.21046094  1
  O  O19  1  0.22065767  0.36395503  0.99719375  1
  O  O20  1  0.09874812  0.70669839  0.94742794  1
  O  O21  1  0.36395503  0.99719375  0.22065767  1
  O  O22  1  0.61660059  0.03281374  0.76685793  1
  O  O23  1  0.92338227  0.28306246  0.06232298  1
  O  O24  1  0.76685793  0.61660059  0.03281374  1
  O  O25  1  0.43230618  0.55085980  0.79159358  1
  O  O26  1  0.55085980  0.79159358  0.43230618  1
  O  O27  1  0.70669839  0.94742794  0.09874812  1
  O  O28  1  0.99719375  0.22065767  0.36395503  1
  O  O29  1  0.79159358  0.43230618  0.55085980  1
  O  O30  1  0.49680875  0.86443123  0.72330337  1
  O  O31  1  0.94742794  0.09874812  0.70669839  1
  O  O32  1  0.72330337  0.49680875  0.86443123  1
  O  O33  1  0.86443123  0.72330337  0.49680875  1
