# generated using pymatgen
data_Ba5Mn5O14
_symmetry_space_group_name_H-M   'P 1'
_cell_length_a   5.79976072
_cell_length_b   5.77275865
_cell_length_c   23.93085947
_cell_angle_alpha   90.00081104
_cell_angle_beta   90.00081383
_cell_angle_gamma   120.15354592
_symmetry_Int_Tables_number   1
_chemical_formula_structural   Ba5Mn5O14
_chemical_formula_sum   'Ba10 Mn10 O28'
_cell_volume   692.80078338
_cell_formula_units_Z   2
loop_
 _symmetry_equiv_pos_site_id
 _symmetry_equiv_pos_as_xyz
  1  'x, y, z'
loop_
 _atom_site_type_symbol
 _atom_site_label
 _atom_site_symmetry_multiplicity
 _atom_site_fract_x
 _atom_site_fract_y
 _atom_site_fract_z
 _atom_site_occupancy
  Ba  Ba0  1  0.33704264  0.66802715  0.54598633  1
  Ba  Ba1  1  0.33161994  0.66870917  0.13904506  1
  Ba  Ba2  1  0.00312196  0.99837235  0.24999909  1
  Ba  Ba3  1  0.33156136  0.66872005  0.36092803  1
  Ba  Ba4  1  0.00476831  0.00159567  0.75002306  1
  Ba  Ba5  1  0.33694951  0.66782373  0.95400742  1
  Ba  Ba6  1  0.66908915  0.33219043  0.45398905  1
  Ba  Ba7  1  0.66907706  0.33207382  0.04598370  1
  Ba  Ba8  1  0.66288941  0.33137619  0.63906133  1
  Ba  Ba9  1  0.66285816  0.33120399  0.86093347  1
  Mn  Mn10  1  0.34578569  0.67339377  0.69191421  1
  Mn  Mn11  1  0.01056831  0.99996950  0.99999970  1
  Mn  Mn12  1  0.00226739  0.99801125  0.10736632  1
  Mn  Mn13  1  0.00223630  0.99802183  0.39260205  1
  Mn  Mn14  1  0.01062742  0.00009596  0.49998842  1
  Mn  Mn15  1  0.00424804  0.00207473  0.60739016  1
  Mn  Mn16  1  0.00423543  0.00191629  0.89264272  1
  Mn  Mn17  1  0.34573313  0.67326526  0.80815960  1
  Mn  Mn18  1  0.67240723  0.32666322  0.19185662  1
  Mn  Mn19  1  0.67239931  0.32663213  0.30810092  1
  O  O20  1  0.15548405  0.84612387  0.05125300  1
  O  O21  1  0.15547598  0.84620774  0.44873964  1
  O  O22  1  0.15428371  0.82415503  0.65240269  1
  O  O23  1  0.93943976  0.49452714  0.24999796  1
  O  O24  1  0.15417670  0.82395474  0.84763607  1
  O  O25  1  0.15377039  0.33044193  0.65225256  1
  O  O26  1  0.15456987  0.29331355  0.44772908  1
  O  O27  1  0.15375272  0.33036856  0.84780226  1
  O  O28  1  0.15456965  0.29325105  0.05224329  1
  O  O29  1  0.33014109  0.17592048  0.34759341  1
  O  O30  1  0.33016672  0.17596632  0.15237482  1
  O  O31  1  0.30935349  0.15400733  0.55124801  1
  O  O32  1  0.30934342  0.15384763  0.94874485  1
  O  O33  1  0.44491218  0.50542973  0.75001730  1
  O  O34  1  0.71252917  0.84922253  0.05138755  1
  O  O35  1  0.68301864  0.84142876  0.64848653  1
  O  O36  1  0.71253442  0.84928729  0.44859914  1
  O  O37  1  0.68298751  0.84132333  0.85154943  1
  O  O38  1  0.82334916  0.66957576  0.15220799  1
  O  O39  1  0.44617537  0.94154366  0.75003030  1
  O  O40  1  0.50460129  0.05844668  0.24999234  1
  O  O41  1  0.82341325  0.66955563  0.34777435  1
  O  O42  1  0.86132776  0.70668978  0.94775139  1
  O  O43  1  0.86139370  0.70686789  0.55225033  1
  O  O44  1  0.84161089  0.15861605  0.14845476  1
  O  O45  1  0.86324329  0.15069080  0.94860543  1
  O  O46  1  0.84157735  0.15854567  0.35150656  1
  O  O47  1  0.86331070  0.15085659  0.55139271  1
