# generated using pymatgen
data_Na2VPCO7
_symmetry_space_group_name_H-M   'P 1'
_cell_length_a   9.06504746
_cell_length_b   6.55163441
_cell_length_c   5.26868416
_cell_angle_alpha   90.00000000
_cell_angle_beta   89.55885815
_cell_angle_gamma   90.00000000
_symmetry_Int_Tables_number   1
_chemical_formula_structural   Na2VPCO7
_chemical_formula_sum   'Na4 V2 P2 C2 O14'
_cell_volume   312.90249766
_cell_formula_units_Z   2
loop_
 _symmetry_equiv_pos_site_id
 _symmetry_equiv_pos_as_xyz
  1  'x, y, z'
loop_
 _atom_site_type_symbol
 _atom_site_label
 _atom_site_symmetry_multiplicity
 _atom_site_fract_x
 _atom_site_fract_y
 _atom_site_fract_z
 _atom_site_occupancy
  Na  Na0  1  0.23076135  0.49451281  0.23810114  1
  Na  Na1  1  0.23076135  0.00548719  0.23810114  1
  Na  Na2  1  0.76923865  0.50548719  0.76189886  1
  Na  Na3  1  0.76923865  0.99451281  0.76189886  1
  V  V4  1  0.34901264  0.75000000  0.78744520  1
  V  V5  1  0.65098736  0.25000000  0.21255480  1
  P  P6  1  0.42383268  0.25000000  0.70948345  1
  P  P7  1  0.57616732  0.75000000  0.29051655  1
  C  C8  1  0.07663840  0.75000000  0.72865725  1
  C  C9  1  0.92336160  0.25000000  0.27134275  1
  O  O10  1  0.06008617  0.25000000  0.30564840  1
  O  O11  1  0.13926958  0.75000000  0.95230236  1
  O  O12  1  0.17505178  0.75000000  0.53856453  1
  O  O13  1  0.33443548  0.05858857  0.79054667  1
  O  O14  1  0.33443548  0.44141143  0.79054667  1
  O  O15  1  0.42453245  0.75000000  0.15161632  1
  O  O16  1  0.44869867  0.25000000  0.41703495  1
  O  O17  1  0.55130133  0.75000000  0.58296505  1
  O  O18  1  0.57546755  0.25000000  0.84838368  1
  O  O19  1  0.66556452  0.55858857  0.20945333  1
  O  O20  1  0.66556452  0.94141143  0.20945333  1
  O  O21  1  0.82494822  0.25000000  0.46143547  1
  O  O22  1  0.86073042  0.25000000  0.04769764  1
  O  O23  1  0.93991383  0.75000000  0.69435160  1
