# generated using pymatgen
data_K2InH2Cl5O
_symmetry_space_group_name_H-M   'P 1'
_cell_length_a   14.15542927
_cell_length_b   10.05580702
_cell_length_c   7.34490911
_cell_angle_alpha   90.00000000
_cell_angle_beta   90.00000000
_cell_angle_gamma   90.00000000
_symmetry_Int_Tables_number   1
_chemical_formula_structural   K2InH2Cl5O
_chemical_formula_sum   'K8 In4 H8 Cl20 O4'
_cell_volume   1045.50568893
_cell_formula_units_Z   4
loop_
 _symmetry_equiv_pos_site_id
 _symmetry_equiv_pos_as_xyz
  1  'x, y, z'
loop_
 _atom_site_type_symbol
 _atom_site_label
 _atom_site_symmetry_multiplicity
 _atom_site_fract_x
 _atom_site_fract_y
 _atom_site_fract_z
 _atom_site_occupancy
  K  K0  1  0.14747482  0.00027711  0.35899606  1
  K  K1  1  0.14747482  0.49972289  0.35899606  1
  K  K2  1  0.35252518  0.99972289  0.85899606  1
  K  K3  1  0.35252518  0.50027711  0.85899606  1
  K  K4  1  0.64747482  0.49972289  0.14100394  1
  K  K5  1  0.64747482  0.00027711  0.14100394  1
  K  K6  1  0.85252518  0.99972289  0.64100394  1
  K  K7  1  0.85252518  0.50027711  0.64100394  1
  In  In8  1  0.11335685  0.25000000  0.81320527  1
  In  In9  1  0.38664315  0.75000000  0.31320527  1
  In  In10  1  0.61335685  0.25000000  0.68679473  1
  In  In11  1  0.88664315  0.75000000  0.18679473  1
  H  H12  1  0.04724322  0.82980957  0.95713971  1
  H  H13  1  0.04724322  0.67019043  0.95713971  1
  H  H14  1  0.45275678  0.17019043  0.45713971  1
  H  H15  1  0.45275678  0.32980957  0.45713971  1
  H  H16  1  0.54724322  0.67019043  0.54286029  1
  H  H17  1  0.54724322  0.82980957  0.54286029  1
  H  H18  1  0.95275678  0.17019043  0.04286029  1
  H  H19  1  0.95275678  0.32980957  0.04286029  1
  Cl  Cl20  1  0.00241692  0.25000000  0.54165939  1
  Cl  Cl21  1  0.10597730  0.99863770  0.81538493  1
  Cl  Cl22  1  0.10597730  0.50136230  0.81538493  1
  Cl  Cl23  1  0.21776303  0.25000000  0.09001573  1
  Cl  Cl24  1  0.24398049  0.75000000  0.10518594  1
  Cl  Cl25  1  0.25601951  0.25000000  0.60518594  1
  Cl  Cl26  1  0.28223697  0.75000000  0.59001573  1
  Cl  Cl27  1  0.39402270  0.49863770  0.31538493  1
  Cl  Cl28  1  0.39402270  0.00136230  0.31538493  1
  Cl  Cl29  1  0.49758308  0.75000000  0.04165939  1
  Cl  Cl30  1  0.50241692  0.25000000  0.95834061  1
  Cl  Cl31  1  0.60597730  0.99863770  0.68461507  1
  Cl  Cl32  1  0.60597730  0.50136230  0.68461507  1
  Cl  Cl33  1  0.71776303  0.25000000  0.40998427  1
  Cl  Cl34  1  0.74398049  0.75000000  0.39481406  1
  Cl  Cl35  1  0.75601951  0.25000000  0.89481406  1
  Cl  Cl36  1  0.78223697  0.75000000  0.90998427  1
  Cl  Cl37  1  0.89402270  0.49863770  0.18461507  1
  Cl  Cl38  1  0.89402270  0.00136230  0.18461507  1
  Cl  Cl39  1  0.99758308  0.75000000  0.45834061  1
  O  O40  1  0.01199684  0.75000000  0.99644693  1
  O  O41  1  0.48800316  0.25000000  0.49644693  1
  O  O42  1  0.51199684  0.75000000  0.50355307  1
  O  O43  1  0.98800316  0.25000000  0.00355307  1
