# generated using pymatgen
data_TeMoWSeS2
_symmetry_space_group_name_H-M   'P 1'
_cell_length_a   3.30898702
_cell_length_b   3.30898805
_cell_length_c   37.66290319
_cell_angle_alpha   89.99960773
_cell_angle_beta   90.00000000
_cell_angle_gamma   119.99998970
_symmetry_Int_Tables_number   1
_chemical_formula_structural   TeMoWSeS2
_chemical_formula_sum   'Te2 Mo2 W2 Se2 S4'
_cell_volume   357.13690702
_cell_formula_units_Z   2
loop_
 _symmetry_equiv_pos_site_id
 _symmetry_equiv_pos_as_xyz
  1  'x, y, z'
loop_
 _atom_site_type_symbol
 _atom_site_label
 _atom_site_symmetry_multiplicity
 _atom_site_fract_x
 _atom_site_fract_y
 _atom_site_fract_z
 _atom_site_occupancy
  Te  Te0  1  0.66664931  0.33329762  0.41867503  1
  Te  Te1  1  0.66664787  0.33329473  0.52069613  1
  Mo  Mo2  1  0.33331137  0.66662274  0.09393419  1
  Mo  Mo3  1  0.66668742  0.33337483  0.28174826  1
  W  W4  1  0.33330939  0.66661877  0.46965993  1
  W  W5  1  0.66668962  0.33337924  0.65754822  1
  Se  Se6  1  0.33335043  0.66670187  0.32628811  1
  Se  Se7  1  0.33334919  0.66669938  0.23723919  1
  S  S8  1  0.33336080  0.66672260  0.69826330  1
  S  S9  1  0.66664602  0.33329104  0.05331082  1
  S  S10  1  0.66664497  0.33328893  0.13455341  1
  S  S11  1  0.33335362  0.66670824  0.61683143  1
