# generated using pymatgen
data_PrSO
_symmetry_space_group_name_H-M   'P 1'
_cell_length_a   5.90759545
_cell_length_b   7.21248645
_cell_length_c   5.90239565
_cell_angle_alpha   90.00000000
_cell_angle_beta   90.00000000
_cell_angle_gamma   114.17590023
_symmetry_Int_Tables_number   1
_chemical_formula_structural   PrSO
_chemical_formula_sum   'Pr4 S4 O4'
_cell_volume   229.43420222
_cell_formula_units_Z   4
loop_
 _symmetry_equiv_pos_site_id
 _symmetry_equiv_pos_as_xyz
  1  'x, y, z'
loop_
 _atom_site_type_symbol
 _atom_site_label
 _atom_site_symmetry_multiplicity
 _atom_site_fract_x
 _atom_site_fract_y
 _atom_site_fract_z
 _atom_site_occupancy
  Pr  Pr0  1  0.66147359  0.32294818  0.00000000  1
  Pr  Pr1  1  0.33852641  0.67705182  0.00000000  1
  Pr  Pr2  1  0.83852641  0.67705182  0.50000000  1
  Pr  Pr3  1  0.16147359  0.32294818  0.50000000  1
  S  S4  1  0.87348978  0.00000000  0.12664735  1
  S  S5  1  0.37348978  0.00000000  0.37335265  1
  S  S6  1  0.62651022  1.00000000  0.62664735  1
  S  S7  1  0.12651022  1.00000000  0.87335265  1
  O  O8  1  0.49560864  0.50000000  0.25000000  1
  O  O9  1  0.99560864  0.50000000  0.25000000  1
  O  O10  1  0.50439136  0.50000000  0.75000000  1
  O  O11  1  0.00439136  0.50000000  0.75000000  1
