# generated using pymatgen
data_Te2MoW3(SeS2)2
_symmetry_space_group_name_H-M   'P 1'
_cell_length_a   3.30863293
_cell_length_b   3.30871157
_cell_length_c   40.36190118
_cell_angle_alpha   89.99826929
_cell_angle_beta   90.00079205
_cell_angle_gamma   120.00101529
_symmetry_Int_Tables_number   1
_chemical_formula_structural   Te2MoW3(SeS2)2
_chemical_formula_sum   'Te2 Mo1 W3 Se2 S4'
_cell_volume   382.65315753
_cell_formula_units_Z   1
loop_
 _symmetry_equiv_pos_site_id
 _symmetry_equiv_pos_as_xyz
  1  'x, y, z'
loop_
 _atom_site_type_symbol
 _atom_site_label
 _atom_site_symmetry_multiplicity
 _atom_site_fract_x
 _atom_site_fract_y
 _atom_site_fract_z
 _atom_site_occupancy
  Te  Te0  1  0.66667457  0.33336747  0.42307098  1
  Te  Te1  1  0.66660053  0.33312709  0.51838729  1
  Mo  Mo2  1  0.33343555  0.66684020  0.09372571  1
  W  W3  1  0.33333786  0.66663414  0.47071427  1
  W  W4  1  0.66659381  0.33321355  0.28001274  1
  W  W5  1  0.66669414  0.33341779  0.65846242  1
  Se  Se6  1  0.33333071  0.66666378  0.32178774  1
  Se  Se7  1  0.33324555  0.66650703  0.23821843  1
  S  S8  1  0.33335997  0.66673382  0.69642105  1
  S  S9  1  0.66670141  0.33341320  0.05589115  1
  S  S10  1  0.66666593  0.33334021  0.13158082  1
  S  S11  1  0.33335998  0.66674172  0.62047541  1
