# generated using pymatgen
data_P2WO7
_symmetry_space_group_name_H-M   'P 1'
_cell_length_a   7.20532374
_cell_length_b   8.31322370
_cell_length_c   5.00591744
_cell_angle_alpha   90.00000000
_cell_angle_beta   71.05845546
_cell_angle_gamma   90.00000000
_symmetry_Int_Tables_number   1
_chemical_formula_structural   P2WO7
_chemical_formula_sum   'P4 W2 O14'
_cell_volume   283.61488984
_cell_formula_units_Z   2
loop_
 _symmetry_equiv_pos_site_id
 _symmetry_equiv_pos_as_xyz
  1  'x, y, z'
loop_
 _atom_site_type_symbol
 _atom_site_label
 _atom_site_symmetry_multiplicity
 _atom_site_fract_x
 _atom_site_fract_y
 _atom_site_fract_z
 _atom_site_occupancy
  P  P0  1  0.08906764  0.03243087  0.77816068  1
  P  P1  1  0.47415294  0.93424895  0.40702248  1
  P  P2  1  0.52584706  0.43424895  0.59297752  1
  P  P3  1  0.91093236  0.53243087  0.22183932  1
  W  W4  1  0.27977980  0.25751960  0.20763413  1
  W  W5  1  0.72022020  0.75751960  0.79236587  1
  O  O6  1  0.15169358  0.08492805  0.02856304  1
  O  O7  1  0.10139353  0.44166319  0.12867006  1
  O  O8  1  0.08915026  0.17847600  0.58580997  1
  O  O9  1  0.24985562  0.90174754  0.59933039  1
  O  O10  1  0.39755454  0.42555649  0.40134667  1
  O  O11  1  0.48547460  0.10068581  0.27949147  1
  O  O12  1  0.52126359  0.80078049  0.18301086  1
  O  O13  1  0.47873641  0.30078049  0.81698914  1
  O  O14  1  0.51452540  0.60068581  0.72050853  1
  O  O15  1  0.60244546  0.92555649  0.59865333  1
  O  O16  1  0.75014438  0.40174754  0.40066961  1
  O  O17  1  0.91084974  0.67847600  0.41419003  1
  O  O18  1  0.89860647  0.94166319  0.87132994  1
  O  O19  1  0.84830642  0.58492805  0.97143696  1
