# generated using pymatgen
data_Sr7W4O19
_symmetry_space_group_name_H-M   'P 1'
_cell_length_a   5.68070657
_cell_length_b   7.52605641
_cell_length_c   10.59431972
_cell_angle_alpha   82.48966800
_cell_angle_beta   90.00000000
_cell_angle_gamma   67.82711350
_symmetry_Int_Tables_number   1
_chemical_formula_structural   Sr7W4O19
_chemical_formula_sum   'Sr7 W4 O19'
_cell_volume   415.24794636
_cell_formula_units_Z   1
loop_
 _symmetry_equiv_pos_site_id
 _symmetry_equiv_pos_as_xyz
  1  'x, y, z'
loop_
 _atom_site_type_symbol
 _atom_site_label
 _atom_site_symmetry_multiplicity
 _atom_site_fract_x
 _atom_site_fract_y
 _atom_site_fract_z
 _atom_site_occupancy
  Sr  Sr0  1  0.14089091  0.71821719  0.95414357  1
  Sr  Sr1  1  0.58339885  0.83320130  0.16085012  1
  Sr  Sr2  1  0.20992302  0.58015396  0.58680676  1
  Sr  Sr3  1  0.79007698  0.41984604  0.41319324  1
  Sr  Sr4  1  0.41660115  0.16679870  0.83914988  1
  Sr  Sr5  1  0.85910909  0.28178281  0.04585643  1
  Sr  Sr6  1  0.50000000  0.00000000  0.50000000  1
  W  W7  1  0.03546333  0.92907334  0.31928455  1
  W  W8  1  0.67331436  0.65337228  0.78185355  1
  W  W9  1  0.32668564  0.34662772  0.21814645  1
  W  W10  1  0.96453667  0.07092666  0.68071545  1
  O  O11  1  0.31284137  0.85704322  0.71478924  1
  O  O12  1  0.83011541  0.85704322  0.71478924  1
  O  O13  1  0.60047423  0.79905154  0.92892138  1
  O  O14  1  0.04598558  0.90802983  0.14309537  1
  O  O15  1  0.36829774  0.75654312  0.37026695  1
  O  O16  1  0.87516014  0.75654312  0.37026695  1
  O  O17  1  0.69533842  0.60932216  0.60995200  1
  O  O18  1  0.00012940  0.48526361  0.84579893  1
  O  O19  1  0.51460700  0.48526361  0.84579893  1
  O  O20  1  0.48539300  0.51473639  0.15420107  1
  O  O21  1  -0.00012940  0.51473639  0.15420107  1
  O  O22  1  0.30466158  0.39067784  0.39004800  1
  O  O23  1  0.63170226  0.24345688  0.62973305  1
  O  O24  1  0.12483986  0.24345688  0.62973305  1
  O  O25  1  0.95401442  0.09197017  0.85690463  1
  O  O26  1  0.39952577  0.20094846  0.07107862  1
  O  O27  1  0.16988459  0.14295678  0.28521076  1
  O  O28  1  0.68715863  0.14295678  0.28521076  1
  O  O29  1  0.00000000  0.00000000  0.50000000  1
