# generated using pymatgen
data_Li5(NbS2)7
_symmetry_space_group_name_H-M   'P 1'
_cell_length_a   12.17978738
_cell_length_b   5.84954424
_cell_length_c   13.36633765
_cell_angle_alpha   77.35144048
_cell_angle_beta   79.92053836
_cell_angle_gamma   76.11707343
_symmetry_Int_Tables_number   1
_chemical_formula_structural   Li5(NbS2)7
_chemical_formula_sum   'Li10 Nb14 S28'
_cell_volume   894.47454841
_cell_formula_units_Z   2
loop_
 _symmetry_equiv_pos_site_id
 _symmetry_equiv_pos_as_xyz
  1  'x, y, z'
loop_
 _atom_site_type_symbol
 _atom_site_label
 _atom_site_symmetry_multiplicity
 _atom_site_fract_x
 _atom_site_fract_y
 _atom_site_fract_z
 _atom_site_occupancy
  Li  Li0  1  0.99836521  0.00080975  0.99997236  1
  Li  Li1  1  0.14285654  0.42857083  0.00000159  1
  Li  Li2  1  0.07149950  0.21406379  0.50001689  1
  Li  Li3  1  0.71423092  0.14271582  0.99996990  1
  Li  Li4  1  0.28734263  0.85633352  0.00003511  1
  Li  Li5  1  0.21422221  0.64306477  0.49998498  1
  Li  Li6  1  0.57149078  0.71441029  0.00002525  1
  Li  Li7  1  0.49836720  0.50086161  0.49996289  1
  Li  Li8  1  0.78734631  0.35628369  0.50002963  1
  Li  Li9  1  0.64286600  0.92856770  0.49999966  1
  Nb  Nb10  1  0.10710148  0.32344436  0.25005470  1
  Nb  Nb11  1  0.03532232  0.10824757  0.74986408  1
  Nb  Nb12  1  0.39284201  0.17870643  0.24998884  1
  Nb  Nb13  1  0.25035193  0.74885325  0.25012464  1
  Nb  Nb14  1  0.17855146  0.53372221  0.74995103  1
  Nb  Nb15  1  0.67860570  0.03778146  0.24994358  1
  Nb  Nb16  1  0.46368304  0.39353241  0.75073141  1
  Nb  Nb17  1  0.53533331  0.60635200  0.24988631  1
  Nb  Nb18  1  0.75037890  0.25075017  0.75010083  1
  Nb  Nb19  1  0.32205523  0.96506303  0.74930002  1
  Nb  Nb20  1  0.82203307  0.46368113  0.24928821  1
  Nb  Nb21  1  0.60710260  0.81936014  0.75005008  1
  Nb  Nb22  1  0.89290587  0.67839130  0.74998815  1
  Nb  Nb23  1  0.96366448  0.89214080  0.25071979  1
  S  S24  1  0.12433743  0.04003267  0.12854915  1
  S  S25  1  0.26789546  0.46773816  0.12878423  1
  S  S26  1  0.23332047  0.36354359  0.37117902  1
  S  S27  1  0.05240803  0.49352297  0.62877198  1
  S  S28  1  0.01778986  0.38928420  0.87123824  1
  S  S29  1  0.55241419  0.32522596  0.12877155  1
  S  S30  1  0.30460850  0.24550271  0.87129362  1
  S  S31  1  0.08942794  0.93595316  0.37085813  1
  S  S32  1  0.33876030  0.34868665  0.62884139  1
  S  S33  1  0.51779618  0.22145694  0.37124198  1
  S  S34  1  0.83878195  0.18379061  0.12880962  1
  S  S35  1  0.41018327  0.89824157  0.12892351  1
  S  S36  1  0.80463246  0.07857494  0.37129326  1
  S  S37  1  0.16137574  0.81713243  0.87146745  1
  S  S38  1  0.62431961  0.20720440  0.62856097  1
  S  S39  1  0.58944986  0.10374396  0.87083849  1
  S  S40  1  0.19627318  0.92122225  0.62917930  1
  S  S41  1  0.37549870  0.79453563  0.37105742  1
  S  S42  1  0.69627874  0.75337062  0.12918096  1
  S  S43  1  0.66140488  0.64998078  0.37146827  1
  S  S44  1  0.44690764  0.67339269  0.87121533  1
  S  S45  1  0.48106907  0.77864783  0.62868564  1
  S  S46  1  0.91016366  0.06262014  0.62888988  1
  S  S47  1  0.98108051  0.61178315  0.12870777  1
  S  S48  1  0.94691248  0.50857164  0.37119643  1
  S  S49  1  0.76794877  0.63561775  0.62877318  1
  S  S50  1  0.73332899  0.53187839  0.87116868  1
  S  S51  1  0.87548543  0.95884918  0.87106057  1
