# generated using pymatgen
data_YbHfO3
_symmetry_space_group_name_H-M   'P 1'
_cell_length_a   5.72589548
_cell_length_b   7.96073237
_cell_length_c   5.53038890
_cell_angle_alpha   90.00000000
_cell_angle_beta   90.00000000
_cell_angle_gamma   90.00000000
_symmetry_Int_Tables_number   1
_chemical_formula_structural   YbHfO3
_chemical_formula_sum   'Yb4 Hf4 O12'
_cell_volume   252.08796483
_cell_formula_units_Z   4
loop_
 _symmetry_equiv_pos_site_id
 _symmetry_equiv_pos_as_xyz
  1  'x, y, z'
loop_
 _atom_site_type_symbol
 _atom_site_label
 _atom_site_symmetry_multiplicity
 _atom_site_fract_x
 _atom_site_fract_y
 _atom_site_fract_z
 _atom_site_occupancy
  Yb  Yb0  1  0.05283972  0.25000000  0.98727958  1
  Yb  Yb1  1  0.44716028  0.75000000  0.48727958  1
  Yb  Yb2  1  0.55283972  0.25000000  0.51272042  1
  Yb  Yb3  1  0.94716028  0.75000000  0.01272042  1
  Hf  Hf4  1  0.00000000  0.00000000  0.50000000  1
  Hf  Hf5  1  0.00000000  0.50000000  0.50000000  1
  Hf  Hf6  1  0.50000000  0.00000000  0.00000000  1
  Hf  Hf7  1  0.50000000  0.50000000  0.00000000  1
  O  O8  1  0.04105061  0.75000000  0.60693665  1
  O  O9  1  0.19611961  0.55543164  0.19339746  1
  O  O10  1  0.19611961  0.94456836  0.19339746  1
  O  O11  1  0.30388039  0.05543164  0.69339746  1
  O  O12  1  0.30388039  0.44456836  0.69339746  1
  O  O13  1  0.45894939  0.25000000  0.10693665  1
  O  O14  1  0.54105061  0.75000000  0.89306335  1
  O  O15  1  0.69611961  0.55543164  0.30660254  1
  O  O16  1  0.69611961  0.94456836  0.30660254  1
  O  O17  1  0.80388039  0.05543164  0.80660254  1
  O  O18  1  0.80388039  0.44456836  0.80660254  1
  O  O19  1  0.95894939  0.25000000  0.39306335  1
