# generated using pymatgen
data_TeMoWSeS2
_symmetry_space_group_name_H-M   'P 1'
_cell_length_a   3.30829611
_cell_length_b   3.30827811
_cell_length_c   37.63205613
_cell_angle_alpha   89.99955178
_cell_angle_beta   90.00000000
_cell_angle_gamma   120.00017991
_symmetry_Int_Tables_number   1
_chemical_formula_structural   TeMoWSeS2
_chemical_formula_sum   'Te2 Mo2 W2 Se2 S4'
_cell_volume   356.69266406
_cell_formula_units_Z   2
loop_
 _symmetry_equiv_pos_site_id
 _symmetry_equiv_pos_as_xyz
  1  'x, y, z'
loop_
 _atom_site_type_symbol
 _atom_site_label
 _atom_site_symmetry_multiplicity
 _atom_site_fract_x
 _atom_site_fract_y
 _atom_site_fract_z
 _atom_site_occupancy
  Te  Te0  1  0.66664897  0.33329693  0.41857489  1
  Te  Te1  1  0.66664508  0.33328916  0.52072205  1
  Mo  Mo2  1  0.33330681  0.66661362  0.09393178  1
  Mo  Mo3  1  0.66670352  0.33340704  0.28178559  1
  W  W4  1  0.33331136  0.66662273  0.46964883  1
  W  W5  1  0.66668916  0.33337832  0.65756148  1
  Se  Se6  1  0.66664684  0.33329269  0.04935985  1
  Se  Se7  1  0.66663776  0.33327452  0.13848992  1
  S  S8  1  0.33334734  0.66669567  0.32240992  1
  S  S9  1  0.33335858  0.66671815  0.69829165  1
  S  S10  1  0.33334775  0.66669650  0.24116175  1
  S  S11  1  0.33335683  0.66671466  0.61681029  1
