# generated using pymatgen
data_Nb3P6WO24
_symmetry_space_group_name_H-M   'P 1'
_cell_length_a   9.07141916
_cell_length_b   9.07141915
_cell_length_c   9.07142023
_cell_angle_alpha   58.51358399
_cell_angle_beta   58.51358554
_cell_angle_gamma   58.51358146
_symmetry_Int_Tables_number   1
_chemical_formula_structural   Nb3P6WO24
_chemical_formula_sum   'Nb3 P6 W1 O24'
_cell_volume   509.90313048
_cell_formula_units_Z   1
loop_
 _symmetry_equiv_pos_site_id
 _symmetry_equiv_pos_as_xyz
  1  'x, y, z'
loop_
 _atom_site_type_symbol
 _atom_site_label
 _atom_site_symmetry_multiplicity
 _atom_site_fract_x
 _atom_site_fract_y
 _atom_site_fract_z
 _atom_site_occupancy
  Nb  Nb0  1  0.14033428  0.14033428  0.14033428  1
  Nb  Nb1  1  0.35835568  0.35835568  0.35835568  1
  Nb  Nb2  1  0.64013143  0.64013143  0.64013143  1
  P  P3  1  0.03395720  0.74940904  0.46588883  1
  P  P4  1  0.46588883  0.03395720  0.74940904  1
  P  P5  1  0.74940904  0.46588883  0.03395720  1
  P  P6  1  0.25047252  0.53214424  0.96802208  1
  P  P7  1  0.53214424  0.96802208  0.25047252  1
  P  P8  1  0.96802208  0.25047252  0.53214424  1
  W  W9  1  0.85836732  0.85836732  0.85836732  1
  O  O10  1  0.13394774  0.29021973  0.49216194  1
  O  O11  1  0.29021973  0.49216194  0.13394774  1
  O  O12  1  0.06323227  0.92002780  0.28779819  1
  O  O13  1  0.49216194  0.13394774  0.29021973  1
  O  O14  1  0.20852079  0.58067128  0.42726673  1
  O  O15  1  0.01972424  0.77110620  0.62665470  1
  O  O16  1  0.28779819  0.06323227  0.92002780  1
  O  O17  1  0.42726673  0.20852079  0.58067128  1
  O  O18  1  0.58067128  0.42726673  0.20852079  1
  O  O19  1  0.22415436  0.36082412  0.99829537  1
  O  O20  1  0.08932224  0.70657873  0.94492056  1
  O  O21  1  0.36082412  0.99829537  0.22415436  1
  O  O22  1  0.62665470  0.01972424  0.77110620  1
  O  O23  1  0.92002780  0.28779819  0.06323227  1
  O  O24  1  0.77110620  0.62665470  0.01972424  1
  O  O25  1  0.42681283  0.55519554  0.79406484  1
  O  O26  1  0.55519554  0.79406484  0.42681283  1
  O  O27  1  0.70657873  0.94492056  0.08932224  1
  O  O28  1  0.99829537  0.22415436  0.36082412  1
  O  O29  1  0.79406484  0.42681283  0.55519554  1
  O  O30  1  0.49653399  0.86518508  0.71970007  1
  O  O31  1  0.94492056  0.08932224  0.70657873  1
  O  O32  1  0.71970007  0.49653399  0.86518508  1
  O  O33  1  0.86518508  0.71970007  0.49653399  1
