# generated using pymatgen
data_Li(NiO2)2
_symmetry_space_group_name_H-M   'P 1'
_cell_length_a   8.11276202
_cell_length_b   8.11278462
_cell_length_c   8.11269337
_cell_angle_alpha   89.99530058
_cell_angle_beta   89.99781602
_cell_angle_gamma   90.00046403
_symmetry_Int_Tables_number   1
_chemical_formula_structural   Li(NiO2)2
_chemical_formula_sum   'Li8 Ni16 O32'
_cell_volume   533.95387490
_cell_formula_units_Z   8
loop_
 _symmetry_equiv_pos_site_id
 _symmetry_equiv_pos_as_xyz
  1  'x, y, z'
loop_
 _atom_site_type_symbol
 _atom_site_label
 _atom_site_symmetry_multiplicity
 _atom_site_fract_x
 _atom_site_fract_y
 _atom_site_fract_z
 _atom_site_occupancy
  Li  Li0  1  0.00630347  0.00630352  0.00630426  1
  Li  Li1  1  0.24369309  0.24370239  0.24369021  1
  Li  Li2  1  0.25629708  0.75630462  0.74370371  1
  Li  Li3  1  0.49369969  0.99370371  0.50630079  1
  Li  Li4  1  0.50630966  0.49369822  0.99370656  1
  Li  Li5  1  0.74370311  0.25630753  0.75631401  1
  Li  Li6  1  0.75630727  0.74369355  0.25629664  1
  Li  Li7  1  0.99369932  0.50630113  0.49369874  1
  Ni  Ni8  1  0.11559154  0.13440424  0.62500966  1
  Ni  Ni9  1  0.12500095  0.38439874  0.86560982  1
  Ni  Ni10  1  0.12499620  0.87500622  0.37500872  1
  Ni  Ni11  1  0.13439399  0.62500927  0.11560055  1
  Ni  Ni12  1  0.36560780  0.37498891  0.61560004  1
  Ni  Ni13  1  0.37500903  0.12500366  0.87500604  1
  Ni  Ni14  1  0.37499683  0.61560303  0.36560535  1
  Ni  Ni15  1  0.38439706  0.86561273  0.12500654  1
  Ni  Ni16  1  0.61559483  0.36559509  0.37499481  1
  Ni  Ni17  1  0.62500902  0.11560681  0.13440125  1
  Ni  Ni18  1  0.62499505  0.62499968  0.62499845  1
  Ni  Ni19  1  0.63438873  0.87499392  0.88440287  1
  Ni  Ni20  1  0.86560936  0.12501565  0.38440113  1
  Ni  Ni21  1  0.87500008  0.37500256  0.12500052  1
  Ni  Ni22  1  0.87499383  0.88439909  0.63439528  1
  Ni  Ni23  1  0.88440270  0.63439926  0.87499673  1
  O  O24  1  0.09538559  0.12696250  0.39460300  1
  O  O25  1  0.10540053  0.90462249  0.62696279  1
  O  O26  1  0.11697432  0.61697956  0.88301997  1
  O  O27  1  0.12305200  0.15462326  0.85542187  1
  O  O28  1  0.12695864  0.39460060  0.09538584  1
  O  O29  1  0.13302845  0.36696737  0.63303189  1
  O  O30  1  0.14457799  0.62305551  0.34538588  1
  O  O31  1  0.15461718  0.85542490  0.12305543  1
  O  O32  1  0.34537880  0.14457914  0.62305556  1
  O  O33  1  0.35542116  0.37695432  0.84538924  1
  O  O34  1  0.36697070  0.63303732  0.13302712  1
  O  O35  1  0.37303975  0.60540613  0.59539057  1
  O  O36  1  0.37694662  0.84538700  0.35542604  1
  O  O37  1  0.38302715  0.38301974  0.38301800  1
  O  O38  1  0.39459918  0.09538702  0.12696592  1
  O  O39  1  0.40461146  0.87304764  0.89460050  1
  O  O40  1  0.59538752  0.37304206  0.60540422  1
  O  O41  1  0.60540438  0.59538065  0.37303967  1
  O  O42  1  0.61697517  0.88302608  0.11698361  1
  O  O43  1  0.62305608  0.34538067  0.14458576  1
  O  O44  1  0.62695807  0.10540465  0.90462007  1
  O  O45  1  0.63303648  0.13303880  0.36697292  1
  O  O46  1  0.64457785  0.87694787  0.65461783  1
  O  O47  1  0.65462005  0.64458366  0.87695308  1
  O  O48  1  0.84537914  0.35542407  0.37695187  1
  O  O49  1  0.85542381  0.12305573  0.15461997  1
  O  O50  1  0.86696752  0.86696916  0.86696973  1
  O  O51  1  0.87304208  0.89460043  0.40461373  1
  O  O52  1  0.87694759  0.65462046  0.64458097  1
  O  O53  1  0.88302542  0.11697771  0.61698047  1
  O  O54  1  0.89459558  0.40462220  0.87304489  1
  O  O55  1  0.90461503  0.62695880  0.10540290  1
