# generated using pymatgen
data_V2CoO6
_symmetry_space_group_name_H-M   'P 1'
_cell_length_a   6.76295199
_cell_length_b   6.76295166
_cell_length_c   5.89790982
_cell_angle_alpha   75.01774460
_cell_angle_beta   104.98226474
_cell_angle_gamma   95.69662466
_symmetry_Int_Tables_number   1
_chemical_formula_structural   V2CoO6
_chemical_formula_sum   'V4 Co2 O12'
_cell_volume   251.57523895
_cell_formula_units_Z   2
loop_
 _symmetry_equiv_pos_site_id
 _symmetry_equiv_pos_as_xyz
  1  'x, y, z'
loop_
 _atom_site_type_symbol
 _atom_site_label
 _atom_site_symmetry_multiplicity
 _atom_site_fract_x
 _atom_site_fract_y
 _atom_site_fract_z
 _atom_site_occupancy
  V  V0  1  0.20588823  0.61099558  0.76283206  1
  V  V1  1  0.38900442  0.79411177  0.26283206  1
  V  V2  1  0.61099558  0.20588823  0.73716794  1
  V  V3  1  0.79411177  0.38900442  0.23716794  1
  Co  Co4  1  0.08561778  0.08561778  0.75000000  1
  Co  Co5  1  0.91438222  0.91438222  0.25000000  1
  O  O6  1  0.03428819  0.80448215  0.64663737  1
  O  O7  1  0.08840460  0.37703284  0.78438538  1
  O  O8  1  0.19551785  0.96571181  0.14663737  1
  O  O9  1  0.36760502  0.64394955  0.55605800  1
  O  O10  1  0.37703284  0.08840460  0.71561462  1
  O  O11  1  0.35605045  0.63239498  0.05605800  1
  O  O12  1  0.64394955  0.36760502  0.94394200  1
  O  O13  1  0.62296716  0.91159540  0.28438538  1
  O  O14  1  0.63239498  0.35605045  0.44394200  1
  O  O15  1  0.80448215  0.03428819  0.85336263  1
  O  O16  1  0.91159540  0.62296716  0.21561462  1
  O  O17  1  0.96571181  0.19551785  0.35336263  1
