# generated using pymatgen
data_V4CoNiO12
_symmetry_space_group_name_H-M   'P 1'
_cell_length_a   6.75016048
_cell_length_b   6.75016031
_cell_length_c   5.85704913
_cell_angle_alpha   74.81437208
_cell_angle_beta   105.18563020
_cell_angle_gamma   95.70892262
_symmetry_Int_Tables_number   1
_chemical_formula_structural   V4CoNiO12
_chemical_formula_sum   'V4 Co1 Ni1 O12'
_cell_volume   248.42608177
_cell_formula_units_Z   1
loop_
 _symmetry_equiv_pos_site_id
 _symmetry_equiv_pos_as_xyz
  1  'x, y, z'
loop_
 _atom_site_type_symbol
 _atom_site_label
 _atom_site_symmetry_multiplicity
 _atom_site_fract_x
 _atom_site_fract_y
 _atom_site_fract_z
 _atom_site_occupancy
  V  V0  1  0.20306971  0.61212242  0.75877440  1
  V  V1  1  0.38907872  0.79464108  0.26120275  1
  V  V2  1  0.61212242  0.20306971  0.74122560  1
  V  V3  1  0.79464108  0.38907872  0.23879725  1
  Co  Co4  1  0.08632132  0.08632132  0.75000000  1
  Ni  Ni5  1  0.91668953  0.91668953  0.25000000  1
  O  O6  1  0.03189918  0.80737857  0.63745415  1
  O  O7  1  0.08611638  0.37818507  0.78249812  1
  O  O8  1  0.19620886  0.96748878  0.14439939  1
  O  O9  1  0.36806446  0.64290572  0.55644631  1
  O  O10  1  0.37818507  0.08611638  0.71750188  1
  O  O11  1  0.35378335  0.63247551  0.05364829  1
  O  O12  1  0.64290572  0.36806446  0.94355369  1
  O  O13  1  0.62175129  0.91182105  0.28278290  1
  O  O14  1  0.63247551  0.35378335  0.44635171  1
  O  O15  1  0.80737857  0.03189918  0.86254585  1
  O  O16  1  0.91182105  0.62175129  0.21721710  1
  O  O17  1  0.96748878  0.19620886  0.35560061  1
