# generated using pymatgen
data_Li3CrO4
_symmetry_space_group_name_H-M   'P 1'
_cell_length_a   6.40288410
_cell_length_b   5.46588948
_cell_length_c   5.00897424
_cell_angle_alpha   90.00000000
_cell_angle_beta   90.00000000
_cell_angle_gamma   90.00000000
_symmetry_Int_Tables_number   1
_chemical_formula_structural   Li3CrO4
_chemical_formula_sum   'Li6 Cr2 O8'
_cell_volume   175.30135980
_cell_formula_units_Z   2
loop_
 _symmetry_equiv_pos_site_id
 _symmetry_equiv_pos_as_xyz
  1  'x, y, z'
loop_
 _atom_site_type_symbol
 _atom_site_label
 _atom_site_symmetry_multiplicity
 _atom_site_fract_x
 _atom_site_fract_y
 _atom_site_fract_z
 _atom_site_occupancy
  Li  Li0  1  0.00000000  0.16373677  0.48970638  1
  Li  Li1  1  0.24742640  0.33062077  0.99065331  1
  Li  Li2  1  0.25257360  0.66937923  0.49065331  1
  Li  Li3  1  0.50000000  0.83626323  0.98970638  1
  Li  Li4  1  0.74742640  0.66937923  0.49065331  1
  Li  Li5  1  0.75257360  0.33062077  0.99065331  1
  Cr  Cr6  1  0.00000000  0.82779872  0.99798360  1
  Cr  Cr7  1  0.50000000  0.17220128  0.49798360  1
  O  O8  1  0.00000000  0.12783095  0.88713031  1
  O  O9  1  0.00000000  0.82161100  0.34341797  1
  O  O10  1  0.22586319  0.68306628  0.89259456  1
  O  O11  1  0.27413681  0.31693372  0.39259456  1
  O  O12  1  0.50000000  0.17838900  0.84341797  1
  O  O13  1  0.50000000  0.87216905  0.38713031  1
  O  O14  1  0.72586319  0.31693372  0.39259456  1
  O  O15  1  0.77413681  0.68306628  0.89259456  1
