# generated using pymatgen
data_Cs6Ti2O7
_symmetry_space_group_name_H-M   'P 1'
_cell_length_a   7.32792358
_cell_length_b   10.11518637
_cell_length_c   10.18012942
_cell_angle_alpha   90.00000000
_cell_angle_beta   88.37187205
_cell_angle_gamma   90.00000000
_symmetry_Int_Tables_number   1
_chemical_formula_structural   Cs6Ti2O7
_chemical_formula_sum   'Cs12 Ti4 O14'
_cell_volume   754.28028072
_cell_formula_units_Z   2
loop_
 _symmetry_equiv_pos_site_id
 _symmetry_equiv_pos_as_xyz
  1  'x, y, z'
loop_
 _atom_site_type_symbol
 _atom_site_label
 _atom_site_symmetry_multiplicity
 _atom_site_fract_x
 _atom_site_fract_y
 _atom_site_fract_z
 _atom_site_occupancy
  Cs  Cs0  1  0.12590598  0.28961964  0.28039502  1
  Cs  Cs1  1  0.12039498  0.15022009  0.92461928  1
  Cs  Cs2  1  0.24560512  0.02521012  0.55045881  1
  Cs  Cs3  1  0.25439488  0.52521012  0.94954119  1
  Cs  Cs4  1  0.37409402  0.78961964  0.21960498  1
  Cs  Cs5  1  0.37960502  0.65022009  0.57538072  1
  Cs  Cs6  1  0.62039498  0.34977991  0.42461928  1
  Cs  Cs7  1  0.62590598  0.21038036  0.78039502  1
  Cs  Cs8  1  0.74560512  0.47478988  0.05045881  1
  Cs  Cs9  1  0.75439488  0.97478988  0.44954119  1
  Cs  Cs10  1  0.87960502  0.84977991  0.07538072  1
  Cs  Cs11  1  0.87409402  0.71038036  0.71960498  1
  Ti  Ti12  1  0.05105911  0.36497786  0.62755838  1
  Ti  Ti13  1  0.44894089  0.86497786  0.87244162  1
  Ti  Ti14  1  0.55105911  0.13502214  0.12755838  1
  Ti  Ti15  1  0.94894089  0.63502214  0.37244162  1
  O  O16  1  0.00000000  0.50000000  0.50000000  1
  O  O17  1  0.04306089  0.58945003  0.21110544  1
  O  O18  1  0.06257732  0.78506264  0.42637073  1
  O  O19  1  0.20258643  0.83811243  0.86495420  1
  O  O20  1  0.29741357  0.33811243  0.63504580  1
  O  O21  1  0.43742268  0.28506264  0.07362927  1
  O  O22  1  0.45693911  0.08945003  0.28889456  1
  O  O23  1  0.50000000  0.00000000  0.00000000  1
  O  O24  1  0.54306089  0.91054997  0.71110544  1
  O  O25  1  0.56257732  0.71493736  0.92637073  1
  O  O26  1  0.70258643  0.66188757  0.36495420  1
  O  O27  1  0.79741357  0.16188757  0.13504580  1
  O  O28  1  0.93742268  0.21493736  0.57362927  1
  O  O29  1  0.95693911  0.41054997  0.78889456  1
