# generated using pymatgen
data_Dy2WO6
_symmetry_space_group_name_H-M   'P 1'
_cell_length_a   7.70792865
_cell_length_b   5.39953479
_cell_length_c   11.48583220
_cell_angle_alpha   90.00000000
_cell_angle_beta   104.52972361
_cell_angle_gamma   90.00000000
_symmetry_Int_Tables_number   1
_chemical_formula_structural   Dy2WO6
_chemical_formula_sum   'Dy8 W4 O24'
_cell_volume   462.74289434
_cell_formula_units_Z   4
loop_
 _symmetry_equiv_pos_site_id
 _symmetry_equiv_pos_as_xyz
  1  'x, y, z'
loop_
 _atom_site_type_symbol
 _atom_site_label
 _atom_site_symmetry_multiplicity
 _atom_site_fract_x
 _atom_site_fract_y
 _atom_site_fract_z
 _atom_site_occupancy
  Dy  Dy0  1  0.00000000  0.26205060  0.75000000  1
  Dy  Dy1  1  0.00000000  0.73794940  0.25000000  1
  Dy  Dy2  1  0.20326036  0.81179187  0.57786727  1
  Dy  Dy3  1  0.20326036  0.18820813  0.07786727  1
  Dy  Dy4  1  0.50000000  0.31629908  0.75000000  1
  Dy  Dy5  1  0.50000000  0.68370092  0.25000000  1
  Dy  Dy6  1  0.79673964  0.81179187  0.92213273  1
  Dy  Dy7  1  0.79673964  0.18820813  0.42213273  1
  W  W8  1  0.27848783  0.74577860  0.88631540  1
  W  W9  1  0.27848783  0.25422140  0.38631540  1
  W  W10  1  0.72151217  0.74577860  0.61368460  1
  W  W11  1  0.72151217  0.25422140  0.11368460  1
  O  O12  1  0.06155346  0.96124987  0.89587347  1
  O  O13  1  0.14886900  0.47385771  0.93084621  1
  O  O14  1  0.06155346  0.03875013  0.39587347  1
  O  O15  1  0.21337306  0.53656078  0.72826692  1
  O  O16  1  0.14886900  0.52614229  0.43084621  1
  O  O17  1  0.29052039  0.01476134  0.77104841  1
  O  O18  1  0.21337306  0.46343922  0.22826692  1
  O  O19  1  0.36595454  0.14775661  0.54819859  1
  O  O20  1  0.51057893  0.63637423  0.88762758  1
  O  O21  1  0.29052039  0.98523866  0.27104841  1
  O  O22  1  0.48942107  0.63637423  0.61237242  1
  O  O23  1  0.63404546  0.14775661  0.95180141  1
  O  O24  1  0.36595454  0.85224339  0.04819859  1
  O  O25  1  0.51057893  0.36362577  0.38762758  1
  O  O26  1  0.70947961  0.01476134  0.72895159  1
  O  O27  1  0.48942107  0.36362577  0.11237242  1
  O  O28  1  0.63404546  0.85224339  0.45180141  1
  O  O29  1  0.78662694  0.53656078  0.77173308  1
  O  O30  1  0.70947961  0.98523866  0.22895159  1
  O  O31  1  0.85113100  0.47385771  0.56915379  1
  O  O32  1  0.78662694  0.46343922  0.27173308  1
  O  O33  1  0.93844654  0.96124987  0.60412653  1
  O  O34  1  0.85113100  0.52614229  0.06915379  1
  O  O35  1  0.93844654  0.03875013  0.10412653  1
