# generated using pymatgen
data_RbNa3Li12Ti4O16
_symmetry_space_group_name_H-M   'P 1'
_cell_length_a   8.69982680
_cell_length_b   8.69982680
_cell_length_c   8.69982680
_cell_angle_alpha   98.26248488
_cell_angle_beta   98.26248488
_cell_angle_gamma   135.44550406
_symmetry_Int_Tables_number   1
_chemical_formula_structural   RbNa3Li12Ti4O16
_chemical_formula_sum   'Rb1 Na3 Li12 Ti4 O16'
_cell_volume   427.48850531
_cell_formula_units_Z   1
loop_
 _symmetry_equiv_pos_site_id
 _symmetry_equiv_pos_as_xyz
  1  'x, y, z'
loop_
 _atom_site_type_symbol
 _atom_site_label
 _atom_site_symmetry_multiplicity
 _atom_site_fract_x
 _atom_site_fract_y
 _atom_site_fract_z
 _atom_site_occupancy
  Rb  Rb0  1  0.00000000  0.00000000  0.00000000  1
  Na  Na1  1  0.50000000  0.50000000  0.00000000  1
  Na  Na2  1  0.75000000  0.25000000  0.50000000  1
  Na  Na3  1  0.25000000  0.75000000  0.50000000  1
  Li  Li4  1  0.72114824  0.08136833  0.80251658  1
  Li  Li5  1  0.47680392  0.34400865  0.32717698  1
  Li  Li6  1  0.98316832  0.85037305  0.32717698  1
  Li  Li7  1  0.91863167  0.72114824  0.63978091  1
  Li  Li8  1  0.14962695  0.47680392  0.13279527  1
  Li  Li9  1  0.65599135  0.98316832  0.13279527  1
  Li  Li10  1  0.34400865  0.01683168  0.86720473  1
  Li  Li11  1  0.85037305  0.52319608  0.86720473  1
  Li  Li12  1  0.08136833  0.27885176  0.36021909  1
  Li  Li13  1  0.52319608  0.65599135  0.67282302  1
  Li  Li14  1  0.01683168  0.14962695  0.67282302  1
  Li  Li15  1  0.27885176  0.91863167  0.19748342  1
  Ti  Ti16  1  0.77733619  0.41946938  0.19680558  1
  Ti  Ti17  1  0.41946938  0.22266381  0.64213219  1
  Ti  Ti18  1  0.58053062  0.77733619  0.35786781  1
  Ti  Ti19  1  0.22266381  0.58053062  0.80319442  1
  O  O20  1  0.90662164  0.32262488  0.22924552  1
  O  O21  1  0.45606842  0.18167450  0.10208870  1
  O  O22  1  0.92041520  0.64602128  0.10208870  1
  O  O23  1  0.83259890  0.57151073  0.40410963  1
  O  O24  1  0.32262488  0.09337836  0.41600325  1
  O  O25  1  0.57151073  0.16740110  0.73891082  1
  O  O26  1  0.35397872  0.45606842  0.27439392  1
  O  O27  1  0.81832550  0.92041520  0.27439392  1
  O  O28  1  0.64602128  0.54393158  0.72560608  1
  O  O29  1  0.18167450  0.07958480  0.72560608  1
  O  O30  1  0.42848927  0.83259890  0.26108918  1
  O  O31  1  0.67737512  0.90662164  0.58399675  1
  O  O32  1  0.16740110  0.42848927  0.59589037  1
  O  O33  1  0.07958480  0.35397872  0.89791130  1
  O  O34  1  0.54393158  0.81832550  0.89791130  1
  O  O35  1  0.09337836  0.67737512  0.77075448  1
