# generated using pymatgen
data_Tm2WO6
_symmetry_space_group_name_H-M   'P 1'
_cell_length_a   7.62013316
_cell_length_b   5.33015914
_cell_length_c   11.35534522
_cell_angle_alpha   90.00000000
_cell_angle_beta   104.77884424
_cell_angle_gamma   90.00000000
_symmetry_Int_Tables_number   1
_chemical_formula_structural   Tm2WO6
_chemical_formula_sum   'Tm8 W4 O24'
_cell_volume   445.95656600
_cell_formula_units_Z   4
loop_
 _symmetry_equiv_pos_site_id
 _symmetry_equiv_pos_as_xyz
  1  'x, y, z'
loop_
 _atom_site_type_symbol
 _atom_site_label
 _atom_site_symmetry_multiplicity
 _atom_site_fract_x
 _atom_site_fract_y
 _atom_site_fract_z
 _atom_site_occupancy
  Tm  Tm0  1  0.00000000  0.26182544  0.75000000  1
  Tm  Tm1  1  0.00000000  0.73817456  0.25000000  1
  Tm  Tm2  1  0.20314731  0.81318517  0.57853598  1
  Tm  Tm3  1  0.20314731  0.18681483  0.07853598  1
  Tm  Tm4  1  0.50000000  0.31620303  0.75000000  1
  Tm  Tm5  1  0.50000000  0.68379697  0.25000000  1
  Tm  Tm6  1  0.79685269  0.81318517  0.92146402  1
  Tm  Tm7  1  0.79685269  0.18681483  0.42146402  1
  W  W8  1  0.27870839  0.74507790  0.88651190  1
  W  W9  1  0.27870839  0.25492210  0.38651190  1
  W  W10  1  0.72129161  0.74507790  0.61348810  1
  W  W11  1  0.72129161  0.25492210  0.11348810  1
  O  O12  1  0.05971834  0.96250665  0.89579378  1
  O  O13  1  0.14857767  0.46853399  0.93083573  1
  O  O14  1  0.05971834  0.03749335  0.39579378  1
  O  O15  1  0.21153686  0.53544557  0.72646696  1
  O  O16  1  0.14857767  0.53146601  0.43083573  1
  O  O17  1  0.29001718  0.01807243  0.76979550  1
  O  O18  1  0.21153686  0.46455443  0.22646696  1
  O  O19  1  0.36696586  0.14708864  0.55026106  1
  O  O20  1  0.51329378  0.63626267  0.88712090  1
  O  O21  1  0.29001718  0.98192757  0.26979550  1
  O  O22  1  0.48670622  0.63626267  0.61287910  1
  O  O23  1  0.63303414  0.14708864  0.94973894  1
  O  O24  1  0.36696586  0.85291136  0.05026106  1
  O  O25  1  0.51329378  0.36373733  0.38712090  1
  O  O26  1  0.70998282  0.01807243  0.73020450  1
  O  O27  1  0.48670622  0.36373733  0.11287910  1
  O  O28  1  0.63303414  0.85291136  0.44973894  1
  O  O29  1  0.78846314  0.53544557  0.77353304  1
  O  O30  1  0.70998282  0.98192757  0.23020450  1
  O  O31  1  0.85142233  0.46853399  0.56916427  1
  O  O32  1  0.78846314  0.46455443  0.27353304  1
  O  O33  1  0.94028166  0.96250665  0.60420622  1
  O  O34  1  0.85142233  0.53146601  0.06916427  1
  O  O35  1  0.94028166  0.03749335  0.10420622  1
