# generated using pymatgen
data_K2TeO4
_symmetry_space_group_name_H-M   'P 1'
_cell_length_a   6.38847596
_cell_length_b   8.32225215
_cell_length_c   12.13219356
_cell_angle_alpha   90.00000000
_cell_angle_beta   116.04575169
_cell_angle_gamma   90.00000000
_symmetry_Int_Tables_number   1
_chemical_formula_structural   K2TeO4
_chemical_formula_sum   'K8 Te4 O16'
_cell_volume   579.51988095
_cell_formula_units_Z   4
loop_
 _symmetry_equiv_pos_site_id
 _symmetry_equiv_pos_as_xyz
  1  'x, y, z'
loop_
 _atom_site_type_symbol
 _atom_site_label
 _atom_site_symmetry_multiplicity
 _atom_site_fract_x
 _atom_site_fract_y
 _atom_site_fract_z
 _atom_site_occupancy
  K  K0  1  0.21929181  0.75305259  0.90885564  1
  K  K1  1  0.48110650  0.49632007  0.72565832  1
  K  K2  1  0.21929181  0.74694741  0.40885564  1
  K  K3  1  0.51889350  0.99632007  0.77434168  1
  K  K4  1  0.48110650  0.00367993  0.22565832  1
  K  K5  1  0.78070819  0.25305259  0.59114436  1
  K  K6  1  0.51889350  0.50367993  0.27434168  1
  K  K7  1  0.78070819  0.24694741  0.09114436  1
  Te  Te8  1  0.13483104  0.27142666  0.93044234  1
  Te  Te9  1  0.13483104  0.22857334  0.43044234  1
  Te  Te10  1  0.86516896  0.77142666  0.56955766  1
  Te  Te11  1  0.86516896  0.72857334  0.06955766  1
  O  O12  1  0.27097397  0.08149644  0.91767972  1
  O  O13  1  0.24020246  0.43434427  0.86512371  1
  O  O14  1  0.22100152  0.20061566  0.59624697  1
  O  O15  1  0.18848254  0.75856406  0.64847891  1
  O  O16  1  0.27097397  0.41850356  0.41767972  1
  O  O17  1  0.24020246  0.06565573  0.36512371  1
  O  O18  1  0.81151746  0.25856406  0.85152109  1
  O  O19  1  0.77899848  0.70061566  0.90375303  1
  O  O20  1  0.22100152  0.29938434  0.09624697  1
  O  O21  1  0.18848254  0.74143594  0.14847991  1
  O  O22  1  0.75979754  0.93434427  0.63487629  1
  O  O23  1  0.72902603  0.58149644  0.58232028  1
  O  O24  1  0.81151746  0.24143594  0.35152009  1
  O  O25  1  0.77899848  0.79938434  0.40375303  1
  O  O26  1  0.75979754  0.56565573  0.13487629  1
  O  O27  1  0.72902603  0.91850356  0.08232028  1
