# generated using pymatgen
data_Hf2N2O
_symmetry_space_group_name_H-M   'P 1'
_cell_length_a   8.70888246
_cell_length_b   8.75294676
_cell_length_c   8.73070569
_cell_angle_alpha   109.65169777
_cell_angle_beta   109.46606308
_cell_angle_gamma   109.35744512
_symmetry_Int_Tables_number   1
_chemical_formula_structural   Hf2N2O
_chemical_formula_sum   'Hf16 N16 O8'
_cell_volume   511.93129030
_cell_formula_units_Z   8
loop_
 _symmetry_equiv_pos_site_id
 _symmetry_equiv_pos_as_xyz
  1  'x, y, z'
loop_
 _atom_site_type_symbol
 _atom_site_label
 _atom_site_symmetry_multiplicity
 _atom_site_fract_x
 _atom_site_fract_y
 _atom_site_fract_z
 _atom_site_occupancy
  Hf  Hf0  1  0.50684622  0.00272190  0.99475156  1
  Hf  Hf1  1  0.95992116  0.24212591  0.21619743  1
  Hf  Hf2  1  0.78409913  0.02740321  0.74362327  1
  Hf  Hf3  1  0.70530950  0.45650021  0.24349924  1
  Hf  Hf4  1  0.75608249  0.27916338  0.53290043  1
  Hf  Hf5  1  0.75442922  0.78860039  0.03139376  1
  Hf  Hf6  1  0.00766953  0.51346464  0.99717027  1
  Hf  Hf7  1  0.49132695  0.50576017  0.50224737  1
  Hf  Hf8  1  0.45942925  0.25151916  0.71885705  1
  Hf  Hf9  1  0.00705503  0.00827125  0.50770747  1
  Hf  Hf10  1  0.53041463  0.74721891  0.29031435  1
  Hf  Hf11  1  0.25323214  0.71805405  0.46888633  1
  Hf  Hf12  1  0.25254489  0.21750243  0.96238098  1
  Hf  Hf13  1  0.28350334  0.53403429  0.74347867  1
  Hf  Hf14  1  0.21146745  0.96189690  0.25463867  1
  Hf  Hf15  1  0.03732199  0.75146194  0.78564783  1
  N  N16  1  0.75786059  0.03130082  0.48639821  1
  N  N17  1  0.74005720  0.23287487  0.27436216  1
  N  N18  1  0.45579756  0.46396633  0.22847218  1
  N  N19  1  0.01038286  0.04505374  0.27414452  1
  N  N20  1  0.22503660  0.45475210  0.46266282  1
  N  N21  1  0.98798355  0.95317599  0.73060974  1
  N  N22  1  0.27164340  0.73387002  0.22319980  1
  N  N23  1  0.51065958  0.23548009  0.96412227  1
  N  N24  1  0.54515539  0.53290273  0.77144000  1
  N  N25  1  0.95798978  0.72904364  0.99102811  1
  N  N26  1  0.53394324  0.77139334  0.54716979  1
  N  N27  1  0.22545050  0.27330559  0.74148781  1
  N  N28  1  0.02988414  0.48343930  0.75861021  1
  N  N29  1  0.72591837  0.98742122  0.95291653  1
  N  N30  1  0.24070438  0.96846627  0.51124114  1
  N  N31  1  0.26267636  0.77506544  0.73233649  1
  O  O32  1  0.27640656  0.01367957  0.05156438  1
  O  O33  1  0.96115799  0.51227724  0.23344747  1
  O  O34  1  0.47136128  0.22658834  0.45318104  1
  O  O35  1  0.77199693  0.72227620  0.25748283  1
  O  O36  1  0.04284021  0.27525808  0.01229504  1
  O  O37  1  0.77332073  0.54633584  0.53474194  1
  O  O38  1  0.72696786  0.26183225  0.77449747  1
  O  O39  1  0.49415100  0.76454323  0.03888935  1
