# generated using pymatgen
data_Hf3N4
_symmetry_space_group_name_H-M   'P 1'
_cell_length_a   9.80824925
_cell_length_b   10.72524227
_cell_length_c   3.24371779
_cell_angle_alpha   90.00000000
_cell_angle_beta   90.00000000
_cell_angle_gamma   90.00000000
_symmetry_Int_Tables_number   1
_chemical_formula_structural   Hf3N4
_chemical_formula_sum   'Hf12 N16'
_cell_volume   341.22564830
_cell_formula_units_Z   4
loop_
 _symmetry_equiv_pos_site_id
 _symmetry_equiv_pos_as_xyz
  1  'x, y, z'
loop_
 _atom_site_type_symbol
 _atom_site_label
 _atom_site_symmetry_multiplicity
 _atom_site_fract_x
 _atom_site_fract_y
 _atom_site_fract_z
 _atom_site_occupancy
  Hf  Hf0  1  0.07006668  0.12423032  0.75191939  1
  Hf  Hf1  1  0.10605729  0.59296929  0.75442971  1
  Hf  Hf2  1  0.22663063  0.85293220  0.75176303  1
  Hf  Hf3  1  0.27336937  0.35293220  0.25176303  1
  Hf  Hf4  1  0.39394271  0.09296929  0.25442971  1
  Hf  Hf5  1  0.42993332  0.62423032  0.25191939  1
  Hf  Hf6  1  0.57006668  0.37576968  0.75191939  1
  Hf  Hf7  1  0.60605729  0.90703071  0.75442971  1
  Hf  Hf8  1  0.72663063  0.64706780  0.75176303  1
  Hf  Hf9  1  0.77336937  0.14706780  0.25176303  1
  Hf  Hf10  1  0.89394271  0.40703071  0.25442971  1
  Hf  Hf11  1  0.92993332  0.87576968  0.25191939  1
  N  N12  1  0.00762447  0.77535368  0.75229877  1
  N  N13  1  0.10330338  0.46961065  0.25460624  1
  N  N14  1  0.14159668  0.98166808  0.25312813  1
  N  N15  1  0.23724956  0.71395151  0.25285373  1
  N  N16  1  0.26275044  0.21395151  0.75285373  1
  N  N17  1  0.35840332  0.48166808  0.75312813  1
  N  N18  1  0.39669662  0.96961065  0.75460624  1
  N  N19  1  0.49237553  0.27535368  0.25229877  1
  N  N20  1  0.50762447  0.72464632  0.75229877  1
  N  N21  1  0.60330338  0.03038935  0.25460624  1
  N  N22  1  0.64159668  0.51833192  0.25312813  1
  N  N23  1  0.73724956  0.78604849  0.25285373  1
  N  N24  1  0.76275044  0.28604849  0.75285373  1
  N  N25  1  0.85840332  0.01833192  0.75312813  1
  N  N26  1  0.89669662  0.53038935  0.75460624  1
  N  N27  1  0.99237553  0.22464632  0.25229877  1
