# generated using pymatgen
data_Ti(SO4)2
_symmetry_space_group_name_H-M   'P 1'
_cell_length_a   8.90781157
_cell_length_b   8.90781202
_cell_length_c   8.90781194
_cell_angle_alpha   56.08479877
_cell_angle_beta   56.08480320
_cell_angle_gamma   56.08479830
_symmetry_Int_Tables_number   1
_chemical_formula_structural   Ti(SO4)2
_chemical_formula_sum   'Ti3 S6 O24'
_cell_volume   454.48566717
_cell_formula_units_Z   3
loop_
 _symmetry_equiv_pos_site_id
 _symmetry_equiv_pos_as_xyz
  1  'x, y, z'
loop_
 _atom_site_type_symbol
 _atom_site_label
 _atom_site_symmetry_multiplicity
 _atom_site_fract_x
 _atom_site_fract_y
 _atom_site_fract_z
 _atom_site_occupancy
  Ti  Ti0  1  0.35727241  0.35727241  0.35727241  1
  Ti  Ti1  1  0.64328497  0.64328497  0.64328497  1
  Ti  Ti2  1  0.85255928  0.85255928  0.85255928  1
  S  S3  1  0.03220600  0.75242536  0.46674832  1
  S  S4  1  0.46674832  0.03220600  0.75242536  1
  S  S5  1  0.75242536  0.46674832  0.03220600  1
  S  S6  1  0.25643098  0.52764711  0.95952212  1
  S  S7  1  0.52764711  0.95952212  0.25643098  1
  S  S8  1  0.95952212  0.25643098  0.52764711  1
  O  O9  1  0.11855350  0.29383739  0.50478203  1
  O  O10  1  0.29383739  0.50478203  0.11855350  1
  O  O11  1  0.00885766  0.94566358  0.33168390  1
  O  O12  1  0.50478203  0.11855350  0.29383739  1
  O  O13  1  0.01683740  0.72407539  0.65917594  1
  O  O14  1  0.22581557  0.60398338  0.39641598  1
  O  O15  1  0.39641598  0.22581557  0.60398338  1
  O  O16  1  0.33168390  0.00885766  0.94566358  1
  O  O17  1  0.60398338  0.39641598  0.22581557  1
  O  O18  1  0.05437952  0.67901016  0.97130896  1
  O  O19  1  0.28557174  0.35023203  0.96698180  1
  O  O20  1  0.35023203  0.96698180  0.28557174  1
  O  O21  1  0.65917594  0.01683740  0.72407539  1
  O  O22  1  0.72407539  0.65917594  0.01683740  1
  O  O23  1  0.94566358  0.33168390  0.00885766  1
  O  O24  1  0.38854643  0.62688487  0.77034088  1
  O  O25  1  0.67901016  0.97130896  0.05437952  1
  O  O26  1  0.62688487  0.77034088  0.38854643  1
  O  O27  1  0.77034088  0.38854643  0.62688487  1
  O  O28  1  0.96698180  0.28557174  0.35023203  1
  O  O29  1  0.51174000  0.88702310  0.68256123  1
  O  O30  1  0.97130896  0.05437952  0.67901016  1
  O  O31  1  0.68256123  0.51174000  0.88702310  1
  O  O32  1  0.88702310  0.68256123  0.51174000  1
