# generated using pymatgen
data_Na6Ca3MnC6(O9F)2
_symmetry_space_group_name_H-M   'P 1'
_cell_length_a   8.06451399
_cell_length_b   8.96280573
_cell_length_c   7.09652576
_cell_angle_alpha   85.11357742
_cell_angle_beta   100.98597268
_cell_angle_gamma   116.84695847
_symmetry_Int_Tables_number   1
_chemical_formula_structural   Na6Ca3MnC6(O9F)2
_chemical_formula_sum   'Na6 Ca3 Mn1 C6 O18 F2'
_cell_volume   449.26747435
_cell_formula_units_Z   1
loop_
 _symmetry_equiv_pos_site_id
 _symmetry_equiv_pos_as_xyz
  1  'x, y, z'
loop_
 _atom_site_type_symbol
 _atom_site_label
 _atom_site_symmetry_multiplicity
 _atom_site_fract_x
 _atom_site_fract_y
 _atom_site_fract_z
 _atom_site_occupancy
  Na  Na0  1  0.24844511  0.65552130  0.51683080  1
  Na  Na1  1  0.17391772  0.22905077  0.68014017  1
  Na  Na2  1  0.16928382  0.21612366  0.18322344  1
  Na  Na3  1  0.59515669  0.34739343  0.01834176  1
  Na  Na4  1  0.95008088  0.78169295  0.68110254  1
  Na  Na5  1  0.94263782  0.77107776  0.18114444  1
  Ca  Ca6  1  0.25028803  0.61894466  0.03017162  1
  Ca  Ca7  1  0.68206602  0.97982290  0.84503818  1
  Ca  Ca8  1  0.70302028  0.02360075  0.34673256  1
  Mn  Mn9  1  0.62864790  0.37770836  0.53493351  1
  C  C10  1  0.31878381  0.99356075  0.99476515  1
  C  C11  1  0.55644005  0.60961934  0.80450855  1
  C  C12  1  0.55213957  0.61191505  0.30798627  1
  C  C13  1  0.33386835  0.01271289  0.49659874  1
  C  C14  1  0.93375073  0.38285259  0.79906539  1
  C  C15  1  0.93869166  0.39005709  0.31327863  1
  O  O16  1  0.17695553  0.84485523  0.97406024  1
  O  O17  1  0.17007013  0.88672125  0.46671535  1
  O  O18  1  0.00982623  0.53390942  0.22864333  1
  O  O19  1  0.06120377  0.34571500  0.90080770  1
  O  O20  1  0.04075976  0.31688757  0.38878042  1
  O  O21  1  0.48518016  0.98920257  0.54562377  1
  O  O22  1  0.45059319  0.68713125  0.80308689  1
  O  O23  1  0.29319571  0.12538006  0.96819091  1
  O  O24  1  0.49455614  0.72702670  0.30498279  1
  O  O25  1  0.48423385  0.46529524  0.71971685  1
  O  O26  1  0.44764527  0.47847279  0.20451786  1
  O  O27  1  0.35195298  0.16583037  0.47772810  1
  O  O28  1  0.72854387  0.67996321  0.89069555  1
  O  O29  1  0.71133370  0.63076075  0.41276684  1
  O  O30  1  0.49081307  0.00593627  0.04359607  1
  O  O31  1  0.75444972  0.27725592  0.78589973  1
  O  O32  1  0.75584387  0.31370251  0.31991689  1
  O  O33  1  0.98006279  0.52492058  0.71022590  1
  F  F34  1  0.86659779  0.99796522  0.13616496  1
  F  F35  1  0.86940501  0.00141484  0.63524007  1
