# generated using pymatgen
data_RbInBP2HO9
_symmetry_space_group_name_H-M   'P 1'
_cell_length_a   5.41669497
_cell_length_b   8.45356738
_cell_length_c   8.60066133
_cell_angle_alpha   87.38846900
_cell_angle_beta   80.51740151
_cell_angle_gamma   86.71324411
_symmetry_Int_Tables_number   1
_chemical_formula_structural   RbInBP2HO9
_chemical_formula_sum   'Rb2 In2 B2 P4 H2 O18'
_cell_volume   387.54638555
_cell_formula_units_Z   2
loop_
 _symmetry_equiv_pos_site_id
 _symmetry_equiv_pos_as_xyz
  1  'x, y, z'
loop_
 _atom_site_type_symbol
 _atom_site_label
 _atom_site_symmetry_multiplicity
 _atom_site_fract_x
 _atom_site_fract_y
 _atom_site_fract_z
 _atom_site_occupancy
  Rb  Rb0  1  0.27816438  0.16963584  0.38264397  1
  Rb  Rb1  1  0.72183562  0.83036416  0.61735603  1
  In  In2  1  0.27493860  0.68897117  0.30006518  1
  In  In3  1  0.72506140  0.31102883  0.69993482  1
  B  B4  1  0.10889098  0.77135193  0.94116414  1
  B  B5  1  0.89110902  0.22864807  0.05883586  1
  P  P6  1  0.19280358  0.08120303  0.80899811  1
  P  P7  1  0.21807810  0.56865096  0.69211907  1
  P  P8  1  0.78192190  0.43134904  0.30788093  1
  P  P9  1  0.80719642  0.91879697  0.19100189  1
  H  H10  1  0.41224768  0.62938185  0.98323184  1
  H  H11  1  0.58775232  0.37061815  0.01676816  1
  O  O12  1  0.02596626  0.90303136  0.28551662  1
  O  O13  1  0.07819446  0.42822123  0.65270088  1
  O  O14  1  0.04512630  0.65853860  0.83031229  1
  O  O15  1  0.27460335  0.69049860  0.04465371  1
  O  O16  1  0.12812488  0.17259353  0.96612000  1
  O  O17  1  0.26556666  0.69110512  0.55139793  1
  O  O18  1  0.24902293  0.90230198  0.85167455  1
  O  O19  1  0.52965720  0.48189755  0.25078569  1
  O  O20  1  0.43757744  0.13739790  0.71322812  1
  O  O21  1  0.56242256  0.86260210  0.28677188  1
  O  O22  1  0.47034280  0.51810245  0.74921431  1
  O  O23  1  0.75097707  0.09769802  0.14832545  1
  O  O24  1  0.73443334  0.30889488  0.44860207  1
  O  O25  1  0.87187512  0.82740647  0.03388000  1
  O  O26  1  0.72539665  0.30950140  0.95534629  1
  O  O27  1  0.95487370  0.34146140  0.16968771  1
  O  O28  1  0.92180554  0.57177877  0.34729912  1
  O  O29  1  0.97403374  0.09696864  0.71448338  1
