# generated using pymatgen
data_Li9(NbS2)14
_symmetry_space_group_name_H-M   'P 1'
_cell_length_a   5.85019997
_cell_length_b   12.18916617
_cell_length_c   13.38202269
_cell_angle_alpha   75.81040327
_cell_angle_beta   89.97244312
_cell_angle_gamma   103.84882369
_symmetry_Int_Tables_number   1
_chemical_formula_structural   Li9(NbS2)14
_chemical_formula_sum   'Li9 Nb14 S28'
_cell_volume   896.47599563
_cell_formula_units_Z   1
loop_
 _symmetry_equiv_pos_site_id
 _symmetry_equiv_pos_as_xyz
  1  'x, y, z'
loop_
 _atom_site_type_symbol
 _atom_site_label
 _atom_site_symmetry_multiplicity
 _atom_site_fract_x
 _atom_site_fract_y
 _atom_site_fract_z
 _atom_site_occupancy
  Li  Li0  1  0.00015738  0.00014035  0.99997307  1
  Li  Li1  1  0.49889422  0.99798780  0.49999298  1
  Li  Li2  1  0.14265231  0.28557476  0.00002771  1
  Li  Li3  1  0.07141194  0.14285775  0.49999960  1
  Li  Li4  1  0.64392967  0.28773572  0.49999956  1
  Li  Li5  1  0.28564818  0.57135141  0.99992467  1
  Li  Li6  1  0.85717322  0.71437382  0.00008129  1
  Li  Li7  1  0.78587100  0.57155295  0.49993164  1
  Li  Li8  1  0.35695107  0.71416891  0.50006920  1
  Nb  Nb9  1  0.53677986  0.07135254  0.24899092  1
  Nb  Nb10  1  0.03552676  0.07114666  0.75009717  1
  Nb  Nb11  1  0.10735625  0.21453730  0.24988238  1
  Nb  Nb12  1  0.67913788  0.35735711  0.24911632  1
  Nb  Nb13  1  0.60606813  0.21438021  0.75099066  1
  Nb  Nb14  1  0.18051770  0.35728337  0.74943626  1
  Nb  Nb15  1  0.25032037  0.49983986  0.25060418  1
  Nb  Nb16  1  0.82139220  0.64273403  0.24999408  1
  Nb  Nb17  1  0.74856379  0.49929228  0.75075052  1
  Nb  Nb18  1  0.32145596  0.64297075  0.75002518  1
  Nb  Nb19  1  0.39427910  0.78641356  0.24927525  1
  Nb  Nb20  1  0.96226434  0.92842958  0.25056789  1
  Nb  Nb21  1  0.89254350  0.78585620  0.74944061  1
  Nb  Nb22  1  0.46370131  0.92836070  0.75083203  1
  S  S23  1  0.22018188  0.10576188  0.12909983  1
  S  S24  1  0.18476713  0.03641415  0.37096884  1
  S  S25  1  0.79008478  0.24862381  0.12940450  1
  S  S26  1  0.75601579  0.17954514  0.37166589  1
  S  S27  1  0.38692414  0.10622366  0.62829246  1
  S  S28  1  0.35280308  0.03707737  0.87055288  1
  S  S29  1  0.36351931  0.39185335  0.12890593  1
  S  S30  1  0.32819154  0.32295884  0.37116604  1
  S  S31  1  0.92268407  0.17992654  0.87085882  1
  S  S32  1  0.95812283  0.24926694  0.62903685  1
  S  S33  1  0.93374875  0.53412239  0.12879453  1
  S  S34  1  0.49541918  0.32256366  0.87087256  1
  S  S35  1  0.90022530  0.46529916  0.37100421  1
  S  S36  1  0.52890038  0.39195094  0.62873907  1
  S  S37  1  0.50519067  0.67787181  0.12886960  1
  S  S38  1  0.46996106  0.60790190  0.37106951  1
  S  S39  1  0.10082669  0.53416209  0.62909635  1
  S  S40  1  0.06511031  0.46529562  0.87088539  1
  S  S41  1  0.07763186  0.82038407  0.12912524  1
  S  S42  1  0.63771653  0.60786973  0.87111630  1
  S  S43  1  0.67295199  0.67780656  0.62894076  1
  S  S44  1  0.04203589  0.75155605  0.37091060  1
  S  S45  1  0.64732432  0.96312818  0.12913850  1
  S  S46  1  0.61391593  0.89382636  0.37132920  1
  S  S47  1  0.24247966  0.82032263  0.62899746  1
  S  S48  1  0.20919862  0.75162778  0.87119488  1
  S  S49  1  0.81467040  0.96266954  0.62883889  1
  S  S50  1  0.77925578  0.89390726  0.87112176  1
