# generated using pymatgen
data_Mg3Mn5(BO4)4
_symmetry_space_group_name_H-M   'P 1'
_cell_length_a   9.50006462
_cell_length_b   9.39438300
_cell_length_c   3.24151536
_cell_angle_alpha   89.82051668
_cell_angle_beta   85.83859750
_cell_angle_gamma   89.99286244
_symmetry_Int_Tables_number   1
_chemical_formula_structural   Mg3Mn5(BO4)4
_chemical_formula_sum   'Mg3 Mn5 B4 O16'
_cell_volume   288.53219561
_cell_formula_units_Z   1
loop_
 _symmetry_equiv_pos_site_id
 _symmetry_equiv_pos_as_xyz
  1  'x, y, z'
loop_
 _atom_site_type_symbol
 _atom_site_label
 _atom_site_symmetry_multiplicity
 _atom_site_fract_x
 _atom_site_fract_y
 _atom_site_fract_z
 _atom_site_occupancy
  Mg  Mg0  1  0.39737281  0.18267370  0.25644417  1
  Mg  Mg1  1  0.60227249  0.81688435  0.74406759  1
  Mg  Mg2  1  0.89793317  0.31674231  0.25829297  1
  Mn  Mn3  1  0.10235368  0.68554173  0.74468175  1
  Mn  Mn4  1  0.11868648  0.06518569  0.75057186  1
  Mn  Mn5  1  0.38367340  0.56251847  0.24508892  1
  Mn  Mn6  1  0.61885851  0.43527819  0.75332538  1
  Mn  Mn7  1  0.87725488  0.93889260  0.24588839  1
  B  B8  1  0.16380197  0.36705901  0.72552468  1
  B  B9  1  0.34003124  0.86969524  0.27159028  1
  B  B10  1  0.66209879  0.13267406  0.72823598  1
  B  B11  1  0.83261603  0.63147315  0.27336447  1
  O  O12  1  0.01236222  0.88769059  0.78439967  1
  O  O13  1  0.02100455  0.36445445  0.73523536  1
  O  O14  1  0.24164777  0.24075779  0.75556242  1
  O  O15  1  0.23789883  0.49673130  0.69072865  1
  O  O16  1  0.26556332  0.99816629  0.30014035  1
  O  O17  1  0.26511460  0.74068818  0.24127880  1
  O  O18  1  0.48268644  0.86658718  0.26597408  1
  O  O19  1  0.48784075  0.38597896  0.22374641  1
  O  O20  1  0.51427463  0.61239249  0.77357296  1
  O  O21  1  0.51957583  0.13633785  0.73418837  1
  O  O22  1  0.74038008  0.25921237  0.75678746  1
  O  O23  1  0.73434755  0.00195952  0.69969866  1
  O  O24  1  0.76189088  0.50057474  0.30367718  1
  O  O25  1  0.75761444  0.75937395  0.24477593  1
  O  O26  1  0.97532060  0.63147205  0.26632674  1
  O  O27  1  0.98552406  0.11300480  0.22682849  1
