# generated using pymatgen
data_Te2(PO4)3
_symmetry_space_group_name_H-M   'P 1'
_cell_length_a   9.32827002
_cell_length_b   9.32827052
_cell_length_c   9.32826996
_cell_angle_alpha   54.83409934
_cell_angle_beta   54.83409565
_cell_angle_gamma   54.83409914
_symmetry_Int_Tables_number   1
_chemical_formula_structural   Te2(PO4)3
_chemical_formula_sum   'Te4 P6 O24'
_cell_volume   504.93423678
_cell_formula_units_Z   2
loop_
 _symmetry_equiv_pos_site_id
 _symmetry_equiv_pos_as_xyz
  1  'x, y, z'
loop_
 _atom_site_type_symbol
 _atom_site_label
 _atom_site_symmetry_multiplicity
 _atom_site_fract_x
 _atom_site_fract_y
 _atom_site_fract_z
 _atom_site_occupancy
  Te  Te0  1  0.14175105  0.14175105  0.14175105  1
  Te  Te1  1  0.85824895  0.85824895  0.85824895  1
  Te  Te2  1  0.34759170  0.34759170  0.34759170  1
  Te  Te3  1  0.65240830  0.65240830  0.65240830  1
  P  P4  1  0.04212954  0.74777702  0.45533533  1
  P  P5  1  0.45533533  0.04212954  0.74777702  1
  P  P6  1  0.74777702  0.45533533  0.04212954  1
  P  P7  1  0.25222298  0.54466467  0.95787046  1
  P  P8  1  0.54466467  0.95787046  0.25222298  1
  P  P9  1  0.95787046  0.25222298  0.54466467  1
  O  O10  1  0.15374394  0.21375830  0.52794034  1
  O  O11  1  0.21375830  0.52794034  0.15374394  1
  O  O12  1  0.52794034  0.15374394  0.21375830  1
  O  O13  1  0.17221265  0.53526123  0.48787282  1
  O  O14  1  0.12973667  0.87436746  0.25301003  1
  O  O15  1  0.02147198  0.78956448  0.60415723  1
  O  O16  1  0.25301003  0.12973667  0.87436746  1
  O  O17  1  0.48787282  0.17221265  0.53526123  1
  O  O18  1  0.53526123  0.48787282  0.17221265  1
  O  O19  1  0.21043552  0.39584277  0.97852802  1
  O  O20  1  0.12563154  0.74698997  0.87026333  1
  O  O21  1  0.39584277  0.97852802  0.21043552  1
  O  O22  1  0.60415723  0.02147198  0.78956448  1
  O  O23  1  0.87436746  0.25301003  0.12973667  1
  O  O24  1  0.78956448  0.60415723  0.02147198  1
  O  O25  1  0.46473877  0.51212718  0.82778735  1
  O  O26  1  0.51212718  0.82778735  0.46473877  1
  O  O27  1  0.74698997  0.87026333  0.12563154  1
  O  O28  1  0.97852802  0.21043552  0.39584277  1
  O  O29  1  0.87026333  0.12563154  0.74698997  1
  O  O30  1  0.82778735  0.46473877  0.51212718  1
  O  O31  1  0.47205966  0.84625606  0.78624170  1
  O  O32  1  0.78624170  0.47205966  0.84625606  1
  O  O33  1  0.84625606  0.78624170  0.47205966  1
