# generated using pymatgen
data_Li4Ni3Sn5O16
_symmetry_space_group_name_H-M   'P 1'
_cell_length_a   6.11055798
_cell_length_b   6.13266886
_cell_length_c   9.81038864
_cell_angle_alpha   90.67320502
_cell_angle_beta   89.25859096
_cell_angle_gamma   120.77090515
_symmetry_Int_Tables_number   1
_chemical_formula_structural   Li4Ni3Sn5O16
_chemical_formula_sum   'Li4 Ni3 Sn5 O16'
_cell_volume   315.84701237
_cell_formula_units_Z   1
loop_
 _symmetry_equiv_pos_site_id
 _symmetry_equiv_pos_as_xyz
  1  'x, y, z'
loop_
 _atom_site_type_symbol
 _atom_site_label
 _atom_site_symmetry_multiplicity
 _atom_site_fract_x
 _atom_site_fract_y
 _atom_site_fract_z
 _atom_site_occupancy
  Li  Li0  1  0.34188452  0.66725993  0.89231125  1
  Li  Li1  1  0.95952936  0.97771195  0.98790474  1
  Li  Li2  1  0.98002272  0.98929735  0.49764638  1
  Li  Li3  1  0.66592529  0.33628119  0.40413468  1
  Ni  Ni4  1  0.66080866  0.83104632  0.21604527  1
  Ni  Ni5  1  0.83212385  0.66096806  0.71258181  1
  Ni  Ni6  1  0.83230674  0.17221302  0.71519820  1
  Sn  Sn7  1  0.17340011  0.83361311  0.21521057  1
  Sn  Sn8  1  0.34221510  0.67330948  0.49454268  1
  Sn  Sn9  1  0.17114174  0.33966606  0.21375965  1
  Sn  Sn10  1  0.33894484  0.17062774  0.71427110  1
  Sn  Sn11  1  0.68569837  0.34286663  0.98563249  1
  O  O12  1  0.16077549  0.84081402  0.59400024  1
  O  O13  1  0.02931527  0.51500720  0.34539528  1
  O  O14  1  0.33423039  0.66724922  0.10017262  1
  O  O15  1  0.99913932  0.00043695  0.31240627  1
  O  O16  1  0.98721558  0.97710701  0.80507007  1
  O  O17  1  0.15138447  0.32041734  0.59978996  1
  O  O18  1  0.48284472  0.96953028  0.34592594  1
  O  O19  1  0.47948930  0.51416447  0.34679021  1
  O  O20  1  0.32699953  0.16199966  0.09105292  1
  O  O21  1  0.67472229  0.84211848  0.60493894  1
  O  O22  1  0.52126819  0.48265115  0.84471947  1
  O  O23  1  0.53312805  0.03784817  0.83745157  1
  O  O24  1  0.67923955  0.35525937  0.60928697  1
  O  O25  1  0.84318955  0.67481095  0.09597421  1
  O  O26  1  0.97128488  0.47939212  0.83120451  1
  O  O27  1  0.84177312  0.16663077  0.09442201  1
