# generated using pymatgen
data_CsPH4(NO)2
_symmetry_space_group_name_H-M   'P 1'
_cell_length_a   5.65632992
_cell_length_b   5.65632992
_cell_length_c   15.72183163
_cell_angle_alpha   90.00000000
_cell_angle_beta   90.00000000
_cell_angle_gamma   90.00000000
_symmetry_Int_Tables_number   1
_chemical_formula_structural   CsPH4(NO)2
_chemical_formula_sum   'Cs4 P4 H16 N8 O8'
_cell_volume   503.00535283
_cell_formula_units_Z   4
loop_
 _symmetry_equiv_pos_site_id
 _symmetry_equiv_pos_as_xyz
  1  'x, y, z'
loop_
 _atom_site_type_symbol
 _atom_site_label
 _atom_site_symmetry_multiplicity
 _atom_site_fract_x
 _atom_site_fract_y
 _atom_site_fract_z
 _atom_site_occupancy
  Cs  Cs0  1  0.15034202  0.84965798  0.25000000  1
  Cs  Cs1  1  0.34965798  0.34965798  0.50000000  1
  Cs  Cs2  1  0.65034202  0.65034202  0.00000000  1
  Cs  Cs3  1  0.84965798  0.15034202  0.75000000  1
  P  P4  1  0.11073107  0.11073107  0.00000000  1
  P  P5  1  0.38926893  0.61073107  0.75000000  1
  P  P6  1  0.61073107  0.38926893  0.25000000  1
  P  P7  1  0.88926893  0.88926893  0.50000000  1
  H  H8  1  0.99090121  0.36706718  0.31093214  1
  H  H9  1  0.13293282  0.49090121  0.06093214  1
  H  H10  1  0.21255664  0.79134091  0.86407820  1
  H  H11  1  0.20865909  0.78744336  0.63592180  1
  H  H12  1  0.29134091  0.28744336  0.11407820  1
  H  H13  1  0.28744336  0.29134091  0.88592180  1
  H  H14  1  0.36706718  0.99090121  0.68906786  1
  H  H15  1  0.50909879  0.86706718  0.43906786  1
  H  H16  1  0.49090121  0.13293282  0.93906786  1
  H  H17  1  0.63293282  0.00909879  0.18906786  1
  H  H18  1  0.71255664  0.70865909  0.38592180  1
  H  H19  1  0.70865909  0.71255664  0.61407820  1
  H  H20  1  0.79134091  0.21255664  0.13592180  1
  H  H21  1  0.78744336  0.20865909  0.36407820  1
  H  H22  1  0.86706718  0.50909879  0.56093214  1
  H  H23  1  0.00909879  0.63293282  0.81093214  1
  N  N24  1  0.14200744  0.31638706  0.07802062  1
  N  N25  1  0.18361294  0.64200744  0.82802062  1
  N  N26  1  0.31638706  0.14200744  0.92197938  1
  N  N27  1  0.35799256  0.81638706  0.67197938  1
  N  N28  1  0.64200744  0.18361294  0.17197938  1
  N  N29  1  0.68361294  0.85799256  0.42197938  1
  N  N30  1  0.81638706  0.35799256  0.32802062  1
  N  N31  1  0.85799256  0.68361294  0.57802062  1
  O  O32  1  0.12509322  0.84515012  0.45661607  1
  O  O33  1  0.15484988  0.87490678  0.04338393  1
  O  O34  1  0.34515012  0.37490678  0.70661607  1
  O  O35  1  0.37490678  0.34515012  0.29338393  1
  O  O36  1  0.62509322  0.65484988  0.79338393  1
  O  O37  1  0.65484988  0.62509322  0.20661607  1
  O  O38  1  0.84515012  0.12509322  0.54338393  1
  O  O39  1  0.87490678  0.15484988  0.95661607  1
