# generated using pymatgen
data_La2HgO4
_symmetry_space_group_name_H-M   'P 1'
_cell_length_a   3.94673810
_cell_length_b   7.36590667
_cell_length_c   9.42466018
_cell_angle_alpha   103.93064507
_cell_angle_beta   102.08623378
_cell_angle_gamma   74.46030885
_symmetry_Int_Tables_number   1
_chemical_formula_structural   La2HgO4
_chemical_formula_sum   'La4 Hg2 O8'
_cell_volume   253.11360996
_cell_formula_units_Z   2
loop_
 _symmetry_equiv_pos_site_id
 _symmetry_equiv_pos_as_xyz
  1  'x, y, z'
loop_
 _atom_site_type_symbol
 _atom_site_label
 _atom_site_symmetry_multiplicity
 _atom_site_fract_x
 _atom_site_fract_y
 _atom_site_fract_z
 _atom_site_occupancy
  La  La0  1  0.38041934  0.78214839  0.54298608  1
  La  La1  1  0.84013657  0.52239833  0.20267148  1
  La  La2  1  0.15986343  0.47760167  0.79732852  1
  La  La3  1  0.61958066  0.21785161  0.45701392  1
  Hg  Hg4  1  0.11609372  0.93117111  0.16335954  1
  Hg  Hg5  1  0.88390628  0.06882889  0.83664046  1
  O  O6  1  0.77376634  0.84456557  0.39209725  1
  O  O7  1  0.20260605  0.65315506  0.05836715  1
  O  O8  1  0.96267812  0.79572580  0.72108203  1
  O  O9  1  0.41801973  0.50904599  0.34508644  1
  O  O10  1  0.58198027  0.49095401  0.65491356  1
  O  O11  1  0.03732188  0.20427420  0.27891797  1
  O  O12  1  0.79739395  0.34684494  0.94163285  1
  O  O13  1  0.22623366  0.15543443  0.60790275  1
