# generated using pymatgen
data_Na2FeAsCO7
_symmetry_space_group_name_H-M   'P 1'
_cell_length_a   9.12240274
_cell_length_b   6.81200045
_cell_length_c   5.33258253
_cell_angle_alpha   90.00000000
_cell_angle_beta   89.16684179
_cell_angle_gamma   90.00000000
_symmetry_Int_Tables_number   1
_chemical_formula_structural   Na2FeAsCO7
_chemical_formula_sum   'Na4 Fe2 As2 C2 O14'
_cell_volume   331.34130466
_cell_formula_units_Z   2
loop_
 _symmetry_equiv_pos_site_id
 _symmetry_equiv_pos_as_xyz
  1  'x, y, z'
loop_
 _atom_site_type_symbol
 _atom_site_label
 _atom_site_symmetry_multiplicity
 _atom_site_fract_x
 _atom_site_fract_y
 _atom_site_fract_z
 _atom_site_occupancy
  Na  Na0  1  0.22032854  0.50157421  0.23197282  1
  Na  Na1  1  0.22032854  0.99842579  0.23197282  1
  Na  Na2  1  0.77967146  0.49842579  0.76802718  1
  Na  Na3  1  0.77967146  0.00157421  0.76802718  1
  Fe  Fe4  1  0.34912955  0.75000000  0.78413778  1
  Fe  Fe5  1  0.65087045  0.25000000  0.21586222  1
  As  As6  1  0.42478427  0.25000000  0.71105734  1
  As  As7  1  0.57521573  0.75000000  0.28894266  1
  C  C8  1  0.07325942  0.75000000  0.73038776  1
  C  C9  1  0.92674058  0.25000000  0.26961224  1
  O  O10  1  0.06286836  0.25000000  0.30056459  1
  O  O11  1  0.13533623  0.75000000  0.95152654  1
  O  O12  1  0.16985317  0.75000000  0.54180106  1
  O  O13  1  0.32545123  0.04721654  0.79560229  1
  O  O14  1  0.32545123  0.45278346  0.79560229  1
  O  O15  1  0.40507109  0.75000000  0.15244151  1
  O  O16  1  0.45351749  0.25000000  0.38754860  1
  O  O17  1  0.54648251  0.75000000  0.61245140  1
  O  O18  1  0.59492891  0.25000000  0.84755849  1
  O  O19  1  0.67454877  0.54721654  0.20439771  1
  O  O20  1  0.67454877  0.95278346  0.20439771  1
  O  O21  1  0.83014683  0.25000000  0.45819894  1
  O  O22  1  0.86466377  0.25000000  0.04847346  1
  O  O23  1  0.93713164  0.75000000  0.69943541  1
