# generated using pymatgen
data_LiTe(H3N)4
_symmetry_space_group_name_H-M   'P 1'
_cell_length_a   6.85850987
_cell_length_b   7.35601695
_cell_length_c   8.64768437
_cell_angle_alpha   103.36370530
_cell_angle_beta   66.71315259
_cell_angle_gamma   93.09718903
_symmetry_Int_Tables_number   1
_chemical_formula_structural   LiTe(H3N)4
_chemical_formula_sum   'Li2 Te2 H24 N8'
_cell_volume   389.55408832
_cell_formula_units_Z   2
loop_
 _symmetry_equiv_pos_site_id
 _symmetry_equiv_pos_as_xyz
  1  'x, y, z'
loop_
 _atom_site_type_symbol
 _atom_site_label
 _atom_site_symmetry_multiplicity
 _atom_site_fract_x
 _atom_site_fract_y
 _atom_site_fract_z
 _atom_site_occupancy
  Li  Li0  1  0.19984218  0.09572264  0.72328926  1
  Li  Li1  1  0.80015682  0.90427736  0.27670974  1
  Te  Te2  1  0.36669089  0.45552045  0.15736589  1
  Te  Te3  1  0.63330911  0.54447955  0.84263411  1
  H  H4  1  0.03207282  0.28469733  0.03438411  1
  H  H5  1  0.14366353  0.71054147  0.05188298  1
  H  H6  1  0.00694465  0.87128155  0.53126714  1
  H  H7  1  0.00341420  0.78233217  0.68784845  1
  H  H8  1  0.11833837  0.40084162  0.65141168  1
  H  H9  1  0.21587498  0.75488583  0.50591382  1
  H  H10  1  0.40202620  0.98778046  0.34804687  1
  H  H11  1  0.51953208  0.87444090  0.14535914  1
  H  H12  1  0.33315850  0.31408925  0.47944614  1
  H  H13  1  0.12688198  0.89039551  0.97403394  1
  H  H14  1  0.53648004  0.10368733  0.20100470  1
  H  H15  1  0.35270644  0.40774185  0.66502341  1
  H  H16  1  0.64729356  0.59225815  0.33497659  1
  H  H17  1  0.46351996  0.89631267  0.79899530  1
  H  H18  1  0.87311802  0.10960449  0.02596606  1
  H  H19  1  0.66684150  0.68591075  0.52055386  1
  H  H20  1  0.48046792  0.12555910  0.85464086  1
  H  H21  1  0.59797380  0.01221954  0.65195313  1
  H  H22  1  0.78412502  0.24511417  0.49408618  1
  H  H23  1  0.88166163  0.59915838  0.34858832  1
  H  H24  1  0.99658580  0.21766783  0.31215155  1
  H  H25  1  0.99305535  0.12871845  0.46873286  1
  H  H26  1  0.85633647  0.28945853  0.94811702  1
  H  H27  1  0.96792718  0.71530267  0.96561589  1
  N  N28  1  0.03813429  0.79615841  0.04166126  1
  N  N29  1  0.09856243  0.85103799  0.59514260  1
  N  N30  1  0.25874165  0.32595035  0.61065586  1
  N  N31  1  0.53761511  0.98088000  0.23873977  1
  N  N32  1  0.46238489  0.01912000  0.76126023  1
  N  N33  1  0.74125835  0.67404965  0.38934414  1
  N  N34  1  0.90143757  0.14896201  0.40485740  1
  N  N35  1  0.96186571  0.20384159  0.95833874  1
