# generated using pymatgen
data_Ba2Ta2O7
_symmetry_space_group_name_H-M   'P 1'
_cell_length_a   4.08371815
_cell_length_b   14.13814345
_cell_length_c   5.92934063
_cell_angle_alpha   90.00000000
_cell_angle_beta   90.00000000
_cell_angle_gamma   98.30381249
_symmetry_Int_Tables_number   1
_chemical_formula_structural   Ba2Ta2O7
_chemical_formula_sum   'Ba4 Ta4 O14'
_cell_volume   338.74855026
_cell_formula_units_Z   2
loop_
 _symmetry_equiv_pos_site_id
 _symmetry_equiv_pos_as_xyz
  1  'x, y, z'
loop_
 _atom_site_type_symbol
 _atom_site_label
 _atom_site_symmetry_multiplicity
 _atom_site_fract_x
 _atom_site_fract_y
 _atom_site_fract_z
 _atom_site_occupancy
  Ba  Ba0  1  0.29194993  0.58389986  0.25000000  1
  Ba  Ba1  1  0.44718378  0.89436655  0.75000000  1
  Ba  Ba2  1  0.70805007  0.41610014  0.75000000  1
  Ba  Ba3  1  0.55281622  0.10563345  0.25000000  1
  Ta  Ta4  1  0.15908089  0.31816078  0.25000000  1
  Ta  Ta5  1  0.05546090  0.11092181  0.75000000  1
  Ta  Ta6  1  0.84091911  0.68183922  0.75000000  1
  Ta  Ta7  1  0.94453910  0.88907819  0.25000000  1
  O  O8  1  0.00000000  0.00000000  0.00000000  1
  O  O9  1  0.09990646  0.19981392  0.99856197  1
  O  O10  1  0.00000000  0.00000000  0.50000000  1
  O  O11  1  0.09990646  0.19981392  0.50143803  1
  O  O12  1  0.20498964  0.40998029  0.02214166  1
  O  O13  1  0.20498964  0.40998029  0.47785834  1
  O  O14  1  0.45061049  0.90122098  0.25000000  1
  O  O15  1  0.34913490  0.69826981  0.75000000  1
  O  O16  1  0.54938951  0.09877902  0.75000000  1
  O  O17  1  0.79501036  0.59001971  0.52214166  1
  O  O18  1  0.79501036  0.59001971  0.97785834  1
  O  O19  1  0.90009354  0.80018608  0.00143803  1
  O  O20  1  0.65086510  0.30173019  0.25000000  1
  O  O21  1  0.90009354  0.80018608  0.49856197  1
