# generated using pymatgen
data_Sm2Ge2O7
_symmetry_space_group_name_H-M   'P 1'
_cell_length_a   6.98731666
_cell_length_b   6.98734077
_cell_length_c   12.73364113
_cell_angle_alpha   89.99991648
_cell_angle_beta   89.99998424
_cell_angle_gamma   90.00002075
_symmetry_Int_Tables_number   1
_chemical_formula_structural   Sm2Ge2O7
_chemical_formula_sum   'Sm8 Ge8 O28'
_cell_volume   621.69153756
_cell_formula_units_Z   4
loop_
 _symmetry_equiv_pos_site_id
 _symmetry_equiv_pos_as_xyz
  1  'x, y, z'
loop_
 _atom_site_type_symbol
 _atom_site_label
 _atom_site_symmetry_multiplicity
 _atom_site_fract_x
 _atom_site_fract_y
 _atom_site_fract_z
 _atom_site_occupancy
  Sm  Sm0  1  0.12260738  0.64976223  0.13464532  1
  Sm  Sm1  1  0.14975918  0.37738762  0.88464768  1
  Sm  Sm2  1  0.35023895  0.87739368  0.36535268  1
  Sm  Sm3  1  0.37739173  0.14976346  0.11535457  1
  Sm  Sm4  1  0.62260496  0.85023841  0.61535554  1
  Sm  Sm5  1  0.64976078  0.12261230  0.86535140  1
  Sm  Sm6  1  0.85023843  0.62261472  0.38464897  1
  Sm  Sm7  1  0.87738828  0.35023768  0.63464597  1
  Ge  Ge8  1  0.09830911  0.84574978  0.62118116  1
  Ge  Ge9  1  0.15426087  0.90170192  0.87881983  1
  Ge  Ge10  1  0.34574680  0.40169110  0.37118151  1
  Ge  Ge11  1  0.40170066  0.34573968  0.62881990  1
  Ge  Ge12  1  0.59830920  0.65425047  0.12881928  1
  Ge  Ge13  1  0.65426078  0.59829815  0.87118013  1
  Ge  Ge14  1  0.84573867  0.09829939  0.37882024  1
  Ge  Ge15  1  0.90168916  0.15425038  0.12118242  1
  O  O16  1  0.02676906  0.92440632  0.37475643  1
  O  O17  1  0.06212055  0.33667449  0.07210132  1
  O  O18  1  0.07559641  0.97323060  0.12524539  1
  O  O19  1  0.14310605  0.69053104  0.95363554  1
  O  O20  1  0.16332284  0.56212083  0.32210101  1
  O  O21  1  0.19052951  0.35690519  0.70363609  1
  O  O22  1  0.19663563  0.80345519  0.74999604  1
  O  O23  1  0.30345385  0.30336410  0.49999639  1
  O  O24  1  0.30947086  0.85688885  0.54635712  1
  O  O25  1  0.33667757  0.06212980  0.92790518  1
  O  O26  1  0.35688939  0.19052940  0.29635829  1
  O  O27  1  0.42440233  0.47323282  0.12475392  1
  O  O28  1  0.43787697  0.83667337  0.17789815  1
  O  O29  1  0.47322875  0.42440545  0.87524278  1
  O  O30  1  0.52676785  0.57559692  0.37524484  1
  O  O31  1  0.56212961  0.16332458  0.67790511  1
  O  O32  1  0.57559772  0.52677091  0.62475618  1
  O  O33  1  0.64310613  0.80947011  0.79636464  1
  O  O34  1  0.66332325  0.93786950  0.42790683  1
  O  O35  1  0.69052901  0.14310010  0.04635666  1
  O  O36  1  0.69663672  0.69654565  0.00000389  1
  O  O37  1  0.80336113  0.19654671  0.24999598  1
  O  O38  1  0.80947023  0.64310004  0.20364330  1
  O  O39  1  0.83667785  0.43787257  0.82209324  1
  O  O40  1  0.85690279  0.30946997  0.45363633  1
  O  O41  1  0.92440255  0.02676950  0.62524493  1
  O  O42  1  0.93787877  0.66332592  0.57210203  1
  O  O43  1  0.97323170  0.07559714  0.87475579  1
