# generated using pymatgen
data_Ba6Na2P2Ru2O17
_symmetry_space_group_name_H-M   'P 1'
_cell_length_a   5.86932877
_cell_length_b   5.86921633
_cell_length_c   29.62474837
_cell_angle_alpha   90.00003386
_cell_angle_beta   89.99976680
_cell_angle_gamma   119.99967276
_symmetry_Int_Tables_number   1
_chemical_formula_structural   Ba6Na2P2Ru2O17
_chemical_formula_sum   'Ba12 Na4 P4 Ru4 O34'
_cell_volume   883.80262774
_cell_formula_units_Z   2
loop_
 _symmetry_equiv_pos_site_id
 _symmetry_equiv_pos_as_xyz
  1  'x, y, z'
loop_
 _atom_site_type_symbol
 _atom_site_label
 _atom_site_symmetry_multiplicity
 _atom_site_fract_x
 _atom_site_fract_y
 _atom_site_fract_z
 _atom_site_occupancy
  Ba  Ba0  1  0.33330606  0.66665470  0.17767754  1
  Ba  Ba1  1  0.33332150  0.66670049  0.58986599  1
  Ba  Ba2  1  0.99997899  0.00018068  0.99997238  1
  Ba  Ba3  1  0.00011606  0.99945342  0.24999568  1
  Ba  Ba4  1  0.33330094  0.66658194  0.32232299  1
  Ba  Ba5  1  0.99997664  0.99999045  0.50002744  1
  Ba  Ba6  1  0.00028135  0.99964484  0.74998271  1
  Ba  Ba7  1  0.33332946  0.66668941  0.91013577  1
  Ba  Ba8  1  0.66665932  0.33336818  0.08986323  1
  Ba  Ba9  1  0.66671068  0.33335323  0.82231675  1
  Ba  Ba10  1  0.66670556  0.33336409  0.67768064  1
  Ba  Ba11  1  0.66666322  0.33335182  0.41013627  1
  Na  Na12  1  0.99998230  0.00003138  0.12195474  1
  Na  Na13  1  0.99999041  0.00002277  0.37804564  1
  Na  Na14  1  0.99998894  0.00004067  0.62197068  1
  Na  Na15  1  0.99999702  0.00002948  0.87802735  1
  P  P16  1  0.33330999  0.66670153  0.05351325  1
  P  P17  1  0.33334397  0.66669079  0.44648465  1
  P  P18  1  0.66666705  0.33338665  0.55353622  1
  P  P19  1  0.66667007  0.33339270  0.94646530  1
  Ru  Ru20  1  0.33334566  0.66667434  0.70303232  1
  Ru  Ru21  1  0.33337354  0.66666481  0.79697209  1
  Ru  Ru22  1  0.66663805  0.33332254  0.20303026  1
  Ru  Ru23  1  0.66663778  0.33330771  0.29697181  1
  O  O24  1  0.17584706  0.82435514  0.66836426  1
  O  O25  1  0.17584271  0.82429709  0.83164143  1
  O  O26  1  0.97413893  0.48711446  0.24999977  1
  O  O27  1  0.18880788  0.81136247  0.07223552  1
  O  O28  1  0.18879143  0.81128607  0.42775420  1
  O  O29  1  0.51282131  0.02581417  0.24999943  1
  O  O30  1  0.18865656  0.37753026  0.07224207  1
  O  O31  1  0.17566424  0.35156004  0.66835919  1
  O  O32  1  0.33330797  0.66670934  0.49863788  1
  O  O33  1  0.33330239  0.66665804  0.00136299  1
  O  O34  1  0.18875292  0.37750833  0.42776400  1
  O  O35  1  0.17582534  0.35155293  0.83164164  1
  O  O36  1  0.62247877  0.81120703  0.07223769  1
  O  O37  1  0.62251902  0.81124412  0.42776712  1
  O  O38  1  0.35150560  0.17588594  0.16835730  1
  O  O39  1  0.35150742  0.17588015  0.33164443  1
  O  O40  1  0.51286924  0.48708415  0.25000064  1
  O  O41  1  0.48716533  0.51298991  0.74999571  1
  O  O42  1  0.64845533  0.82415843  0.66835868  1
  O  O43  1  0.64849109  0.82419390  0.83164009  1
  O  O44  1  0.37752045  0.18888952  0.57226133  1
  O  O45  1  0.37752188  0.18888824  0.92774285  1
  O  O46  1  0.48700778  0.97417738  0.74999826  1
  O  O47  1  0.66667268  0.33340032  0.50137670  1
  O  O48  1  0.66668234  0.33338691  0.99862510  1
  O  O49  1  0.82433391  0.64850167  0.16836144  1
  O  O50  1  0.82432285  0.64848987  0.33163973  1
  O  O51  1  0.81132133  0.62253610  0.57226279  1
  O  O52  1  0.81132140  0.62254176  0.92773970  1
  O  O53  1  0.81115930  0.18872872  0.57226126  1
  O  O54  1  0.81116684  0.18873603  0.92773924  1
  O  O55  1  0.02584416  0.51287038  0.75000184  1
  O  O56  1  0.82411624  0.17568101  0.16836043  1
  O  O57  1  0.82412276  0.17567951  0.33164156  1
