# generated using pymatgen
data_Li2Ti3VO8
_symmetry_space_group_name_H-M   'P 1'
_cell_length_a   8.48962812
_cell_length_b   8.48947981
_cell_length_c   8.49026147
_cell_angle_alpha   90.00224421
_cell_angle_beta   90.00048925
_cell_angle_gamma   90.00283382
_symmetry_Int_Tables_number   1
_chemical_formula_structural   Li2Ti3VO8
_chemical_formula_sum   'Li8 Ti12 V4 O32'
_cell_volume   611.91459433
_cell_formula_units_Z   4
loop_
 _symmetry_equiv_pos_site_id
 _symmetry_equiv_pos_as_xyz
  1  'x, y, z'
loop_
 _atom_site_type_symbol
 _atom_site_label
 _atom_site_symmetry_multiplicity
 _atom_site_fract_x
 _atom_site_fract_y
 _atom_site_fract_z
 _atom_site_occupancy
  Li  Li0  1  0.99908557  0.99899004  0.99911448  1
  Li  Li1  1  0.25088550  0.25100771  0.25090896  1
  Li  Li2  1  0.24902672  0.74913378  0.75090443  1
  Li  Li3  1  0.50097099  0.00087025  0.49908178  1
  Li  Li4  1  0.49910055  0.50087529  0.00097232  1
  Li  Li5  1  0.75091945  0.24914995  0.74904578  1
  Li  Li6  1  0.74905022  0.75100059  0.24904306  1
  Li  Li7  1  0.00096526  0.49898931  0.50094904  1
  Ti  Ti8  1  0.12806526  0.12198402  0.62497172  1
  Ti  Ti9  1  0.12495959  0.37189787  0.87807147  1
  Ti  Ti10  1  0.12186441  0.62499795  0.12813979  1
  Ti  Ti11  1  0.37803083  0.37501920  0.62807434  1
  Ti  Ti12  1  0.37499415  0.62804781  0.37806924  1
  Ti  Ti13  1  0.37195348  0.87810983  0.12504148  1
  Ti  Ti14  1  0.62812173  0.37813152  0.37498026  1
  Ti  Ti15  1  0.62504249  0.12803317  0.12190785  1
  Ti  Ti16  1  0.62192790  0.87497742  0.87196889  1
  Ti  Ti17  1  0.87809171  0.12501248  0.37190894  1
  Ti  Ti18  1  0.87501498  0.87186427  0.62186987  1
  Ti  Ti19  1  0.87194060  0.62195119  0.87502684  1
  V  V20  1  0.12499894  0.87497917  0.37500784  1
  V  V21  1  0.37499382  0.12500591  0.87499527  1
  V  V22  1  0.62500806  0.62501115  0.62498730  1
  V  V23  1  0.87499425  0.37500640  0.12501349  1
  O  O24  1  0.10748440  0.12415700  0.39044128  1
  O  O25  1  0.10950853  0.89253498  0.62411410  1
  O  O26  1  0.11054580  0.61061417  0.88947031  1
  O  O27  1  0.12578595  0.14253398  0.85948110  1
  O  O28  1  0.12411827  0.39048873  0.10747058  1
  O  O29  1  0.13941255  0.36056063  0.63940976  1
  O  O30  1  0.14047342  0.62582489  0.35751097  1
  O  O31  1  0.14251939  0.85948426  0.12590453  1
  O  O32  1  0.35744515  0.14051902  0.62579744  1
  O  O33  1  0.35944753  0.37419266  0.85743811  1
  O  O34  1  0.36052221  0.63941967  0.13945474  1
  O  O35  1  0.37582282  0.60957257  0.60743466  1
  O  O36  1  0.37413588  0.85746108  0.35955900  1
  O  O37  1  0.38942208  0.38943919  0.38937947  1
  O  O38  1  0.39051481  0.10747206  0.12419682  1
  O  O39  1  0.39254640  0.87581195  0.89054377  1
  O  O40  1  0.60745829  0.37587544  0.60946467  1
  O  O41  1  0.60952757  0.60751895  0.37582621  1
  O  O42  1  0.61060334  0.88940841  0.11060446  1
  O  O43  1  0.62589015  0.35747147  0.14049612  1
  O  O44  1  0.62421152  0.10951328  0.89256579  1
  O  O45  1  0.63949886  0.13946228  0.36058496  1
  O  O46  1  0.64054561  0.87413627  0.64255032  1
  O  O47  1  0.64253599  0.64045379  0.87416087  1
  O  O48  1  0.85751853  0.35952218  0.37414430  1
  O  O49  1  0.85956187  0.12584229  0.14252992  1
  O  O50  1  0.86059089  0.86053207  0.86058048  1
  O  O51  1  0.87585231  0.89046495  0.39251236  1
  O  O52  1  0.87417904  0.64250038  0.64049356  1
  O  O53  1  0.88940126  0.11059150  0.61053192  1
  O  O54  1  0.89042547  0.39253519  0.87588375  1
  O  O55  1  0.89248561  0.62417643  0.10954621  1
