# generated using pymatgen
data_P2H9(CBr)3
_symmetry_space_group_name_H-M   'P 1'
_cell_length_a   7.30214521
_cell_length_b   17.16143340
_cell_length_c   8.38769886
_cell_angle_alpha   90.00000000
_cell_angle_beta   106.28590973
_cell_angle_gamma   90.00000000
_symmetry_Int_Tables_number   1
_chemical_formula_structural   P2H9(CBr)3
_chemical_formula_sum   'P8 H36 C12 Br12'
_cell_volume   1008.93040711
_cell_formula_units_Z   4
loop_
 _symmetry_equiv_pos_site_id
 _symmetry_equiv_pos_as_xyz
  1  'x, y, z'
loop_
 _atom_site_type_symbol
 _atom_site_label
 _atom_site_symmetry_multiplicity
 _atom_site_fract_x
 _atom_site_fract_y
 _atom_site_fract_z
 _atom_site_occupancy
  P  P0  1  0.04958386  0.91500867  0.21188484  1
  P  P1  1  0.16917250  0.37312684  0.33103026  1
  P  P2  1  0.33082750  0.87312684  0.16896974  1
  P  P3  1  0.54958386  0.58499133  0.71188484  1
  P  P4  1  0.45041614  0.41500867  0.28811516  1
  P  P5  1  0.66917250  0.12687316  0.83103026  1
  P  P6  1  0.83082750  0.62687316  0.66896974  1
  P  P7  1  0.95041614  0.08499133  0.78811516  1
  H  H8  1  0.03190389  0.60197153  0.94421912  1
  H  H9  1  0.00780541  0.74356798  0.67661549  1
  H  H10  1  0.04235049  0.52267298  0.80905332  1
  H  H11  1  0.03153240  0.38486555  0.55962946  1
  H  H12  1  0.16443563  0.61303403  0.79557608  1
  H  H13  1  0.21507282  0.86818458  0.87071200  1
  H  H14  1  0.30175807  0.96265846  0.94192808  1
  H  H15  1  0.19824193  0.46265846  0.55807192  1
  H  H16  1  0.28492718  0.36818458  0.62928800  1
  H  H17  1  0.14794968  0.24850515  0.19104453  1
  H  H18  1  0.24278834  0.23821572  0.41016636  1
  H  H19  1  0.33556437  0.11303403  0.70442392  1
  H  H20  1  0.46846760  0.88486555  0.94037054  1
  H  H21  1  0.45764951  0.02267298  0.69094668  1
  H  H22  1  0.25721166  0.73821572  0.08983364  1
  H  H23  1  0.49219459  0.24356798  0.82338451  1
  H  H24  1  0.35205032  0.74850515  0.30895547  1
  H  H25  1  0.46809611  0.10197153  0.55578088  1
  H  H26  1  0.53190389  0.89802847  0.44421912  1
  H  H27  1  0.64794968  0.25149485  0.69104453  1
  H  H28  1  0.50780541  0.75643202  0.17661549  1
  H  H29  1  0.74278834  0.26178428  0.91016636  1
  H  H30  1  0.54235049  0.97732702  0.30905332  1
  H  H31  1  0.53153240  0.11513445  0.05962946  1
  H  H32  1  0.66443563  0.88696597  0.29557608  1
  H  H33  1  0.75721166  0.76178428  0.58983364  1
  H  H34  1  0.85205032  0.75149485  0.80895547  1
  H  H35  1  0.71507282  0.63181542  0.37071200  1
  H  H36  1  0.80175807  0.53734154  0.44192808  1
  H  H37  1  0.69824193  0.03734154  0.05807192  1
  H  H38  1  0.78492718  0.13181542  0.12928800  1
  H  H39  1  0.83556437  0.38696597  0.20442392  1
  H  H40  1  0.96846760  0.61513445  0.44037054  1
  H  H41  1  0.95764951  0.47732702  0.19094668  1
  H  H42  1  0.99219459  0.25643202  0.32338451  1
  H  H43  1  0.96809611  0.39802847  0.05578088  1
  C  C44  1  0.03743375  0.58621476  0.81839294  1
  C  C45  1  0.17034361  0.40001592  0.54023628  1
  C  C46  1  0.32965639  0.90001592  0.95976372  1
  C  C47  1  0.13616911  0.26873040  0.31188054  1
  C  C48  1  0.46256625  0.08621476  0.68160706  1
  C  C49  1  0.36383089  0.76873040  0.18811946  1
  C  C50  1  0.63616911  0.23126960  0.81188054  1
  C  C51  1  0.53743375  0.91378524  0.31839294  1
  C  C52  1  0.86383089  0.73126960  0.68811946  1
  C  C53  1  0.67034361  0.09998408  0.04023628  1
  C  C54  1  0.82965639  0.59998408  0.45976372  1
  C  C55  1  0.96256625  0.41378524  0.18160706  1
  Br  Br56  1  0.09641000  0.21677258  0.83089073  1
  Br  Br57  1  0.15246694  0.90441709  0.49443914  1
  Br  Br58  1  0.18939624  0.05775822  0.19665447  1
  Br  Br59  1  0.40359000  0.71677258  0.66910927  1
  Br  Br60  1  0.31060376  0.55775822  0.30334553  1
  Br  Br61  1  0.65246694  0.59558291  0.99443914  1
  Br  Br62  1  0.34753306  0.40441709  0.00556086  1
  Br  Br63  1  0.68939624  0.44224178  0.69665447  1
  Br  Br64  1  0.59641000  0.28322742  0.33089073  1
  Br  Br65  1  0.81060376  0.94224178  0.80334553  1
  Br  Br66  1  0.84753306  0.09558291  0.50556086  1
  Br  Br67  1  0.90359000  0.78322742  0.16910927  1
