# generated using pymatgen
data_Sn(PO3)2
_symmetry_space_group_name_H-M   'P 1'
_cell_length_a   9.97153037
_cell_length_b   15.19318361
_cell_length_c   7.35476357
_cell_angle_alpha   90.00000000
_cell_angle_beta   90.00000000
_cell_angle_gamma   90.00000000
_symmetry_Int_Tables_number   1
_chemical_formula_structural   Sn(PO3)2
_chemical_formula_sum   'Sn8 P16 O48'
_cell_volume   1114.24147209
_cell_formula_units_Z   8
loop_
 _symmetry_equiv_pos_site_id
 _symmetry_equiv_pos_as_xyz
  1  'x, y, z'
loop_
 _atom_site_type_symbol
 _atom_site_label
 _atom_site_symmetry_multiplicity
 _atom_site_fract_x
 _atom_site_fract_y
 _atom_site_fract_z
 _atom_site_occupancy
  Sn  Sn0  1  0.00595607  0.69577821  0.44037383  1
  Sn  Sn1  1  0.00595607  0.80422179  0.94037383  1
  Sn  Sn2  1  0.49404393  0.30422179  0.94037383  1
  Sn  Sn3  1  0.49404393  0.19577821  0.44037383  1
  Sn  Sn4  1  0.50595607  0.69577821  0.05962617  1
  Sn  Sn5  1  0.50595607  0.80422179  0.55962617  1
  Sn  Sn6  1  0.99404393  0.19577821  0.05962617  1
  Sn  Sn7  1  0.99404393  0.30422179  0.55962617  1
  P  P8  1  0.20099731  0.91306516  0.58802887  1
  P  P9  1  0.20099731  0.58693484  0.08802887  1
  P  P10  1  0.21719910  0.09918672  0.70046200  1
  P  P11  1  0.21719910  0.40081328  0.20046200  1
  P  P12  1  0.28280090  0.59918672  0.70046200  1
  P  P13  1  0.28280090  0.90081328  0.20046200  1
  P  P14  1  0.29900269  0.08693484  0.08802887  1
  P  P15  1  0.29900269  0.41306516  0.58802887  1
  P  P16  1  0.70099731  0.91306516  0.91197113  1
  P  P17  1  0.70099731  0.58693484  0.41197113  1
  P  P18  1  0.71719910  0.09918672  0.79953800  1
  P  P19  1  0.71719910  0.40081328  0.29953800  1
  P  P20  1  0.78280090  0.90081328  0.29953800  1
  P  P21  1  0.78280090  0.59918672  0.79953800  1
  P  P22  1  0.79900269  0.08693484  0.41197113  1
  P  P23  1  0.79900269  0.41306516  0.91197113  1
  O  O24  1  0.10353238  0.84304677  0.64986155  1
  O  O25  1  0.10353238  0.65695323  0.14986155  1
  O  O26  1  0.11076300  0.33605648  0.25760393  1
  O  O27  1  0.11076300  0.16394352  0.75760393  1
  O  O28  1  0.14384838  0.00584951  0.66094012  1
  O  O29  1  0.14384838  0.49415049  0.16094012  1
  O  O30  1  0.15277460  0.40383416  0.63775744  1
  O  O31  1  0.15277460  0.09616584  0.13775744  1
  O  O32  1  0.18471388  0.92201014  0.37021304  1
  O  O33  1  0.18471388  0.57798986  0.87021304  1
  O  O34  1  0.19478253  0.62162749  0.54066214  1
  O  O35  1  0.19478253  0.87837251  0.04066214  1
  O  O36  1  0.30521747  0.12162749  0.54066214  1
  O  O37  1  0.30521747  0.37837251  0.04066214  1
  O  O38  1  0.31528612  0.07798986  0.87021304  1
  O  O39  1  0.31528612  0.42201014  0.37021304  1
  O  O40  1  0.34722540  0.59616584  0.13775744  1
  O  O41  1  0.34722540  0.90383416  0.63775744  1
  O  O42  1  0.35615162  0.50584951  0.66094012  1
  O  O43  1  0.35615162  0.99415049  0.16094012  1
  O  O44  1  0.38923700  0.66394352  0.75760393  1
  O  O45  1  0.38923700  0.83605648  0.25760393  1
  O  O46  1  0.39646762  0.15695323  0.14986155  1
  O  O47  1  0.39646762  0.34304677  0.64986155  1
  O  O48  1  0.60353238  0.65695323  0.35013845  1
  O  O49  1  0.60353238  0.84304677  0.85013845  1
  O  O50  1  0.61076300  0.16394352  0.74239607  1
  O  O51  1  0.61076300  0.33605648  0.24239607  1
  O  O52  1  0.64384838  0.00584951  0.83905988  1
  O  O53  1  0.64384838  0.49415049  0.33905988  1
  O  O54  1  0.65277460  0.09616584  0.36224256  1
  O  O55  1  0.65277460  0.40383416  0.86224256  1
  O  O56  1  0.68471388  0.92201014  0.12978696  1
  O  O57  1  0.68471388  0.57798986  0.62978696  1
  O  O58  1  0.69478253  0.87837251  0.45933786  1
  O  O59  1  0.69478253  0.62162749  0.95933786  1
  O  O60  1  0.80521747  0.12162749  0.95933786  1
  O  O61  1  0.80521747  0.37837251  0.45933786  1
  O  O62  1  0.81528612  0.07798986  0.62978696  1
  O  O63  1  0.81528612  0.42201014  0.12978696  1
  O  O64  1  0.84722540  0.90383416  0.86224256  1
  O  O65  1  0.84722540  0.59616584  0.36224256  1
  O  O66  1  0.85615162  0.50584951  0.83905988  1
  O  O67  1  0.85615162  0.99415049  0.33905988  1
  O  O68  1  0.88923700  0.66394352  0.74239607  1
  O  O69  1  0.88923700  0.83605648  0.24239607  1
  O  O70  1  0.89646762  0.15695323  0.35013845  1
  O  O71  1  0.89646762  0.34304677  0.85013845  1
