# generated using pymatgen
data_Rb6Ti2O7
_symmetry_space_group_name_H-M   'P 1'
_cell_length_a   6.91547566
_cell_length_b   9.75584682
_cell_length_c   9.88050174
_cell_angle_alpha   90.00000000
_cell_angle_beta   92.43854066
_cell_angle_gamma   90.00000000
_symmetry_Int_Tables_number   1
_chemical_formula_structural   Rb6Ti2O7
_chemical_formula_sum   'Rb12 Ti4 O14'
_cell_volume   665.99745430
_cell_formula_units_Z   2
loop_
 _symmetry_equiv_pos_site_id
 _symmetry_equiv_pos_as_xyz
  1  'x, y, z'
loop_
 _atom_site_type_symbol
 _atom_site_label
 _atom_site_symmetry_multiplicity
 _atom_site_fract_x
 _atom_site_fract_y
 _atom_site_fract_z
 _atom_site_occupancy
  Rb  Rb0  1  0.11705905  0.78443360  0.72196870  1
  Rb  Rb1  1  0.11531376  0.64858200  0.08123006  1
  Rb  Rb2  1  0.24798186  0.52624501  0.45359840  1
  Rb  Rb3  1  0.25201814  0.02624501  0.04640160  1
  Rb  Rb4  1  0.38294095  0.28443360  0.77803130  1
  Rb  Rb5  1  0.38468624  0.14858200  0.41876994  1
  Rb  Rb6  1  0.61531376  0.85141800  0.58123006  1
  Rb  Rb7  1  0.61705905  0.71556640  0.22196870  1
  Rb  Rb8  1  0.74798186  0.97375499  0.95359840  1
  Rb  Rb9  1  0.75201814  0.47375499  0.54640160  1
  Rb  Rb10  1  0.88468624  0.35141800  0.91876994  1
  Rb  Rb11  1  0.88294095  0.21556640  0.27803130  1
  Ti  Ti12  1  0.05032856  0.86183450  0.37107087  1
  Ti  Ti13  1  0.44967144  0.36183450  0.12892913  1
  Ti  Ti14  1  0.55032856  0.63816550  0.87107087  1
  Ti  Ti15  1  0.94967144  0.13816550  0.62892913  1
  O  O16  1  0.00000000  0.00000000  0.50000000  1
  O  O17  1  0.04829848  0.08964365  0.79596317  1
  O  O18  1  0.07309122  0.29112826  0.57153975  1
  O  O19  1  0.18826841  0.33403036  0.13238362  1
  O  O20  1  0.31173159  0.83403036  0.36761638  1
  O  O21  1  0.42690878  0.79112826  0.92846025  1
  O  O22  1  0.45170152  0.58964365  0.70403683  1
  O  O23  1  0.50000000  0.50000000  0.00000000  1
  O  O24  1  0.54829848  0.41035635  0.29596317  1
  O  O25  1  0.57309122  0.20887174  0.07153975  1
  O  O26  1  0.68826841  0.16596964  0.63238362  1
  O  O27  1  0.81173159  0.66596964  0.86761638  1
  O  O28  1  0.92690878  0.70887174  0.42846025  1
  O  O29  1  0.95170152  0.91035635  0.20403683  1
