# generated using pymatgen
data_Tm2GeO5
_symmetry_space_group_name_H-M   'P 1'
_cell_length_a   6.80738077
_cell_length_b   8.16142552
_cell_length_c   9.64490724
_cell_angle_alpha   109.31585799
_cell_angle_beta   69.33518521
_cell_angle_gamma   114.64823690
_symmetry_Int_Tables_number   1
_chemical_formula_structural   Tm2GeO5
_chemical_formula_sum   'Tm8 Ge4 O20'
_cell_volume   444.94541970
_cell_formula_units_Z   4
loop_
 _symmetry_equiv_pos_site_id
 _symmetry_equiv_pos_as_xyz
  1  'x, y, z'
loop_
 _atom_site_type_symbol
 _atom_site_label
 _atom_site_symmetry_multiplicity
 _atom_site_fract_x
 _atom_site_fract_y
 _atom_site_fract_z
 _atom_site_occupancy
  Tm  Tm0  1  0.27493914  0.10372434  0.03456534  1
  Tm  Tm1  1  0.73556276  0.06424965  0.33700173  1
  Tm  Tm2  1  0.00831484  0.43575035  0.16299827  1
  Tm  Tm3  1  0.20577915  0.39627566  0.46543466  1
  Tm  Tm4  1  0.79422085  0.60372434  0.53456534  1
  Tm  Tm5  1  0.99168516  0.56424965  0.83700173  1
  Tm  Tm6  1  0.26443724  0.93575035  0.66299827  1
  Tm  Tm7  1  0.72506086  0.89627566  0.96543466  1
  Ge  Ge8  1  0.59172755  0.56091530  0.19054560  1
  Ge  Ge9  1  0.77864215  0.06091530  0.69054560  1
  Ge  Ge10  1  0.22135785  0.93908470  0.30945440  1
  Ge  Ge11  1  0.40827245  0.43908470  0.80945440  1
  O  O12  1  0.91910283  0.13662807  0.10223213  1
  O  O13  1  0.78185264  0.45946425  0.05025744  1
  O  O14  1  0.08401605  0.09197608  0.32343726  1
  O  O15  1  0.31547723  0.40802392  0.17656274  1
  O  O16  1  0.37264583  0.04053575  0.44974256  1
  O  O17  1  0.88470588  0.36337193  0.39776787  1
  O  O18  1  0.65219307  0.78634579  0.17481002  1
  O  O19  1  0.57829681  0.52951873  0.36687874  1
  O  O20  1  0.41565682  0.97048127  0.13312126  1
  O  O21  1  0.04065729  0.71365421  0.32518998  1
  O  O22  1  0.95934271  0.28634579  0.67481002  1
  O  O23  1  0.58434318  0.02951873  0.86687874  1
  O  O24  1  0.42170319  0.47048127  0.63312126  1
  O  O25  1  0.34780693  0.21365421  0.82518998  1
  O  O26  1  0.11529412  0.63662807  0.60223213  1
  O  O27  1  0.62735417  0.95946425  0.55025744  1
  O  O28  1  0.68452277  0.59197608  0.82343726  1
  O  O29  1  0.91598395  0.90802392  0.67656274  1
  O  O30  1  0.21814736  0.54053575  0.94974256  1
  O  O31  1  0.08089717  0.86337193  0.89776787  1
