# generated using pymatgen
data_H10SeO8
_symmetry_space_group_name_H-M   'P 1'
_cell_length_a   6.26585493
_cell_length_b   12.78657520
_cell_length_c   9.29797281
_cell_angle_alpha   90.00000000
_cell_angle_beta   90.00000000
_cell_angle_gamma   90.00000000
_symmetry_Int_Tables_number   1
_chemical_formula_structural   H10SeO8
_chemical_formula_sum   'H40 Se4 O32'
_cell_volume   744.94265879
_cell_formula_units_Z   4
loop_
 _symmetry_equiv_pos_site_id
 _symmetry_equiv_pos_as_xyz
  1  'x, y, z'
loop_
 _atom_site_type_symbol
 _atom_site_label
 _atom_site_symmetry_multiplicity
 _atom_site_fract_x
 _atom_site_fract_y
 _atom_site_fract_z
 _atom_site_occupancy
  H  H0  1  0.01244117  0.10704127  0.20128549  1
  H  H1  1  0.01244117  0.39295873  0.20128549  1
  H  H2  1  0.05756126  0.14419687  0.36786285  1
  H  H3  1  0.05756126  0.35580313  0.36786285  1
  H  H4  1  0.06402237  0.00923920  0.33229993  1
  H  H5  1  0.06402237  0.49076080  0.33229993  1
  H  H6  1  0.12199186  0.64269439  0.29302891  1
  H  H7  1  0.12199186  0.85730561  0.29302891  1
  H  H8  1  0.23501799  0.09953248  0.92370917  1
  H  H9  1  0.23501799  0.40046752  0.92370917  1
  H  H10  1  0.26498201  0.59953248  0.42370917  1
  H  H11  1  0.26498201  0.90046752  0.42370917  1
  H  H12  1  0.37800814  0.14269439  0.79302891  1
  H  H13  1  0.37800814  0.35730561  0.79302891  1
  H  H14  1  0.43597763  0.50923920  0.83229993  1
  H  H15  1  0.43597763  0.99076080  0.83229993  1
  H  H16  1  0.44243874  0.64419687  0.86786285  1
  H  H17  1  0.44243874  0.85580313  0.86786285  1
  H  H18  1  0.48755883  0.60704127  0.70128549  1
  H  H19  1  0.48755883  0.89295873  0.70128549  1
  H  H20  1  0.51244117  0.10704127  0.29871451  1
  H  H21  1  0.51244117  0.39295873  0.29871451  1
  H  H22  1  0.55756126  0.14419687  0.13213715  1
  H  H23  1  0.55756126  0.35580313  0.13213715  1
  H  H24  1  0.56402237  0.00923920  0.16770007  1
  H  H25  1  0.56402237  0.49076080  0.16770007  1
  H  H26  1  0.62199186  0.64269439  0.20697109  1
  H  H27  1  0.62199186  0.85730561  0.20697109  1
  H  H28  1  0.73501799  0.09953248  0.57629083  1
  H  H29  1  0.73501799  0.40046752  0.57629083  1
  H  H30  1  0.76498201  0.59953248  0.07629083  1
  H  H31  1  0.76498201  0.90046752  0.07629083  1
  H  H32  1  0.87800814  0.14269439  0.70697109  1
  H  H33  1  0.87800814  0.35730561  0.70697109  1
  H  H34  1  0.93597763  0.50923920  0.66770007  1
  H  H35  1  0.93597763  0.99076080  0.66770007  1
  H  H36  1  0.94243874  0.64419687  0.63213715  1
  H  H37  1  0.94243874  0.85580313  0.63213715  1
  H  H38  1  0.98755883  0.60704127  0.79871451  1
  H  H39  1  0.98755883  0.89295873  0.79871451  1
  Se  Se40  1  0.10655687  0.75000000  0.01462547  1
  Se  Se41  1  0.39344313  0.25000000  0.51462547  1
  Se  Se42  1  0.60655687  0.75000000  0.48537453  1
  Se  Se43  1  0.89344313  0.25000000  0.98537453  1
  O  O44  1  0.00782865  0.58666324  0.69349550  1
  O  O45  1  0.00782865  0.91333676  0.69349550  1
  O  O46  1  0.02107894  0.14022318  0.03593541  1
  O  O47  1  0.02107894  0.35977682  0.03593541  1
  O  O48  1  0.12253065  0.75000000  0.19276905  1
  O  O49  1  0.13387140  0.58578866  0.36654811  1
  O  O50  1  0.13387140  0.91421134  0.36654811  1
  O  O51  1  0.15138170  0.25000000  0.43568293  1
  O  O52  1  0.34861830  0.75000000  0.93568293  1
  O  O53  1  0.36612860  0.08578866  0.86654811  1
  O  O54  1  0.36612860  0.41421134  0.86654811  1
  O  O55  1  0.37746935  0.25000000  0.69276905  1
  O  O56  1  0.47892106  0.64022318  0.53593541  1
  O  O57  1  0.47892106  0.85977682  0.53593541  1
  O  O58  1  0.49217135  0.08666324  0.19349550  1
  O  O59  1  0.49217135  0.41333676  0.19349550  1
  O  O60  1  0.50782865  0.58666324  0.80650450  1
  O  O61  1  0.50782865  0.91333676  0.80650450  1
  O  O62  1  0.52107894  0.14022318  0.46406459  1
  O  O63  1  0.52107894  0.35977682  0.46406459  1
  O  O64  1  0.62253065  0.75000000  0.30723095  1
  O  O65  1  0.63387140  0.58578866  0.13345189  1
  O  O66  1  0.63387140  0.91421134  0.13345189  1
  O  O67  1  0.65138170  0.25000000  0.06431707  1
  O  O68  1  0.84861830  0.75000000  0.56431707  1
  O  O69  1  0.86612860  0.08578866  0.63345189  1
  O  O70  1  0.86612860  0.41421134  0.63345189  1
  O  O71  1  0.87746935  0.25000000  0.80723095  1
  O  O72  1  0.97892106  0.64022318  0.96406459  1
  O  O73  1  0.97892106  0.85977682  0.96406459  1
  O  O74  1  0.99217135  0.08666324  0.30650450  1
  O  O75  1  0.99217135  0.41333676  0.30650450  1
