# generated using pymatgen
data_InP(H2O3)2
_symmetry_space_group_name_H-M   'P 1'
_cell_length_a   5.50324184
_cell_length_b   10.37463883
_cell_length_c   8.95624320
_cell_angle_alpha   90.00000000
_cell_angle_beta   91.32591713
_cell_angle_gamma   90.00000000
_symmetry_Int_Tables_number   1
_chemical_formula_structural   InP(H2O3)2
_chemical_formula_sum   'In4 P4 H16 O24'
_cell_volume   511.21214451
_cell_formula_units_Z   4
loop_
 _symmetry_equiv_pos_site_id
 _symmetry_equiv_pos_as_xyz
  1  'x, y, z'
loop_
 _atom_site_type_symbol
 _atom_site_label
 _atom_site_symmetry_multiplicity
 _atom_site_fract_x
 _atom_site_fract_y
 _atom_site_fract_z
 _atom_site_occupancy
  In  In0  1  0.09377214  0.82967010  0.19856916  1
  In  In1  1  0.40622786  0.32967010  0.30143084  1
  In  In2  1  0.59377214  0.67032990  0.69856916  1
  In  In3  1  0.90622786  0.17032990  0.80143084  1
  P  P4  1  0.09117852  0.85053416  0.81708295  1
  P  P5  1  0.40882148  0.35053416  0.68291705  1
  P  P6  1  0.59117852  0.64946584  0.31708295  1
  P  P7  1  0.90882148  0.14946584  0.18291705  1
  H  H8  1  0.08404508  0.54343675  0.68661017  1
  H  H9  1  0.10270380  0.16440612  0.52561247  1
  H  H10  1  0.15299482  0.54562674  0.27653196  1
  H  H11  1  0.17756551  0.83476829  0.51727971  1
  H  H12  1  0.32243449  0.33476829  0.98272029  1
  H  H13  1  0.34700518  0.04562674  0.22346804  1
  H  H14  1  0.39729620  0.66440612  0.97438753  1
  H  H15  1  0.41595492  0.04343675  0.81338983  1
  H  H16  1  0.58404508  0.95656325  0.18661017  1
  H  H17  1  0.60270380  0.33559388  0.02561247  1
  H  H18  1  0.65299482  0.95437326  0.77653196  1
  H  H19  1  0.67756551  0.66523171  0.01727971  1
  H  H20  1  0.82243449  0.16523171  0.48272029  1
  H  H21  1  0.84700518  0.45437326  0.72346804  1
  H  H22  1  0.89729620  0.83559388  0.47438753  1
  H  H23  1  0.91595492  0.45656325  0.31338983  1
  O  O24  1  0.05768170  0.86475113  0.43970162  1
  O  O25  1  0.12574867  0.77801897  0.96773566  1
  O  O26  1  0.09285061  0.45504806  0.28887217  1
  O  O27  1  0.13253768  0.99842130  0.83742079  1
  O  O28  1  0.17236918  0.16747654  0.24793685  1
  O  O29  1  0.22590082  0.29469282  0.79592983  1
  O  O30  1  0.27409918  0.79469282  0.70407017  1
  O  O31  1  0.32763082  0.66747654  0.25206315  1
  O  O32  1  0.36746232  0.49842130  0.66257921  1
  O  O33  1  0.37425133  0.27801897  0.53226434  1
  O  O34  1  0.40714939  0.95504806  0.21112783  1
  O  O35  1  0.44231830  0.36475113  0.06029838  1
  O  O36  1  0.55768170  0.63524887  0.93970162  1
  O  O37  1  0.59285061  0.04495194  0.78887217  1
  O  O38  1  0.62574867  0.72198103  0.46773566  1
  O  O39  1  0.63253768  0.50157870  0.33742079  1
  O  O40  1  0.67236918  0.33252346  0.74793685  1
  O  O41  1  0.72590082  0.20530718  0.29592983  1
  O  O42  1  0.77409918  0.70530718  0.20407017  1
  O  O43  1  0.82763082  0.83252346  0.75206315  1
  O  O44  1  0.86746232  0.00157870  0.16257921  1
  O  O45  1  0.90714939  0.54495194  0.71112783  1
  O  O46  1  0.87425133  0.22198103  0.03226434  1
  O  O47  1  0.94231830  0.13524887  0.56029838  1
