# generated using pymatgen
data_K2Li3NiO4
_symmetry_space_group_name_H-M   'P 1'
_cell_length_a   5.54561970
_cell_length_b   8.79584033
_cell_length_c   10.96674549
_cell_angle_alpha   90.00000000
_cell_angle_beta   111.50044511
_cell_angle_gamma   90.00000000
_symmetry_Int_Tables_number   1
_chemical_formula_structural   K2Li3NiO4
_chemical_formula_sum   'K8 Li12 Ni4 O16'
_cell_volume   497.71617972
_cell_formula_units_Z   4
loop_
 _symmetry_equiv_pos_site_id
 _symmetry_equiv_pos_as_xyz
  1  'x, y, z'
loop_
 _atom_site_type_symbol
 _atom_site_label
 _atom_site_symmetry_multiplicity
 _atom_site_fract_x
 _atom_site_fract_y
 _atom_site_fract_z
 _atom_site_occupancy
  K  K0  1  0.28022422  0.77214092  0.89160212  1
  K  K1  1  0.29158283  0.50777075  0.63795593  1
  K  K2  1  0.28022422  0.72785908  0.39160212  1
  K  K3  1  0.70841717  0.00777075  0.86204407  1
  K  K4  1  0.29158283  0.99222925  0.13795593  1
  K  K5  1  0.71977578  0.27214092  0.60839788  1
  K  K6  1  0.70841717  0.49222925  0.36204407  1
  K  K7  1  0.71977578  0.22785908  0.10839788  1
  Li  Li8  1  0.09246882  0.03031811  0.70054933  1
  Li  Li9  1  0.37571578  0.26347082  0.80164275  1
  Li  Li10  1  0.09246882  0.46968189  0.20054933  1
  Li  Li11  1  0.63394355  0.49411128  0.93296229  1
  Li  Li12  1  0.36605645  0.99411128  0.56703771  1
  Li  Li13  1  0.62428422  0.76347082  0.69835725  1
  Li  Li14  1  0.37571578  0.23652918  0.30164275  1
  Li  Li15  1  0.63394355  0.00588872  0.43296229  1
  Li  Li16  1  0.36605645  0.50588872  0.06703771  1
  Li  Li17  1  0.90753118  0.53031811  0.79945067  1
  Li  Li18  1  0.62428422  0.73652918  0.19835725  1
  Li  Li19  1  0.90753118  0.96968189  0.29945067  1
  Ni  Ni20  1  0.09979488  0.28583532  0.93775954  1
  Ni  Ni21  1  0.09979488  0.21416468  0.43775954  1
  Ni  Ni22  1  0.90020512  0.78583532  0.56224046  1
  Ni  Ni23  1  0.90020512  0.71416468  0.06224046  1
  O  O24  1  0.21909245  0.10758599  0.88537923  1
  O  O25  1  0.25880565  0.44842565  0.87650519  1
  O  O26  1  0.23425484  0.18925439  0.61976826  1
  O  O27  1  0.25353316  0.82442532  0.64457798  1
  O  O28  1  0.21909245  0.39241401  0.38537923  1
  O  O29  1  0.25880565  0.05157435  0.37650519  1
  O  O30  1  0.74646684  0.32442532  0.85542202  1
  O  O31  1  0.76574516  0.68925439  0.88023174  1
  O  O32  1  0.23425484  0.31074561  0.11976826  1
  O  O33  1  0.25353316  0.67557468  0.14457798  1
  O  O34  1  0.74119435  0.94842565  0.62349481  1
  O  O35  1  0.78090755  0.60758599  0.61462077  1
  O  O36  1  0.74646684  0.17557468  0.35542202  1
  O  O37  1  0.76574516  0.81074561  0.38023174  1
  O  O38  1  0.74119435  0.55157435  0.12349481  1
  O  O39  1  0.78090755  0.89241401  0.11462077  1
