# generated using pymatgen
data_Sm2WO6
_symmetry_space_group_name_H-M   'P 1'
_cell_length_a   5.38725798
_cell_length_b   9.31553006
_cell_length_c   10.18690826
_cell_angle_alpha   90.00000000
_cell_angle_beta   90.00000000
_cell_angle_gamma   90.00000000
_symmetry_Int_Tables_number   1
_chemical_formula_structural   Sm2WO6
_chemical_formula_sum   'Sm8 W4 O24'
_cell_volume   511.23165815
_cell_formula_units_Z   4
loop_
 _symmetry_equiv_pos_site_id
 _symmetry_equiv_pos_as_xyz
  1  'x, y, z'
loop_
 _atom_site_type_symbol
 _atom_site_label
 _atom_site_symmetry_multiplicity
 _atom_site_fract_x
 _atom_site_fract_y
 _atom_site_fract_z
 _atom_site_occupancy
  Sm  Sm0  1  0.02069851  0.39648621  0.03502846  1
  Sm  Sm1  1  0.03599570  0.28123186  0.62954654  1
  Sm  Sm2  1  0.46400430  0.71876814  0.12954654  1
  Sm  Sm3  1  0.47930149  0.60351379  0.53502846  1
  Sm  Sm4  1  0.52069851  0.10351379  0.96497154  1
  Sm  Sm5  1  0.53599570  0.21876814  0.37045346  1
  Sm  Sm6  1  0.96400430  0.78123186  0.87045346  1
  Sm  Sm7  1  0.97930149  0.89648621  0.46497154  1
  W  W8  1  0.03998682  0.00391262  0.15140907  1
  W  W9  1  0.46001318  0.99608738  0.65140907  1
  W  W10  1  0.53998682  0.49608738  0.84859093  1
  W  W11  1  0.96001318  0.50391262  0.34859093  1
  O  O12  1  0.08021432  0.65380042  0.46921489  1
  O  O13  1  0.17207615  0.54814060  0.20594580  1
  O  O14  1  0.18684622  0.86338124  0.68045313  1
  O  O15  1  0.18977751  0.86193630  0.26266928  1
  O  O16  1  0.22653116  0.38721249  0.43245495  1
  O  O17  1  0.25197789  0.08946304  0.50912834  1
  O  O18  1  0.24802211  0.91053696  0.00912834  1
  O  O19  1  0.27346884  0.61278751  0.93245495  1
  O  O20  1  0.31022249  0.13806370  0.76266928  1
  O  O21  1  0.31315378  0.13661876  0.18045313  1
  O  O22  1  0.32792385  0.45185940  0.70594580  1
  O  O23  1  0.41978568  0.34619958  0.96921489  1
  O  O24  1  0.58021432  0.84619958  0.53078511  1
  O  O25  1  0.67207615  0.95185940  0.79405420  1
  O  O26  1  0.68684622  0.63661876  0.31954687  1
  O  O27  1  0.68977751  0.63806370  0.73733072  1
  O  O28  1  0.72653116  0.11278751  0.56754505  1
  O  O29  1  0.75197789  0.41053696  0.49087166  1
  O  O30  1  0.74802211  0.58946304  0.99087166  1
  O  O31  1  0.77346884  0.88721249  0.06754505  1
  O  O32  1  0.81022249  0.36193630  0.23733072  1
  O  O33  1  0.81315378  0.36338124  0.81954687  1
  O  O34  1  0.82792385  0.04814060  0.29405420  1
  O  O35  1  0.91978568  0.15380042  0.03078511  1
