# generated using pymatgen
data_Li2V3WO8
_symmetry_space_group_name_H-M   'P 1'
_cell_length_a   6.00104213
_cell_length_b   5.99236026
_cell_length_c   9.80402364
_cell_angle_alpha   90.25707392
_cell_angle_beta   89.87164401
_cell_angle_gamma   119.95215376
_symmetry_Int_Tables_number   1
_chemical_formula_structural   Li2V3WO8
_chemical_formula_sum   'Li4 V6 W2 O16'
_cell_volume   305.46706070
_cell_formula_units_Z   2
loop_
 _symmetry_equiv_pos_site_id
 _symmetry_equiv_pos_as_xyz
  1  'x, y, z'
loop_
 _atom_site_type_symbol
 _atom_site_label
 _atom_site_symmetry_multiplicity
 _atom_site_fract_x
 _atom_site_fract_y
 _atom_site_fract_z
 _atom_site_occupancy
  Li  Li0  1  0.33322013  0.66651758  0.90098102  1
  Li  Li1  1  0.00077513  0.00028750  0.99252406  1
  Li  Li2  1  0.99922487  0.99951137  0.49252406  1
  Li  Li3  1  0.66677987  0.33329745  0.40098102  1
  V  V4  1  0.17208196  0.83219219  0.21385736  1
  V  V5  1  0.16774135  0.33905863  0.21263448  1
  V  V6  1  0.66028757  0.83404694  0.21374089  1
  V  V7  1  0.33971243  0.17375837  0.71374089  1
  V  V8  1  0.82791804  0.66011123  0.71385736  1
  V  V9  1  0.83225865  0.17131728  0.71263448  1
  W  W10  1  0.33265756  0.66662327  0.48571960  1
  W  W11  1  0.66734244  0.33396671  0.98571960  1
  O  O12  1  0.17233933  0.82946265  0.59329094  1
  O  O13  1  0.03791458  0.51827992  0.34467933  1
  O  O14  1  0.33354196  0.66634655  0.10729129  1
  O  O15  1  0.99937988  0.99922631  0.30803728  1
  O  O16  1  0.00062012  0.99984543  0.80803728  1
  O  O17  1  0.16735991  0.33287361  0.59419908  1
  O  O18  1  0.48189629  0.96354933  0.34451038  1
  O  O19  1  0.47844458  0.52064488  0.34771722  1
  O  O20  1  0.33486986  0.16729619  0.09473709  1
  O  O21  1  0.66513014  0.83242632  0.59473709  1
  O  O22  1  0.51810371  0.48165304  0.84451038  1
  O  O23  1  0.52155542  0.04220030  0.84771722  1
  O  O24  1  0.66645804  0.33280459  0.60729129  1
  O  O25  1  0.82766067  0.65712332  0.09329094  1
  O  O26  1  0.96208542  0.48036634  0.84467933  1
  O  O27  1  0.83264009  0.16551369  0.09419908  1
