# generated using pymatgen
data_K(CoO2)2
_symmetry_space_group_name_H-M   'P 1'
_cell_length_a   5.70645894
_cell_length_b   4.93524589
_cell_length_c   12.59067309
_cell_angle_alpha   90.03957541
_cell_angle_beta   89.99874501
_cell_angle_gamma   90.02868027
_symmetry_Int_Tables_number   1
_chemical_formula_structural   K(CoO2)2
_chemical_formula_sum   'K4 Co8 O16'
_cell_volume   354.58820230
_cell_formula_units_Z   4
loop_
 _symmetry_equiv_pos_site_id
 _symmetry_equiv_pos_as_xyz
  1  'x, y, z'
loop_
 _atom_site_type_symbol
 _atom_site_label
 _atom_site_symmetry_multiplicity
 _atom_site_fract_x
 _atom_site_fract_y
 _atom_site_fract_z
 _atom_site_occupancy
  K  K0  1  0.99983134  0.03673807  0.25100506  1
  K  K1  1  0.99893251  0.36387142  0.74983265  1
  K  K2  1  0.50105971  0.63608806  0.24967524  1
  K  K3  1  0.50018334  0.96323166  0.75096454  1
  Co  Co4  1  0.99887771  0.99953136  0.99810944  1
  Co  Co5  1  0.00000565  0.99975691  0.50136548  1
  Co  Co6  1  0.25150534  0.50004234  0.00006873  1
  Co  Co7  1  0.24846441  0.49994437  0.50007020  1
  Co  Co8  1  0.50000190  0.00024650  0.00136154  1
  Co  Co9  1  0.50112955  0.00043673  0.49809861  1
  Co  Co10  1  0.75018653  0.49994365  0.50003942  1
  Co  Co11  1  0.74985869  0.50004747  0.00003766  1
  O  O12  1  0.00289670  0.33634418  0.42419974  1
  O  O13  1  0.00209199  0.33067291  0.07562809  1
  O  O14  1  0.00272286  0.66522619  0.57728587  1
  O  O15  1  0.00185235  0.67004832  0.92259778  1
  O  O16  1  0.25032897  0.83179993  0.42183657  1
  O  O17  1  0.24708009  0.83240053  0.07823175  1
  O  O18  1  0.25290904  0.16795358  0.57817729  1
  O  O19  1  0.24953328  0.16778212  0.92178862  1
  O  O20  1  0.49832235  0.32966723  0.42257588  1
  O  O21  1  0.49714333  0.33495665  0.07720507  1
  O  O22  1  0.49792919  0.66947878  0.57564998  1
  O  O23  1  0.49708000  0.66356525  0.92427433  1
  O  O24  1  0.74883118  0.83652986  0.42194492  1
  O  O25  1  0.75367742  0.83688699  0.07805907  1
  O  O26  1  0.74640869  0.16326969  0.57801456  1
  O  O27  1  0.75125488  0.16333725  0.92190090  1
