# generated using pymatgen
data_V2OF5
_symmetry_space_group_name_H-M   'P 1'
_cell_length_a   5.26783377
_cell_length_b   9.50269050
_cell_length_c   5.27988073
_cell_angle_alpha   105.60091342
_cell_angle_beta   119.89908014
_cell_angle_gamma   73.86403389
_symmetry_Int_Tables_number   1
_chemical_formula_structural   V2OF5
_chemical_formula_sum   'V4 O2 F10'
_cell_volume   217.38423715
_cell_formula_units_Z   2
loop_
 _symmetry_equiv_pos_site_id
 _symmetry_equiv_pos_as_xyz
  1  'x, y, z'
loop_
 _atom_site_type_symbol
 _atom_site_label
 _atom_site_symmetry_multiplicity
 _atom_site_fract_x
 _atom_site_fract_y
 _atom_site_fract_z
 _atom_site_occupancy
  V  V0  1  0.03316895  0.99386967  0.01682233  1
  V  V1  1  0.74107463  0.75461224  0.24925414  1
  V  V2  1  0.49514861  0.49709448  0.50062117  1
  V  V3  1  0.25874551  0.25798326  0.73228109  1
  O  O4  1  0.35883728  0.88377997  0.19425757  1
  O  O5  1  0.29759751  0.36862754  0.55769492  1
  F  F6  1  0.12340259  0.62526291  0.28059764  1
  F  F7  1  0.03010981  0.12658337  0.37355565  1
  F  F8  1  0.47024710  0.37034065  0.13014420  1
  F  F9  1  0.78145000  0.87808304  0.02869893  1
  F  F10  1  0.71659439  0.62587239  0.46711486  1
  F  F11  1  0.20639165  0.13186407  0.95411219  1
  F  F12  1  0.52651795  0.62656595  0.87420908  1
  F  F13  1  0.63209930  0.11888195  0.79289119  1
  F  F14  1  0.96233557  0.88022653  0.62050760  1
  F  F15  1  0.87933513  0.37358498  0.72188144  1
