# generated using pymatgen
data_Mn2PO5
_symmetry_space_group_name_H-M   'P 1'
_cell_length_a   8.49214907
_cell_length_b   8.44153070
_cell_length_c   6.04392395
_cell_angle_alpha   90.00000000
_cell_angle_beta   90.00000000
_cell_angle_gamma   90.00000000
_symmetry_Int_Tables_number   1
_chemical_formula_structural   Mn2PO5
_chemical_formula_sum   'Mn8 P4 O20'
_cell_volume   433.26918716
_cell_formula_units_Z   4
loop_
 _symmetry_equiv_pos_site_id
 _symmetry_equiv_pos_as_xyz
  1  'x, y, z'
loop_
 _atom_site_type_symbol
 _atom_site_label
 _atom_site_symmetry_multiplicity
 _atom_site_fract_x
 _atom_site_fract_y
 _atom_site_fract_z
 _atom_site_occupancy
  Mn  Mn0  1  0.00000000  0.00000000  0.24082786  1
  Mn  Mn1  1  0.00000000  0.00000000  0.75917214  1
  Mn  Mn2  1  0.13096970  0.64597825  0.00000000  1
  Mn  Mn3  1  0.36903030  0.14597825  0.50000000  1
  Mn  Mn4  1  0.50000000  0.50000000  0.25917214  1
  Mn  Mn5  1  0.50000000  0.50000000  0.74082786  1
  Mn  Mn6  1  0.63096970  0.85402175  0.50000000  1
  Mn  Mn7  1  0.86903030  0.35402175  0.00000000  1
  P  P8  1  0.24811771  0.26582902  0.00000000  1
  P  P9  1  0.25188229  0.76582902  0.50000000  1
  P  P10  1  0.74811771  0.23417098  0.50000000  1
  P  P11  1  0.75188229  0.73417098  0.00000000  1
  O  O12  1  0.08879465  0.86186624  0.50000000  1
  O  O13  1  0.07965118  0.87637723  0.00000000  1
  O  O14  1  0.11852913  0.39564930  0.00000000  1
  O  O15  1  0.23698666  0.16181574  0.20916540  1
  O  O16  1  0.23698666  0.16181574  0.79083460  1
  O  O17  1  0.26301334  0.66181574  0.29083460  1
  O  O18  1  0.26301334  0.66181574  0.70916540  1
  O  O19  1  0.38147087  0.89564930  0.50000000  1
  O  O20  1  0.42034882  0.37637723  0.50000000  1
  O  O21  1  0.41120535  0.36186624  0.00000000  1
  O  O22  1  0.58879465  0.63813376  0.00000000  1
  O  O23  1  0.57965118  0.62362277  0.50000000  1
  O  O24  1  0.61852913  0.10435070  0.50000000  1
  O  O25  1  0.73698666  0.33818426  0.29083460  1
  O  O26  1  0.73698666  0.33818426  0.70916540  1
  O  O27  1  0.76301334  0.83818426  0.20916540  1
  O  O28  1  0.76301334  0.83818426  0.79083460  1
  O  O29  1  0.88147087  0.60435070  0.00000000  1
  O  O30  1  0.92034882  0.12362277  0.00000000  1
  O  O31  1  0.91120535  0.13813376  0.50000000  1
