# generated using pymatgen
data_Ho(ClO4)3
_symmetry_space_group_name_H-M   'P 1'
_cell_length_a   9.45682052
_cell_length_b   9.45682052
_cell_length_c   9.45682033
_cell_angle_alpha   51.73889836
_cell_angle_beta   51.73889836
_cell_angle_gamma   51.73889640
_symmetry_Int_Tables_number   1
_chemical_formula_structural   Ho(ClO4)3
_chemical_formula_sum   'Ho2 Cl6 O24'
_cell_volume   481.78977148
_cell_formula_units_Z   2
loop_
 _symmetry_equiv_pos_site_id
 _symmetry_equiv_pos_as_xyz
  1  'x, y, z'
loop_
 _atom_site_type_symbol
 _atom_site_label
 _atom_site_symmetry_multiplicity
 _atom_site_fract_x
 _atom_site_fract_y
 _atom_site_fract_z
 _atom_site_occupancy
  Ho  Ho0  1  0.05811772  0.05811772  0.05811772  1
  Ho  Ho1  1  0.55811772  0.55811772  0.55811772  1
  Cl  Cl2  1  0.34513415  0.96614721  0.68951123  1
  Cl  Cl3  1  0.46614721  0.84513415  0.18951123  1
  Cl  Cl4  1  0.18951123  0.46614721  0.84513415  1
  Cl  Cl5  1  0.96614721  0.68951123  0.34513415  1
  Cl  Cl6  1  0.68951123  0.34513415  0.96614721  1
  Cl  Cl7  1  0.84513415  0.18951123  0.46614721  1
  O  O8  1  0.07633978  0.75317587  0.13087770  1
  O  O9  1  0.28167806  0.88549451  0.20241695  1
  O  O10  1  -0.00013682  0.57429825  0.94775556  1
  O  O11  1  0.39249351  0.91819291  0.84101540  1
  O  O12  1  0.41819291  0.89249351  0.34101540  1
  O  O13  1  0.07429825  0.49986318  0.44775556  1
  O  O14  1  0.38549451  0.78167806  0.70241695  1
  O  O15  1  0.57429825  0.94775556  -0.00013682  1
  O  O16  1  0.25317587  0.57633978  0.63087770  1
  O  O17  1  0.20241695  0.28167806  0.88549451  1
  O  O18  1  0.34101540  0.41819291  0.89249351  1
  O  O19  1  0.57633978  0.63087770  0.25317587  1
  O  O20  1  0.49986318  0.44775556  0.07429825  1
  O  O21  1  0.13087770  0.07633978  0.75317587  1
  O  O22  1  0.91819291  0.84101540  0.39249351  1
  O  O23  1  0.78167806  0.70241695  0.38549451  1
  O  O24  1  0.70241695  0.38549451  0.78167806  1
  O  O25  1  0.44775556  0.07429825  0.49986318  1
  O  O26  1  0.63087770  0.25317587  0.57633978  1
  O  O27  1  0.84101540  0.39249351  0.91819291  1
  O  O28  1  0.89249351  0.34101540  0.41819291  1
  O  O29  1  0.75317587  0.13087770  0.07633978  1
  O  O30  1  0.88549451  0.20241695  0.28167806  1
  O  O31  1  0.94775556  -0.00013682  0.57429825  1
