# generated using pymatgen
data_Na3GaB4O9
_symmetry_space_group_name_H-M   'P 1'
_cell_length_a   6.28100553
_cell_length_b   8.78197827
_cell_length_c   6.88167886
_cell_angle_alpha   90.00000000
_cell_angle_beta   99.01717170
_cell_angle_gamma   90.00000000
_symmetry_Int_Tables_number   1
_chemical_formula_structural   Na3GaB4O9
_chemical_formula_sum   'Na6 Ga2 B8 O18'
_cell_volume   374.89981659
_cell_formula_units_Z   2
loop_
 _symmetry_equiv_pos_site_id
 _symmetry_equiv_pos_as_xyz
  1  'x, y, z'
loop_
 _atom_site_type_symbol
 _atom_site_label
 _atom_site_symmetry_multiplicity
 _atom_site_fract_x
 _atom_site_fract_y
 _atom_site_fract_z
 _atom_site_occupancy
  Na  Na0  1  0.25362644  0.53428628  0.17701598  1
  Na  Na1  1  0.25362644  0.96571372  0.17701598  1
  Na  Na2  1  0.42302227  0.25000000  0.49278772  1
  Na  Na3  1  0.57697773  0.75000000  0.50721228  1
  Na  Na4  1  0.74637356  0.03428628  0.82298402  1
  Na  Na5  1  0.74637356  0.46571372  0.82298402  1
  Ga  Ga6  1  0.20657620  0.25000000  0.86417479  1
  Ga  Ga7  1  0.79342380  0.75000000  0.13582521  1
  B  B8  1  0.01518537  0.25000000  0.21859809  1
  B  B9  1  0.12215401  0.75000000  0.47442467  1
  B  B10  1  0.24563258  0.54527130  0.72017852  1
  B  B11  1  0.24563258  0.95472870  0.72017852  1
  B  B12  1  0.75436742  0.04527130  0.27982148  1
  B  B13  1  0.75436742  0.45472870  0.27982148  1
  B  B14  1  0.87784599  0.25000000  0.52557533  1
  B  B15  1  0.98481463  0.75000000  0.78140191  1
  O  O16  1  0.11718926  0.60848853  0.84551736  1
  O  O17  1  0.11718926  0.89151147  0.84551736  1
  O  O18  1  0.06625859  0.25000000  0.43136061  1
  O  O19  1  0.07605777  0.75000000  0.26191073  1
  O  O20  1  0.26478975  0.61117319  0.54129813  1
  O  O21  1  0.26478975  0.88882681  0.54129813  1
  O  O22  1  0.21641805  0.25000000  0.13452804  1
  O  O23  1  0.36280353  0.08610563  0.77847720  1
  O  O24  1  0.36280353  0.41389437  0.77847720  1
  O  O25  1  0.63719647  0.91389437  0.22152280  1
  O  O26  1  0.63719647  0.58610563  0.22152280  1
  O  O27  1  0.78358195  0.75000000  0.86547196  1
  O  O28  1  0.73521025  0.11117319  0.45870187  1
  O  O29  1  0.73521025  0.38882681  0.45870187  1
  O  O30  1  0.92394223  0.25000000  0.73808927  1
  O  O31  1  0.93374141  0.75000000  0.56863939  1
  O  O32  1  0.88281074  0.10848853  0.15448264  1
  O  O33  1  0.88281074  0.39151147  0.15448264  1
