# generated using pymatgen
data_Na6Mn2C4SO16
_symmetry_space_group_name_H-M   'P 1'
_cell_length_a   10.03038904
_cell_length_b   10.03038885
_cell_length_c   10.03038893
_cell_angle_alpha   89.99999926
_cell_angle_beta   59.99999964
_cell_angle_gamma   59.99999938
_symmetry_Int_Tables_number   1
_chemical_formula_structural   Na6Mn2C4SO16
_chemical_formula_sum   'Na12 Mn4 C8 S2 O32'
_cell_volume   713.57285294
_cell_formula_units_Z   2
loop_
 _symmetry_equiv_pos_site_id
 _symmetry_equiv_pos_as_xyz
  1  'x, y, z'
loop_
 _atom_site_type_symbol
 _atom_site_label
 _atom_site_symmetry_multiplicity
 _atom_site_fract_x
 _atom_site_fract_y
 _atom_site_fract_z
 _atom_site_occupancy
  Na  Na0  1  0.75000000  0.66061636  0.91061636  1
  Na  Na1  1  0.67876828  0.91061636  0.66061636  1
  Na  Na2  1  0.75000000  0.66061636  0.33938364  1
  Na  Na3  1  0.75000000  0.08938364  0.91061636  1
  Na  Na4  1  0.82123172  0.33938364  0.08938364  1
  Na  Na5  1  0.25000000  0.91061636  0.66061636  1
  Na  Na6  1  0.17876828  0.66061636  0.91061636  1
  Na  Na7  1  0.75000000  0.08938364  0.33938364  1
  Na  Na8  1  0.25000000  0.91061636  0.08938364  1
  Na  Na9  1  0.25000000  0.33938364  0.66061636  1
  Na  Na10  1  0.32123172  0.08938364  0.33938364  1
  Na  Na11  1  0.25000000  0.33938364  0.08938364  1
  Mn  Mn12  1  0.50000000  0.50000000  0.50000000  1
  Mn  Mn13  1  0.50000000  0.50000000  0.00000000  1
  Mn  Mn14  1  0.00000000  0.50000000  0.50000000  1
  Mn  Mn15  1  0.00000000  0.00000000  0.50000000  1
  C  C16  1  0.94175084  0.27912458  0.72087542  1
  C  C17  1  0.55824916  0.66262726  0.72087542  1
  C  C18  1  0.94175084  0.27912458  0.33737274  1
  C  C19  1  0.55824916  0.27912458  0.72087542  1
  C  C20  1  0.44175084  0.72087542  0.27912458  1
  C  C21  1  0.44175084  0.33737274  0.27912458  1
  C  C22  1  0.05824916  0.72087542  0.66262726  1
  C  C23  1  0.05824916  0.72087542  0.27912458  1
  S  S24  1  0.75000000  0.87500000  0.12500000  1
  S  S25  1  0.25000000  0.12500000  0.87500000  1
  O  O26  1  0.93892561  0.85996432  0.66405375  1
  O  O27  1  0.93892561  0.70111007  0.39702163  1
  O  O28  1  0.80408944  0.39702163  0.85996432  1
  O  O29  1  0.69591056  0.66405375  0.70111007  1
  O  O30  1  0.96294368  0.14003568  0.70111007  1
  O  O31  1  0.87190328  0.93595214  0.06404786  1
  O  O32  1  0.96294368  0.39702163  0.33594625  1
  O  O33  1  0.62809672  0.93595214  0.30785542  1
  O  O34  1  0.87190328  0.69214458  0.06404786  1
  O  O35  1  0.43892561  0.66405375  0.85996432  1
  O  O36  1  0.53705632  0.66405375  0.60297837  1
  O  O37  1  0.62809672  0.93595214  0.06404786  1
  O  O38  1  0.53705632  0.29888993  0.85996432  1
  O  O39  1  0.80408944  0.29888993  0.33594625  1
  O  O40  1  0.69591056  0.14003568  0.60297837  1
  O  O41  1  0.56107439  0.60297837  0.29888993  1
  O  O42  1  0.43892561  0.39702163  0.70111007  1
  O  O43  1  0.30408944  0.85996432  0.39702163  1
  O  O44  1  0.19591056  0.70111007  0.66405375  1
  O  O45  1  0.46294368  0.70111007  0.14003568  1
  O  O46  1  0.37190328  0.06404786  0.93595214  1
  O  O47  1  0.46294368  0.33594625  0.39702163  1
  O  O48  1  0.56107439  0.33594625  0.14003568  1
  O  O49  1  0.12809672  0.30785542  0.93595214  1
  O  O50  1  0.37190328  0.06404786  0.69214458  1
  O  O51  1  0.03705632  0.60297837  0.66405375  1
  O  O52  1  0.12809672  0.06404786  0.93595214  1
  O  O53  1  0.03705632  0.85996432  0.29888993  1
  O  O54  1  0.30408944  0.33594625  0.29888993  1
  O  O55  1  0.19591056  0.60297837  0.14003568  1
  O  O56  1  0.06107439  0.29888993  0.60297837  1
  O  O57  1  0.06107439  0.14003568  0.33594625  1
