# generated using pymatgen
data_Te2Mo3W(SeS2)2
_symmetry_space_group_name_H-M   'P 1'
_cell_length_a   3.31211256
_cell_length_b   3.31211626
_cell_length_c   37.71887043
_cell_angle_alpha   89.99929103
_cell_angle_beta   90.00000000
_cell_angle_gamma   119.99996304
_symmetry_Int_Tables_number   1
_chemical_formula_structural   Te2Mo3W(SeS2)2
_chemical_formula_sum   'Te2 Mo3 W1 Se2 S4'
_cell_volume   358.34399588
_cell_formula_units_Z   1
loop_
 _symmetry_equiv_pos_site_id
 _symmetry_equiv_pos_as_xyz
  1  'x, y, z'
loop_
 _atom_site_type_symbol
 _atom_site_label
 _atom_site_symmetry_multiplicity
 _atom_site_fract_x
 _atom_site_fract_y
 _atom_site_fract_z
 _atom_site_occupancy
  Te  Te0  1  0.66663637  0.33327175  0.41857436  1
  Te  Te1  1  0.66664321  0.33328541  0.52056818  1
  Mo  Mo2  1  0.33330846  0.66661691  0.09393041  1
  Mo  Mo3  1  0.66665508  0.33331016  0.28174947  1
  Mo  Mo4  1  0.66669117  0.33338235  0.65765454  1
  W  W5  1  0.33331474  0.66662948  0.46956890  1
  Se  Se6  1  0.33336081  0.66672261  0.70214361  1
  Se  Se7  1  0.33336112  0.66672324  0.61313742  1
  S  S8  1  0.33336826  0.66673751  0.32228799  1
  S  S9  1  0.66664504  0.33328907  0.05339624  1
  S  S10  1  0.66664465  0.33328829  0.13447248  1
  S  S11  1  0.33337111  0.66674321  0.24126440  1
