# generated using pymatgen
data_SrCaMg14
_symmetry_space_group_name_H-M   'P 1'
_cell_length_a   6.71453357
_cell_length_b   6.71453296
_cell_length_c   10.57883018
_cell_angle_alpha   90.00000000
_cell_angle_beta   90.00000000
_cell_angle_gamma   120.00000293
_symmetry_Int_Tables_number   1
_chemical_formula_structural   SrCaMg14
_chemical_formula_sum   'Sr1 Ca1 Mg14'
_cell_volume   413.04742987
_cell_formula_units_Z   1
loop_
 _symmetry_equiv_pos_site_id
 _symmetry_equiv_pos_as_xyz
  1  'x, y, z'
loop_
 _atom_site_type_symbol
 _atom_site_label
 _atom_site_symmetry_multiplicity
 _atom_site_fract_x
 _atom_site_fract_y
 _atom_site_fract_z
 _atom_site_occupancy
  Sr  Sr0  1  0.16666700  0.33333300  0.62500000  1
  Ca  Ca1  1  0.16666700  0.33333300  0.12500000  1
  Mg  Mg2  1  0.17227562  0.83613731  0.12500000  1
  Mg  Mg3  1  0.17464520  0.83732210  0.62500000  1
  Mg  Mg4  1  0.66386269  0.32772438  0.12500000  1
  Mg  Mg5  1  0.66267790  0.32535480  0.62500000  1
  Mg  Mg6  1  0.66386269  0.83613731  0.12500000  1
  Mg  Mg7  1  0.66267790  0.83732210  0.62500000  1
  Mg  Mg8  1  0.33993189  0.16006811  0.37203903  1
  Mg  Mg9  1  0.33993189  0.16006811  0.87796097  1
  Mg  Mg10  1  0.33993189  0.67986478  0.37203903  1
  Mg  Mg11  1  0.33993189  0.67986478  0.87796097  1
  Mg  Mg12  1  0.82013522  0.16006811  0.37203903  1
  Mg  Mg13  1  0.82013522  0.16006811  0.87796097  1
  Mg  Mg14  1  0.83333300  0.66666700  0.37577627  1
  Mg  Mg15  1  0.83333300  0.66666700  0.87422373  1
