# generated using pymatgen
data_Yb(ErS2)2
_symmetry_space_group_name_H-M   'P 1'
_cell_length_a   12.88656087
_cell_length_b   3.86006982
_cell_length_c   13.04410941
_cell_angle_alpha   90.00000000
_cell_angle_beta   90.00000000
_cell_angle_gamma   90.00000000
_symmetry_Int_Tables_number   1
_chemical_formula_structural   Yb(ErS2)2
_chemical_formula_sum   'Yb4 Er8 S16'
_cell_volume   648.85345654
_cell_formula_units_Z   4
loop_
 _symmetry_equiv_pos_site_id
 _symmetry_equiv_pos_as_xyz
  1  'x, y, z'
loop_
 _atom_site_type_symbol
 _atom_site_label
 _atom_site_symmetry_multiplicity
 _atom_site_fract_x
 _atom_site_fract_y
 _atom_site_fract_z
 _atom_site_occupancy
  Yb  Yb0  1  0.36951931  0.24999900  0.41722081  1
  Yb  Yb1  1  0.13047969  0.74999800  0.91722081  1
  Yb  Yb2  1  0.86951931  0.24999900  0.08277919  1
  Yb  Yb3  1  0.63047969  0.74999800  0.58277919  1
  Er  Er4  1  0.10757559  0.24999900  0.58371507  1
  Er  Er5  1  0.39242441  0.74999800  0.08371607  1
  Er  Er6  1  0.60757559  0.24999900  0.91628393  1
  Er  Er7  1  0.89242341  0.74999800  0.41628393  1
  Er  Er8  1  0.14673936  0.24999900  0.20218770  1
  Er  Er9  1  0.35326064  0.74999800  0.70218870  1
  Er  Er10  1  0.64673936  0.24999900  0.29781130  1
  Er  Er11  1  0.85326064  0.74999800  0.79781130  1
  S  S12  1  0.47065040  0.24999900  0.61673035  1
  S  S13  1  0.02934960  0.74999800  0.11673035  1
  S  S14  1  0.97065040  0.24999900  0.88326865  1
  S  S15  1  0.52934960  0.74999800  0.38326865  1
  S  S16  1  0.21692201  0.24999900  0.76401078  1
  S  S17  1  0.28307799  0.74999800  0.26401078  1
  S  S18  1  0.71692101  0.24999900  0.73599022  1
  S  S19  1  0.78307799  0.74999800  0.23599022  1
  S  S20  1  0.03413998  0.24999900  0.38224271  1
  S  S21  1  0.46586102  0.74999800  0.88224271  1
  S  S22  1  0.53413898  0.24999900  0.11775729  1
  S  S23  1  0.96586002  0.74999800  0.61775729  1
  S  S24  1  0.25655317  0.24999900  0.02467994  1
  S  S25  1  0.24344683  0.74999800  0.52467994  1
  S  S26  1  0.75655217  0.24999900  0.47532006  1
  S  S27  1  0.74344683  0.74999800  0.97532006  1
