# generated using pymatgen
data_NaBe4SbO7
_symmetry_space_group_name_H-M   'P 1'
_cell_length_a   5.48765253
_cell_length_b   5.48765253
_cell_length_c   8.94442932
_cell_angle_alpha   90.00000000
_cell_angle_beta   90.00000000
_cell_angle_gamma   119.99999994
_symmetry_Int_Tables_number   1
_chemical_formula_structural   NaBe4SbO7
_chemical_formula_sum   'Na2 Be8 Sb2 O14'
_cell_volume   233.26870470
_cell_formula_units_Z   2
loop_
 _symmetry_equiv_pos_site_id
 _symmetry_equiv_pos_as_xyz
  1  'x, y, z'
loop_
 _atom_site_type_symbol
 _atom_site_label
 _atom_site_symmetry_multiplicity
 _atom_site_fract_x
 _atom_site_fract_y
 _atom_site_fract_z
 _atom_site_occupancy
  Be  Be0  1  0.83438064  0.16561936  0.81340363  1
  Be  Be1  1  0.66876129  0.83438064  0.31340363  1
  Be  Be2  1  0.16561936  0.33123871  0.31340363  1
  Be  Be3  1  0.16561936  0.83438064  0.31340363  1
  Be  Be4  1  0.00000000  0.00000000  0.06080286  1
  Be  Be5  1  0.00000000  0.00000000  0.56080286  1
  Be  Be6  1  0.33123871  0.16561936  0.81340363  1
  Be  Be7  1  0.83438064  0.66876129  0.81340363  1
  O  O8  1  0.83927192  0.67854384  0.62898456  1
  O  O9  1  0.00000000  0.00000000  0.37535362  1
  O  O10  1  0.00000000  0.00000000  0.87535362  1
  O  O11  1  0.16072808  0.32145616  0.12898456  1
  O  O12  1  0.67854384  0.83927192  0.12898456  1
  O  O13  1  0.83927192  0.16072808  0.62898456  1
  O  O14  1  0.49490479  0.50509521  0.37101560  1
  O  O15  1  0.98980958  0.49490479  0.87101560  1
  O  O16  1  0.50509521  0.01019042  0.87101560  1
  O  O17  1  0.49490479  0.98980958  0.37101560  1
  O  O18  1  0.01019042  0.50509521  0.37101560  1
  O  O19  1  0.50509521  0.49490479  0.87101560  1
  O  O20  1  0.16072808  0.83927192  0.12898456  1
  O  O21  1  0.32145616  0.16072808  0.62898456  1
  Na  Na22  1  0.66666667  0.33333333  0.12521231  1
  Na  Na23  1  0.33333333  0.66666667  0.62521231  1
  Sb  Sb24  1  0.66666667  0.33333333  0.50041983  1
  Sb  Sb25  1  0.33333333  0.66666667  0.00041983  1
