# generated using pymatgen
data_Te2MoW3(SeS2)2
_symmetry_space_group_name_H-M   'P 1'
_cell_length_a   3.30890385
_cell_length_b   3.30893082
_cell_length_c   37.55383214
_cell_angle_alpha   89.99912339
_cell_angle_beta   90.00000765
_cell_angle_gamma   119.99971267
_symmetry_Int_Tables_number   1
_chemical_formula_structural   Te2MoW3(SeS2)2
_chemical_formula_sum   'Te2 Mo1 W3 Se2 S4'
_cell_volume   356.08852988
_cell_formula_units_Z   1
loop_
 _symmetry_equiv_pos_site_id
 _symmetry_equiv_pos_as_xyz
  1  'x, y, z'
loop_
 _atom_site_type_symbol
 _atom_site_label
 _atom_site_symmetry_multiplicity
 _atom_site_fract_x
 _atom_site_fract_y
 _atom_site_fract_z
 _atom_site_occupancy
  Te  Te0  1  0.33330388  0.66660819  0.70880810  1
  Te  Te1  1  0.33332938  0.66665922  0.60629562  1
  Mo  Mo2  1  0.33343651  0.66687214  0.46963240  1
  W  W3  1  0.33327700  0.66655304  0.09391336  1
  W  W4  1  0.66665091  0.33330286  0.28180105  1
  W  W5  1  0.66665470  0.33331030  0.65757734  1
  Se  Se6  1  0.33331572  0.66663175  0.32678794  1
  Se  Se7  1  0.33331758  0.66663557  0.23681793  1
  S  S8  1  0.66659935  0.33319836  0.05305037  1
  S  S9  1  0.66676154  0.33352293  0.42896078  1
  S  S10  1  0.66660258  0.33320464  0.13477320  1
  S  S11  1  0.66675084  0.33350101  0.51032991  1
