# generated using pymatgen
data_CaReH4ClO6
_symmetry_space_group_name_H-M   'P 1'
_cell_length_a   7.96403864
_cell_length_b   7.96403864
_cell_length_c   6.83765952
_cell_angle_alpha   90.00000000
_cell_angle_beta   90.00000000
_cell_angle_gamma   51.93140664
_symmetry_Int_Tables_number   1
_chemical_formula_structural   CaReH4ClO6
_chemical_formula_sum   'Ca2 Re2 H8 Cl2 O12'
_cell_volume   341.42838039
_cell_formula_units_Z   2
loop_
 _symmetry_equiv_pos_site_id
 _symmetry_equiv_pos_as_xyz
  1  'x, y, z'
loop_
 _atom_site_type_symbol
 _atom_site_label
 _atom_site_symmetry_multiplicity
 _atom_site_fract_x
 _atom_site_fract_y
 _atom_site_fract_z
 _atom_site_occupancy
  Ca  Ca0  1  0.41194427  0.41194427  0.25000000  1
  Ca  Ca1  1  0.58805573  0.58805573  0.75000000  1
  Re  Re2  1  0.24788173  0.24788173  0.75000000  1
  Re  Re3  1  0.75211827  0.75211827  0.25000000  1
  H  H4  1  0.85268732  0.23855254  0.06286151  1
  H  H5  1  0.14731468  0.76144646  0.56286151  1
  H  H6  1  0.76144646  0.14731468  0.93713849  1
  H  H7  1  0.23855254  0.85268732  0.43713849  1
  H  H8  1  0.14731468  0.76144646  0.93713849  1
  H  H9  1  0.85268732  0.23855254  0.43713849  1
  H  H10  1  0.23855254  0.85268732  0.06286151  1
  H  H11  1  0.76144646  0.14731468  0.56286151  1
  Cl  Cl12  1  0.88059589  0.88059589  0.75000000  1
  Cl  Cl13  1  0.11940411  0.11940411  0.25000000  1
  O  O14  1  0.32105420  0.32105420  0.54439928  1
  O  O15  1  0.67894580  0.67894580  0.04439928  1
  O  O16  1  0.67894580  0.67894580  0.45560072  1
  O  O17  1  0.32105420  0.32105420  0.95560072  1
  O  O18  1  0.37930439  0.97345144  0.75000000  1
  O  O19  1  0.62069561  0.02654856  0.25000000  1
  O  O20  1  0.02654856  0.62069561  0.25000000  1
  O  O21  1  0.97345144  0.37930439  0.75000000  1
  O  O22  1  0.71821586  0.28178314  0.50000000  1
  O  O23  1  0.28178314  0.71821586  0.00000000  1
  O  O24  1  0.28178314  0.71821586  0.50000000  1
  O  O25  1  0.71821586  0.28178314  0.00000000  1
