# generated using pymatgen
data_KTm2Cu3Se5
_symmetry_space_group_name_H-M   'P 1'
_cell_length_a   7.45338783
_cell_length_b   7.45338783
_cell_length_c   16.72388864
_cell_angle_alpha   90.00000000
_cell_angle_beta   90.00000000
_cell_angle_gamma   31.77209181
_symmetry_Int_Tables_number   1
_chemical_formula_structural   KTm2Cu3Se5
_chemical_formula_sum   'K2 Tm4 Cu6 Se10'
_cell_volume   489.18995063
_cell_formula_units_Z   2
loop_
 _symmetry_equiv_pos_site_id
 _symmetry_equiv_pos_as_xyz
  1  'x, y, z'
loop_
 _atom_site_type_symbol
 _atom_site_label
 _atom_site_symmetry_multiplicity
 _atom_site_fract_x
 _atom_site_fract_y
 _atom_site_fract_z
 _atom_site_occupancy
  K  K0  1  0.05941034  0.05941034  0.75000000  1
  K  K1  1  0.94058966  0.94058966  0.25000000  1
  Tm  Tm2  1  0.19138304  0.19138304  0.40662725  1
  Tm  Tm3  1  0.80861696  0.80861696  0.90662625  1
  Tm  Tm4  1  0.80861696  0.80861696  0.59337375  1
  Tm  Tm5  1  0.19138304  0.19138304  0.09337375  1
  Cu  Cu6  1  0.41359898  0.41359898  0.47362919  1
  Cu  Cu7  1  0.58640102  0.58640102  0.97363019  1
  Cu  Cu8  1  0.58640102  0.58640102  0.52636981  1
  Cu  Cu9  1  0.41359898  0.41359898  0.02637081  1
  Cu  Cu10  1  0.66251113  0.66251113  0.25000000  1
  Cu  Cu11  1  0.33748887  0.33748887  0.75000000  1
  Se  Se12  1  0.25349461  0.25349461  0.25000000  1
  Se  Se13  1  0.74650639  0.74650639  0.75000000  1
  Se  Se14  1  0.55916237  0.55916237  0.37942641  1
  Se  Se15  1  0.44083763  0.44083763  0.87942641  1
  Se  Se16  1  0.44083763  0.44083763  0.62057359  1
  Se  Se17  1  0.55916237  0.55916237  0.12057359  1
  Se  Se18  1  0.16600623  0.16600623  0.57223572  1
  Se  Se19  1  0.83399377  0.83399377  0.07223472  1
  Se  Se20  1  0.83399377  0.83399377  0.42776528  1
  Se  Se21  1  0.16600623  0.16600623  0.92776428  1
