# generated using pymatgen
data_DyTaRu2
_symmetry_space_group_name_H-M   'P 1'
_cell_length_a   4.63104910
_cell_length_b   4.63105367
_cell_length_c   4.63104968
_cell_angle_alpha   60.00013981
_cell_angle_beta   60.00009773
_cell_angle_gamma   60.00004874
_symmetry_Int_Tables_number   1
_chemical_formula_structural   DyTaRu2
_chemical_formula_sum   'Dy1 Ta1 Ru2'
_cell_volume   70.23030937
_cell_formula_units_Z   1
loop_
 _symmetry_equiv_pos_site_id
 _symmetry_equiv_pos_as_xyz
  1  'x, y, z'
loop_
 _atom_site_type_symbol
 _atom_site_label
 _atom_site_symmetry_multiplicity
 _atom_site_fract_x
 _atom_site_fract_y
 _atom_site_fract_z
 _atom_site_occupancy
  Dy  Dy0  1  0.24999867  0.24999954  0.24999938  1
  Ta  Ta1  1  0.74999979  0.75000001  0.75000022  1
  Ru  Ru2  1  0.00000047  0.99999877  0.99999996  1
  Ru  Ru3  1  0.50000007  0.50000068  0.49999944  1
