# generated using pymatgen
data_Li8PtO6
_symmetry_space_group_name_H-M   'P 1'
_cell_length_a   5.96489608
_cell_length_b   5.96489609
_cell_length_c   5.96489608
_cell_angle_alpha   54.77214502
_cell_angle_beta   54.77214498
_cell_angle_gamma   54.77214497
_symmetry_Int_Tables_number   1
_chemical_formula_structural   Li8PtO6
_chemical_formula_sum   'Li8 Pt1 O6'
_cell_volume   131.79911407
_cell_formula_units_Z   1
loop_
 _symmetry_equiv_pos_site_id
 _symmetry_equiv_pos_as_xyz
  1  'x, y, z'
loop_
 _atom_site_type_symbol
 _atom_site_label
 _atom_site_symmetry_multiplicity
 _atom_site_fract_x
 _atom_site_fract_y
 _atom_site_fract_z
 _atom_site_occupancy
  Li  Li0  1  0.34272443  0.34272443  0.34272443  1
  Li  Li1  1  0.51425621  0.90132754  0.23290852  1
  Li  Li2  1  0.23290852  0.51425621  0.90132754  1
  Li  Li3  1  0.90132754  0.23290852  0.51425621  1
  Li  Li4  1  0.48574379  0.09867246  0.76709148  1
  Li  Li5  1  0.76709148  0.48574379  0.09867246  1
  Li  Li6  1  0.65727557  0.65727557  0.65727557  1
  Li  Li7  1  0.09867246  0.76709148  0.48574379  1
  O  O8  1  0.23643566  0.90694542  0.61607742  1
  O  O9  1  0.09305458  0.38392258  0.76356434  1
  O  O10  1  0.76356434  0.09305458  0.38392258  1
  O  O11  1  0.61607742  0.23643566  0.90694542  1
  O  O12  1  0.90694542  0.61607742  0.23643566  1
  O  O13  1  0.38392258  0.76356434  0.09305458  1
  Pt  Pt14  1  0.00000000  0.00000000  0.00000000  1
