# generated using pymatgen
data_Ba2InBiS5
_symmetry_space_group_name_H-M   'P 1'
_cell_length_a   4.21224682
_cell_length_b   9.55251431
_cell_length_c   12.96383559
_cell_angle_alpha   90.00000000
_cell_angle_beta   90.00000000
_cell_angle_gamma   77.26286465
_symmetry_Int_Tables_number   1
_chemical_formula_structural   Ba2InBiS5
_chemical_formula_sum   'Ba4 In2 Bi2 S10'
_cell_volume   508.79653482
_cell_formula_units_Z   2
loop_
 _symmetry_equiv_pos_site_id
 _symmetry_equiv_pos_as_xyz
  1  'x, y, z'
loop_
 _atom_site_type_symbol
 _atom_site_label
 _atom_site_symmetry_multiplicity
 _atom_site_fract_x
 _atom_site_fract_y
 _atom_site_fract_z
 _atom_site_occupancy
  Ba  Ba0  1  0.12953544  0.74092912  0.18967484  1
  Ba  Ba1  1  0.88724127  0.22551746  0.31556823  1
  Ba  Ba2  1  0.87046456  0.25907088  0.68967584  1
  Ba  Ba3  1  0.11275873  0.77448154  0.81556823  1
  In  In4  1  0.44381915  0.11236071  0.05570204  1
  In  In5  1  0.55618085  0.88763829  0.55570204  1
  Bi  Bi6  1  0.21693120  0.56613861  0.47809743  1
  Bi  Bi7  1  0.78306880  0.43386139  0.97809743  1
  S  S8  1  0.64289910  0.71420081  0.99968150  1
  S  S9  1  0.31589407  0.36821086  0.13066104  1
  S  S10  1  0.50396757  0.99206487  0.22361381  1
  S  S11  1  0.71603655  0.56792690  0.33480452  1
  S  S12  1  0.04533526  0.90932949  0.44822558  1
  S  S13  1  0.35710090  0.28579819  0.49968250  1
  S  S14  1  0.68410593  0.63178814  0.63066104  1
  S  S15  1  0.49603243  0.00793413  0.72361481  1
  S  S16  1  0.28396345  0.43207310  0.83480452  1
  S  S17  1  0.95466474  0.09067051  0.94822558  1
