# generated using pymatgen
data_DyB4Mo
_symmetry_space_group_name_H-M   'P 1'
_cell_length_a   6.02991375
_cell_length_b   11.65366822
_cell_length_c   3.62504015
_cell_angle_alpha   90.00000000
_cell_angle_beta   90.00000000
_cell_angle_gamma   90.00000000
_symmetry_Int_Tables_number   1
_chemical_formula_structural   DyB4Mo
_chemical_formula_sum   'Dy4 B16 Mo4'
_cell_volume   254.73379798
_cell_formula_units_Z   4
loop_
 _symmetry_equiv_pos_site_id
 _symmetry_equiv_pos_as_xyz
  1  'x, y, z'
loop_
 _atom_site_type_symbol
 _atom_site_label
 _atom_site_symmetry_multiplicity
 _atom_site_fract_x
 _atom_site_fract_y
 _atom_site_fract_z
 _atom_site_occupancy
  Dy  Dy0  1  0.12702929  0.14988971  0.00000000  1
  Dy  Dy1  1  0.87297071  0.85011129  0.00000000  1
  Dy  Dy2  1  0.62702929  0.35011029  0.00000000  1
  Dy  Dy3  1  0.37296871  0.64988971  0.00000000  1
  B  B4  1  0.47669077  0.19356573  0.50000100  1
  B  B5  1  0.52330823  0.80643527  0.50000100  1
  B  B6  1  0.97669177  0.30643527  0.50000100  1
  B  B7  1  0.02330823  0.69356573  0.50000100  1
  B  B8  1  0.28730906  0.31370506  0.50000100  1
  B  B9  1  0.71269094  0.68629494  0.50000100  1
  B  B10  1  0.78730906  0.18629494  0.50000100  1
  B  B11  1  0.21269094  0.81370406  0.50000100  1
  B  B12  1  0.36685842  0.46808527  0.50000100  1
  B  B13  1  0.63314158  0.53191373  0.50000100  1
  B  B14  1  0.86685842  0.03191373  0.50000100  1
  B  B15  1  0.13314158  0.96808527  0.50000100  1
  B  B16  1  0.38591105  0.04753748  0.50000100  1
  B  B17  1  0.61408795  0.95246252  0.50000100  1
  B  B18  1  0.88591105  0.45246252  0.50000100  1
  B  B19  1  0.11408895  0.54753748  0.50000100  1
  Mo  Mo20  1  0.13004871  0.41622594  0.00000000  1
  Mo  Mo21  1  0.86995129  0.58377406  0.00000000  1
  Mo  Mo22  1  0.63004871  0.08377406  0.00000000  1
  Mo  Mo23  1  0.36995129  0.91622694  0.00000000  1
