# generated using pymatgen
data_Na4V2C4SO16
_symmetry_space_group_name_H-M   'P 1'
_cell_length_a   10.00972010
_cell_length_b   9.80560493
_cell_length_c   10.00972001
_cell_angle_alpha   60.53522384
_cell_angle_beta   92.07937499
_cell_angle_gamma   60.53521998
_symmetry_Int_Tables_number   1
_chemical_formula_structural   Na4V2C4SO16
_chemical_formula_sum   'Na8 V4 C8 S2 O32'
_cell_volume   692.77338921
_cell_formula_units_Z   2
loop_
 _symmetry_equiv_pos_site_id
 _symmetry_equiv_pos_as_xyz
  1  'x, y, z'
loop_
 _atom_site_type_symbol
 _atom_site_label
 _atom_site_symmetry_multiplicity
 _atom_site_fract_x
 _atom_site_fract_y
 _atom_site_fract_z
 _atom_site_occupancy
  Na  Na0  1  0.08427110  0.83145681  0.83427210  1
  Na  Na1  1  0.08384184  0.25000000  0.83384184  1
  Na  Na2  1  0.33384184  0.75000000  0.58384184  1
  Na  Na3  1  0.33427110  0.33145681  0.58427210  1
  Na  Na4  1  0.66572790  0.66854319  0.41572890  1
  Na  Na5  1  0.66615816  0.25000000  0.41615816  1
  Na  Na6  1  0.91615816  0.75000000  0.16615816  1
  Na  Na7  1  0.91572790  0.16854319  0.16572790  1
  V  V8  1  0.00000000  0.50000000  0.00000000  1
  V  V9  1  0.50000000  0.00000000  0.50000000  1
  V  V10  1  0.50000000  0.50000000  0.00000000  1
  V  V11  1  0.50000000  0.00000000  0.00000000  1
  C  C12  1  0.35994517  0.92938231  0.77829140  1
  C  C13  1  0.27829140  0.42938231  0.85994517  1
  C  C14  1  0.71067252  0.92938231  0.79232629  1
  C  C15  1  0.70767371  0.57061769  0.78932748  1
  C  C16  1  0.29232629  0.42938231  0.21067252  1
  C  C17  1  0.28932748  0.07061769  0.20767371  1
  C  C18  1  0.72170860  0.57061769  0.14005483  1
  C  C19  1  0.64005483  0.07061769  0.22170860  1
  S  S20  1  0.12500000  0.75000000  0.37500000  1
  S  S21  1  0.87500000  0.25000000  0.62500000  1
  O  O22  1  0.35610554  0.78791374  0.88789956  1
  O  O23  1  0.06620483  0.87679758  0.43296363  1
  O  O24  1  0.36367292  0.95378256  0.63968616  1
  O  O25  1  0.13968616  0.45378256  0.86367292  1
  O  O26  1  0.68254452  0.95378256  0.90653128  1
  O  O27  1  0.30524792  0.54863812  0.85319592  1
  O  O28  1  0.05699759  0.87679758  0.19023879  1
  O  O29  1  0.06703637  0.62320242  0.43379517  1
  O  O30  1  0.40183404  0.95136188  0.35388504  1
  O  O31  1  0.59346872  0.54621744  0.81745548  1
  O  O32  1  0.38789956  0.28791374  0.85610554  1
  O  O33  1  0.30976121  0.62320242  0.44300241  1
  O  O34  1  0.85598072  0.78791374  0.82418670  1
  O  O35  1  0.67581330  0.71208626  0.64401928  1
  O  O36  1  0.35319592  0.04863812  0.80524792  1
  O  O37  1  0.14611496  0.54863812  0.09816596  1
  O  O38  1  0.85388504  0.45136188  0.90183404  1
  O  O39  1  0.64680408  0.95136188  0.19475208  1
  O  O40  1  0.32418670  0.28791374  0.35598072  1
  O  O41  1  0.14401928  0.21208626  0.17581330  1
  O  O42  1  0.69023879  0.37679758  0.55699759  1
  O  O43  1  0.61210044  0.71208626  0.14389446  1
  O  O44  1  0.40653128  0.45378256  0.18254452  1
  O  O45  1  0.59816596  0.04863812  0.64611496  1
  O  O46  1  0.93296363  0.37679758  0.56620483  1
  O  O47  1  0.94300241  0.12320242  0.80976121  1
  O  O48  1  0.69475208  0.45136188  0.14680408  1
  O  O49  1  0.31745548  0.04621744  0.09346872  1
  O  O50  1  0.86031384  0.54621744  0.13632708  1
  O  O51  1  0.63632708  0.04621744  0.36031384  1
  O  O52  1  0.93379517  0.12320242  0.56703637  1
  O  O53  1  0.64389446  0.21208626  0.11210044  1
