# generated using pymatgen
data_PHPb2F10
_symmetry_space_group_name_H-M   'P 1'
_cell_length_a   4.65816960
_cell_length_b   4.84347817
_cell_length_c   8.92980709
_cell_angle_alpha   86.17547589
_cell_angle_beta   76.64117799
_cell_angle_gamma   81.78749579
_symmetry_Int_Tables_number   1
_chemical_formula_structural   PHPb2F10
_chemical_formula_sum   'P1 H1 Pb2 F10'
_cell_volume   193.89162278
_cell_formula_units_Z   1
loop_
 _symmetry_equiv_pos_site_id
 _symmetry_equiv_pos_as_xyz
  1  'x, y, z'
loop_
 _atom_site_type_symbol
 _atom_site_label
 _atom_site_symmetry_multiplicity
 _atom_site_fract_x
 _atom_site_fract_y
 _atom_site_fract_z
 _atom_site_occupancy
  P  P0  1  0.00000149  0.50000035  -0.00000424  1
  H  H1  1  0.49999798  0.49999889  0.50000158  1
  Pb  Pb2  1  0.32493095  0.03187253  0.31427473  1
  Pb  Pb3  1  0.67506805  0.96812506  0.68572742  1
  F  F4  1  0.67993304  0.70071961  0.03439264  1
  F  F5  1  0.84378258  0.24070608  0.09623798  1
  F  F6  1  0.06659591  0.59660946  0.15977078  1
  F  F7  1  0.38803784  0.52715987  0.39661870  1
  F  F8  1  0.78893476  0.97873655  0.41455462  1
  F  F9  1  0.21106083  0.02126313  0.58544718  1
  F  F10  1  0.61195881  0.47283872  0.60338598  1
  F  F11  1  0.93341005  0.40339350  0.84022856  1
  F  F12  1  0.15622064  0.75929484  0.90375828  1
  F  F13  1  0.32006708  0.29928340  0.96560378  1
