# generated using pymatgen
data_Mn8PbO16
_symmetry_space_group_name_H-M   'P 1'
_cell_length_a   7.20354301
_cell_length_b   5.95415892
_cell_length_c   7.16817335
_cell_angle_alpha   77.91826543
_cell_angle_beta   87.15321516
_cell_angle_gamma   78.12767706
_symmetry_Int_Tables_number   1
_chemical_formula_structural   Mn8PbO16
_chemical_formula_sum   'Mn8 Pb1 O16'
_cell_volume   294.20222361
_cell_formula_units_Z   1
loop_
 _symmetry_equiv_pos_site_id
 _symmetry_equiv_pos_as_xyz
  1  'x, y, z'
loop_
 _atom_site_type_symbol
 _atom_site_label
 _atom_site_symmetry_multiplicity
 _atom_site_fract_x
 _atom_site_fract_y
 _atom_site_fract_z
 _atom_site_occupancy
  Mn  Mn0  1  0.18367415  0.57531420  0.52023968  1
  Mn  Mn1  1  0.18508991  0.07577462  0.51432211  1
  Mn  Mn2  1  0.51326637  0.16738810  0.81592029  1
  Mn  Mn3  1  0.52121809  0.66681747  0.81841057  1
  Mn  Mn4  1  0.48039174  0.33449182  0.18371966  1
  Mn  Mn5  1  0.48555267  0.83302913  0.18188533  1
  Mn  Mn6  1  0.81507487  0.42913139  0.48025321  1
  Mn  Mn7  1  0.81684445  0.92493200  0.48561688  1
  Pb  Pb8  1  0.99836521  0.09262643  0.00050455  1
  O  O9  1  0.04842833  0.83198662  0.64391159  1
  O  O10  1  0.05251531  0.32113396  0.65011331  1
  O  O11  1  0.37950044  0.97998508  0.70431391  1
  O  O12  1  0.38174101  0.47938752  0.70568871  1
  O  O13  1  0.64412182  0.85889815  0.95318132  1
  O  O14  1  0.64903603  0.33863145  0.95907667  1
  O  O15  1  0.28679773  0.33669432  0.37667139  1
  O  O16  1  0.28563237  0.83443691  0.37145237  1
  O  O17  1  0.71402317  0.16638749  0.62686790  1
  O  O18  1  0.71348918  0.66672249  0.62496678  1
  O  O19  1  0.34634131  0.14512282  0.04138280  1
  O  O20  1  0.36040610  0.65291860  0.04596319  1
  O  O21  1  0.62134949  0.02017391  0.29371731  1
  O  O22  1  0.61741222  0.52476878  0.29563132  1
  O  O23  1  0.94782433  0.17253895  0.34762375  1
  O  O24  1  0.95190270  0.67780775  0.35856639  1
