# generated using pymatgen
data_MnP2H2O7
_symmetry_space_group_name_H-M   'P 1'
_cell_length_a   5.33950639
_cell_length_b   5.33950639
_cell_length_c   9.49145400
_cell_angle_alpha   97.66189172
_cell_angle_beta   97.66189172
_cell_angle_gamma   95.44396266
_symmetry_Int_Tables_number   1
_chemical_formula_structural   MnP2H2O7
_chemical_formula_sum   'Mn2 P4 H4 O14'
_cell_volume   264.04038452
_cell_formula_units_Z   2
loop_
 _symmetry_equiv_pos_site_id
 _symmetry_equiv_pos_as_xyz
  1  'x, y, z'
loop_
 _atom_site_type_symbol
 _atom_site_label
 _atom_site_symmetry_multiplicity
 _atom_site_fract_x
 _atom_site_fract_y
 _atom_site_fract_z
 _atom_site_occupancy
  Mn  Mn0  1  0.00000000  0.00000000  0.00000000  1
  Mn  Mn1  1  0.00000000  0.00000000  0.50000000  1
  P  P2  1  0.54922813  0.78663345  0.18589562  1
  P  P3  1  0.21336555  0.45077087  0.31410338  1
  P  P4  1  0.78663445  0.54922913  0.68589562  1
  P  P5  1  0.45077087  0.21336555  0.81410438  1
  H  H6  1  0.90526852  0.49349996  0.14193510  1
  H  H7  1  0.50649904  0.09473048  0.35806490  1
  H  H8  1  0.49349996  0.90526952  0.64193510  1
  H  H9  1  0.09473048  0.50650004  0.85806490  1
  O  O10  1  0.32153287  0.86527562  0.10015351  1
  O  O11  1  0.77472112  0.73032525  0.10987678  1
  O  O12  1  0.00707917  0.35019317  0.17464150  1
  O  O13  1  0.47281548  0.52718452  0.25000000  1
  O  O14  1  0.64980583  0.99291983  0.32535850  1
  O  O15  1  0.26967375  0.22527888  0.39012322  1
  O  O16  1  0.13472338  0.67846713  0.39984649  1
  O  O17  1  0.86527562  0.32153287  0.60015351  1
  O  O18  1  0.73032525  0.77472112  0.60987678  1
  O  O19  1  0.35019417  0.00708017  0.67464150  1
  O  O20  1  0.52718352  0.47281448  0.75000000  1
  O  O21  1  0.99291983  0.64980583  0.82535850  1
  O  O22  1  0.22527888  0.26967475  0.89012322  1
  O  O23  1  0.67846713  0.13472338  0.89984649  1
