# generated using pymatgen
data_P3(WO6)2
_symmetry_space_group_name_H-M   'P 1'
_cell_length_a   9.09629331
_cell_length_b   9.09629389
_cell_length_c   9.09629386
_cell_angle_alpha   57.17694872
_cell_angle_beta   57.17694930
_cell_angle_gamma   57.17694790
_symmetry_Int_Tables_number   1
_chemical_formula_structural   P3(WO6)2
_chemical_formula_sum   'P6 W4 O24'
_cell_volume   497.59208732
_cell_formula_units_Z   2
loop_
 _symmetry_equiv_pos_site_id
 _symmetry_equiv_pos_as_xyz
  1  'x, y, z'
loop_
 _atom_site_type_symbol
 _atom_site_label
 _atom_site_symmetry_multiplicity
 _atom_site_fract_x
 _atom_site_fract_y
 _atom_site_fract_z
 _atom_site_occupancy
  P  P0  1  0.03284395  0.75200905  0.46545930  1
  P  P1  1  0.46545930  0.03284395  0.75200905  1
  P  P2  1  0.75200905  0.46545930  0.03284395  1
  P  P3  1  0.24799095  0.53454070  0.96715605  1
  P  P4  1  0.53454070  0.96715605  0.24799095  1
  P  P5  1  0.96715605  0.24799095  0.53454070  1
  W  W6  1  0.14378399  0.14378399  0.14378399  1
  W  W7  1  0.35440896  0.35440896  0.35440896  1
  W  W8  1  0.64559104  0.64559104  0.64559104  1
  W  W9  1  0.85621601  0.85621601  0.85621601  1
  O  O10  1  0.15198490  0.23442125  0.51486283  1
  O  O11  1  0.23442125  0.51486283  0.15198490  1
  O  O12  1  0.51486283  0.15198490  0.23442125  1
  O  O13  1  0.18669464  0.56122508  0.46969322  1
  O  O14  1  0.09101558  0.90855736  0.27985193  1
  O  O15  1  0.00493958  0.79389678  0.62553855  1
  O  O16  1  0.27985193  0.09101558  0.90855736  1
  O  O17  1  0.46969322  0.18669464  0.56122508  1
  O  O18  1  0.56122508  0.46969322  0.18669464  1
  O  O19  1  0.20610322  0.37446145  0.99506042  1
  O  O20  1  0.09144264  0.72014807  0.90898442  1
  O  O21  1  0.37446145  0.99506042  0.20610322  1
  O  O22  1  0.62553855  0.00493958  0.79389678  1
  O  O23  1  0.90855736  0.27985193  0.09101558  1
  O  O24  1  0.79389678  0.62553855  0.00493958  1
  O  O25  1  0.43877492  0.53030678  0.81330536  1
  O  O26  1  0.53030678  0.81330536  0.43877492  1
  O  O27  1  0.72014807  0.90898442  0.09144264  1
  O  O28  1  0.99506042  0.20610322  0.37446145  1
  O  O29  1  0.90898442  0.09144264  0.72014807  1
  O  O30  1  0.81330536  0.43877492  0.53030678  1
  O  O31  1  0.48513717  0.84801510  0.76557875  1
  O  O32  1  0.76557875  0.48513717  0.84801510  1
  O  O33  1  0.84801510  0.76557875  0.48513717  1
