# generated using pymatgen
data_ThSe2
_symmetry_space_group_name_H-M   'P 1'
_cell_length_a   4.45232221
_cell_length_b   7.63769927
_cell_length_c   9.11923394
_cell_angle_alpha   90.00000000
_cell_angle_beta   90.00000000
_cell_angle_gamma   90.00000000
_symmetry_Int_Tables_number   1
_chemical_formula_structural   ThSe2
_chemical_formula_sum   'Th4 Se8'
_cell_volume   310.10409236
_cell_formula_units_Z   4
loop_
 _symmetry_equiv_pos_site_id
 _symmetry_equiv_pos_as_xyz
  1  'x, y, z'
loop_
 _atom_site_type_symbol
 _atom_site_label
 _atom_site_symmetry_multiplicity
 _atom_site_fract_x
 _atom_site_fract_y
 _atom_site_fract_z
 _atom_site_occupancy
  Th  Th0  1  0.75000000  0.25034743  0.62141874  1
  Th  Th1  1  0.75000000  0.75034743  0.87858126  1
  Th  Th2  1  0.25000000  0.74965257  0.37858126  1
  Th  Th3  1  0.25000000  0.24965257  0.12141874  1
  Se  Se4  1  0.75000000  0.13980727  0.93023219  1
  Se  Se5  1  0.75000000  0.63980727  0.56976781  1
  Se  Se6  1  0.25000000  0.86019273  0.06976781  1
  Se  Se7  1  0.25000000  0.36019273  0.43023219  1
  Se  Se8  1  0.75000000  0.02914261  0.33602138  1
  Se  Se9  1  0.75000000  0.52914261  0.16397862  1
  Se  Se10  1  0.25000000  0.97085739  0.66397862  1
  Se  Se11  1  0.25000000  0.47085739  0.83602138  1
