# generated using pymatgen
data_Nb3V(PO4)6
_symmetry_space_group_name_H-M   'P 1'
_cell_length_a   8.98631447
_cell_length_b   8.98631415
_cell_length_c   8.98631433
_cell_angle_alpha   58.60076369
_cell_angle_beta   58.60076597
_cell_angle_gamma   58.60076305
_symmetry_Int_Tables_number   1
_chemical_formula_structural   Nb3V(PO4)6
_chemical_formula_sum   'Nb3 V1 P6 O24'
_cell_volume   496.71744627
_cell_formula_units_Z   1
loop_
 _symmetry_equiv_pos_site_id
 _symmetry_equiv_pos_as_xyz
  1  'x, y, z'
loop_
 _atom_site_type_symbol
 _atom_site_label
 _atom_site_symmetry_multiplicity
 _atom_site_fract_x
 _atom_site_fract_y
 _atom_site_fract_z
 _atom_site_occupancy
  Nb  Nb0  1  0.14064664  0.14064664  0.14064664  1
  Nb  Nb1  1  0.35846623  0.35846623  0.35846623  1
  Nb  Nb2  1  0.64001843  0.64001843  0.64001843  1
  V  V3  1  0.85778649  0.85778649  0.85778649  1
  P  P4  1  0.03282782  0.75055438  0.47048656  1
  P  P5  1  0.47048656  0.03282782  0.75055438  1
  P  P6  1  0.75055438  0.47048656  0.03282782  1
  P  P7  1  0.24345512  0.53958718  0.96511324  1
  P  P8  1  0.53958718  0.96511324  0.24345512  1
  P  P9  1  0.96511324  0.24345512  0.53958718  1
  O  O10  1  0.13305680  0.28362880  0.50029669  1
  O  O11  1  0.28362880  0.50029669  0.13305680  1
  O  O12  1  0.06302249  0.91957231  0.28864774  1
  O  O13  1  0.50029669  0.13305680  0.28362880  1
  O  O14  1  0.21040193  0.58031622  0.43417431  1
  O  O15  1  0.00873055  0.77904220  0.63357687  1
  O  O16  1  0.28864774  0.06302249  0.91957231  1
  O  O17  1  0.43417431  0.21040193  0.58031622  1
  O  O18  1  0.58031622  0.43417431  0.21040193  1
  O  O19  1  0.22047702  0.36424872  0.99699629  1
  O  O20  1  0.07904514  0.71362942  0.93874546  1
  O  O21  1  0.36424872  0.99699629  0.22047702  1
  O  O22  1  0.63357687  0.00873055  0.77904220  1
  O  O23  1  0.91957231  0.28864774  0.06302249  1
  O  O24  1  0.77904220  0.63357687  0.00873055  1
  O  O25  1  0.42107119  0.56088500  0.79026972  1
  O  O26  1  0.56088500  0.79026972  0.42107119  1
  O  O27  1  0.71362942  0.93874546  0.07904514  1
  O  O28  1  0.99699629  0.22047702  0.36424872  1
  O  O29  1  0.79026972  0.42107119  0.56088500  1
  O  O30  1  0.49675363  0.86579269  0.71867774  1
  O  O31  1  0.93874546  0.07904514  0.71362942  1
  O  O32  1  0.71867774  0.49675363  0.86579269  1
  O  O33  1  0.86579269  0.71867774  0.49675363  1
