# generated using pymatgen
data_CsBa2Cr2F11
_symmetry_space_group_name_H-M   'P 1'
_cell_length_a   6.11166878
_cell_length_b   6.11166878
_cell_length_c   8.90124572
_cell_angle_alpha   110.07830374
_cell_angle_beta   110.07830374
_cell_angle_gamma   90.00000000
_symmetry_Int_Tables_number   1
_chemical_formula_structural   CsBa2Cr2F11
_chemical_formula_sum   'Cs1 Ba2 Cr2 F11'
_cell_volume   290.66850438
_cell_formula_units_Z   1
loop_
 _symmetry_equiv_pos_site_id
 _symmetry_equiv_pos_as_xyz
  1  'x, y, z'
loop_
 _atom_site_type_symbol
 _atom_site_label
 _atom_site_symmetry_multiplicity
 _atom_site_fract_x
 _atom_site_fract_y
 _atom_site_fract_z
 _atom_site_occupancy
  Cs  Cs0  1  0.00000000  0.00000000  0.00000000  1
  Ba  Ba1  1  0.75000000  0.25000000  0.50000000  1
  Ba  Ba2  1  0.25000000  0.75000000  0.50000000  1
  Cr  Cr3  1  0.62520456  0.62520456  0.25040711  1
  Cr  Cr4  1  0.37479644  0.37479644  0.74959389  1
  F  F5  1  0.50000000  0.50000000  0.00000000  1
  F  F6  1  0.40882692  0.40882692  0.26731604  1
  F  F7  1  0.85849013  0.40882692  0.26731604  1
  F  F8  1  0.40882692  0.85849013  0.26731604  1
  F  F9  1  0.85849013  0.85849013  0.26731604  1
  F  F10  1  0.25027624  0.25027624  0.50055148  1
  F  F11  1  0.74972476  0.74972476  0.49944752  1
  F  F12  1  0.14150987  0.14150987  0.73268496  1
  F  F13  1  0.59117408  0.14150987  0.73268496  1
  F  F14  1  0.14150987  0.59117408  0.73268496  1
  F  F15  1  0.59117408  0.59117408  0.73268496  1
