# generated using pymatgen
data_ReTeSeCl4
_symmetry_space_group_name_H-M   'P 1'
_cell_length_a   10.49671733
_cell_length_b   10.49671733
_cell_length_c   10.49671733
_cell_angle_alpha   115.75264615
_cell_angle_beta   115.75264615
_cell_angle_gamma   97.52890172
_symmetry_Int_Tables_number   1
_chemical_formula_structural   ReTeSeCl4
_chemical_formula_sum   'Re4 Te4 Se4 Cl16'
_cell_volume   862.22681901
_cell_formula_units_Z   4
loop_
 _symmetry_equiv_pos_site_id
 _symmetry_equiv_pos_as_xyz
  1  'x, y, z'
loop_
 _atom_site_type_symbol
 _atom_site_label
 _atom_site_symmetry_multiplicity
 _atom_site_fract_x
 _atom_site_fract_y
 _atom_site_fract_z
 _atom_site_occupancy
  Re  Re0  1  0.30810616  0.45906844  0.91284657  1
  Re  Re1  1  0.54622087  0.39525859  0.08715243  1
  Re  Re2  1  0.60474041  0.69189284  0.15096229  1
  Re  Re3  1  0.54093156  0.45377813  0.84903671  1
  Te  Te4  1  0.08191459  0.57196849  0.91496455  1
  Te  Te5  1  0.65700194  0.16694904  0.08503445  1
  Te  Te6  1  0.83305096  0.91808541  0.49005290  1
  Te  Te7  1  0.42803251  0.34299706  0.50994710  1
  Se  Se8  1  0.44830392  0.57651122  0.22110911  1
  Se  Se9  1  0.35540310  0.22719681  0.77889289  1
  Se  Se10  1  0.77280419  0.55169508  0.12820629  1
  Se  Se11  1  0.42348978  0.64459690  0.87179271  1
  Cl  Cl12  1  0.14618207  0.70938411  0.20055265  1
  Cl  Cl13  1  0.50883147  0.94562943  0.79944635  1
  Cl  Cl14  1  0.05437157  0.85381693  0.56320204  1
  Cl  Cl15  1  0.29061489  0.49116953  0.43679796  1
  Cl  Cl16  1  0.10312561  0.30510259  0.91058628  1
  Cl  Cl17  1  0.39451631  0.19253933  0.08941372  1
  Cl  Cl18  1  0.80746067  0.89687439  0.20197698  1
  Cl  Cl19  1  0.69489641  0.60548369  0.79802202  1
  Cl  Cl20  1  0.07981065  0.36144728  0.62772836  1
  Cl  Cl21  1  0.73371791  0.45208328  0.37227164  1
  Cl  Cl22  1  0.54791672  0.92018735  0.28163463  1
  Cl  Cl23  1  0.63855272  0.26628109  0.71836337  1
  Cl  Cl24  1  0.12358007  0.78958214  0.89646129  1
  Cl  Cl25  1  0.89312085  0.22711978  0.10353971  1
  Cl  Cl26  1  0.77288022  0.87641993  0.66600106  1
  Cl  Cl27  1  0.21041886  0.10687915  0.33399894  1
