# generated using pymatgen
data_CsTaGeS5
_symmetry_space_group_name_H-M   'P 1'
_cell_length_a   7.06243972
_cell_length_b   7.48602722
_cell_length_c   9.54045012
_cell_angle_alpha   67.34803610
_cell_angle_beta   77.48155578
_cell_angle_gamma   74.84190190
_symmetry_Int_Tables_number   1
_chemical_formula_structural   CsTaGeS5
_chemical_formula_sum   'Cs2 Ta2 Ge2 S10'
_cell_volume   445.46650862
_cell_formula_units_Z   2
loop_
 _symmetry_equiv_pos_site_id
 _symmetry_equiv_pos_as_xyz
  1  'x, y, z'
loop_
 _atom_site_type_symbol
 _atom_site_label
 _atom_site_symmetry_multiplicity
 _atom_site_fract_x
 _atom_site_fract_y
 _atom_site_fract_z
 _atom_site_occupancy
  Cs  Cs0  1  0.60530782  0.35130117  0.31232068  1
  Cs  Cs1  1  0.39468900  0.64869575  0.68768072  1
  Ta  Ta2  1  0.23975327  0.02800123  0.00425620  1
  Ta  Ta3  1  0.76024083  0.97199910  0.99574134  1
  Ge  Ge4  1  0.97719063  0.70237973  0.37237082  1
  Ge  Ge5  1  0.02280354  0.29762401  0.62762686  1
  S  S6  1  0.07003378  0.76079994  0.01360882  1
  S  S7  1  0.43799511  0.21633441  0.03105807  1
  S  S8  1  0.69075331  0.86162456  0.28626934  1
  S  S9  1  0.21079545  0.88033196  0.28899190  1
  S  S10  1  0.07684859  0.39049734  0.36641981  1
  S  S11  1  0.92316287  0.60949843  0.63358408  1
  S  S12  1  0.78920711  0.11967375  0.71100853  1
  S  S13  1  0.30924843  0.13837673  0.71373238  1
  S  S14  1  0.56200585  0.78366321  0.96894183  1
  S  S15  1  0.92996640  0.23919967  0.98638862  1
