# generated using pymatgen
data_BaNaP3H3(NO2)3
_symmetry_space_group_name_H-M   'P 1'
_cell_length_a   7.57886355
_cell_length_b   7.57886355
_cell_length_c   7.99592786
_cell_angle_alpha   71.87273662
_cell_angle_beta   108.12726338
_cell_angle_gamma   92.28153378
_symmetry_Int_Tables_number   1
_chemical_formula_structural   BaNaP3H3(NO2)3
_chemical_formula_sum   'Ba2 Na2 P6 H6 N6 O12'
_cell_volume   413.99410659
_cell_formula_units_Z   2
loop_
 _symmetry_equiv_pos_site_id
 _symmetry_equiv_pos_as_xyz
  1  'x, y, z'
loop_
 _atom_site_type_symbol
 _atom_site_label
 _atom_site_symmetry_multiplicity
 _atom_site_fract_x
 _atom_site_fract_y
 _atom_site_fract_z
 _atom_site_occupancy
  Ba  Ba0  1  0.43118218  0.56881682  0.69657877  1
  Ba  Ba1  1  0.56881701  0.43118299  0.30342009  1
  Na  Na2  1  0.18201825  0.18201680  0.50000517  1
  Na  Na3  1  0.81798320  0.81798175  0.50000517  1
  P  P4  1  0.34337767  0.93943257  0.23484748  1
  P  P5  1  0.93943137  0.34337812  0.76515269  1
  P  P6  1  0.65662088  0.06056763  0.76515269  1
  P  P7  1  0.06056643  0.65662133  0.23484748  1
  P  P8  1  0.20022849  0.79977051  0.91349889  1
  P  P9  1  0.79977458  0.20022542  0.08650669  1
  H  H10  1  0.06446855  0.93553045  0.29290554  1
  H  H11  1  0.93553081  0.06446919  0.70709560  1
  H  H12  1  0.25883269  0.10242861  0.91797874  1
  H  H13  1  0.10242917  0.25883207  0.08202130  1
  H  H14  1  0.74116893  0.89757183  0.08202130  1
  H  H15  1  0.89757239  0.74116831  0.91797874  1
  N  N16  1  0.28661373  0.96821066  0.00672352  1
  N  N17  1  0.96820991  0.28661423  0.99327432  1
  N  N18  1  0.71338577  0.03178909  0.99327432  1
  N  N19  1  0.03178934  0.71338627  0.00672352  1
  N  N20  1  0.16284541  0.83715359  0.30584222  1
  N  N21  1  0.83715387  0.16284613  0.69415712  1
  O  O22  1  0.35199560  0.12927079  0.26054376  1
  O  O23  1  0.12927103  0.35199526  0.73945461  1
  O  O24  1  0.64800574  0.87072997  0.73945461  1
  O  O25  1  0.87073021  0.64800540  0.26054376  1
  O  O26  1  0.50620845  0.79482640  0.33870893  1
  O  O27  1  0.79482647  0.50620913  0.66129138  1
  O  O28  1  0.49379087  0.20517253  0.66129138  1
  O  O29  1  0.20517360  0.49379055  0.33870893  1
  O  O30  1  0.35237894  0.64762106  0.97553859  1
  O  O31  1  0.64761844  0.35238056  0.02445848  1
  O  O32  1  0.11182833  0.88817167  0.70522541  1
  O  O33  1  0.88816972  0.11183028  0.29477082  1
