# generated using pymatgen
data_K2Na(H2N)3
_symmetry_space_group_name_H-M   'P 1'
_cell_length_a   7.03338012
_cell_length_b   7.03338012
_cell_length_c   12.40927251
_cell_angle_alpha   90.00000000
_cell_angle_beta   90.00000000
_cell_angle_gamma   90.00000000
_symmetry_Int_Tables_number   1
_chemical_formula_structural   K2Na(H2N)3
_chemical_formula_sum   'K8 Na4 H24 N12'
_cell_volume   613.86730188
_cell_formula_units_Z   4
loop_
 _symmetry_equiv_pos_site_id
 _symmetry_equiv_pos_as_xyz
  1  'x, y, z'
loop_
 _atom_site_type_symbol
 _atom_site_label
 _atom_site_symmetry_multiplicity
 _atom_site_fract_x
 _atom_site_fract_y
 _atom_site_fract_z
 _atom_site_occupancy
  K  K0  1  0.49999900  0.49999900  0.25000000  1
  K  K1  1  0.49999900  0.49999900  0.75000000  1
  K  K2  1  0.00000000  0.00000000  0.00000000  1
  K  K3  1  0.00000000  0.00000000  0.50000000  1
  K  K4  1  0.00000000  0.49999900  0.15064910  1
  K  K5  1  0.49999900  0.00000000  0.65064910  1
  K  K6  1  0.00000000  0.49999900  0.84935190  1
  K  K7  1  0.49999900  0.00000000  0.34935190  1
  Na  Na8  1  0.36215288  0.32465576  0.00000000  1
  Na  Na9  1  0.63784812  0.67534424  0.00000000  1
  Na  Na10  1  0.67534424  0.36215288  0.50000000  1
  Na  Na11  1  0.32465576  0.63784812  0.50000000  1
  H  H12  1  0.16493990  0.14224586  0.22131901  1
  H  H13  1  0.83506110  0.85775414  0.22131901  1
  H  H14  1  0.85775414  0.16493990  0.72131901  1
  H  H15  1  0.14224586  0.83506110  0.72131901  1
  H  H16  1  0.83506110  0.85775414  0.77868099  1
  H  H17  1  0.16493990  0.14224586  0.77868099  1
  H  H18  1  0.14224586  0.83506110  0.27868099  1
  H  H19  1  0.85775414  0.16493990  0.27868099  1
  H  H20  1  0.33047173  0.04807171  0.15029364  1
  H  H21  1  0.66952827  0.95192729  0.15029364  1
  H  H22  1  0.95192729  0.33047173  0.65029364  1
  H  H23  1  0.04807171  0.66952827  0.65029364  1
  H  H24  1  0.66952827  0.95192729  0.84970636  1
  H  H25  1  0.33047173  0.04807171  0.84970636  1
  H  H26  1  0.04807171  0.66952827  0.34970636  1
  H  H27  1  0.95192729  0.33047173  0.34970636  1
  H  H28  1  0.70420957  0.24330895  0.06484841  1
  H  H29  1  0.29579143  0.75669205  0.06484841  1
  H  H30  1  0.75669205  0.70420957  0.56484841  1
  H  H31  1  0.24330895  0.29579143  0.56484841  1
  H  H32  1  0.29579143  0.75669205  0.93515159  1
  H  H33  1  0.70420957  0.24330895  0.93515159  1
  H  H34  1  0.24330895  0.29579143  0.43515159  1
  H  H35  1  0.75669205  0.70420957  0.43515159  1
  N  N36  1  0.72187827  0.33335148  0.00000000  1
  N  N37  1  0.27812273  0.66664752  0.00000000  1
  N  N38  1  0.66664752  0.72187827  0.50000000  1
  N  N39  1  0.33335148  0.27812273  0.50000000  1
  N  N40  1  0.26957211  0.17816070  0.16704830  1
  N  N41  1  0.73042789  0.82184030  0.16704830  1
  N  N42  1  0.82184030  0.26957211  0.66704830  1
  N  N43  1  0.17816070  0.73042789  0.66704830  1
  N  N44  1  0.73042789  0.82184030  0.83295170  1
  N  N45  1  0.26957211  0.17816070  0.83295170  1
  N  N46  1  0.17816070  0.73042789  0.33295170  1
  N  N47  1  0.82184030  0.26957211  0.33295170  1
