# generated using pymatgen
data_Ba8Bi4H2O
_symmetry_space_group_name_H-M   'P 1'
_cell_length_a   5.31240044
_cell_length_b   5.31240044
_cell_length_c   19.71341539
_cell_angle_alpha   97.74363000
_cell_angle_beta   97.74363000
_cell_angle_gamma   90.00000000
_symmetry_Int_Tables_number   1
_chemical_formula_structural   Ba8Bi4H2O
_chemical_formula_sum   'Ba8 Bi4 H2 O1'
_cell_volume   546.15023369
_cell_formula_units_Z   1
loop_
 _symmetry_equiv_pos_site_id
 _symmetry_equiv_pos_as_xyz
  1  'x, y, z'
loop_
 _atom_site_type_symbol
 _atom_site_label
 _atom_site_symmetry_multiplicity
 _atom_site_fract_x
 _atom_site_fract_y
 _atom_site_fract_z
 _atom_site_occupancy
  Ba  Ba0  1  0.50000000  0.00000000  0.00000000  1
  Ba  Ba1  1  0.00000000  0.50000000  0.00000000  1
  Ba  Ba2  1  0.08424603  0.08424603  0.16849305  1
  Ba  Ba3  1  0.66009441  0.66009441  0.32018981  1
  Ba  Ba4  1  0.75000000  0.25000000  0.50000000  1
  Ba  Ba5  1  0.25000000  0.75000000  0.50000000  1
  Ba  Ba6  1  0.33990459  0.33990459  0.67981019  1
  Ba  Ba7  1  0.91575397  0.91575397  0.83150795  1
  Bi  Bi8  1  0.56749203  0.56749203  0.13498506  1
  Bi  Bi9  1  0.17961640  0.17961640  0.35923280  1
  Bi  Bi10  1  0.82038260  0.82038260  0.64076720  1
  Bi  Bi11  1  0.43250797  0.43250797  0.86501494  1
  H  H12  1  0.72911823  0.72911823  0.45823746  1
  H  H13  1  0.27088177  0.27088177  0.54176254  1
  O  O14  1  0.00000000  0.00000000  0.00000000  1
