# generated using pymatgen
data_Yb3CeS6
_symmetry_space_group_name_H-M   'P 1'
_cell_length_a   4.16928149
_cell_length_b   11.51755359
_cell_length_c   11.25090960
_cell_angle_alpha   108.85296772
_cell_angle_beta   90.00000000
_cell_angle_gamma   90.00000000
_symmetry_Int_Tables_number   1
_chemical_formula_structural   Yb3CeS6
_chemical_formula_sum   'Yb6 Ce2 S12'
_cell_volume   511.28294843
_cell_formula_units_Z   2
loop_
 _symmetry_equiv_pos_site_id
 _symmetry_equiv_pos_as_xyz
  1  'x, y, z'
loop_
 _atom_site_type_symbol
 _atom_site_label
 _atom_site_symmetry_multiplicity
 _atom_site_fract_x
 _atom_site_fract_y
 _atom_site_fract_z
 _atom_site_occupancy
  Yb  Yb0  1  0.75000000  0.04991244  0.65528420  1
  Yb  Yb1  1  0.25000000  0.95008756  0.34471580  1
  Yb  Yb2  1  0.75000000  0.84976377  0.94578488  1
  Yb  Yb3  1  0.25000000  0.15023623  0.05421512  1
  Yb  Yb4  1  0.25000000  0.67629954  0.56823808  1
  Yb  Yb5  1  0.75000000  0.32370046  0.43176192  1
  Ce  Ce6  1  0.25000000  0.52874410  0.17373921  1
  Ce  Ce7  1  0.75000000  0.47125590  0.82626079  1
  S  S8  1  0.75000000  0.39336270  0.03908671  1
  S  S9  1  0.25000000  0.60663730  0.96091329  1
  S  S10  1  0.75000000  0.06949241  0.90108041  1
  S  S11  1  0.25000000  0.93050759  0.09891959  1
  S  S12  1  0.75000000  0.65105604  0.71324675  1
  S  S13  1  0.25000000  0.34894396  0.28675325  1
  S  S14  1  0.75000000  0.72142157  0.24926269  1
  S  S15  1  0.25000000  0.27857843  0.75073731  1
  S  S16  1  0.25000000  0.39025526  0.63669665  1
  S  S17  1  0.75000000  0.60974474  0.36330335  1
  S  S18  1  0.25000000  0.89887329  0.56742800  1
  S  S19  1  0.75000000  0.10112671  0.43257200  1
