# generated using pymatgen
data_Te2MoW3(SeS2)2
_symmetry_space_group_name_H-M   'P 1'
_cell_length_a   3.30854624
_cell_length_b   3.30859936
_cell_length_c   37.69478792
_cell_angle_alpha   90.00038723
_cell_angle_beta   90.00000000
_cell_angle_gamma   119.99946891
_symmetry_Int_Tables_number   1
_chemical_formula_structural   Te2MoW3(SeS2)2
_chemical_formula_sum   'Te2 Mo1 W3 Se2 S4'
_cell_volume   357.35153342
_cell_formula_units_Z   1
loop_
 _symmetry_equiv_pos_site_id
 _symmetry_equiv_pos_as_xyz
  1  'x, y, z'
loop_
 _atom_site_type_symbol
 _atom_site_label
 _atom_site_symmetry_multiplicity
 _atom_site_fract_x
 _atom_site_fract_y
 _atom_site_fract_z
 _atom_site_occupancy
  Te  Te0  1  0.33336021  0.66672143  0.33285341  1
  Te  Te1  1  0.33335181  0.66670461  0.23076893  1
  Mo  Mo2  1  0.33329561  0.66659122  0.46967818  1
  W  W3  1  0.33331166  0.66662332  0.09389336  1
  W  W4  1  0.66669285  0.33338571  0.28179118  1
  W  W5  1  0.66668711  0.33337422  0.65754210  1
  Se  Se6  1  0.33335022  0.66670144  0.70237829  1
  Se  Se7  1  0.33335044  0.66670188  0.61269838  1
  S  S8  1  0.66664724  0.33329347  0.05321836  1
  S  S9  1  0.66665505  0.33330910  0.42914436  1
  S  S10  1  0.66664509  0.33328918  0.13458579  1
  S  S11  1  0.66665271  0.33330441  0.51019564  1
