# generated using pymatgen
data_TmI3
_symmetry_space_group_name_H-M   'P 1'
_cell_length_a   11.69129990
_cell_length_b   11.69129983
_cell_length_c   3.95198812
_cell_angle_alpha   90.00000000
_cell_angle_beta   90.00000000
_cell_angle_gamma   119.99999617
_symmetry_Int_Tables_number   1
_chemical_formula_structural   TmI3
_chemical_formula_sum   'Tm2 I6'
_cell_volume   467.81256068
_cell_formula_units_Z   2
loop_
 _symmetry_equiv_pos_site_id
 _symmetry_equiv_pos_as_xyz
  1  'x, y, z'
loop_
 _atom_site_type_symbol
 _atom_site_label
 _atom_site_symmetry_multiplicity
 _atom_site_fract_x
 _atom_site_fract_y
 _atom_site_fract_z
 _atom_site_occupancy
  Tm  Tm0  1  0.33333400  0.66666800  0.74999900  1
  Tm  Tm1  1  0.66666800  0.33333300  0.24999800  1
  I  I2  1  0.21999293  0.43998487  0.24999800  1
  I  I3  1  0.56001413  0.78000707  0.24999800  1
  I  I4  1  0.21999293  0.78000707  0.24999800  1
  I  I5  1  0.78000907  0.56001613  0.74999900  1
  I  I6  1  0.43998487  0.21999093  0.74999900  1
  I  I7  1  0.78000707  0.21999093  0.74999900  1
