# generated using pymatgen
data_CoMoH2SeO7
_symmetry_space_group_name_H-M   'P 1'
_cell_length_a   5.03920332
_cell_length_b   6.69550520
_cell_length_c   8.94114593
_cell_angle_alpha   91.89499883
_cell_angle_beta   97.56973147
_cell_angle_gamma   110.06874385
_symmetry_Int_Tables_number   1
_chemical_formula_structural   CoMoH2SeO7
_chemical_formula_sum   'Co2 Mo2 H4 Se2 O14'
_cell_volume   279.89355795
_cell_formula_units_Z   2
loop_
 _symmetry_equiv_pos_site_id
 _symmetry_equiv_pos_as_xyz
  1  'x, y, z'
loop_
 _atom_site_type_symbol
 _atom_site_label
 _atom_site_symmetry_multiplicity
 _atom_site_fract_x
 _atom_site_fract_y
 _atom_site_fract_z
 _atom_site_occupancy
  Co  Co0  1  0.49999981  0.99999997  0.99999986  1
  Co  Co1  1  0.99999939  0.49999940  0.49999996  1
  Mo  Mo2  1  0.20846755  0.40748209  0.10462068  1
  Mo  Mo3  1  0.79153154  0.59251749  0.89537950  1
  H  H4  1  0.61782181  0.14058296  0.35778822  1
  H  H5  1  0.45685978  0.24346322  0.47633568  1
  H  H6  1  0.54313815  0.75653569  0.52366410  1
  H  H7  1  0.38217797  0.85941622  0.64221234  1
  Se  Se8  1  0.86602255  0.81865312  0.26088684  1
  Se  Se9  1  0.13397751  0.18134680  0.73911324  1
  O  O10  1  0.16508692  0.69204240  0.01154991  1
  O  O11  1  0.26804357  0.16085192  0.10530987  1
  O  O12  1  0.63566908  0.58633362  0.13000717  1
  O  O13  1  0.66959706  0.97942427  0.22413741  1
  O  O14  1  0.14662710  0.46210383  0.28769964  1
  O  O15  1  0.63602249  0.25639031  0.43543594  1
  O  O16  1  0.80107667  0.73159026  0.43278194  1
  O  O17  1  0.19892249  0.26840959  0.56721825  1
  O  O18  1  0.36397688  0.74360848  0.56456391  1
  O  O19  1  0.85337247  0.53789629  0.71230070  1
  O  O20  1  0.33040328  0.02057576  0.77586269  1
  O  O21  1  0.36433080  0.41366605  0.86999305  1
  O  O22  1  0.73195594  0.83914797  0.89469081  1
  O  O23  1  0.83491217  0.30795730  0.98845028  1
