# generated using pymatgen
data_Li2CaIn
_symmetry_space_group_name_H-M   'P 1'
_cell_length_a   5.01014734
_cell_length_b   5.01013702
_cell_length_c   5.01013003
_cell_angle_alpha   59.99958308
_cell_angle_beta   59.99945441
_cell_angle_gamma   59.99984780
_symmetry_Int_Tables_number   1
_chemical_formula_structural   Li2CaIn
_chemical_formula_sum   'Li2 Ca1 In1'
_cell_volume   88.92634495
_cell_formula_units_Z   1
loop_
 _symmetry_equiv_pos_site_id
 _symmetry_equiv_pos_as_xyz
  1  'x, y, z'
loop_
 _atom_site_type_symbol
 _atom_site_label
 _atom_site_symmetry_multiplicity
 _atom_site_fract_x
 _atom_site_fract_y
 _atom_site_fract_z
 _atom_site_occupancy
  Li  Li0  1  -0.00000031  0.00000190  0.00000118  1
  Li  Li1  1  0.49999918  0.50000030  0.49999899  1
  Ca  Ca2  1  0.25000100  0.25000124  0.25000006  1
  In  In3  1  0.75000212  0.74999857  0.75000177  1
