# generated using pymatgen
data_DyNbRu2
_symmetry_space_group_name_H-M   'P 1'
_cell_length_a   4.64129135
_cell_length_b   4.64129104
_cell_length_c   4.64129616
_cell_angle_alpha   60.00001084
_cell_angle_beta   60.00007257
_cell_angle_gamma   59.99997102
_symmetry_Int_Tables_number   1
_chemical_formula_structural   DyNbRu2
_chemical_formula_sum   'Dy1 Nb1 Ru2'
_cell_volume   70.69718092
_cell_formula_units_Z   1
loop_
 _symmetry_equiv_pos_site_id
 _symmetry_equiv_pos_as_xyz
  1  'x, y, z'
loop_
 _atom_site_type_symbol
 _atom_site_label
 _atom_site_symmetry_multiplicity
 _atom_site_fract_x
 _atom_site_fract_y
 _atom_site_fract_z
 _atom_site_occupancy
  Dy  Dy0  1  0.24999929  0.25000016  0.25000022  1
  Nb  Nb1  1  0.75000033  0.74999969  0.75000040  1
  Ru  Ru2  1  0.00000052  0.00000004  -0.00000035  1
  Ru  Ru3  1  0.49999986  0.50000011  0.49999974  1
