# generated using pymatgen
data_BiTeO4
_symmetry_space_group_name_H-M   'P 1'
_cell_length_a   5.65564230
_cell_length_b   7.06812750
_cell_length_c   10.06474017
_cell_angle_alpha   107.17539656
_cell_angle_beta   106.31769720
_cell_angle_gamma   66.41677866
_symmetry_Int_Tables_number   1
_chemical_formula_structural   BiTeO4
_chemical_formula_sum   'Bi4 Te4 O16'
_cell_volume   346.14505797
_cell_formula_units_Z   4
loop_
 _symmetry_equiv_pos_site_id
 _symmetry_equiv_pos_as_xyz
  1  'x, y, z'
loop_
 _atom_site_type_symbol
 _atom_site_label
 _atom_site_symmetry_multiplicity
 _atom_site_fract_x
 _atom_site_fract_y
 _atom_site_fract_z
 _atom_site_occupancy
  Bi  Bi0  1  0.22957757  0.60588760  0.15444913  1
  Bi  Bi1  1  0.04057923  0.74296140  0.74251310  1
  Bi  Bi2  1  0.95897246  0.24296140  0.24251310  1
  Bi  Bi3  1  0.31898396  0.10588760  0.65444913  1
  Te  Te4  1  0.64923199  0.92839034  0.38443653  1
  Te  Te5  1  0.49160098  0.50574282  0.50328621  1
  Te  Te6  1  0.80681319  0.42839034  0.88443653  1
  Te  Te7  1  0.50594241  0.00574282  0.00328621  1
  O  O8  1  0.85557473  0.91959796  0.11900783  1
  O  O9  1  0.71794979  0.95929121  0.59151141  1
  O  O10  1  0.64554396  0.98995537  0.84179274  1
  O  O11  1  0.27185541  0.78909693  0.58225479  1
  O  O12  1  0.63845268  0.58780246  0.38270803  1
  O  O13  1  0.91427041  0.45929121  0.09151141  1
  O  O14  1  0.50952303  0.70408961  0.91902909  1
  O  O15  1  0.20629341  0.48995537  0.34179274  1
  O  O16  1  0.79296518  0.50478280  0.65693279  1
  O  O17  1  0.52130245  0.28909693  0.08225479  1
  O  O18  1  0.08027921  0.53484149  0.90368036  1
  O  O19  1  0.34383513  0.41959796  0.61900783  1
  O  O20  1  0.70541644  0.20408961  0.41902909  1
  O  O21  1  0.35918481  0.00478280  0.15693279  1
  O  O22  1  0.28855965  0.03484149  0.40368036  1
  O  O23  1  0.15645289  0.08780246  0.88270803  1
