# generated using pymatgen
data_LiCoPO4
_symmetry_space_group_name_H-M   'P 1'
_cell_length_a   9.90777672
_cell_length_b   10.06991755
_cell_length_c   16.43236528
_cell_angle_alpha   82.24550122
_cell_angle_beta   90.00000000
_cell_angle_gamma   60.53121606
_symmetry_Int_Tables_number   1
_chemical_formula_structural   LiCoPO4
_chemical_formula_sum   'Li16 Co16 P16 O64'
_cell_volume   1410.11176394
_cell_formula_units_Z   16
loop_
 _symmetry_equiv_pos_site_id
 _symmetry_equiv_pos_as_xyz
  1  'x, y, z'
loop_
 _atom_site_type_symbol
 _atom_site_label
 _atom_site_symmetry_multiplicity
 _atom_site_fract_x
 _atom_site_fract_y
 _atom_site_fract_z
 _atom_site_occupancy
  Li  Li0  1  0.81276981  0.98807872  0.99703793  1
  Li  Li1  1  0.19915146  0.98807872  0.49703793  1
  Li  Li2  1  0.57743487  0.72121275  0.74680514  1
  Li  Li3  1  0.07445921  0.66595132  0.74802833  1
  Li  Li4  1  0.31349865  0.54629899  0.99817320  1
  Li  Li5  1  0.70135238  0.72121275  0.24680514  1
  Li  Li6  1  0.81142068  0.48684465  0.99638927  1
  Li  Li7  1  0.25958947  0.66595132  0.24802833  1
  Li  Li8  1  0.14020236  0.54629899  0.49817320  1
  Li  Li9  1  0.70173467  0.48684465  0.49638927  1
  Li  Li10  1  0.56967749  0.22641728  0.74787163  1
  Li  Li11  1  0.08118392  0.15895259  0.74692038  1
  Li  Li12  1  0.31241283  0.04784032  0.99718810  1
  Li  Li13  1  0.20390523  0.22641728  0.24787163  1
  Li  Li14  1  0.75986349  0.15895259  0.24692038  1
  Li  Li15  1  0.63974685  0.04784032  0.49718810  1
  Co  Co16  1  0.26675105  0.84856193  0.87152204  1
  Co  Co17  1  0.76863696  0.78557881  0.87218600  1
  Co  Co18  1  0.88468802  0.84856193  0.37152204  1
  Co  Co19  1  0.44578423  0.78557881  0.37218600  1
  Co  Co20  1  0.32539966  0.66999658  0.62165861  1
  Co  Co21  1  0.88023333  0.60943162  0.62120497  1
  Co  Co22  1  0.00460376  0.66999658  0.12165861  1
  Co  Co23  1  0.51033505  0.60943162  0.12120497  1
  Co  Co24  1  0.26999411  0.34776962  0.87219263  1
  Co  Co25  1  0.76714722  0.28712445  0.87030125  1
  Co  Co26  1  0.38223627  0.34776962  0.37219263  1
  Co  Co27  1  0.94572832  0.28712445  0.37030125  1
  Co  Co28  1  0.82589010  0.16471123  0.62074989  1
  Co  Co29  1  0.38123011  0.11394748  0.62103648  1
  Co  Co30  1  0.00939867  0.16471123  0.12074989  1
  Co  Co31  1  0.50482241  0.11394748  0.12103648  1
  P  P32  1  0.91462723  0.98383997  0.80933752  1
  P  P33  1  0.10153279  0.98383997  0.30933752  1
  P  P34  1  0.98257080  0.84898953  0.56033696  1
  P  P35  1  0.53706669  0.79744099  0.55893748  1
  P  P36  1  0.16843967  0.84898953  0.06033696  1
  P  P37  1  0.66549232  0.79744099  0.05893748  1
  P  P38  1  0.41693372  0.53972783  0.81123725  1
  P  P39  1  0.91811534  0.47976663  0.80923930  1
  P  P40  1  0.04333945  0.53972783  0.31123725  1
  P  P41  1  0.60211802  0.47976663  0.30923930  1
  P  P42  1  0.48193773  0.35261569  0.56031550  1
  P  P43  1  0.03868788  0.29431362  0.55835667  1
  P  P44  1  0.16544658  0.35261569  0.06031550  1
  P  P45  1  0.66699850  0.29431362  0.05835667  1
  P  P46  1  0.41843074  0.03681822  0.81094843  1
  P  P47  1  0.54475105  0.03681822  0.31094843  1
  O  O48  1  0.33962866  0.99749058  0.88501043  1
  O  O49  1  0.07678498  0.96813582  0.79556465  1
  O  O50  1  0.57661871  0.89518605  0.79841287  1
  O  O51  1  0.74322788  0.83760358  0.98469738  1
  O  O52  1  0.66288077  0.99749058  0.38501043  1
  O  O53  1  0.55078570  0.94004907  0.57319209  1
  O  O54  1  0.23890408  0.77250802  0.98318791  1
  O  O55  1  0.93168668  0.82049854  0.82023034  1
  O  O56  1  0.95508019  0.96813582  0.29556365  1
  O  O57  1  0.13112266  0.86120868  0.57366048  1
  O  O58  1  0.52819624  0.89518605  0.29841287  1
  O  O59  1  0.41916854  0.83760358  0.48469738  1
  O  O60  1  0.50916523  0.94004907  0.07319209  1
  O  O61  1  0.47507755  0.74494439  0.63686195  1
  O  O62  1  0.97386045  0.74151039  0.63534231  1
  O  O63  1  0.44230945  0.67510903  0.82672822  1
  O  O64  1  0.98858790  0.77250802  0.48318791  1
  O  O65  1  0.24781478  0.82049854  0.32023034  1
  O  O66  1  0.00766866  0.86120868  0.07366048  1
  O  O67  1  0.69960510  0.66574231  0.54286356  1
  O  O68  1  0.84447303  0.55907613  0.88538117  1
  O  O69  1  0.30066132  0.58994605  0.73464585  1
  O  O70  1  0.80750377  0.58472086  0.73191975  1
  O  O71  1  0.77997806  0.74494439  0.13686195  1
  O  O72  1  0.28462916  0.74151039  0.13534231  1
  O  O73  1  0.88258152  0.67510903  0.32672822  1
  O  O74  1  0.34414565  0.49522427  0.88665237  1
  O  O75  1  0.07917675  0.46788180  0.79724834  1
  O  O76  1  0.34129815  0.51970877  0.54869350  1
  O  O77  1  0.63465260  0.66574231  0.04286356  1
  O  O78  1  0.59645084  0.55907613  0.38538117  1
  O  O79  1  0.10939263  0.58994605  0.23464585  1
  O  O80  1  0.60777537  0.58472086  0.23191975  1
  O  O81  1  0.57402146  0.39932342  0.79622700  1
  O  O82  1  0.74088182  0.33759130  0.98330629  1
  O  O83  1  0.16063008  0.49522427  0.38665237  1
  O  O84  1  0.05109859  0.43679991  0.57449584  1
  O  O85  1  0.24073955  0.27411761  0.98437914  1
  O  O86  1  0.93686400  0.31591740  0.82107759  1
  O  O87  1  0.45294146  0.46788180  0.29724834  1
  O  O88  1  0.13899309  0.51970877  0.04869350  1
  O  O89  1  0.63374313  0.35950618  0.57263362  1
  O  O90  1  0.02665512  0.39932342  0.29622700  1
  O  O91  1  0.92152688  0.33759130  0.48330629  1
  O  O92  1  0.51210150  0.43679991  0.07449584  1
  O  O93  1  0.47025247  0.24980064  0.63688045  1
  O  O94  1  0.97686961  0.23719556  0.63462991  1
  O  O95  1  0.48514284  0.27411761  0.48437914  1
  O  O96  1  0.44246505  0.17276003  0.82669019  1
  O  O97  1  0.74721960  0.31591740  0.32107759  1
  O  O98  1  0.00675069  0.35950618  0.07263362  1
  O  O99  1  0.20231390  0.16450851  0.54241141  1
  O  O100  1  0.84737394  0.05965443  0.88724071  1
  O  O101  1  0.79900939  0.09377382  0.73497875  1
  O  O102  1  0.30924552  0.08224733  0.73163792  1
  O  O103  1  0.27994589  0.24980064  0.13688045  1
  O  O104  1  0.78593483  0.23719556  0.13462991  1
  O  O105  1  0.38477493  0.17276003  0.32669019  1
  O  O106  1  0.63317659  0.16450851  0.04241141  1
  O  O107  1  0.83918606  0.01415067  0.54963707  1
  O  O108  1  0.09297263  0.05965443  0.38724071  1
  O  O109  1  0.10721679  0.09377382  0.23497875  1
  O  O110  1  0.60850715  0.08224733  0.23163792  1
  O  O111  1  0.14666328  0.01415067  0.04963707  1
