# generated using pymatgen
data_CsK2Sc(PO4)2
_symmetry_space_group_name_H-M   'P 1'
_cell_length_a   5.55838441
_cell_length_b   5.55838441
_cell_length_c   8.03265829
_cell_angle_alpha   90.00000000
_cell_angle_beta   90.00000000
_cell_angle_gamma   119.99999996
_symmetry_Int_Tables_number   1
_chemical_formula_structural   CsK2Sc(PO4)2
_chemical_formula_sum   'Cs1 K2 Sc1 P2 O8'
_cell_volume   214.92507237
_cell_formula_units_Z   1
loop_
 _symmetry_equiv_pos_site_id
 _symmetry_equiv_pos_as_xyz
  1  'x, y, z'
loop_
 _atom_site_type_symbol
 _atom_site_label
 _atom_site_symmetry_multiplicity
 _atom_site_fract_x
 _atom_site_fract_y
 _atom_site_fract_z
 _atom_site_occupancy
  O  O0  1  0.36108474  0.18060384  0.15081245  1
  O  O1  1  0.81951910  0.63891526  0.15081245  1
  O  O2  1  0.81939616  0.18048090  0.15081245  1
  O  O3  1  0.63891526  0.81939616  0.84918755  1
  O  O4  1  0.18048090  0.36108474  0.84918755  1
  O  O5  1  0.18060384  0.81951910  0.84918755  1
  O  O6  1  0.66666667  0.33333333  0.40760995  1
  O  O7  1  0.33333333  0.66666667  0.59239005  1
  P  P8  1  0.33333333  0.66666667  0.78262218  1
  P  P9  1  0.66666667  0.33333333  0.21737782  1
  K  K10  1  0.33333333  0.66666667  0.24849816  1
  K  K11  1  0.66666667  0.33333333  0.75150184  1
  Sc  Sc12  1  0.00000000  0.00000000  0.00000000  1
  Cs  Cs13  1  0.00000000  0.00000000  0.50000000  1
