# generated using pymatgen
data_YMg14Ga
_symmetry_space_group_name_H-M   'P 1'
_cell_length_a   6.42880874
_cell_length_b   6.42880821
_cell_length_c   10.36606761
_cell_angle_alpha   90.00000000
_cell_angle_beta   90.00000000
_cell_angle_gamma   120.00000274
_symmetry_Int_Tables_number   1
_chemical_formula_structural   YMg14Ga
_chemical_formula_sum   'Y1 Mg14 Ga1'
_cell_volume   371.02709996
_cell_formula_units_Z   1
loop_
 _symmetry_equiv_pos_site_id
 _symmetry_equiv_pos_as_xyz
  1  'x, y, z'
loop_
 _atom_site_type_symbol
 _atom_site_label
 _atom_site_symmetry_multiplicity
 _atom_site_fract_x
 _atom_site_fract_y
 _atom_site_fract_z
 _atom_site_occupancy
  Y  Y0  1  0.16666700  0.33333300  0.12500000  1
  Mg  Mg1  1  0.17948280  0.83974090  0.12500000  1
  Mg  Mg2  1  0.16190430  0.83095165  0.62500000  1
  Mg  Mg3  1  0.66025910  0.32051720  0.12500000  1
  Mg  Mg4  1  0.66904835  0.33809570  0.62500000  1
  Mg  Mg5  1  0.66025910  0.83974090  0.12500000  1
  Mg  Mg6  1  0.66904835  0.83095165  0.62500000  1
  Mg  Mg7  1  0.33178925  0.16821075  0.38391520  1
  Mg  Mg8  1  0.33178925  0.16821075  0.86608480  1
  Mg  Mg9  1  0.33178925  0.66357951  0.38391520  1
  Mg  Mg10  1  0.33178925  0.66357951  0.86608480  1
  Mg  Mg11  1  0.83642049  0.16821075  0.38391520  1
  Mg  Mg12  1  0.83642049  0.16821075  0.86608480  1
  Mg  Mg13  1  0.83333300  0.66666700  0.36575089  1
  Mg  Mg14  1  0.83333300  0.66666700  0.88424911  1
  Ga  Ga15  1  0.16666700  0.33333300  0.62500000  1
