# generated using pymatgen
data_DyBr3
_symmetry_space_group_name_H-M   'P 1'
_cell_length_a   10.80355254
_cell_length_b   10.80357463
_cell_length_c   3.74192310
_cell_angle_alpha   89.99998854
_cell_angle_beta   90.00009934
_cell_angle_gamma   120.00016828
_symmetry_Int_Tables_number   1
_chemical_formula_structural   DyBr3
_chemical_formula_sum   'Dy2 Br6'
_cell_volume   378.23247797
_cell_formula_units_Z   2
loop_
 _symmetry_equiv_pos_site_id
 _symmetry_equiv_pos_as_xyz
  1  'x, y, z'
loop_
 _atom_site_type_symbol
 _atom_site_label
 _atom_site_symmetry_multiplicity
 _atom_site_fract_x
 _atom_site_fract_y
 _atom_site_fract_z
 _atom_site_occupancy
  Dy  Dy0  1  0.33333423  0.66666678  0.75000186  1
  Dy  Dy1  1  0.66666705  0.33333274  0.24999915  1
  Br  Br2  1  0.21996946  0.43993778  0.25000004  1
  Br  Br3  1  0.56006310  0.78003133  0.24999973  1
  Br  Br4  1  0.21997028  0.78003113  0.24999833  1
  Br  Br5  1  0.78003075  0.56006165  0.75000151  1
  Br  Br6  1  0.43993639  0.21996895  0.75000116  1
  Br  Br7  1  0.78003075  0.21996865  0.75000222  1
