# generated using pymatgen
data_Ba3In(BO3)3
_symmetry_space_group_name_H-M   'P 1'
_cell_length_a   8.12329414
_cell_length_b   8.12329414
_cell_length_c   8.12329263
_cell_angle_alpha   105.81140807
_cell_angle_beta   105.81140810
_cell_angle_gamma   105.81139513
_symmetry_Int_Tables_number   1
_chemical_formula_structural   Ba3In(BO3)3
_chemical_formula_sum   'Ba6 In2 B6 O18'
_cell_volume   460.12651872
_cell_formula_units_Z   2
loop_
 _symmetry_equiv_pos_site_id
 _symmetry_equiv_pos_as_xyz
  1  'x, y, z'
loop_
 _atom_site_type_symbol
 _atom_site_label
 _atom_site_symmetry_multiplicity
 _atom_site_fract_x
 _atom_site_fract_y
 _atom_site_fract_z
 _atom_site_occupancy
  Ba  Ba0  1  0.84389691  0.33503106  0.23729734  1
  Ba  Ba1  1  0.23729734  0.84389691  0.33503106  1
  Ba  Ba2  1  0.33503106  0.23729734  0.84389691  1
  Ba  Ba3  1  0.15610209  0.66496894  0.76270266  1
  Ba  Ba4  1  0.76270166  0.15610309  0.66496894  1
  Ba  Ba5  1  0.66496794  0.76270266  0.15610309  1
  In  In6  1  0.00000000  0.00000000  0.00000000  1
  In  In7  1  0.50000000  0.50000000  0.50000000  1
  B  B8  1  0.86504074  0.79199901  0.54955993  1
  B  B9  1  0.54955893  0.86504074  0.79200001  1
  B  B10  1  0.79199901  0.54955893  0.86504174  1
  B  B11  1  0.13495826  0.20800099  0.45044007  1
  B  B12  1  0.45044007  0.13495926  0.20799999  1
  B  B13  1  0.20799999  0.45044107  0.13495826  1
  O  O14  1  0.67697468  0.76349902  0.49828118  1
  O  O15  1  0.49828118  0.67697468  0.76349902  1
  O  O16  1  0.76349802  0.49828118  0.67697568  1
  O  O17  1  0.32302632  0.23650198  0.50171882  1
  O  O18  1  0.50171982  0.32302532  0.23650198  1
  O  O19  1  0.23650198  0.50171882  0.32302532  1
  O  O20  1  0.93002554  0.69927175  0.42834884  1
  O  O21  1  0.42834784  0.93002654  0.69927175  1
  O  O22  1  0.69927275  0.42834784  0.93002554  1
  O  O23  1  0.06997446  0.30072725  0.57165116  1
  O  O24  1  0.57165216  0.06997346  0.30072825  1
  O  O25  1  0.30072625  0.57165216  0.06997446  1
  O  O26  1  0.99227373  0.93150501  0.71780200  1
  O  O27  1  0.71780200  0.99227473  0.93150401  1
  O  O28  1  0.93150401  0.71780200  0.99227473  1
  O  O29  1  0.00772627  0.06849599  0.28219800  1
  O  O30  1  0.28219900  0.00772627  0.06849599  1
  O  O31  1  0.06849599  0.28219900  0.00772627  1
