# generated using pymatgen
data_Ba(NdS2)2
_symmetry_space_group_name_H-M   'P 1'
_cell_length_a   11.95136750
_cell_length_b   4.24172209
_cell_length_c   14.96529532
_cell_angle_alpha   90.00000000
_cell_angle_beta   90.00000000
_cell_angle_gamma   90.00000000
_symmetry_Int_Tables_number   1
_chemical_formula_structural   Ba(NdS2)2
_chemical_formula_sum   'Ba4 Nd8 S16'
_cell_volume   758.65636074
_cell_formula_units_Z   4
loop_
 _symmetry_equiv_pos_site_id
 _symmetry_equiv_pos_as_xyz
  1  'x, y, z'
loop_
 _atom_site_type_symbol
 _atom_site_label
 _atom_site_symmetry_multiplicity
 _atom_site_fract_x
 _atom_site_fract_y
 _atom_site_fract_z
 _atom_site_occupancy
  Ba  Ba0  1  0.73632298  0.25000000  0.65760361  1
  Ba  Ba1  1  0.76367602  0.75000100  0.15760361  1
  Ba  Ba2  1  0.23632298  0.25000000  0.84239639  1
  Ba  Ba3  1  0.26367602  0.75000100  0.34239639  1
  Nd  Nd4  1  0.39619589  0.25000000  0.59964514  1
  Nd  Nd5  1  0.10380511  0.75000100  0.09964514  1
  Nd  Nd6  1  0.89619389  0.25000000  0.90035486  1
  Nd  Nd7  1  0.60380511  0.75000100  0.40035486  1
  Nd  Nd8  1  0.43854143  0.25000000  0.10942146  1
  Nd  Nd9  1  0.06145857  0.75000100  0.60942046  1
  Nd  Nd10  1  0.93854143  0.25000000  0.39057854  1
  Nd  Nd11  1  0.56145757  0.75000100  0.89057954  1
  S  S12  1  0.99619280  0.25000000  0.71813891  1
  S  S13  1  0.50380720  0.75000100  0.21813891  1
  S  S14  1  0.49619380  0.25000000  0.78186109  1
  S  S15  1  0.00380720  0.75000100  0.28186109  1
  S  S16  1  0.14706007  0.25000000  0.49069771  1
  S  S17  1  0.35293993  0.75000100  0.99069871  1
  S  S18  1  0.64705907  0.25000000  0.00930229  1
  S  S19  1  0.85293993  0.75000100  0.50930229  1
  S  S20  1  0.22588692  0.25000000  0.18290506  1
  S  S21  1  0.27411308  0.75000100  0.68290506  1
  S  S22  1  0.72588792  0.25000000  0.31709494  1
  S  S23  1  0.77411308  0.75000100  0.81709494  1
  S  S24  1  0.44104873  0.25000000  0.41570530  1
  S  S25  1  0.05895227  0.75000100  0.91570530  1
  S  S26  1  0.94104673  0.25000000  0.08429470  1
  S  S27  1  0.55895227  0.75000100  0.58429570  1
