# generated using pymatgen
data_Ca2SnS4
_symmetry_space_group_name_H-M   'P 1'
_cell_length_a   6.58633570
_cell_length_b   8.29476515
_cell_length_c   13.99080068
_cell_angle_alpha   90.00000000
_cell_angle_beta   90.00000000
_cell_angle_gamma   90.00000000
_symmetry_Int_Tables_number   1
_chemical_formula_structural   Ca2SnS4
_chemical_formula_sum   'Ca8 Sn4 S16'
_cell_volume   764.34693139
_cell_formula_units_Z   4
loop_
 _symmetry_equiv_pos_site_id
 _symmetry_equiv_pos_as_xyz
  1  'x, y, z'
loop_
 _atom_site_type_symbol
 _atom_site_label
 _atom_site_symmetry_multiplicity
 _atom_site_fract_x
 _atom_site_fract_y
 _atom_site_fract_z
 _atom_site_occupancy
  Ca  Ca0  1  0.50000000  0.00000000  0.50000000  1
  Ca  Ca1  1  0.00000000  0.50000000  0.00000000  1
  Ca  Ca2  1  0.50000000  0.50000000  0.50000000  1
  Ca  Ca3  1  0.00000000  0.00000000  0.00000000  1
  Ca  Ca4  1  0.01179176  0.75000000  0.27363964  1
  Ca  Ca5  1  0.48820824  0.75000000  0.77363964  1
  Ca  Ca6  1  0.98820824  0.25000000  0.72636036  1
  Ca  Ca7  1  0.51179176  0.25000000  0.22636036  1
  Sn  Sn8  1  0.58662862  0.75000000  0.09526589  1
  Sn  Sn9  1  0.91337138  0.75000000  0.59526589  1
  Sn  Sn10  1  0.41337138  0.25000000  0.90473411  1
  Sn  Sn11  1  0.08662862  0.25000000  0.40473411  1
  S  S12  1  0.74042180  0.75000000  0.93699113  1
  S  S13  1  0.75957820  0.75000000  0.43699113  1
  S  S14  1  0.25957820  0.25000000  0.06300887  1
  S  S15  1  0.24042180  0.25000000  0.56300887  1
  S  S16  1  0.22347500  0.75000000  0.09304336  1
  S  S17  1  0.27652500  0.75000000  0.59304336  1
  S  S18  1  0.77652500  0.25000000  0.90695664  1
  S  S19  1  0.72347500  0.25000000  0.40695664  1
  S  S20  1  0.75423753  0.97635256  0.17156884  1
  S  S21  1  0.74576247  0.52364744  0.67156884  1
  S  S22  1  0.24576247  0.47635256  0.82843116  1
  S  S23  1  0.25423753  0.02364744  0.32843116  1
  S  S24  1  0.24576247  0.02364744  0.82843116  1
  S  S25  1  0.25423753  0.47635256  0.32843116  1
  S  S26  1  0.75423753  0.52364744  0.17156884  1
  S  S27  1  0.74576247  0.97635256  0.67156884  1
