# generated using pymatgen
data_Pm2CuSi
_symmetry_space_group_name_H-M   'P 1'
_cell_length_a   5.06733544
_cell_length_b   5.06734345
_cell_length_c   5.06734180
_cell_angle_alpha   59.99944612
_cell_angle_beta   59.99955418
_cell_angle_gamma   59.99948268
_symmetry_Int_Tables_number   1
_chemical_formula_structural   Pm2CuSi
_chemical_formula_sum   'Pm2 Cu1 Si1'
_cell_volume   92.00686148
_cell_formula_units_Z   1
loop_
 _symmetry_equiv_pos_site_id
 _symmetry_equiv_pos_as_xyz
  1  'x, y, z'
loop_
 _atom_site_type_symbol
 _atom_site_label
 _atom_site_symmetry_multiplicity
 _atom_site_fract_x
 _atom_site_fract_y
 _atom_site_fract_z
 _atom_site_occupancy
  Pm  Pm0  1  0.00000037  0.00000008  0.99999996  1
  Pm  Pm1  1  0.50000036  0.50000061  0.50000076  1
  Cu  Cu2  1  0.24999910  0.24999931  0.24999905  1
  Si  Si3  1  0.75000017  0.75000000  0.75000023  1
