# generated using pymatgen
data_W(SO4)2
_symmetry_space_group_name_H-M   'P 1'
_cell_length_a   9.39351696
_cell_length_b   9.23975755
_cell_length_c   13.79438256
_cell_angle_alpha   90.00000000
_cell_angle_beta   90.00000000
_cell_angle_gamma   90.00000000
_symmetry_Int_Tables_number   1
_chemical_formula_structural   W(SO4)2
_chemical_formula_sum   'W8 S16 O64'
_cell_volume   1197.26714661
_cell_formula_units_Z   8
loop_
 _symmetry_equiv_pos_site_id
 _symmetry_equiv_pos_as_xyz
  1  'x, y, z'
loop_
 _atom_site_type_symbol
 _atom_site_label
 _atom_site_symmetry_multiplicity
 _atom_site_fract_x
 _atom_site_fract_y
 _atom_site_fract_z
 _atom_site_occupancy
  W  W0  1  0.14118019  0.10504767  0.12664929  1
  W  W1  1  0.14118019  0.39495233  0.62664929  1
  W  W2  1  0.35881981  0.60504767  0.12664929  1
  W  W3  1  0.35881981  0.89495233  0.62664929  1
  W  W4  1  0.64118019  0.10504767  0.37335071  1
  W  W5  1  0.64118019  0.39495233  0.87335071  1
  W  W6  1  0.85881981  0.60504767  0.37335071  1
  W  W7  1  0.85881981  0.89495233  0.87335071  1
  S  S8  1  0.07466430  0.06597968  0.72129578  1
  S  S9  1  0.07466430  0.43402032  0.22129578  1
  S  S10  1  0.15669156  0.68824472  0.48709098  1
  S  S11  1  0.15669156  0.81175528  0.98709098  1
  S  S12  1  0.34330844  0.18824472  0.48709098  1
  S  S13  1  0.34330844  0.31175528  0.98709098  1
  S  S14  1  0.42533570  0.93402032  0.22129578  1
  S  S15  1  0.42533570  0.56597968  0.72129578  1
  S  S16  1  0.57466430  0.43402032  0.27870422  1
  S  S17  1  0.57466430  0.06597968  0.77870422  1
  S  S18  1  0.65669156  0.68824472  0.01290902  1
  S  S19  1  0.65669156  0.81175528  0.51290902  1
  S  S20  1  0.84330844  0.18824472  0.01290902  1
  S  S21  1  0.84330844  0.31175528  0.51290902  1
  S  S22  1  0.92533570  0.56597968  0.77870422  1
  S  S23  1  0.92533570  0.93402032  0.27870422  1
  O  O24  1  0.99591085  0.69642195  0.47281600  1
  O  O25  1  0.99591085  0.80357805  0.97281600  1
  O  O26  1  0.01454977  0.98828499  0.35420748  1
  O  O27  1  0.01454977  0.51171501  0.85420748  1
  O  O28  1  0.02799364  0.47028506  0.32229341  1
  O  O29  1  0.02799364  0.02971494  0.82229341  1
  O  O30  1  0.08656579  0.26903828  0.22087390  1
  O  O31  1  0.08656579  0.23096172  0.72087390  1
  O  O32  1  0.18166653  0.72461600  0.07756725  1
  O  O33  1  0.18166653  0.77538400  0.57756725  1
  O  O34  1  0.19028895  0.96776406  0.01515531  1
  O  O35  1  0.19028895  0.53223594  0.51515531  1
  O  O36  1  0.22870852  0.01190357  0.71597599  1
  O  O37  1  0.22870852  0.48809643  0.21597599  1
  O  O38  1  0.23653137  0.73078237  0.40395558  1
  O  O39  1  0.23653137  0.76921763  0.90395558  1
  O  O40  1  0.26346863  0.23078237  0.40395558  1
  O  O41  1  0.26346863  0.26921763  0.90395558  1
  O  O42  1  0.27129148  0.98809643  0.21597599  1
  O  O43  1  0.27129148  0.51190357  0.71597599  1
  O  O44  1  0.30971105  0.03223594  0.51515531  1
  O  O45  1  0.30971105  0.46776406  0.01515531  1
  O  O46  1  0.31833347  0.22461600  0.07756725  1
  O  O47  1  0.31833347  0.27538400  0.57756725  1
  O  O48  1  0.41343421  0.76903828  0.22087390  1
  O  O49  1  0.41343421  0.73096172  0.72087390  1
  O  O50  1  0.47200636  0.52971494  0.82229341  1
  O  O51  1  0.47200636  0.97028506  0.32229341  1
  O  O52  1  0.48545023  0.48828499  0.35420748  1
  O  O53  1  0.48545023  0.01171501  0.85420748  1
  O  O54  1  0.50408915  0.19642195  0.47281600  1
  O  O55  1  0.50408915  0.30357805  0.97281600  1
  O  O56  1  0.49591085  0.69642195  0.02718400  1
  O  O57  1  0.49591085  0.80357805  0.52718400  1
  O  O58  1  0.51454977  0.51171501  0.64579252  1
  O  O59  1  0.51454977  0.98828499  0.14579252  1
  O  O60  1  0.52799364  0.47028506  0.17770659  1
  O  O61  1  0.52799364  0.02971494  0.67770659  1
  O  O62  1  0.58656579  0.26903828  0.27912610  1
  O  O63  1  0.58656579  0.23096172  0.77912610  1
  O  O64  1  0.68166653  0.72461600  0.42243275  1
  O  O65  1  0.68166653  0.77538400  0.92243275  1
  O  O66  1  0.69028895  0.53223594  0.98484469  1
  O  O67  1  0.69028895  0.96776406  0.48484469  1
  O  O68  1  0.72870852  0.48809643  0.28402401  1
  O  O69  1  0.72870852  0.01190357  0.78402401  1
  O  O70  1  0.73653137  0.73078237  0.09604442  1
  O  O71  1  0.73653137  0.76921763  0.59604442  1
  O  O72  1  0.76346863  0.23078237  0.09604442  1
  O  O73  1  0.76346863  0.26921763  0.59604442  1
  O  O74  1  0.77129148  0.51190357  0.78402401  1
  O  O75  1  0.77129148  0.98809643  0.28402401  1
  O  O76  1  0.80971105  0.46776406  0.48484469  1
  O  O77  1  0.80971105  0.03223594  0.98484469  1
  O  O78  1  0.81833347  0.22461600  0.42243275  1
  O  O79  1  0.81833347  0.27538400  0.92243275  1
  O  O80  1  0.91343421  0.73096172  0.77912610  1
  O  O81  1  0.91343421  0.76903828  0.27912610  1
  O  O82  1  0.97200636  0.52971494  0.67770659  1
  O  O83  1  0.97200636  0.97028506  0.17770659  1
  O  O84  1  0.98545023  0.01171501  0.64579252  1
  O  O85  1  0.98545023  0.48828499  0.14579252  1
  O  O86  1  0.00408915  0.19642195  0.02718400  1
  O  O87  1  0.00408915  0.30357805  0.52718400  1
