# generated using pymatgen
data_Co2(SnTe)3
_symmetry_space_group_name_H-M   'P 1'
_cell_length_a   9.19976190
_cell_length_b   9.19976160
_cell_length_c   9.19976174
_cell_angle_alpha   90.04459949
_cell_angle_beta   90.04459432
_cell_angle_gamma   90.04459717
_symmetry_Int_Tables_number   1
_chemical_formula_structural   Co2(SnTe)3
_chemical_formula_sum   'Co8 Sn12 Te12'
_cell_volume   778.62679607
_cell_formula_units_Z   4
loop_
 _symmetry_equiv_pos_site_id
 _symmetry_equiv_pos_as_xyz
  1  'x, y, z'
loop_
 _atom_site_type_symbol
 _atom_site_label
 _atom_site_symmetry_multiplicity
 _atom_site_fract_x
 _atom_site_fract_y
 _atom_site_fract_z
 _atom_site_occupancy
  Co  Co0  1  0.24387025  0.24847432  0.74415610  1
  Co  Co1  1  0.24847332  0.74415510  0.24387025  1
  Co  Co2  1  0.74415610  0.24386925  0.24847432  1
  Co  Co3  1  0.75613075  0.75152668  0.25584490  1
  Co  Co4  1  0.75152668  0.25584490  0.75612975  1
  Co  Co5  1  0.25584490  0.75613075  0.75152568  1
  Co  Co6  1  0.74843025  0.74843025  0.74843025  1
  Co  Co7  1  0.25156975  0.25156975  0.25156975  1
  Sn  Sn8  1  0.68149546  0.83519376  0.00368363  1
  Sn  Sn9  1  0.83519376  0.00368363  0.68149646  1
  Sn  Sn10  1  0.00368263  0.68149646  0.83519376  1
  Sn  Sn11  1  0.31850354  0.16480624  0.99631637  1
  Sn  Sn12  1  0.16480624  0.99631637  0.31850354  1
  Sn  Sn13  1  0.99631637  0.31850354  0.16480624  1
  Sn  Sn14  1  0.18073753  0.66546616  0.49918139  1
  Sn  Sn15  1  0.66546716  0.49918239  0.18073553  1
  Sn  Sn16  1  0.49918139  0.18073653  0.66546816  1
  Sn  Sn17  1  0.81926347  0.33453384  0.50081861  1
  Sn  Sn18  1  0.33453284  0.50081861  0.81926447  1
  Sn  Sn19  1  0.50081861  0.81926447  0.33453284  1
  Te  Te20  1  0.15953780  0.34356367  0.49544997  1
  Te  Te21  1  0.34356367  0.49544897  0.15953880  1
  Te  Te22  1  0.49544897  0.15953880  0.34356367  1
  Te  Te23  1  0.84046320  0.65643633  0.50455103  1
  Te  Te24  1  0.65643633  0.50455103  0.84046220  1
  Te  Te25  1  0.50455103  0.84046120  0.65643733  1
  Te  Te26  1  0.65970349  0.15642284  0.99968477  1
  Te  Te27  1  0.15642184  0.99968577  0.65970349  1
  Te  Te28  1  0.99968477  0.65970349  0.15642284  1
  Te  Te29  1  0.34029651  0.84357716  0.00031523  1
  Te  Te30  1  0.84357716  0.00031423  0.34029651  1
  Te  Te31  1  0.00031423  0.34029651  0.84357816  1
