# generated using pymatgen
data_K3Dy(AsS4)2
_symmetry_space_group_name_H-M   'P 1'
_cell_length_a   10.85670837
_cell_length_b   10.85671706
_cell_length_c   9.02191369
_cell_angle_alpha   76.94020277
_cell_angle_beta   103.05967810
_cell_angle_gamma   58.35940931
_symmetry_Int_Tables_number   1
_chemical_formula_structural   K3Dy(AsS4)2
_chemical_formula_sum   'K6 Dy2 As4 S16'
_cell_volume   802.22143579
_cell_formula_units_Z   2
loop_
 _symmetry_equiv_pos_site_id
 _symmetry_equiv_pos_as_xyz
  1  'x, y, z'
loop_
 _atom_site_type_symbol
 _atom_site_label
 _atom_site_symmetry_multiplicity
 _atom_site_fract_x
 _atom_site_fract_y
 _atom_site_fract_z
 _atom_site_occupancy
  K  K0  1  0.73843141  0.73842126  0.75000171  1
  K  K1  1  0.26157793  0.26157233  0.25000237  1
  K  K2  1  0.49999716  0.50000553  0.99999547  1
  K  K3  1  0.49999542  0.50000233  0.49999708  1
  K  K4  1  0.00445659  0.00445270  0.25000196  1
  K  K5  1  0.99554475  0.99554369  0.74999958  1
  Dy  Dy6  1  0.75658747  0.75658524  0.25000116  1
  Dy  Dy7  1  0.24341414  0.24341243  0.75000093  1
  As  As8  1  0.34313472  0.90264655  0.10053638  1
  As  As9  1  0.90264770  0.34313393  0.39946415  1
  As  As10  1  0.65686632  0.09735256  0.89946338  1
  As  As11  1  0.09735276  0.65686580  0.60053592  1
  S  S12  1  0.52837904  0.12451447  0.06097301  1
  S  S13  1  0.12451407  0.52837973  0.43902589  1
  S  S14  1  0.47162182  0.87548444  0.93902755  1
  S  S15  1  0.87548539  0.47162123  0.56097182  1
  S  S16  1  0.86478413  0.84422090  0.02411349  1
  S  S17  1  0.84422322  0.86478469  0.47588503  1
  S  S18  1  0.13521494  0.15577707  0.97588489  1
  S  S19  1  0.15577883  0.13521516  0.52411560  1
  S  S20  1  0.26316522  0.75765779  0.12588024  1
  S  S21  1  0.75765699  0.26316513  0.37411977  1
  S  S22  1  0.73683570  0.24234203  0.87411947  1
  S  S23  1  0.24233958  0.73683701  0.62587825  1
  S  S24  1  0.85308428  0.50065958  0.15591668  1
  S  S25  1  0.50066132  0.85308410  0.34408249  1
  S  S26  1  0.14691386  0.49934078  0.84408292  1
  S  S27  1  0.49934028  0.14691354  0.65591781  1
