# generated using pymatgen
data_ReTeSCl4
_symmetry_space_group_name_H-M   'P 1'
_cell_length_a   10.40213423
_cell_length_b   10.40213423
_cell_length_c   10.40213423
_cell_angle_alpha   115.18780560
_cell_angle_beta   115.18780560
_cell_angle_gamma   98.55893182
_symmetry_Int_Tables_number   1
_chemical_formula_structural   ReTeSCl4
_chemical_formula_sum   'Re4 Te4 S4 Cl16'
_cell_volume   843.55978104
_cell_formula_units_Z   4
loop_
 _symmetry_equiv_pos_site_id
 _symmetry_equiv_pos_as_xyz
  1  'x, y, z'
loop_
 _atom_site_type_symbol
 _atom_site_label
 _atom_site_symmetry_multiplicity
 _atom_site_fract_x
 _atom_site_fract_y
 _atom_site_fract_z
 _atom_site_occupancy
  Re  Re0  1  0.69327680  0.54528828  0.09164449  1
  Re  Re1  1  0.45364279  0.60163231  0.90835351  1
  Re  Re2  1  0.39836669  0.30672120  0.85200948  1
  Re  Re3  1  0.45471172  0.54635721  0.14798952  1
  Te  Te4  1  0.92393965  0.43752428  0.09807411  1
  Te  Te5  1  0.33945016  0.82586653  0.90192489  1
  Te  Te6  1  0.17413347  0.07605835  0.51358363  1
  Te  Te7  1  0.56247572  0.66054884  0.48641537  1
  S  S8  1  0.55599873  0.42991036  0.79756711  1
  S  S9  1  0.63234225  0.75843162  0.20243289  1
  S  S10  1  0.24156838  0.44400127  0.87391264  1
  S  S11  1  0.57009064  0.36765675  0.12608936  1
  Cl  Cl12  1  0.86546563  0.30421870  0.81554378  1
  Cl  Cl13  1  0.48867392  0.04992185  0.18445522  1
  Cl  Cl14  1  0.95007815  0.13453437  0.43875408  1
  Cl  Cl15  1  0.69577930  0.51132408  0.56124492  1
  Cl  Cl16  1  0.89850253  0.70209312  0.09344222  1
  Cl  Cl17  1  0.60865189  0.80506031  0.90655878  1
  Cl  Cl18  1  0.19494069  0.10149847  0.80359258  1
  Cl  Cl19  1  0.29790688  0.39134811  0.19640942  1
  Cl  Cl20  1  0.91320064  0.64842070  0.38005983  1
  Cl  Cl21  1  0.26835887  0.53313982  0.61993917  1
  Cl  Cl22  1  0.46686118  0.08679936  0.73522006  1
  Cl  Cl23  1  0.35157930  0.73163913  0.26477994  1
  Cl  Cl24  1  0.87806105  0.21622412  0.11543644  1
  Cl  Cl25  1  0.10078968  0.76262562  0.88456456  1
  Cl  Cl26  1  0.23737438  0.12193895  0.33816307  1
  Cl  Cl27  1  0.78377488  0.89921132  0.66183693  1
