# generated using pymatgen
data_KSiBiS4
_symmetry_space_group_name_H-M   'P 1'
_cell_length_a   6.55843348
_cell_length_b   6.80900244
_cell_length_c   17.55955502
_cell_angle_alpha   90.00000000
_cell_angle_beta   107.45101881
_cell_angle_gamma   90.00000000
_symmetry_Int_Tables_number   1
_chemical_formula_structural   KSiBiS4
_chemical_formula_sum   'K4 Si4 Bi4 S16'
_cell_volume   748.05495249
_cell_formula_units_Z   4
loop_
 _symmetry_equiv_pos_site_id
 _symmetry_equiv_pos_as_xyz
  1  'x, y, z'
loop_
 _atom_site_type_symbol
 _atom_site_label
 _atom_site_symmetry_multiplicity
 _atom_site_fract_x
 _atom_site_fract_y
 _atom_site_fract_z
 _atom_site_occupancy
  K  K0  1  0.21833166  0.75021864  0.96442965  1
  K  K1  1  0.78166646  0.25021879  0.53557056  1
  K  K2  1  0.78166546  0.24978121  0.03557056  1
  K  K3  1  0.21833266  0.74978236  0.46442965  1
  Si  Si4  1  0.29430239  0.26482955  0.84218855  1
  Si  Si5  1  0.70569931  0.76483179  0.65781115  1
  Si  Si6  1  0.70569831  0.73516721  0.15781115  1
  Si  Si7  1  0.29430139  0.23516945  0.34218855  1
  Bi  Bi8  1  0.74122173  0.19976257  0.77927399  1
  Bi  Bi9  1  0.25877659  0.69976480  0.72072608  1
  Bi  Bi10  1  0.25877759  0.80023720  0.22072608  1
  Bi  Bi11  1  0.74122273  0.30023743  0.27927399  1
  S  S12  1  0.51694488  0.49902591  0.86602254  1
  S  S13  1  0.48305457  0.99902700  0.63397734  1
  S  S14  1  0.48305357  0.50097300  0.13397634  1
  S  S15  1  0.51694688  0.00097509  0.36602354  1
  S  S16  1  0.08893649  0.25085326  0.91576912  1
  S  S17  1  0.91106492  0.75085220  0.58423127  1
  S  S18  1  0.91106392  0.74914780  0.08423027  1
  S  S19  1  0.08893549  0.24914674  0.41576912  1
  S  S20  1  0.48697704  0.00650504  0.85716484  1
  S  S21  1  0.51302262  0.50650794  0.64283463  1
  S  S22  1  0.51302162  0.99349206  0.14283463  1
  S  S23  1  0.48697604  0.49349496  0.35716484  1
  S  S24  1  0.09734531  0.31278835  0.72079522  1
  S  S25  1  0.90265605  0.81278903  0.77920507  1
  S  S26  1  0.90265505  0.68721097  0.27920507  1
  S  S27  1  0.09734531  0.18721165  0.22079522  1
