# generated using pymatgen
data_KNpAgS3
_symmetry_space_group_name_H-M   'P 1'
_cell_length_a   4.09672904
_cell_length_b   7.35904160
_cell_length_c   10.41709111
_cell_angle_alpha   90.00000000
_cell_angle_beta   90.00000000
_cell_angle_gamma   73.83844809
_symmetry_Int_Tables_number   1
_chemical_formula_structural   KNpAgS3
_chemical_formula_sum   'K2 Np2 Ag2 S6'
_cell_volume   301.64323996
_cell_formula_units_Z   2
loop_
 _symmetry_equiv_pos_site_id
 _symmetry_equiv_pos_as_xyz
  1  'x, y, z'
loop_
 _atom_site_type_symbol
 _atom_site_label
 _atom_site_symmetry_multiplicity
 _atom_site_fract_x
 _atom_site_fract_y
 _atom_site_fract_z
 _atom_site_occupancy
  K  K0  1  0.73938336  0.52123227  0.25000000  1
  K  K1  1  0.26061664  0.47876873  0.75000000  1
  Np  Np2  1  0.00000000  0.00000000  0.00000000  1
  Np  Np3  1  0.00000000  0.00000000  0.50000000  1
  Ag  Ag4  1  0.45313194  0.09373711  0.25000000  1
  Ag  Ag5  1  0.54686806  0.90626289  0.75000000  1
  S  S6  1  0.37576448  0.24847304  0.03727328  1
  S  S7  1  0.06179526  0.87641148  0.25000000  1
  S  S8  1  0.37576448  0.24847304  0.46272672  1
  S  S9  1  0.62423552  0.75152696  0.53727328  1
  S  S10  1  0.93820474  0.12358852  0.75000000  1
  S  S11  1  0.62423552  0.75152696  0.96272672  1
