# generated using pymatgen
data_K2InP2S7
_symmetry_space_group_name_H-M   'P 1'
_cell_length_a   9.09261931
_cell_length_b   9.09261931
_cell_length_c   8.83522811
_cell_angle_alpha   74.43245101
_cell_angle_beta   105.56754899
_cell_angle_gamma   107.38254135
_symmetry_Int_Tables_number   1
_chemical_formula_structural   K2InP2S7
_chemical_formula_sum   'K4 In2 P4 S14'
_cell_volume   657.30494277
_cell_formula_units_Z   2
loop_
 _symmetry_equiv_pos_site_id
 _symmetry_equiv_pos_as_xyz
  1  'x, y, z'
loop_
 _atom_site_type_symbol
 _atom_site_label
 _atom_site_symmetry_multiplicity
 _atom_site_fract_x
 _atom_site_fract_y
 _atom_site_fract_z
 _atom_site_occupancy
  K  K0  1  0.38795457  0.04739332  0.15909850  1
  K  K1  1  0.04739432  0.38795457  0.84090050  1
  K  K2  1  0.61204643  0.95260668  0.84090050  1
  K  K3  1  0.95260668  0.61204543  0.15909850  1
  In  In4  1  0.31104070  0.31103970  0.50000000  1
  In  In5  1  0.68896030  0.68896030  0.50000000  1
  P  P6  1  0.05988197  0.94011903  0.44068260  1
  P  P7  1  0.94011903  0.05988197  0.55931740  1
  P  P8  1  0.61004978  0.38995022  0.81467204  1
  P  P9  1  0.38995022  0.61004978  0.18532796  1
  S  S10  1  0.30762853  0.36981409  0.19565046  1
  S  S11  1  0.36981409  0.30762853  0.80434954  1
  S  S12  1  0.69237047  0.63018491  0.80434954  1
  S  S13  1  0.63018491  0.69237047  0.19565046  1
  S  S14  1  0.00594721  0.99405279  0.20261935  1
  S  S15  1  0.99405279  0.00594821  0.79738165  1
  S  S16  1  0.29742579  0.01402369  0.53386434  1
  S  S17  1  0.01402369  0.29742679  0.46613566  1
  S  S18  1  0.70257321  0.98597531  0.46613566  1
  S  S19  1  0.98597531  0.70257321  0.53386434  1
  S  S20  1  0.72987568  0.27012432  0.00965674  1
  S  S21  1  0.27012432  0.72987568  0.99034426  1
  S  S22  1  0.63851877  0.36148123  0.59543409  1
  S  S23  1  0.36148123  0.63851977  0.40456491  1
