# generated using pymatgen
data_NaSc(BH4)4
_symmetry_space_group_name_H-M   'P 1'
_cell_length_a   7.19696224
_cell_length_b   7.19696224
_cell_length_c   8.73494291
_cell_angle_alpha   90.00000000
_cell_angle_beta   90.00000000
_cell_angle_gamma   69.71828908
_symmetry_Int_Tables_number   1
_chemical_formula_structural   NaSc(BH4)4
_chemical_formula_sum   'Na2 Sc2 B8 H32'
_cell_volume   424.38613506
_cell_formula_units_Z   2
loop_
 _symmetry_equiv_pos_site_id
 _symmetry_equiv_pos_as_xyz
  1  'x, y, z'
loop_
 _atom_site_type_symbol
 _atom_site_label
 _atom_site_symmetry_multiplicity
 _atom_site_fract_x
 _atom_site_fract_y
 _atom_site_fract_z
 _atom_site_occupancy
  Na  Na0  1  0.00000000  0.00000000  0.49999900  1
  Na  Na1  1  0.00000000  0.00000000  0.00000000  1
  Sc  Sc2  1  0.64068107  0.64068107  0.75000000  1
  Sc  Sc3  1  0.35931893  0.35931893  0.25000000  1
  B  B4  1  0.75165766  0.75165766  0.96648441  1
  B  B5  1  0.24834234  0.24834234  0.46648441  1
  B  B6  1  0.24834234  0.24834234  0.03351559  1
  B  B7  1  0.75165766  0.75165766  0.53351459  1
  B  B8  1  0.75653396  0.29615211  0.75000000  1
  B  B9  1  0.24346604  0.70384789  0.25000000  1
  B  B10  1  0.70384789  0.24346604  0.25000000  1
  B  B11  1  0.29615211  0.75653396  0.75000000  1
  H  H12  1  0.64962995  0.64962995  0.99822771  1
  H  H13  1  0.35037005  0.35037005  0.49822671  1
  H  H14  1  0.35037005  0.35037005  0.00177229  1
  H  H15  1  0.64962995  0.64962995  0.50177429  1
  H  H16  1  0.88936192  0.64740149  0.88499313  1
  H  H17  1  0.11063808  0.35259951  0.38499413  1
  H  H18  1  0.35259951  0.11063808  0.11500587  1
  H  H19  1  0.64740149  0.88936192  0.61500587  1
  H  H20  1  0.11063808  0.35259951  0.11500587  1
  H  H21  1  0.88936192  0.64740149  0.61500587  1
  H  H22  1  0.64740149  0.88936192  0.88499313  1
  H  H23  1  0.35259951  0.11063808  0.38499413  1
  H  H24  1  0.80740234  0.80740234  0.08183876  1
  H  H25  1  0.19259766  0.19259766  0.58183976  1
  H  H26  1  0.19259766  0.19259766  0.91816024  1
  H  H27  1  0.80740234  0.80740234  0.41816024  1
  H  H28  1  0.65278302  0.36166953  0.86357721  1
  H  H29  1  0.34721698  0.63833047  0.36357821  1
  H  H30  1  0.63833047  0.34721698  0.13642279  1
  H  H31  1  0.36166953  0.65278302  0.63642179  1
  H  H32  1  0.34721698  0.63833047  0.13642279  1
  H  H33  1  0.65278302  0.36166953  0.63642179  1
  H  H34  1  0.36166953  0.65278302  0.86357721  1
  H  H35  1  0.63833047  0.34721698  0.36357821  1
  H  H36  1  0.81889072  0.11702493  0.75000000  1
  H  H37  1  0.18110928  0.88297507  0.25000000  1
  H  H38  1  0.88297507  0.18110928  0.25000000  1
  H  H39  1  0.11702493  0.81889072  0.75000000  1
  H  H40  1  0.89153958  0.36547711  0.75000000  1
  H  H41  1  0.10846042  0.63452289  0.25000000  1
  H  H42  1  0.63452289  0.10846042  0.25000000  1
  H  H43  1  0.36547711  0.89153958  0.75000000  1
