# generated using pymatgen
data_Li2Mn(CoO3)2
_symmetry_space_group_name_H-M   'P 1'
_cell_length_a   5.08466912
_cell_length_b   5.14765210
_cell_length_c   10.07554799
_cell_angle_alpha   90.00000000
_cell_angle_beta   90.00000000
_cell_angle_gamma   59.58940416
_symmetry_Int_Tables_number   1
_chemical_formula_structural   Li2Mn(CoO3)2
_chemical_formula_sum   'Li4 Mn2 Co4 O12'
_cell_volume   227.43610861
_cell_formula_units_Z   2
loop_
 _symmetry_equiv_pos_site_id
 _symmetry_equiv_pos_as_xyz
  1  'x, y, z'
loop_
 _atom_site_type_symbol
 _atom_site_label
 _atom_site_symmetry_multiplicity
 _atom_site_fract_x
 _atom_site_fract_y
 _atom_site_fract_z
 _atom_site_occupancy
  Li  Li0  1  0.50000000  0.14659867  0.75000000  1
  Li  Li1  1  0.50000000  0.35340133  0.25000000  1
  Li  Li2  1  0.50000000  0.64659867  0.75000000  1
  Li  Li3  1  0.50000000  0.85340133  0.25000000  1
  Mn  Mn4  1  -0.00000000  0.00000000  0.00000000  1
  Mn  Mn5  1  -0.00000000  0.50000000  0.50000000  1
  Co  Co6  1  0.32558470  0.33720765  0.00000000  1
  Co  Co7  1  0.32558470  0.83720765  0.50000000  1
  Co  Co8  1  0.67441530  0.16279235  0.50000000  1
  Co  Co9  1  0.67441530  0.66279235  0.00000000  1
  O  O10  1  1.00000000  0.17853022  0.59762718  1
  O  O11  1  0.00000000  0.32146978  0.09762718  1
  O  O12  1  1.00000000  0.67853022  0.90237282  1
  O  O13  1  0.33213449  0.98377565  0.89291841  1
  O  O14  1  0.00000000  0.82146978  0.40237282  1
  O  O15  1  0.33213449  0.18408986  0.39291841  1
  O  O16  1  0.33213449  0.48377565  0.60708159  1
  O  O17  1  0.33213449  0.68408986  0.10708159  1
  O  O18  1  0.66786551  0.01622435  0.10708159  1
  O  O19  1  0.66786551  0.31591014  0.89291841  1
  O  O20  1  0.66786551  0.51622435  0.39291841  1
  O  O21  1  0.66786551  0.81591014  0.60708159  1
