# generated using pymatgen
data_Tb3FeB7
_symmetry_space_group_name_H-M   'P 1'
_cell_length_a   8.07178820
_cell_length_b   8.07178820
_cell_length_c   9.34775448
_cell_angle_alpha   90.00000000
_cell_angle_beta   90.00000000
_cell_angle_gamma   24.58469310
_symmetry_Int_Tables_number   1
_chemical_formula_structural   Tb3FeB7
_chemical_formula_sum   'Tb6 Fe2 B14'
_cell_volume   253.38428506
_cell_formula_units_Z   2
loop_
 _symmetry_equiv_pos_site_id
 _symmetry_equiv_pos_as_xyz
  1  'x, y, z'
loop_
 _atom_site_type_symbol
 _atom_site_label
 _atom_site_symmetry_multiplicity
 _atom_site_fract_x
 _atom_site_fract_y
 _atom_site_fract_z
 _atom_site_occupancy
  Tb  Tb0  1  0.10470115  0.10470115  0.06024369  1
  Tb  Tb1  1  0.89529885  0.89529885  0.56024369  1
  Tb  Tb2  1  0.89529885  0.89529885  0.93975531  1
  Tb  Tb3  1  0.10470115  0.10470115  0.43975631  1
  Tb  Tb4  1  0.75695995  0.75695995  0.25000000  1
  Tb  Tb5  1  0.24304005  0.24304005  0.75000000  1
  Fe  Fe6  1  0.94515591  0.94515591  0.25000000  1
  Fe  Fe7  1  0.05484409  0.05484409  0.75000000  1
  B  B8  1  0.53896469  0.53896469  0.25000000  1
  B  B9  1  0.46103531  0.46103531  0.75000000  1
  B  B10  1  0.27254678  0.27254678  0.03253020  1
  B  B11  1  0.72745222  0.72745222  0.53253120  1
  B  B12  1  0.72745222  0.72745222  0.96746980  1
  B  B13  1  0.27254678  0.27254678  0.46746880  1
  B  B14  1  0.37009983  0.37009983  0.34672194  1
  B  B15  1  0.62990017  0.62990017  0.84672194  1
  B  B16  1  0.62990017  0.62990017  0.65327806  1
  B  B17  1  0.37009983  0.37009983  0.15327806  1
  B  B18  1  0.47766186  0.47766186  0.40048571  1
  B  B19  1  0.52233714  0.52233714  0.90048671  1
  B  B20  1  0.52233714  0.52233714  0.59951329  1
  B  B21  1  0.47766186  0.47766186  0.09951329  1
