# generated using pymatgen
data_Lu3Ga5Ni
_symmetry_space_group_name_H-M   'P 1'
_cell_length_a   6.79241268
_cell_length_b   6.79241307
_cell_length_c   4.17039822
_cell_angle_alpha   90.00000000
_cell_angle_beta   90.00000000
_cell_angle_gamma   120.00304127
_symmetry_Int_Tables_number   1
_chemical_formula_structural   Lu3Ga5Ni
_chemical_formula_sum   'Lu3 Ga5 Ni1'
_cell_volume   166.62608923
_cell_formula_units_Z   1
loop_
 _symmetry_equiv_pos_site_id
 _symmetry_equiv_pos_as_xyz
  1  'x, y, z'
loop_
 _atom_site_type_symbol
 _atom_site_label
 _atom_site_symmetry_multiplicity
 _atom_site_fract_x
 _atom_site_fract_y
 _atom_site_fract_z
 _atom_site_occupancy
  Lu  Lu0  1  0.59182980  0.00001875  0.50000100  1
  Lu  Lu1  1  0.40818263  0.40818263  0.50000100  1
  Lu  Lu2  1  0.00001875  0.59183080  0.50000100  1
  Ga  Ga3  1  0.23609938  0.00000600  0.00000000  1
  Ga  Ga4  1  0.00000700  0.23609938  0.00000000  1
  Ga  Ga5  1  0.66668332  0.33334727  0.00000000  1
  Ga  Ga6  1  0.33334827  0.66668332  0.00000000  1
  Ga  Ga7  1  0.76393231  0.76393231  0.00000000  1
  Ni  Ni8  1  0.99999955  0.99999855  0.50000100  1
