# generated using pymatgen
data_Tl3Os3O10
_symmetry_space_group_name_H-M   'P 1'
_cell_length_a   7.38739108
_cell_length_b   7.38739108
_cell_length_c   16.53084252
_cell_angle_alpha   102.91131827
_cell_angle_beta   77.08868173
_cell_angle_gamma   90.00000000
_symmetry_Int_Tables_number   1
_chemical_formula_structural   Tl3Os3O10
_chemical_formula_sum   'Tl12 Os12 O40'
_cell_volume   855.92128971
_cell_formula_units_Z   4
loop_
 _symmetry_equiv_pos_site_id
 _symmetry_equiv_pos_as_xyz
  1  'x, y, z'
loop_
 _atom_site_type_symbol
 _atom_site_label
 _atom_site_symmetry_multiplicity
 _atom_site_fract_x
 _atom_site_fract_y
 _atom_site_fract_z
 _atom_site_occupancy
  Tl  Tl0  1  0.99056326  0.49808517  0.99617034  1
  Tl  Tl1  1  0.51326640  0.49808517  0.99617034  1
  Tl  Tl2  1  0.16666700  0.83333300  0.16666700  1
  Tl  Tl3  1  0.16666700  0.33333300  0.16666700  1
  Tl  Tl4  1  0.82006660  0.16858183  0.33716266  1
  Tl  Tl5  1  0.34276974  0.16858183  0.33716266  1
  Tl  Tl6  1  0.50191483  0.00943674  0.49617034  1
  Tl  Tl7  1  0.50191483  0.48673360  0.49617034  1
  Tl  Tl8  1  0.16666700  0.83333300  0.66666700  1
  Tl  Tl9  1  0.66666700  0.83333300  0.66666700  1
  Tl  Tl10  1  0.83141817  0.65723026  0.83716266  1
  Tl  Tl11  1  0.83141817  0.17993340  0.83716266  1
  Os  Os12  1  0.49941443  0.00008982  0.00017965  1
  Os  Os13  1  0.00040592  0.00008982  0.00017965  1
  Os  Os14  1  0.66666700  0.83333300  0.16666700  1
  Os  Os15  1  0.66666700  0.33333300  0.16666700  1
  Os  Os16  1  0.83391957  0.66657718  0.33315335  1
  Os  Os17  1  0.33292708  0.66657718  0.33315335  1
  Os  Os18  1  -0.00008982  0.50058557  0.50017965  1
  Os  Os19  1  -0.00008982  0.99959408  0.50017965  1
  Os  Os20  1  0.16666700  0.33333300  0.66666700  1
  Os  Os21  1  0.66666700  0.33333300  0.66666700  1
  Os  Os22  1  0.33342282  0.66707292  0.83315335  1
  Os  Os23  1  0.33342282  0.16608043  0.83315335  1
  O  O24  1  0.22485666  0.02514334  0.05028768  1
  O  O25  1  0.90314907  0.23453347  0.08365304  1
  O  O26  1  0.90314907  0.84911957  0.08365304  1
  O  O27  1  0.51319789  0.84911957  0.08365304  1
  O  O28  1  0.51319789  0.23453347  0.08365304  1
  O  O29  1  0.20563966  0.54436034  0.08872068  1
  O  O30  1  0.68555418  0.56444582  0.12889065  1
  O  O31  1  0.64777882  0.10222118  0.20444235  1
  O  O32  1  0.12769334  0.12230666  0.24461332  1
  O  O33  1  0.43018393  0.43213253  0.24967996  1
  O  O34  1  0.43018393  0.81754743  0.24967996  1
  O  O35  1  0.82013611  0.43213253  0.24967996  1
  O  O36  1  0.82013611  0.81754743  0.24967996  1
  O  O37  1  0.10847734  0.64152266  0.28304532  1
  O  O38  1  0.56399658  0.68600342  0.37200684  1
  O  O39  1  0.22503817  0.52496183  0.41666700  1
  O  O40  1  0.22503817  0.89170517  0.41666700  1
  O  O41  1  0.85829483  0.89170517  0.41666700  1
  O  O42  1  0.85829483  0.52496183  0.41666700  1
  O  O43  1  0.01933642  0.23066358  0.46132616  1
  O  O44  1  0.97485666  0.77514334  0.55028768  1
  O  O45  1  0.76546653  0.09685093  0.58365304  1
  O  O46  1  0.15088043  0.48680211  0.58365304  1
  O  O47  1  0.45563966  0.79436034  0.58872068  1
  O  O48  1  0.76546653  0.48680211  0.58365304  1
  O  O49  1  0.15088043  0.09685093  0.58365304  1
  O  O50  1  0.43555418  0.31444582  0.62889065  1
  O  O51  1  0.89777882  0.35222118  0.70444235  1
  O  O52  1  0.87769334  0.87230666  0.74461332  1
  O  O53  1  0.56786747  0.56981607  0.74967996  1
  O  O54  1  0.56786747  0.17986389  0.74967996  1
  O  O55  1  0.18245257  0.56981607  0.74967996  1
  O  O56  1  0.18245257  0.17986389  0.74967996  1
  O  O57  1  0.35847734  0.89152266  0.78304532  1
  O  O58  1  0.31399658  0.43600342  0.87200684  1
  O  O59  1  0.47503817  0.77496183  0.91666700  1
  O  O60  1  0.10829483  0.14170517  0.91666700  1
  O  O61  1  0.47503817  0.14170517  0.91666700  1
  O  O62  1  0.10829483  0.77496183  0.91666700  1
  O  O63  1  0.76933642  0.98066358  0.96132616  1
