# generated using pymatgen
data_Pr3Sn5Au6
_symmetry_space_group_name_H-M   'P 1'
_cell_length_a   4.62216658
_cell_length_b   13.69238132
_cell_length_c   10.48636558
_cell_angle_alpha   89.99992986
_cell_angle_beta   89.99996621
_cell_angle_gamma   90.00002037
_symmetry_Int_Tables_number   1
_chemical_formula_structural   Pr3Sn5Au6
_chemical_formula_sum   'Pr6 Sn10 Au12'
_cell_volume   663.66600550
_cell_formula_units_Z   2
loop_
 _symmetry_equiv_pos_site_id
 _symmetry_equiv_pos_as_xyz
  1  'x, y, z'
loop_
 _atom_site_type_symbol
 _atom_site_label
 _atom_site_symmetry_multiplicity
 _atom_site_fract_x
 _atom_site_fract_y
 _atom_site_fract_z
 _atom_site_occupancy
  Pr  Pr0  1  0.25000136  0.06334153  0.74545454  1
  Pr  Pr1  1  0.24999912  0.43665904  0.74545508  1
  Pr  Pr2  1  0.75000214  0.93665721  0.25454565  1
  Pr  Pr3  1  0.74999965  0.56334319  0.25454478  1
  Pr  Pr4  1  0.25000030  0.74999945  0.74554697  1
  Pr  Pr5  1  0.75000195  0.25000018  0.25445373  1
  Sn  Sn6  1  0.24999948  0.08880169  0.37846101  1
  Sn  Sn7  1  0.25000117  0.41119847  0.37846111  1
  Sn  Sn8  1  0.75000089  0.91119813  0.62153917  1
  Sn  Sn9  1  0.74999984  0.58880227  0.62153897  1
  Sn  Sn10  1  0.24999909  0.60947482  0.02448610  1
  Sn  Sn11  1  0.25000010  0.89052566  0.02448589  1
  Sn  Sn12  1  0.74999976  0.39052519  0.97551342  1
  Sn  Sn13  1  0.75000062  0.10947500  0.97551404  1
  Sn  Sn14  1  0.25000035  0.75000013  0.27266904  1
  Sn  Sn15  1  0.74999949  0.24999975  0.72733038  1
  Au  Au16  1  0.25000170  0.08846188  0.12023273  1
  Au  Au17  1  0.25000033  0.41153830  0.12023350  1
  Au  Au18  1  0.75000167  0.91153865  0.87976745  1
  Au  Au19  1  0.75000084  0.58846135  0.87976724  1
  Au  Au20  1  0.24999976  0.25000010  0.54318965  1
  Au  Au21  1  0.75000099  0.74999999  0.45680995  1
  Au  Au22  1  0.24999994  0.60491134  0.47491670  1
  Au  Au23  1  0.24999956  0.89508883  0.47491761  1
  Au  Au24  1  0.75000091  0.39508830  0.52508261  1
  Au  Au25  1  0.75000081  0.10491195  0.52508283  1
  Au  Au26  1  0.25000118  0.25000003  0.93785267  1
  Au  Au27  1  0.75000098  0.74999955  0.06214919  1
