# generated using pymatgen
data_Tl(IO3)3
_symmetry_space_group_name_H-M   'P 1'
_cell_length_a   7.60629904
_cell_length_b   7.59853896
_cell_length_c   7.60050417
_cell_angle_alpha   82.48126013
_cell_angle_beta   82.45871515
_cell_angle_gamma   82.51413333
_symmetry_Int_Tables_number   1
_chemical_formula_structural   Tl(IO3)3
_chemical_formula_sum   'Tl2 I6 O18'
_cell_volume   428.87205326
_cell_formula_units_Z   2
loop_
 _symmetry_equiv_pos_site_id
 _symmetry_equiv_pos_as_xyz
  1  'x, y, z'
loop_
 _atom_site_type_symbol
 _atom_site_label
 _atom_site_symmetry_multiplicity
 _atom_site_fract_x
 _atom_site_fract_y
 _atom_site_fract_z
 _atom_site_occupancy
  Tl  Tl0  1  0.82416974  0.82446312  0.82434774  1
  Tl  Tl1  1  0.17582926  0.17553688  0.17565226  1
  I  I2  1  0.28354754  0.87504262  0.57981766  1
  I  I3  1  0.57954388  0.28384935  0.87459768  1
  I  I4  1  0.87454531  0.57918611  0.28359910  1
  I  I5  1  0.71645246  0.12495638  0.42018234  1
  I  I6  1  0.42045612  0.71615165  0.12540232  1
  I  I7  1  0.12545469  0.42081389  0.71640190  1
  O  O8  1  0.21776874  0.74279807  0.41779779  1
  O  O9  1  0.41757791  0.21781580  0.74265539  1
  O  O10  1  0.74296338  0.41698002  0.21716076  1
  O  O11  1  0.78223126  0.25720093  0.58220221  1
  O  O12  1  0.58242309  0.78218420  0.25734561  1
  O  O13  1  0.25703762  0.58301898  0.78284024  1
  O  O14  1  0.31379165  0.08561085  0.42893468  1
  O  O15  1  0.42890000  0.31397114  0.08520477  1
  O  O16  1  0.08520383  0.42896590  0.31351178  1
  O  O17  1  0.68620835  0.91438915  0.57106532  1
  O  O18  1  0.57110100  0.68602886  0.91479623  1
  O  O19  1  0.91479617  0.57103310  0.68648822  1
  O  O20  1  0.06740065  0.96024435  0.69652671  1
  O  O21  1  0.69624221  0.06765355  0.96000900  1
  O  O22  1  0.95963516  0.69661728  0.06759122  1
  O  O23  1  0.93259935  0.03975665  0.30347229  1
  O  O24  1  0.30375879  0.93234545  0.03999200  1
  O  O25  1  0.04036584  0.30338272  0.93240778  1
