# generated using pymatgen
data_OsRu3
_symmetry_space_group_name_H-M   'P 1'
_cell_length_a   5.47079341
_cell_length_b   5.47079275
_cell_length_c   4.32266756
_cell_angle_alpha   90.00000000
_cell_angle_beta   90.00000000
_cell_angle_gamma   119.99999789
_symmetry_Int_Tables_number   1
_chemical_formula_structural   OsRu3
_chemical_formula_sum   'Os2 Ru6'
_cell_volume   112.04256833
_cell_formula_units_Z   2
loop_
 _symmetry_equiv_pos_site_id
 _symmetry_equiv_pos_as_xyz
  1  'x, y, z'
loop_
 _atom_site_type_symbol
 _atom_site_label
 _atom_site_symmetry_multiplicity
 _atom_site_fract_x
 _atom_site_fract_y
 _atom_site_fract_z
 _atom_site_occupancy
  Os  Os0  1  0.66666600  0.33333100  0.25000000  1
  Os  Os1  1  0.33333300  0.66666600  0.74999900  1
  Ru  Ru2  1  0.83255688  0.16744412  0.74999900  1
  Ru  Ru3  1  0.33488823  0.16744412  0.74999900  1
  Ru  Ru4  1  0.83255588  0.66511077  0.74999900  1
  Ru  Ru5  1  0.16744312  0.83255488  0.25000000  1
  Ru  Ru6  1  0.66511277  0.83255488  0.25000000  1
  Ru  Ru7  1  0.16744412  0.33488823  0.25000000  1
