# generated using pymatgen
data_Te4Mo3W(SeS)2
_symmetry_space_group_name_H-M   'P 1'
_cell_length_a   3.39872909
_cell_length_b   3.39862710
_cell_length_c   38.69866341
_cell_angle_alpha   90.00005345
_cell_angle_beta   90.00000000
_cell_angle_gamma   120.00099281
_symmetry_Int_Tables_number   1
_chemical_formula_structural   Te4Mo3W(SeS)2
_chemical_formula_sum   'Te4 Mo3 W1 Se2 S2'
_cell_volume   387.11706544
_cell_formula_units_Z   1
loop_
 _symmetry_equiv_pos_site_id
 _symmetry_equiv_pos_as_xyz
  1  'x, y, z'
loop_
 _atom_site_type_symbol
 _atom_site_label
 _atom_site_symmetry_multiplicity
 _atom_site_fract_x
 _atom_site_fract_y
 _atom_site_fract_z
 _atom_site_occupancy
  Te  Te0  1  0.33336995  0.66674090  0.33048562  1
  Te  Te1  1  0.33335233  0.66670565  0.70590215  1
  Te  Te2  1  0.33335044  0.66670188  0.23314156  1
  Te  Te3  1  0.33335228  0.66670556  0.60912728  1
  Mo  Mo4  1  0.33330956  0.66661912  0.09391104  1
  Mo  Mo5  1  0.33331278  0.66662556  0.46966350  1
  Mo  Mo6  1  0.66668923  0.33337846  0.65754275  1
  W  W7  1  0.66669288  0.33338575  0.28181983  1
  Se  Se8  1  0.66664297  0.33328494  0.05129567  1
  Se  Se9  1  0.66664611  0.33329122  0.13652681  1
  S  S10  1  0.66663769  0.33327438  0.43080519  1
  S  S11  1  0.66664379  0.33328658  0.50852660  1
