# generated using pymatgen
data_VRu3
_symmetry_space_group_name_H-M   'P 1'
_cell_length_a   5.46508609
_cell_length_b   5.46506669
_cell_length_c   4.25814514
_cell_angle_alpha   90.00000000
_cell_angle_beta   90.00000000
_cell_angle_gamma   120.00841440
_symmetry_Int_Tables_number   1
_chemical_formula_structural   VRu3
_chemical_formula_sum   'V2 Ru6'
_cell_volume   110.13027821
_cell_formula_units_Z   2
loop_
 _symmetry_equiv_pos_site_id
 _symmetry_equiv_pos_as_xyz
  1  'x, y, z'
loop_
 _atom_site_type_symbol
 _atom_site_label
 _atom_site_symmetry_multiplicity
 _atom_site_fract_x
 _atom_site_fract_y
 _atom_site_fract_z
 _atom_site_occupancy
  V  V0  1  0.33330244  0.66667670  0.75000100  1
  V  V1  1  0.66666968  0.33332956  0.25000100  1
  Ru  Ru2  1  0.16994918  0.33980008  0.25000100  1
  Ru  Ru3  1  0.66021699  0.83005955  0.25000100  1
  Ru  Ru4  1  0.16991413  0.83008738  0.25000100  1
  Ru  Ru5  1  0.83002061  0.66013952  0.75000100  1
  Ru  Ru6  1  0.33987681  0.16997880  0.75000100  1
  Ru  Ru7  1  0.83005217  0.16992641  0.75000100  1
