# generated using pymatgen
data_TbNiB4
_symmetry_space_group_name_H-M   'P 1'
_cell_length_a   6.83395042
_cell_length_b   6.83395042
_cell_length_c   6.83395042
_cell_angle_alpha   112.92702226
_cell_angle_beta   112.92702226
_cell_angle_gamma   102.76091719
_symmetry_Int_Tables_number   1
_chemical_formula_structural   TbNiB4
_chemical_formula_sum   'Tb4 Ni4 B16'
_cell_volume   243.20689354
_cell_formula_units_Z   4
loop_
 _symmetry_equiv_pos_site_id
 _symmetry_equiv_pos_as_xyz
  1  'x, y, z'
loop_
 _atom_site_type_symbol
 _atom_site_label
 _atom_site_symmetry_multiplicity
 _atom_site_fract_x
 _atom_site_fract_y
 _atom_site_fract_z
 _atom_site_occupancy
  Tb  Tb0  1  0.20341508  0.20341508  0.00000000  1
  Tb  Tb1  1  0.79658592  0.79658592  -0.00000000  1
  Tb  Tb2  1  0.75000100  0.25000100  0.50000000  1
  Tb  Tb3  1  0.25000100  0.75000100  0.50000000  1
  Ni  Ni4  1  0.50000000  0.27157738  0.77157738  1
  Ni  Ni5  1  0.50000000  0.72842062  0.22842062  1
  Ni  Ni6  1  0.72842062  0.50000000  0.22842062  1
  Ni  Ni7  1  0.27157738  0.50000000  0.77157738  1
  B  B8  1  0.11158762  0.27539249  0.38698011  1
  B  B9  1  0.88841238  0.72460751  0.61301989  1
  B  B10  1  0.88841238  0.27539249  0.16380486  1
  B  B11  1  0.11158762  0.72460851  0.83619614  1
  B  B12  1  0.72460751  0.88841238  0.61301989  1
  B  B13  1  0.27539249  0.11158762  0.38698011  1
  B  B14  1  0.72460851  0.11158762  0.83619614  1
  B  B15  1  0.27539249  0.88841238  0.16380486  1
  B  B16  1  0.41882536  0.41882536  0.53244061  1
  B  B17  1  0.88638574  0.88638574  0.46755939  1
  B  B18  1  0.58117364  0.11361426  -0.00000000  1
  B  B19  1  0.11361426  0.58117364  0.00000000  1
  B  B20  1  0.58117364  0.58117364  0.46755939  1
  B  B21  1  0.11361526  0.11361526  0.53244061  1
  B  B22  1  0.88638574  0.41882636  -0.00000000  1
  B  B23  1  0.41882636  0.88638574  0.00000000  1
