# generated using pymatgen
data_Te2MoW3(SeS2)2
_symmetry_space_group_name_H-M   'P 1'
_cell_length_a   3.30868886
_cell_length_b   3.30858292
_cell_length_c   37.65607234
_cell_angle_alpha   90.00029573
_cell_angle_beta   90.00000000
_cell_angle_gamma   120.00105918
_symmetry_Int_Tables_number   1
_chemical_formula_structural   Te2MoW3(SeS2)2
_chemical_formula_sum   'Te2 Mo1 W3 Se2 S4'
_cell_volume   356.99239879
_cell_formula_units_Z   1
loop_
 _symmetry_equiv_pos_site_id
 _symmetry_equiv_pos_as_xyz
  1  'x, y, z'
loop_
 _atom_site_type_symbol
 _atom_site_label
 _atom_site_symmetry_multiplicity
 _atom_site_fract_x
 _atom_site_fract_y
 _atom_site_fract_z
 _atom_site_occupancy
  Te  Te0  1  0.33335187  0.66670474  0.70863531  1
  Te  Te1  1  0.33335243  0.66670586  0.60646032  1
  Mo  Mo2  1  0.66667246  0.33334492  0.28179179  1
  W  W3  1  0.33330846  0.66661691  0.09392706  1
  W  W4  1  0.33331231  0.66662462  0.46962961  1
  W  W5  1  0.66668723  0.33337446  0.65758499  1
  Se  Se6  1  0.66663799  0.33327498  0.04912291  1
  Se  Se7  1  0.66664484  0.33328867  0.13874045  1
  S  S8  1  0.33336909  0.66673918  0.32236865  1
  S  S9  1  0.66664755  0.33329411  0.42891409  1
  S  S10  1  0.66664695  0.33329290  0.51035275  1
  S  S11  1  0.33336882  0.66673864  0.24122004  1
