# generated using pymatgen
data_YbSi2Ni
_symmetry_space_group_name_H-M   'P 1'
_cell_length_a   8.73328545
_cell_length_b   8.73328545
_cell_length_c   3.86971954
_cell_angle_alpha   90.00000000
_cell_angle_beta   90.00000000
_cell_angle_gamma   26.89599148
_symmetry_Int_Tables_number   1
_chemical_formula_structural   YbSi2Ni
_chemical_formula_sum   'Yb2 Si4 Ni2'
_cell_volume   133.51523404
_cell_formula_units_Z   2
loop_
 _symmetry_equiv_pos_site_id
 _symmetry_equiv_pos_as_xyz
  1  'x, y, z'
loop_
 _atom_site_type_symbol
 _atom_site_label
 _atom_site_symmetry_multiplicity
 _atom_site_fract_x
 _atom_site_fract_y
 _atom_site_fract_z
 _atom_site_occupancy
  Yb  Yb0  1  0.10936220  0.10936220  0.25000000  1
  Yb  Yb1  1  0.89063880  0.89063880  0.75000000  1
  Si  Si2  1  0.45963336  0.45963336  0.25000000  1
  Si  Si3  1  0.54036664  0.54036664  0.75000000  1
  Si  Si4  1  0.75068175  0.75068175  0.25000000  1
  Si  Si5  1  0.24931825  0.24931825  0.75000000  1
  Ni  Ni6  1  0.32495654  0.32495654  0.25000000  1
  Ni  Ni7  1  0.67504346  0.67504346  0.75000000  1
