# generated using pymatgen
data_Tm5Sb3
_symmetry_space_group_name_H-M   'P 1'
_cell_length_a   8.84866208
_cell_length_b   8.84866185
_cell_length_c   6.21977438
_cell_angle_alpha   90.00000000
_cell_angle_beta   90.00000000
_cell_angle_gamma   120.00227469
_symmetry_Int_Tables_number   1
_chemical_formula_structural   Tm5Sb3
_chemical_formula_sum   'Tm10 Sb6'
_cell_volume   421.74555786
_cell_formula_units_Z   2
loop_
 _symmetry_equiv_pos_site_id
 _symmetry_equiv_pos_as_xyz
  1  'x, y, z'
loop_
 _atom_site_type_symbol
 _atom_site_label
 _atom_site_symmetry_multiplicity
 _atom_site_fract_x
 _atom_site_fract_y
 _atom_site_fract_z
 _atom_site_occupancy
  Tm  Tm0  1  0.33333237  0.66666663  -0.00000000  1
  Tm  Tm1  1  0.66666763  0.33333237  0.50000100  1
  Tm  Tm2  1  0.66666763  0.33333237  0.00000000  1
  Tm  Tm3  1  0.33333237  0.66666663  0.50000100  1
  Tm  Tm4  1  0.24503747  0.00000860  0.24999900  1
  Tm  Tm5  1  0.75496353  0.99999040  0.74999900  1
  Tm  Tm6  1  0.00000960  0.24503647  0.24999900  1
  Tm  Tm7  1  0.75496389  0.75496389  0.24999900  1
  Tm  Tm8  1  0.24503511  0.24503511  0.74999900  1
  Tm  Tm9  1  0.99999040  0.75496153  0.74999900  1
  Sb  Sb10  1  0.61004223  0.99999216  0.24999900  1
  Sb  Sb11  1  0.38995577  0.00000684  0.74999900  1
  Sb  Sb12  1  0.99999216  0.61004323  0.24999900  1
  Sb  Sb13  1  0.38994694  0.38994794  0.24999900  1
  Sb  Sb14  1  0.61005206  0.61005306  0.74999900  1
  Sb  Sb15  1  0.00000884  0.38995677  0.74999900  1
