# generated using pymatgen
data_Hf9Mo4As
_symmetry_space_group_name_H-M   'P 1'
_cell_length_a   8.67959876
_cell_length_b   8.67959880
_cell_length_c   8.68674561
_cell_angle_alpha   90.00000000
_cell_angle_beta   90.00000000
_cell_angle_gamma   120.00935036
_symmetry_Int_Tables_number   1
_chemical_formula_structural   Hf9Mo4As
_chemical_formula_sum   'Hf18 Mo8 As2'
_cell_volume   566.69072972
_cell_formula_units_Z   2
loop_
 _symmetry_equiv_pos_site_id
 _symmetry_equiv_pos_as_xyz
  1  'x, y, z'
loop_
 _atom_site_type_symbol
 _atom_site_label
 _atom_site_symmetry_multiplicity
 _atom_site_fract_x
 _atom_site_fract_y
 _atom_site_fract_z
 _atom_site_occupancy
  Hf  Hf0  1  0.60803088  0.80400907  0.04337985  1
  Hf  Hf1  1  0.80401007  0.60803088  0.54338085  1
  Hf  Hf2  1  0.19599093  0.39196812  0.04337985  1
  Hf  Hf3  1  0.19598411  0.80401389  0.04341208  1
  Hf  Hf4  1  0.80401389  0.19598411  0.54341208  1
  Hf  Hf5  1  0.39196912  0.19599193  0.54338085  1
  Hf  Hf6  1  0.80401007  0.60803088  0.95662015  1
  Hf  Hf7  1  0.80401389  0.19598411  0.95658892  1
  Hf  Hf8  1  0.39196912  0.19599193  0.95662015  1
  Hf  Hf9  1  0.60803088  0.80400907  0.45662015  1
  Hf  Hf10  1  0.19598411  0.80401389  0.45658792  1
  Hf  Hf11  1  0.19599093  0.39196812  0.45662015  1
  Hf  Hf12  1  0.53959926  0.07923794  0.25000000  1
  Hf  Hf13  1  0.46040074  0.92076206  0.75000000  1
  Hf  Hf14  1  0.92076306  0.46040074  0.25000000  1
  Hf  Hf15  1  0.53961173  0.46038927  0.25000000  1
  Hf  Hf16  1  0.46038927  0.53961073  0.75000000  1
  Hf  Hf17  1  0.07923794  0.53959826  0.75000000  1
  Mo  Mo18  1  0.00000000  0.00000000  -0.00000000  1
  Mo  Mo19  1  0.00000000  0.00000000  0.50000000  1
  Mo  Mo20  1  0.88995163  0.77989979  0.25000000  1
  Mo  Mo21  1  0.11005037  0.22010121  0.75000000  1
  Mo  Mo22  1  0.22010021  0.11004837  0.25000000  1
  Mo  Mo23  1  0.88996194  0.11003706  0.25000000  1
  Mo  Mo24  1  0.11003806  0.88996394  0.75000000  1
  Mo  Mo25  1  0.77989979  0.88995163  0.75000000  1
  As  As26  1  0.66666655  0.33333445  0.75000000  1
  As  As27  1  0.33333545  0.66666655  0.25000000  1
