# generated using pymatgen
data_Na(TeMo)3
_symmetry_space_group_name_H-M   'P 1'
_cell_length_a   9.34523829
_cell_length_b   9.34161973
_cell_length_c   4.62638104
_cell_angle_alpha   90.00000000
_cell_angle_beta   90.00000000
_cell_angle_gamma   120.00330218
_symmetry_Int_Tables_number   1
_chemical_formula_structural   Na(TeMo)3
_chemical_formula_sum   'Na2 Te6 Mo6'
_cell_volume   349.76000241
_cell_formula_units_Z   2
loop_
 _symmetry_equiv_pos_site_id
 _symmetry_equiv_pos_as_xyz
  1  'x, y, z'
loop_
 _atom_site_type_symbol
 _atom_site_label
 _atom_site_symmetry_multiplicity
 _atom_site_fract_x
 _atom_site_fract_y
 _atom_site_fract_z
 _atom_site_occupancy
  Na  Na0  1  0.33328007  0.66665644  0.24999800  1
  Na  Na1  1  0.66671993  0.33334356  0.74999900  1
  Te  Te2  1  0.38457727  0.08431145  0.24999800  1
  Te  Te3  1  0.91565756  0.30034186  0.24999800  1
  Te  Te4  1  0.69970295  0.61521856  0.24999800  1
  Te  Te5  1  0.30029705  0.38478144  0.74999900  1
  Te  Te6  1  0.08434144  0.69965814  0.74999900  1
  Te  Te7  1  0.61542273  0.91568755  0.74999900  1
  Mo  Mo8  1  0.13998425  0.18159271  0.24999800  1
  Mo  Mo9  1  0.04152028  0.85996610  0.24999800  1
  Mo  Mo10  1  0.81848651  0.95842638  0.24999800  1
  Mo  Mo11  1  0.18151349  0.04157362  0.74999900  1
  Mo  Mo12  1  0.95847972  0.14003490  0.74999900  1
  Mo  Mo13  1  0.86001675  0.81840729  0.74999900  1
