# generated using pymatgen
data_Hf5Sc
_symmetry_space_group_name_H-M   'P 1'
_cell_length_a   5.56750033
_cell_length_b   5.56750430
_cell_length_c   5.05761522
_cell_angle_alpha   90.00000000
_cell_angle_beta   90.00000000
_cell_angle_gamma   119.99997634
_symmetry_Int_Tables_number   1
_chemical_formula_structural   Hf5Sc
_chemical_formula_sum   'Hf5 Sc1'
_cell_volume   135.76797277
_cell_formula_units_Z   1
loop_
 _symmetry_equiv_pos_site_id
 _symmetry_equiv_pos_as_xyz
  1  'x, y, z'
loop_
 _atom_site_type_symbol
 _atom_site_label
 _atom_site_symmetry_multiplicity
 _atom_site_fract_x
 _atom_site_fract_y
 _atom_site_fract_z
 _atom_site_occupancy
  Hf  Hf0  1  0.66154444  0.00000000  0.00000000  1
  Hf  Hf1  1  0.99998806  0.66154899  0.00000000  1
  Hf  Hf2  1  0.33844107  0.33845101  0.00000000  1
  Hf  Hf3  1  0.33331319  0.66667126  0.50000000  1
  Hf  Hf4  1  0.66664193  0.33333074  0.50000000  1
  Sc  Sc5  1  0.99996931  0.00000000  0.50000000  1
