# generated using pymatgen
data_K2PtC2
_symmetry_space_group_name_H-M   'P 1'
_cell_length_a   5.18192507
_cell_length_b   5.18177646
_cell_length_c   5.24360429
_cell_angle_alpha   90.00034384
_cell_angle_beta   90.00000000
_cell_angle_gamma   120.00093588
_symmetry_Int_Tables_number   1
_chemical_formula_structural   K2PtC2
_chemical_formula_sum   'K2 Pt1 C2'
_cell_volume   121.93440086
_cell_formula_units_Z   1
loop_
 _symmetry_equiv_pos_site_id
 _symmetry_equiv_pos_as_xyz
  1  'x, y, z'
loop_
 _atom_site_type_symbol
 _atom_site_label
 _atom_site_symmetry_multiplicity
 _atom_site_fract_x
 _atom_site_fract_y
 _atom_site_fract_z
 _atom_site_occupancy
  K  K0  1  0.33331510  0.66668129  0.27545655  1
  K  K1  1  0.66663280  0.33331771  0.72454345  1
  Pt  Pt2  1  0.99998411  0.99999900  0.00000000  1
  C  C3  1  0.99998397  -0.00000005  0.37822095  1
  C  C4  1  0.99998402  0.99999905  0.62177805  1
