# generated using pymatgen
data_Nd2Co12P7
_symmetry_space_group_name_H-M   'P 1'
_cell_length_a   9.08247355
_cell_length_b   9.08148446
_cell_length_c   3.63209126
_cell_angle_alpha   90.00000000
_cell_angle_beta   90.00000000
_cell_angle_gamma   119.99176512
_symmetry_Int_Tables_number   1
_chemical_formula_structural   Nd2Co12P7
_chemical_formula_sum   'Nd2 Co12 P7'
_cell_volume   259.46835685
_cell_formula_units_Z   1
loop_
 _symmetry_equiv_pos_site_id
 _symmetry_equiv_pos_as_xyz
  1  'x, y, z'
loop_
 _atom_site_type_symbol
 _atom_site_label
 _atom_site_symmetry_multiplicity
 _atom_site_fract_x
 _atom_site_fract_y
 _atom_site_fract_z
 _atom_site_occupancy
  Nd  Nd0  1  0.33348488  0.66637321  0.00000000  1
  Nd  Nd1  1  0.66654206  0.33357007  0.50000200  1
  Co  Co2  1  0.43216746  0.05837370  0.00000000  1
  Co  Co3  1  0.94178229  0.37386776  0.00000000  1
  Co  Co4  1  0.62616394  0.56785082  0.00000000  1
  Co  Co5  1  0.38057148  0.43125141  0.50000200  1
  Co  Co6  1  0.56865704  0.94912637  0.50000200  1
  Co  Co7  1  0.05068987  0.61943672  0.50000200  1
  Co  Co8  1  0.15019424  0.27019495  0.00000000  1
  Co  Co9  1  0.72978774  0.87987901  0.00000000  1
  Co  Co10  1  0.11999518  0.84961653  0.00000000  1
  Co  Co11  1  0.23060350  0.10230823  0.50000200  1
  Co  Co12  1  0.89741239  0.12860532  0.50000200  1
  Co  Co13  1  0.87174871  0.76955933  0.50000200  1
  P  P14  1  0.10527104  0.39750946  0.50000200  1
  P  P15  1  0.60258621  0.70760936  0.50000200  1
  P  P16  1  0.29231831  0.89475667  0.50000200  1
  P  P17  1  0.00009100  0.00000431  0.00000000  1
  P  P18  1  0.40162445  0.29425276  0.00000000  1
  P  P19  1  0.70587630  0.10749990  0.00000000  1
  P  P20  1  0.89243091  0.59835311  0.00000000  1
