# generated using pymatgen
data_LiDyO2
_symmetry_space_group_name_H-M   'P 1'
_cell_length_a   11.25435378
_cell_length_b   3.39089925
_cell_length_c   5.32724945
_cell_angle_alpha   90.00000000
_cell_angle_beta   90.00000000
_cell_angle_gamma   90.00000000
_symmetry_Int_Tables_number   1
_chemical_formula_structural   LiDyO2
_chemical_formula_sum   'Li4 Dy4 O8'
_cell_volume   203.30051676
_cell_formula_units_Z   4
loop_
 _symmetry_equiv_pos_site_id
 _symmetry_equiv_pos_as_xyz
  1  'x, y, z'
loop_
 _atom_site_type_symbol
 _atom_site_label
 _atom_site_symmetry_multiplicity
 _atom_site_fract_x
 _atom_site_fract_y
 _atom_site_fract_z
 _atom_site_occupancy
  Li  Li0  1  0.06666063  0.25000000  0.09832528  1
  Li  Li1  1  0.56665963  0.25000000  0.40167472  1
  Li  Li2  1  0.43334037  0.75000100  0.59832528  1
  Li  Li3  1  0.93334037  0.75000100  0.90167372  1
  Dy  Dy4  1  0.35947664  0.25000000  0.04715438  1
  Dy  Dy5  1  0.85947664  0.25000000  0.45284762  1
  Dy  Dy6  1  0.14052336  0.75000100  0.54715438  1
  Dy  Dy7  1  0.64052336  0.75000100  0.95284662  1
  O  O8  1  0.70622005  0.25000000  0.18935188  1
  O  O9  1  0.47405115  0.75000100  0.24140039  1
  O  O10  1  0.97405015  0.75000100  0.25859961  1
  O  O11  1  0.20622005  0.25000000  0.31064912  1
  O  O12  1  0.79378095  0.75000100  0.68935188  1
  O  O13  1  0.02594885  0.25000000  0.74140239  1
  O  O14  1  0.52594885  0.25000000  0.75859861  1
  O  O15  1  0.29377995  0.75000100  0.81064912  1
