# generated using pymatgen
data_ZrSiPt
_symmetry_space_group_name_H-M   'P 1'
_cell_length_a   6.66534967
_cell_length_b   3.93229280
_cell_length_c   7.62328397
_cell_angle_alpha   90.00000000
_cell_angle_beta   90.00000000
_cell_angle_gamma   90.00000000
_symmetry_Int_Tables_number   1
_chemical_formula_structural   ZrSiPt
_chemical_formula_sum   'Zr4 Si4 Pt4'
_cell_volume   199.80708486
_cell_formula_units_Z   4
loop_
 _symmetry_equiv_pos_site_id
 _symmetry_equiv_pos_as_xyz
  1  'x, y, z'
loop_
 _atom_site_type_symbol
 _atom_site_label
 _atom_site_symmetry_multiplicity
 _atom_site_fract_x
 _atom_site_fract_y
 _atom_site_fract_z
 _atom_site_occupancy
  Zr  Zr0  1  0.47493084  0.75000000  0.17778876  1
  Zr  Zr1  1  0.97493084  0.75000000  0.32221224  1
  Zr  Zr2  1  0.02506816  0.24999900  0.67778776  1
  Zr  Zr3  1  0.52506916  0.24999900  0.82221224  1
  Si  Si4  1  0.76378373  0.24999900  0.12197476  1
  Si  Si5  1  0.26378273  0.24999900  0.37802524  1
  Si  Si6  1  0.73621627  0.75000000  0.62197576  1
  Si  Si7  1  0.23621627  0.75000000  0.87802424  1
  Pt  Pt8  1  0.14590481  0.24999900  0.06409063  1
  Pt  Pt9  1  0.64590481  0.24999900  0.43590937  1
  Pt  Pt10  1  0.35409619  0.75000000  0.56408963  1
  Pt  Pt11  1  0.85409519  0.75000000  0.93591037  1
