# generated using pymatgen
data_TeMoWSeS2
_symmetry_space_group_name_H-M   'P 1'
_cell_length_a   3.30626982
_cell_length_b   3.30622511
_cell_length_c   38.64139797
_cell_angle_alpha   90.00518497
_cell_angle_beta   90.00000000
_cell_angle_gamma   120.00044729
_symmetry_Int_Tables_number   1
_chemical_formula_structural   TeMoWSeS2
_chemical_formula_sum   'Te2 Mo2 W2 Se2 S4'
_cell_volume   365.80717128
_cell_formula_units_Z   2
loop_
 _symmetry_equiv_pos_site_id
 _symmetry_equiv_pos_as_xyz
  1  'x, y, z'
loop_
 _atom_site_type_symbol
 _atom_site_label
 _atom_site_symmetry_multiplicity
 _atom_site_fract_x
 _atom_site_fract_y
 _atom_site_fract_z
 _atom_site_occupancy
  Te  Te0  1  0.33341235  0.66682570  0.33209013  1
  Te  Te1  1  0.33331175  0.66662450  0.23248088  1
  Mo  Mo2  1  0.33332770  0.66665539  0.09305873  1
  Mo  Mo3  1  0.33322187  0.66644374  0.47000121  1
  W  W4  1  0.66670159  0.33340318  0.28230424  1
  W  W5  1  0.66668188  0.33336376  0.65759586  1
  Se  Se6  1  0.66662872  0.33325643  0.04954508  1
  Se  Se7  1  0.66664961  0.33329823  0.13656489  1
  S  S8  1  0.33338983  0.66678067  0.69728878  1
  S  S9  1  0.66664416  0.33328731  0.43046274  1
  S  S10  1  0.66671017  0.33341935  0.50947427  1
  S  S11  1  0.33332038  0.66664175  0.61788119  1
