# generated using pymatgen
data_Lu2Ni12As7
_symmetry_space_group_name_H-M   'P 1'
_cell_length_a   9.36302809
_cell_length_b   9.36489468
_cell_length_c   3.77733388
_cell_angle_alpha   90.00000000
_cell_angle_beta   90.00000000
_cell_angle_gamma   120.00246821
_symmetry_Int_Tables_number   1
_chemical_formula_structural   Lu2Ni12As7
_chemical_formula_sum   'Lu2 Ni12 As7'
_cell_volume   286.82990386
_cell_formula_units_Z   1
loop_
 _symmetry_equiv_pos_site_id
 _symmetry_equiv_pos_as_xyz
  1  'x, y, z'
loop_
 _atom_site_type_symbol
 _atom_site_label
 _atom_site_symmetry_multiplicity
 _atom_site_fract_x
 _atom_site_fract_y
 _atom_site_fract_z
 _atom_site_occupancy
  Lu  Lu0  1  0.33331513  0.66665223  0.00000000  1
  Lu  Lu1  1  0.66662841  0.33330573  0.49999900  1
  Ni  Ni2  1  0.15316728  0.28014502  0.00000000  1
  Ni  Ni3  1  0.71982371  0.87308787  0.00000000  1
  Ni  Ni4  1  0.12692897  0.84671537  0.00000000  1
  Ni  Ni5  1  0.37895582  0.42832156  0.49999900  1
  Ni  Ni6  1  0.57175543  0.95062536  0.49999900  1
  Ni  Ni7  1  0.04942709  0.62111958  0.49999900  1
  Ni  Ni8  1  0.43971715  0.05810028  0.00000000  1
  Ni  Ni9  1  0.94199920  0.38172753  0.00000000  1
  Ni  Ni10  1  0.61829865  0.56026673  0.00000000  1
  Ni  Ni11  1  0.21374662  0.09584639  0.49999900  1
  Ni  Ni12  1  0.90412643  0.11791114  0.49999900  1
  Ni  Ni13  1  0.88204197  0.78610950  0.49999900  1
  As  As14  1  0.00000263  0.99996271  0.00000000  1
  As  As15  1  0.11364487  0.41029429  0.49999900  1
  As  As16  1  0.58976475  0.70334706  0.49999900  1
  As  As17  1  0.29669807  0.88643037  0.49999900  1
  As  As18  1  0.40596996  0.28576208  0.00000000  1
  As  As19  1  0.71430653  0.12034004  0.00000000  1
  As  As20  1  0.87967933  0.59393017  0.00000000  1
