# generated using pymatgen
data_LaRh3
_symmetry_space_group_name_H-M   'P 1'
_cell_length_a   5.37741383
_cell_length_b   5.37682425
_cell_length_c   17.84595636
_cell_angle_alpha   89.99974804
_cell_angle_beta   89.99624126
_cell_angle_gamma   120.00383447
_symmetry_Int_Tables_number   1
_chemical_formula_structural   LaRh3
_chemical_formula_sum   'La6 Rh18'
_cell_volume   446.84096009
_cell_formula_units_Z   6
loop_
 _symmetry_equiv_pos_site_id
 _symmetry_equiv_pos_as_xyz
  1  'x, y, z'
loop_
 _atom_site_type_symbol
 _atom_site_label
 _atom_site_symmetry_multiplicity
 _atom_site_fract_x
 _atom_site_fract_y
 _atom_site_fract_z
 _atom_site_occupancy
  La  La0  1  0.33332845  0.66668427  0.54165926  1
  La  La1  1  0.66668521  0.33333948  0.04163638  1
  La  La2  1  0.66665151  0.33332853  0.45836059  1
  La  La3  1  0.33333369  0.66666314  0.95832541  1
  La  La4  1  0.33333328  0.66667636  0.75001941  1
  La  La5  1  0.66667540  0.33332818  0.24999462  1
  Rh  Rh6  1  0.16668392  0.33332056  0.12749653  1
  Rh  Rh7  1  0.83330695  0.66666794  0.62751296  1
  Rh  Rh8  1  0.66668667  0.83332290  0.12749825  1
  Rh  Rh9  1  0.16667610  0.83330963  0.12747947  1
  Rh  Rh10  1  0.83332287  0.16669661  0.62750983  1
  Rh  Rh11  1  0.33337588  0.16671398  0.62750397  1
  Rh  Rh12  1  0.83329552  0.66662770  0.87252062  1
  Rh  Rh13  1  0.83332115  0.16666455  0.87250746  1
  Rh  Rh14  1  0.33331552  0.16667039  0.87250142  1
  Rh  Rh15  1  0.66661433  0.83330736  0.37250198  1
  Rh  Rh16  1  0.16665099  0.83332007  0.37249533  1
  Rh  Rh17  1  0.16666843  0.33334512  0.37248979  1
  Rh  Rh18  1  0.00001124  0.99997500  0.24999770  1
  Rh  Rh19  1  0.99997298  0.00000954  0.74999290  1
  Rh  Rh20  1  0.33331357  0.66669732  0.25000114  1
  Rh  Rh21  1  0.66669735  0.33331291  0.74998518  1
  Rh  Rh22  1  0.00000941  0.00000659  0.00000773  1
  Rh  Rh23  1  0.99996759  0.00000184  0.50000606  1
