# generated using pymatgen
data_Ca2ReN3
_symmetry_space_group_name_H-M   'P 1'
_cell_length_a   6.06891444
_cell_length_b   10.75986572
_cell_length_c   12.26344683
_cell_angle_alpha   90.00000000
_cell_angle_beta   90.00000000
_cell_angle_gamma   27.56658657
_symmetry_Int_Tables_number   1
_chemical_formula_structural   Ca2ReN3
_chemical_formula_sum   'Ca8 Re4 N12'
_cell_volume   370.59896149
_cell_formula_units_Z   4
loop_
 _symmetry_equiv_pos_site_id
 _symmetry_equiv_pos_as_xyz
  1  'x, y, z'
loop_
 _atom_site_type_symbol
 _atom_site_label
 _atom_site_symmetry_multiplicity
 _atom_site_fract_x
 _atom_site_fract_y
 _atom_site_fract_z
 _atom_site_occupancy
  Ca  Ca0  1  0.00000000  0.45125781  0.63339262  1
  Ca  Ca1  1  -0.00000000  0.54874219  0.36660738  1
  Ca  Ca2  1  -0.00000000  0.04874219  0.13339262  1
  Ca  Ca3  1  0.00000000  0.95125781  0.86660738  1
  Ca  Ca4  1  0.00000000  0.14096441  0.58185510  1
  Ca  Ca5  1  -0.00000000  0.85903559  0.41814490  1
  Ca  Ca6  1  -0.00000000  0.35903559  0.08185510  1
  Ca  Ca7  1  0.00000000  0.64096441  0.91814490  1
  Re  Re8  1  0.00000000  0.25741429  0.84509702  1
  Re  Re9  1  -0.00000000  0.74258571  0.15490298  1
  Re  Re10  1  -0.00000000  0.24258571  0.34509702  1
  Re  Re11  1  0.00000000  0.75741429  0.65490298  1
  N  N12  1  0.00000000  0.15372065  0.97006816  1
  N  N13  1  1.00000000  0.84627935  0.02993184  1
  N  N14  1  1.00000000  0.34627935  0.47006816  1
  N  N15  1  0.00000000  0.65372065  0.52993184  1
  N  N16  1  0.00000000  0.42633224  0.87328905  1
  N  N17  1  -0.00000000  0.57366776  0.12671095  1
  N  N18  1  -0.00000000  0.07366776  0.37328905  1
  N  N19  1  0.00000000  0.92633224  0.62671095  1
  N  N20  1  0.50000000  0.45741268  0.75000000  1
  N  N21  1  0.50000000  0.04258732  0.25000000  1
  N  N22  1  0.50000000  0.54258732  0.25000000  1
  N  N23  1  0.50000000  0.95741268  0.75000000  1
