# generated using pymatgen
data_TeMoWSeS2
_symmetry_space_group_name_H-M   'P 1'
_cell_length_a   3.30870384
_cell_length_b   3.30871277
_cell_length_c   37.64541271
_cell_angle_alpha   90.00023096
_cell_angle_beta   90.00000000
_cell_angle_gamma   119.99991072
_symmetry_Int_Tables_number   1
_chemical_formula_structural   TeMoWSeS2
_chemical_formula_sum   'Te2 Mo2 W2 Se2 S4'
_cell_volume   356.91109451
_cell_formula_units_Z   2
loop_
 _symmetry_equiv_pos_site_id
 _symmetry_equiv_pos_as_xyz
  1  'x, y, z'
loop_
 _atom_site_type_symbol
 _atom_site_label
 _atom_site_symmetry_multiplicity
 _atom_site_fract_x
 _atom_site_fract_y
 _atom_site_fract_z
 _atom_site_occupancy
  Te  Te0  1  0.33335208  0.66670516  0.70866169  1
  Te  Te1  1  0.33335522  0.66671143  0.60640996  1
  Mo  Mo2  1  0.33333692  0.66667383  0.46964532  1
  Mo  Mo3  1  0.66668656  0.33337313  0.28181374  1
  W  W4  1  0.33331316  0.66662632  0.09391954  1
  W  W5  1  0.66668796  0.33337591  0.65756359  1
  Se  Se6  1  0.33336749  0.66673597  0.32643753  1
  Se  Se7  1  0.33334996  0.66670093  0.23716614  1
  S  S8  1  0.66664591  0.33329082  0.05318077  1
  S  S9  1  0.66662940  0.33325780  0.42906944  1
  S  S10  1  0.66664625  0.33329151  0.13465628  1
  S  S11  1  0.66662909  0.33325718  0.51022400  1
