# generated using pymatgen
data_Te2MoW3(SeS2)2
_symmetry_space_group_name_H-M   'P 1'
_cell_length_a   3.30725330
_cell_length_b   3.30738608
_cell_length_c   39.12351576
_cell_angle_alpha   90.00027406
_cell_angle_beta   90.00000000
_cell_angle_gamma   119.99867193
_symmetry_Int_Tables_number   1
_chemical_formula_structural   Te2MoW3(SeS2)2
_chemical_formula_sum   'Te2 Mo1 W3 Se2 S4'
_cell_volume   370.61813963
_cell_formula_units_Z   1
loop_
 _symmetry_equiv_pos_site_id
 _symmetry_equiv_pos_as_xyz
  1  'x, y, z'
loop_
 _atom_site_type_symbol
 _atom_site_label
 _atom_site_symmetry_multiplicity
 _atom_site_fract_x
 _atom_site_fract_y
 _atom_site_fract_z
 _atom_site_occupancy
  Te  Te0  1  0.33332154  0.66664408  0.70840924  1
  Te  Te1  1  0.33330024  0.66660149  0.60997177  1
  Mo  Mo2  1  0.66661846  0.33323691  0.28175315  1
  W  W3  1  0.33332035  0.66664070  0.09395190  1
  W  W4  1  0.33342138  0.66684276  0.46801057  1
  W  W5  1  0.66658022  0.33316045  0.65921374  1
  Se  Se6  1  0.66668529  0.33336958  0.42493050  1
  Se  Se7  1  0.66670586  0.33341071  0.51114610  1
  S  S8  1  0.33336695  0.66673491  0.32082757  1
  S  S9  1  0.66664804  0.33329508  0.05474756  1
  S  S10  1  0.66660437  0.33320774  0.13309796  1
  S  S11  1  0.33342730  0.66685560  0.24268795  1
