# generated using pymatgen
data_Tm2Ni12As7
_symmetry_space_group_name_H-M   'P 1'
_cell_length_a   9.35215006
_cell_length_b   9.35254384
_cell_length_c   3.80467708
_cell_angle_alpha   90.00000000
_cell_angle_beta   90.00000000
_cell_angle_gamma   120.01211922
_symmetry_Int_Tables_number   1
_chemical_formula_structural   Tm2Ni12As7
_chemical_formula_sum   'Tm2 Ni12 As7'
_cell_volume   288.16192968
_cell_formula_units_Z   1
loop_
 _symmetry_equiv_pos_site_id
 _symmetry_equiv_pos_as_xyz
  1  'x, y, z'
loop_
 _atom_site_type_symbol
 _atom_site_label
 _atom_site_symmetry_multiplicity
 _atom_site_fract_x
 _atom_site_fract_y
 _atom_site_fract_z
 _atom_site_occupancy
  Tm  Tm0  1  0.33330717  0.66671114  0.00000000  1
  Tm  Tm1  1  0.66673136  0.33328377  0.49999800  1
  Ni  Ni2  1  0.15197440  0.28062376  0.00000000  1
  Ni  Ni3  1  0.71949701  0.87137183  0.00000000  1
  Ni  Ni4  1  0.12861038  0.84810250  0.00000000  1
  Ni  Ni5  1  0.37800477  0.42574900  0.49999800  1
  Ni  Ni6  1  0.57412946  0.95213296  0.49999800  1
  Ni  Ni7  1  0.04779267  0.62197763  0.49999800  1
  Ni  Ni8  1  0.44073470  0.05649299  0.00000000  1
  Ni  Ni9  1  0.94345609  0.38414456  0.00000000  1
  Ni  Ni10  1  0.61580725  0.55932128  0.00000000  1
  Ni  Ni11  1  0.21276233  0.09560912  0.49999800  1
  Ni  Ni12  1  0.90446618  0.11726739  0.49999800  1
  Ni  Ni13  1  0.88270711  0.78722517  0.49999800  1
  As  As14  1  0.00005444  0.00006386  0.00000000  1
  As  As15  1  0.11217491  0.41012095  0.49999800  1
  As  As16  1  0.58987764  0.70201941  0.49999800  1
  As  As17  1  0.29782162  0.88787090  0.49999800  1
  As  As18  1  0.40406817  0.28380532  0.00000000  1
  As  As19  1  0.71621551  0.12011134  0.00000000  1
  As  As20  1  0.87980984  0.59599812  0.00000000  1
