# generated using pymatgen
data_Hf9AsW4
_symmetry_space_group_name_H-M   'P 1'
_cell_length_a   8.70299613
_cell_length_b   8.70299597
_cell_length_c   8.70966824
_cell_angle_alpha   90.00000000
_cell_angle_beta   90.00000000
_cell_angle_gamma   120.00016969
_symmetry_Int_Tables_number   1
_chemical_formula_structural   Hf9AsW4
_chemical_formula_sum   'Hf18 As2 W8'
_cell_volume   571.30638093
_cell_formula_units_Z   2
loop_
 _symmetry_equiv_pos_site_id
 _symmetry_equiv_pos_as_xyz
  1  'x, y, z'
loop_
 _atom_site_type_symbol
 _atom_site_label
 _atom_site_symmetry_multiplicity
 _atom_site_fract_x
 _atom_site_fract_y
 _atom_site_fract_z
 _atom_site_occupancy
  Hf  Hf0  1  0.19517766  0.39036106  0.04596058  1
  Hf  Hf1  1  0.80482234  0.60963994  0.54595958  1
  Hf  Hf2  1  0.60963994  0.80482234  0.04596058  1
  Hf  Hf3  1  0.19517760  0.80482240  0.04596916  1
  Hf  Hf4  1  0.80482240  0.19517660  0.54596916  1
  Hf  Hf5  1  0.39036006  0.19517766  0.54595958  1
  Hf  Hf6  1  0.80482234  0.60963994  0.95403942  1
  Hf  Hf7  1  0.80482240  0.19517660  0.95402984  1
  Hf  Hf8  1  0.39036006  0.19517766  0.95403942  1
  Hf  Hf9  1  0.60963994  0.80482234  0.45403942  1
  Hf  Hf10  1  0.19517760  0.80482240  0.45402984  1
  Hf  Hf11  1  0.19517766  0.39036106  0.45403942  1
  Hf  Hf12  1  0.54009345  0.08018295  0.25000000  1
  Hf  Hf13  1  0.45990655  0.91981805  0.75000000  1
  Hf  Hf14  1  0.91981905  0.45990755  0.25000000  1
  Hf  Hf15  1  0.54006026  0.45994074  0.25000000  1
  Hf  Hf16  1  0.45994074  0.54005926  0.75000000  1
  Hf  Hf17  1  0.08018295  0.54009245  0.75000000  1
  As  As18  1  0.33333370  0.66666630  0.25000000  1
  As  As19  1  0.66666530  0.33333370  0.75000000  1
  W  W20  1  0.00000000  0.00000000  0.00000000  1
  W  W21  1  -0.00000000  -0.00000000  0.50000000  1
  W  W22  1  0.88993593  0.77988383  0.25000000  1
  W  W23  1  0.11006407  0.22011617  0.75000000  1
  W  W24  1  0.22011617  0.11006407  0.25000000  1
  W  W25  1  0.88993686  0.11006314  0.25000000  1
  W  W26  1  0.11006514  0.88993686  0.75000000  1
  W  W27  1  0.77988283  0.88993493  0.75000000  1
