# generated using pymatgen
data_LuH2ClO2
_symmetry_space_group_name_H-M   'P 1'
_cell_length_a   12.62622568
_cell_length_b   3.50420575
_cell_length_c   6.20672643
_cell_angle_alpha   90.00000000
_cell_angle_beta   90.00000000
_cell_angle_gamma   90.00000000
_symmetry_Int_Tables_number   1
_chemical_formula_structural   LuH2ClO2
_chemical_formula_sum   'Lu4 H8 Cl4 O8'
_cell_volume   274.61594447
_cell_formula_units_Z   4
loop_
 _symmetry_equiv_pos_site_id
 _symmetry_equiv_pos_as_xyz
  1  'x, y, z'
loop_
 _atom_site_type_symbol
 _atom_site_label
 _atom_site_symmetry_multiplicity
 _atom_site_fract_x
 _atom_site_fract_y
 _atom_site_fract_z
 _atom_site_occupancy
  Lu  Lu0  1  0.05109939  0.75000000  0.24944431  1
  Lu  Lu1  1  0.55110039  0.75000000  0.25055569  1
  Lu  Lu2  1  0.44890061  0.24999900  0.74944431  1
  Lu  Lu3  1  0.94889961  0.24999900  0.75055569  1
  H  H4  1  0.84529531  0.75000000  0.04593005  1
  H  H5  1  0.37876223  0.24999900  0.18576800  1
  H  H6  1  0.87876323  0.24999900  0.31423200  1
  H  H7  1  0.34529531  0.75000000  0.45406995  1
  H  H8  1  0.65470369  0.24999900  0.54593005  1
  H  H9  1  0.12123777  0.75000000  0.68576800  1
  H  H10  1  0.62123677  0.75000000  0.81423200  1
  H  H11  1  0.15470369  0.24999900  0.95406895  1
  Cl  Cl12  1  0.71211686  0.24999900  0.11631860  1
  Cl  Cl13  1  0.21211686  0.24999900  0.38368140  1
  Cl  Cl14  1  0.78788214  0.75000000  0.61631860  1
  Cl  Cl15  1  0.28788314  0.75000000  0.88368040  1
  O  O16  1  0.08027804  0.24999900  0.00154526  1
  O  O17  1  0.45193132  0.24999900  0.12932195  1
  O  O18  1  0.95193132  0.24999900  0.37067805  1
  O  O19  1  0.58027904  0.24999900  0.49845474  1
  O  O20  1  0.41972196  0.75000000  0.50154526  1
  O  O21  1  0.04806968  0.75000000  0.62932195  1
  O  O22  1  0.54806868  0.75000000  0.87067805  1
  O  O23  1  0.91972096  0.75000000  0.99845474  1
