# generated using pymatgen
data_TeMoWSeS2
_symmetry_space_group_name_H-M   'P 1'
_cell_length_a   3.30846997
_cell_length_b   3.30849377
_cell_length_c   37.63905037
_cell_angle_alpha   90.00028825
_cell_angle_beta   90.00000000
_cell_angle_gamma   119.99976214
_symmetry_Int_Tables_number   1
_chemical_formula_structural   TeMoWSeS2
_chemical_formula_sum   'Te2 Mo2 W2 Se2 S4'
_cell_volume   356.80246694
_cell_formula_units_Z   2
loop_
 _symmetry_equiv_pos_site_id
 _symmetry_equiv_pos_as_xyz
  1  'x, y, z'
loop_
 _atom_site_type_symbol
 _atom_site_label
 _atom_site_symmetry_multiplicity
 _atom_site_fract_x
 _atom_site_fract_y
 _atom_site_fract_z
 _atom_site_occupancy
  Te  Te0  1  0.33335165  0.66670430  0.70868142  1
  Te  Te1  1  0.33335890  0.66671879  0.60639705  1
  Mo  Mo2  1  0.33330730  0.66661460  0.09391474  1
  Mo  Mo3  1  0.33329086  0.66658172  0.46963685  1
  W  W4  1  0.66669165  0.33338331  0.28179900  1
  W  W5  1  0.66668934  0.33337867  0.65756730  1
  Se  Se6  1  0.66663072  0.33326045  0.04928658  1
  Se  Se7  1  0.66664802  0.33329504  0.13856317  1
  S  S8  1  0.33336135  0.66672370  0.32255631  1
  S  S9  1  0.66665943  0.33331785  0.42906898  1
  S  S10  1  0.66665630  0.33331160  0.51022662  1
  S  S11  1  0.33335449  0.66670997  0.24104999  1
