# generated using pymatgen
data_Na2Nb3O6
_symmetry_space_group_name_H-M   'P 1'
_cell_length_a   5.16871706
_cell_length_b   5.16871098
_cell_length_c   23.66905586
_cell_angle_alpha   89.99985037
_cell_angle_beta   90.00041793
_cell_angle_gamma   59.99992795
_symmetry_Int_Tables_number   1
_chemical_formula_structural   Na2Nb3O6
_chemical_formula_sum   'Na8 Nb12 O24'
_cell_volume   547.61616339
_cell_formula_units_Z   4
loop_
 _symmetry_equiv_pos_site_id
 _symmetry_equiv_pos_as_xyz
  1  'x, y, z'
loop_
 _atom_site_type_symbol
 _atom_site_label
 _atom_site_symmetry_multiplicity
 _atom_site_fract_x
 _atom_site_fract_y
 _atom_site_fract_z
 _atom_site_occupancy
  Na  Na0  1  -0.00000226  0.00000279  0.00002512  1
  Na  Na1  1  -0.00000266  0.00000145  0.50000435  1
  Na  Na2  1  0.33333302  0.33333490  0.75007133  1
  Na  Na3  1  0.33333162  0.33333398  0.00002257  1
  Na  Na4  1  0.33333468  0.33333252  0.24990287  1
  Na  Na5  1  0.66666682  0.66666699  0.25010697  1
  Na  Na6  1  0.66666360  0.66666945  0.50000316  1
  Na  Na7  1  0.66666654  0.66666721  0.74987193  1
  Nb  Nb8  1  0.33332636  0.99555013  0.87500923  1
  Nb  Nb9  1  0.32908308  0.00424431  0.37500921  1
  Nb  Nb10  1  0.00438037  0.32895349  0.62502135  1
  Nb  Nb11  1  0.99595421  0.33332449  0.12496054  1
  Nb  Nb12  1  0.00422700  0.66668020  0.37500924  1
  Nb  Nb13  1  0.99555371  0.67111657  0.87500883  1
  Nb  Nb14  1  0.67073898  0.99593678  0.12496110  1
  Nb  Nb15  1  0.66667421  0.00437167  0.62502104  1
  Nb  Nb16  1  0.66666441  0.32909852  0.37500850  1
  Nb  Nb17  1  0.67110224  0.33333852  0.87500918  1
  Nb  Nb18  1  0.32896929  0.66665567  0.62502164  1
  Nb  Nb19  1  0.33333495  0.67072053  0.12496172  1
  O  O20  1  0.32977655  0.00511854  0.07175923  1
  O  O21  1  0.33503399  0.99473784  0.57181638  1
  O  O22  1  0.33690852  0.00154377  0.17818209  1
  O  O23  1  0.99480200  0.33496512  0.42816000  1
  O  O24  1  0.99835381  0.33853960  0.32186034  1
  O  O25  1  0.33856283  0.99830616  0.67821162  1
  O  O26  1  0.00539840  0.32971191  0.92814252  1
  O  O27  1  0.00175921  0.33694375  0.82186388  1
  O  O28  1  0.99474144  0.67022384  0.57181636  1
  O  O29  1  0.00512654  0.66510107  0.07175928  1
  O  O30  1  0.66128423  0.00177236  0.82186443  1
  O  O31  1  0.66488523  0.00540374  0.92814232  1
  O  O32  1  0.67023049  0.99481158  0.42816069  1
  O  O33  1  0.66309825  0.99837188  0.32185979  1
  O  O34  1  0.00156047  0.66154363  0.17818181  1
  O  O35  1  0.99832113  0.66312657  0.67821132  1
  O  O36  1  0.67023052  0.33502969  0.57181689  1
  O  O37  1  0.66511375  0.32976592  0.07175903  1
  O  O38  1  0.66156039  0.33689031  0.17818237  1
  O  O39  1  0.33693112  0.66129780  0.82186508  1
  O  O40  1  0.32970512  0.66489213  0.92814161  1
  O  O41  1  0.33851886  0.66311215  0.32186007  1
  O  O42  1  0.33495272  0.67024343  0.42816039  1
  O  O43  1  0.66314427  0.33854904  0.67821164  1
