# generated using pymatgen
data_PrAl4Co
_symmetry_space_group_name_H-M   'P 1'
_cell_length_a   7.67473648
_cell_length_b   4.03311320
_cell_length_c   6.90513530
_cell_angle_alpha   90.00000000
_cell_angle_beta   90.00000000
_cell_angle_gamma   90.00000000
_symmetry_Int_Tables_number   1
_chemical_formula_structural   PrAl4Co
_chemical_formula_sum   'Pr2 Al8 Co2'
_cell_volume   213.73521228
_cell_formula_units_Z   2
loop_
 _symmetry_equiv_pos_site_id
 _symmetry_equiv_pos_as_xyz
  1  'x, y, z'
loop_
 _atom_site_type_symbol
 _atom_site_label
 _atom_site_symmetry_multiplicity
 _atom_site_fract_x
 _atom_site_fract_y
 _atom_site_fract_z
 _atom_site_occupancy
  Pr  Pr0  1  0.25000000  0.00000000  0.38402866  1
  Pr  Pr1  1  0.75000000  0.00000000  0.61597034  1
  Al  Al2  1  0.00000000  0.00000000  0.00000000  1
  Al  Al3  1  0.50000000  0.00000000  0.00000000  1
  Al  Al4  1  0.25000000  0.50000100  0.04175725  1
  Al  Al5  1  0.57078151  0.50000100  0.29880942  1
  Al  Al6  1  0.92921849  0.50000100  0.29880942  1
  Al  Al7  1  0.07078051  0.50000100  0.70119058  1
  Al  Al8  1  0.42921849  0.50000100  0.70119058  1
  Al  Al9  1  0.75000000  0.50000100  0.95824175  1
  Co  Co10  1  0.75000000  0.00000000  0.18310587  1
  Co  Co11  1  0.25000000  0.00000000  0.81689413  1
