# generated using pymatgen
data_SmLuHg2
_symmetry_space_group_name_H-M   'P 1'
_cell_length_a   5.27891973
_cell_length_b   5.27892437
_cell_length_c   5.27893918
_cell_angle_alpha   59.99996008
_cell_angle_beta   60.00004692
_cell_angle_gamma   59.99986166
_symmetry_Int_Tables_number   1
_chemical_formula_structural   SmLuHg2
_chemical_formula_sum   'Sm1 Lu1 Hg2'
_cell_volume   104.02116860
_cell_formula_units_Z   1
loop_
 _symmetry_equiv_pos_site_id
 _symmetry_equiv_pos_as_xyz
  1  'x, y, z'
loop_
 _atom_site_type_symbol
 _atom_site_label
 _atom_site_symmetry_multiplicity
 _atom_site_fract_x
 _atom_site_fract_y
 _atom_site_fract_z
 _atom_site_occupancy
  Sm  Sm0  1  0.74999966  0.75000131  0.75000050  1
  Lu  Lu1  1  0.24999943  0.25000099  0.25000120  1
  Hg  Hg2  1  0.00000223  0.99999869  0.99999891  1
  Hg  Hg3  1  0.49999868  0.49999900  0.49999939  1
