# generated using pymatgen
data_Li4CoNi3O8
_symmetry_space_group_name_H-M   'P 1'
_cell_length_a   5.79486044
_cell_length_b   5.82533201
_cell_length_c   5.78361745
_cell_angle_alpha   59.78889097
_cell_angle_beta   60.45125037
_cell_angle_gamma   59.83457455
_symmetry_Int_Tables_number   1
_chemical_formula_structural   Li4CoNi3O8
_chemical_formula_sum   'Li4 Co1 Ni3 O8'
_cell_volume   138.12014047
_cell_formula_units_Z   1
loop_
 _symmetry_equiv_pos_site_id
 _symmetry_equiv_pos_as_xyz
  1  'x, y, z'
loop_
 _atom_site_type_symbol
 _atom_site_label
 _atom_site_symmetry_multiplicity
 _atom_site_fract_x
 _atom_site_fract_y
 _atom_site_fract_z
 _atom_site_occupancy
  Li  Li0  1  0.49998205  0.50000629  0.49999861  1
  Li  Li1  1  0.00001706  0.49999490  0.49999723  1
  Li  Li2  1  0.49998986  0.00000704  0.50001116  1
  Li  Li3  1  -0.00000103  0.99999326  0.49999270  1
  Co  Co4  1  0.99999799  0.00000541  -0.00000556  1
  Ni  Ni5  1  0.00001042  0.49998719  -0.00000376  1
  Ni  Ni6  1  0.49999979  0.49999359  0.00000063  1
  Ni  Ni7  1  0.49999651  -0.00000210  0.00001307  1
  O  O8  1  0.75888484  0.77961111  0.21934101  1
  O  O9  1  0.23105791  0.76075607  0.24536502  1
  O  O10  1  0.76093337  0.24092350  0.22040382  1
  O  O11  1  0.28267565  0.25353623  0.21122977  1
  O  O12  1  0.71733567  0.74646577  0.78876495  1
  O  O13  1  0.23906533  0.75908370  0.77958197  1
  O  O14  1  0.76895280  0.23924386  0.75461927  1
  O  O15  1  0.24111678  0.22038920  0.78067012  1
