# generated using pymatgen
data_YbGa2Pd
_symmetry_space_group_name_H-M   'P 1'
_cell_length_a   5.40968328
_cell_length_b   5.40968328
_cell_length_c   6.88381115
_cell_angle_alpha   90.00000000
_cell_angle_beta   90.00000000
_cell_angle_gamma   48.39962651
_symmetry_Int_Tables_number   1
_chemical_formula_structural   YbGa2Pd
_chemical_formula_sum   'Yb2 Ga4 Pd2'
_cell_volume   150.64491072
_cell_formula_units_Z   2
loop_
 _symmetry_equiv_pos_site_id
 _symmetry_equiv_pos_as_xyz
  1  'x, y, z'
loop_
 _atom_site_type_symbol
 _atom_site_label
 _atom_site_symmetry_multiplicity
 _atom_site_fract_x
 _atom_site_fract_y
 _atom_site_fract_z
 _atom_site_occupancy
  Yb  Yb0  1  0.41637407  0.41637407  0.24999900  1
  Yb  Yb1  1  0.58362693  0.58362693  0.75000000  1
  Ga  Ga2  1  0.13256103  0.13256103  0.05624109  1
  Ga  Ga3  1  0.86743997  0.86743997  0.55624109  1
  Ga  Ga4  1  0.86743997  0.86743997  0.94375891  1
  Ga  Ga5  1  0.13256103  0.13256103  0.44375991  1
  Pd  Pd6  1  0.70358460  0.70358460  0.24999900  1
  Pd  Pd7  1  0.29641540  0.29641540  0.75000000  1
