# generated using pymatgen
data_In15SnO24
_symmetry_space_group_name_H-M   'P 1'
_cell_length_a   8.93276506
_cell_length_b   8.93299763
_cell_length_c   8.96736585
_cell_angle_alpha   109.55170221
_cell_angle_beta   109.55070360
_cell_angle_gamma   109.39180346
_symmetry_Int_Tables_number   1
_chemical_formula_structural   In15SnO24
_chemical_formula_sum   'In15 Sn1 O24'
_cell_volume   550.29152007
_cell_formula_units_Z   1
loop_
 _symmetry_equiv_pos_site_id
 _symmetry_equiv_pos_as_xyz
  1  'x, y, z'
loop_
 _atom_site_type_symbol
 _atom_site_label
 _atom_site_symmetry_multiplicity
 _atom_site_fract_x
 _atom_site_fract_y
 _atom_site_fract_z
 _atom_site_occupancy
  In  In0  1  0.96676642  0.25121548  0.21637429  1
  In  In1  1  0.78283701  0.03432401  0.74931868  1
  In  In2  1  0.71557718  0.46679817  0.25042354  1
  In  In3  1  0.75119972  0.78443113  0.03487842  1
  In  In4  1  0.74851631  0.28280346  0.53349709  1
  In  In5  1  0.00000830  0.49998062  0.99998530  1
  In  In6  1  0.53429932  0.75148659  0.28500577  1
  In  In7  1  0.49996986  0.49998119  0.49997641  1
  In  In8  1  0.46569493  0.24856186  0.71499849  1
  In  In9  1  0.00000334  0.00001053  0.50000211  1
  In  In10  1  0.25148935  0.71719028  0.46648451  1
  In  In11  1  0.24877371  0.21554405  0.96514153  1
  In  In12  1  0.21717353  0.96572573  0.25069093  1
  In  In13  1  0.28443777  0.53322753  0.74955275  1
  In  In14  1  0.03326443  0.74876667  0.78364236  1
  Sn  Sn15  1  0.49998865  -0.00000616  0.00002875  1
  O  O16  1  0.72360997  0.21726940  0.26312388  1
  O  O17  1  0.76556187  0.03763473  0.49312089  1
  O  O18  1  0.96193772  0.50641560  0.23625831  1
  O  O19  1  0.28267312  0.00634006  0.04584461  1
  O  O20  1  0.76914029  0.72758384  0.26207950  1
  O  O21  1  0.46239592  0.22788190  0.45547111  1
  O  O22  1  0.45552001  0.46194956  0.22566622  1
  O  O23  1  0.04155583  0.26914905  0.00707739  1
  O  O24  1  0.72787996  0.26552263  0.77243638  1
  O  O25  1  0.49364159  0.77633314  0.03949116  1
  O  O26  1  0.00641353  0.04446778  0.27012018  1
  O  O27  1  0.77237926  0.54154818  0.53450247  1
  O  O28  1  0.22760185  0.45845370  0.46549651  1
  O  O29  1  0.27208894  0.73446099  0.22755086  1
  O  O30  1  0.99356792  0.95550567  0.72989302  1
  O  O31  1  0.50633867  0.22365393  0.96049200  1
  O  O32  1  0.54447929  0.53806618  0.77436106  1
  O  O33  1  0.95846049  0.73086579  0.99293689  1
  O  O34  1  0.23086709  0.27241474  0.73794050  1
  O  O35  1  0.53764512  0.77210808  0.54452740  1
  O  O36  1  0.03812325  0.49360498  0.76374122  1
  O  O37  1  0.71731185  0.99366996  0.95415678  1
  O  O38  1  0.23448714  0.96238122  0.50688533  1
  O  O39  1  0.27631951  0.78267775  0.73682441  1
