# generated using pymatgen
data_SmSiAg
_symmetry_space_group_name_H-M   'P 1'
_cell_length_a   7.18733035
_cell_length_b   7.18736554
_cell_length_c   4.26889880
_cell_angle_alpha   90.00002338
_cell_angle_beta   90.00001029
_cell_angle_gamma   120.00034916
_symmetry_Int_Tables_number   1
_chemical_formula_structural   SmSiAg
_chemical_formula_sum   'Sm3 Si3 Ag3'
_cell_volume   190.97754355
_cell_formula_units_Z   3
loop_
 _symmetry_equiv_pos_site_id
 _symmetry_equiv_pos_as_xyz
  1  'x, y, z'
loop_
 _atom_site_type_symbol
 _atom_site_label
 _atom_site_symmetry_multiplicity
 _atom_site_fract_x
 _atom_site_fract_y
 _atom_site_fract_z
 _atom_site_occupancy
  Sm  Sm0  1  0.58415776  0.00000926  0.49999843  1
  Sm  Sm1  1  0.41586234  0.41586180  0.50000056  1
  Sm  Sm2  1  0.00000970  0.58415795  0.50000288  1
  Si  Si3  1  0.66667799  0.33334256  0.99999857  1
  Si  Si4  1  0.33334445  0.66667799  0.00000240  1
  Si  Si5  1  0.00001277  0.00001219  0.50000060  1
  Ag  Ag6  1  0.24880063  0.00001340  0.99999986  1
  Ag  Ag7  1  0.00001301  0.24880043  0.00000031  1
  Ag  Ag8  1  0.75122236  0.75122143  0.00000041  1
