# generated using pymatgen
data_Ho6CoTe2
_symmetry_space_group_name_H-M   'P 1'
_cell_length_a   8.37243890
_cell_length_b   8.37172505
_cell_length_c   3.92528452
_cell_angle_alpha   90.00000000
_cell_angle_beta   90.00000000
_cell_angle_gamma   120.00282475
_symmetry_Int_Tables_number   1
_chemical_formula_structural   Ho6CoTe2
_chemical_formula_sum   'Ho6 Co1 Te2'
_cell_volume   238.26286197
_cell_formula_units_Z   1
loop_
 _symmetry_equiv_pos_site_id
 _symmetry_equiv_pos_as_xyz
  1  'x, y, z'
loop_
 _atom_site_type_symbol
 _atom_site_label
 _atom_site_symmetry_multiplicity
 _atom_site_fract_x
 _atom_site_fract_y
 _atom_site_fract_z
 _atom_site_occupancy
  Ho  Ho0  1  0.23617276  -0.00000000  0.00000000  1
  Ho  Ho1  1  0.00000402  0.23624171  0.00000000  1
  Ho  Ho2  1  0.76376131  0.76375829  0.00000000  1
  Ho  Ho3  1  0.60161971  -0.00000000  0.50000000  1
  Ho  Ho4  1  0.99998346  0.60161646  0.50000000  1
  Ho  Ho5  1  0.39836600  0.39838254  0.50000000  1
  Co  Co6  1  -0.00000076  -0.00000000  0.50000000  1
  Te  Te7  1  0.33332082  0.66664715  0.00000000  1
  Te  Te8  1  0.66667468  0.33335385  0.00000000  1
