# generated using pymatgen
data_Nb3GeS6
_symmetry_space_group_name_H-M   'P 1'
_cell_length_a   5.82391938
_cell_length_b   5.82399655
_cell_length_c   13.65964682
_cell_angle_alpha   89.99981991
_cell_angle_beta   89.99957602
_cell_angle_gamma   119.99990658
_symmetry_Int_Tables_number   1
_chemical_formula_structural   Nb3GeS6
_chemical_formula_sum   'Nb6 Ge2 S12'
_cell_volume   401.24254349
_cell_formula_units_Z   2
loop_
 _symmetry_equiv_pos_site_id
 _symmetry_equiv_pos_as_xyz
  1  'x, y, z'
loop_
 _atom_site_type_symbol
 _atom_site_label
 _atom_site_symmetry_multiplicity
 _atom_site_fract_x
 _atom_site_fract_y
 _atom_site_fract_z
 _atom_site_occupancy
  Nb  Nb0  1  0.33333713  0.66669105  0.24999986  1
  Nb  Nb1  1  -0.00000765  0.00000878  0.25000096  1
  Nb  Nb2  1  -0.00000618  0.99998662  0.74999946  1
  Nb  Nb3  1  0.33333834  0.66667112  0.74999960  1
  Nb  Nb4  1  0.66665634  0.33332615  0.74999943  1
  Nb  Nb5  1  0.66667589  0.33334255  0.25000070  1
  Ge  Ge6  1  0.99999571  0.99999075  0.99997803  1
  Ge  Ge7  1  0.99999513  0.99999031  0.50002264  1
  S  S8  1  0.99998304  0.66565035  0.63513548  1
  S  S9  1  0.99998023  0.66564777  0.86486515  1
  S  S10  1  0.99999636  0.33434738  0.13513012  1
  S  S11  1  0.99999081  0.33433825  0.36486982  1
  S  S12  1  0.33431413  0.33431756  0.63512546  1
  S  S13  1  0.33431828  0.33431687  0.86487428  1
  S  S14  1  0.66565154  0.66567108  0.13512762  1
  S  S15  1  0.66565925  0.66568022  0.36487496  1
  S  S16  1  0.33434378  0.00001894  0.13512804  1
  S  S17  1  0.33435444  0.00002784  0.36487107  1
  S  S18  1  0.66566135  0.99998568  0.63513394  1
  S  S19  1  0.66566108  0.99998972  0.86486638  1
