# generated using pymatgen
data_HoB4W
_symmetry_space_group_name_H-M   'P 1'
_cell_length_a   6.03174424
_cell_length_b   11.65355031
_cell_length_c   3.61903112
_cell_angle_alpha   89.99999460
_cell_angle_beta   90.00004474
_cell_angle_gamma   90.00042315
_symmetry_Int_Tables_number   1
_chemical_formula_structural   HoB4W
_chemical_formula_sum   'Ho4 B16 W4'
_cell_volume   254.38616677
_cell_formula_units_Z   4
loop_
 _symmetry_equiv_pos_site_id
 _symmetry_equiv_pos_as_xyz
  1  'x, y, z'
loop_
 _atom_site_type_symbol
 _atom_site_label
 _atom_site_symmetry_multiplicity
 _atom_site_fract_x
 _atom_site_fract_y
 _atom_site_fract_z
 _atom_site_occupancy
  Ho  Ho0  1  0.12711923  0.14959586  -0.00000101  1
  Ho  Ho1  1  0.87288950  0.85041629  0.99999936  1
  Ho  Ho2  1  0.62710882  0.35041013  0.00000185  1
  Ho  Ho3  1  0.37287732  0.64958483  0.00000037  1
  B  B4  1  0.47684932  0.19356283  0.49999843  1
  B  B5  1  0.52314564  0.80643837  0.50000183  1
  B  B6  1  0.97685495  0.30643885  0.49999971  1
  B  B7  1  0.02315829  0.69356291  0.50000190  1
  B  B8  1  0.28780024  0.31337672  0.49999812  1
  B  B9  1  0.71219093  0.68662945  0.50000170  1
  B  B10  1  0.78780811  0.18662810  0.49999841  1
  B  B11  1  0.21219532  0.81337449  0.49999927  1
  B  B12  1  0.36680192  0.46793427  0.49999836  1
  B  B13  1  0.63319225  0.53205867  0.50000155  1
  B  B14  1  0.86680869  0.03206278  0.50000131  1
  B  B15  1  0.13319534  0.96793600  0.49999756  1
  B  B16  1  0.38583561  0.04753125  0.49999992  1
  B  B17  1  0.61415955  0.95246643  0.50000036  1
  B  B18  1  0.88584492  0.45246275  0.49999907  1
  B  B19  1  0.11416760  0.54752783  0.49999987  1
  W  W20  1  0.13112799  0.41539134  0.99999700  1
  W  W21  1  0.86887093  0.58460610  0.00000491  1
  W  W22  1  0.63113184  0.08460894  -0.00000068  1
  W  W23  1  0.36886767  0.91539483  0.00000083  1
