# generated using pymatgen
data_HoH2ClO2
_symmetry_space_group_name_H-M   'P 1'
_cell_length_a   6.18299651
_cell_length_b   3.61867030
_cell_length_c   6.63809021
_cell_angle_alpha   90.00000000
_cell_angle_beta   106.93119044
_cell_angle_gamma   90.00000000
_symmetry_Int_Tables_number   1
_chemical_formula_structural   HoH2ClO2
_chemical_formula_sum   'Ho2 H4 Cl2 O4'
_cell_volume   142.08446599
_cell_formula_units_Z   2
loop_
 _symmetry_equiv_pos_site_id
 _symmetry_equiv_pos_as_xyz
  1  'x, y, z'
loop_
 _atom_site_type_symbol
 _atom_site_label
 _atom_site_symmetry_multiplicity
 _atom_site_fract_x
 _atom_site_fract_y
 _atom_site_fract_z
 _atom_site_occupancy
  Ho  Ho0  1  0.28721441  0.24999900  0.11454723  1
  Ho  Ho1  1  0.71278659  0.75000100  0.88545277  1
  H  H2  1  0.87394161  0.24999900  0.23039215  1
  H  H3  1  0.65549758  0.75000100  0.30542795  1
  H  H4  1  0.34450142  0.24999900  0.69457205  1
  H  H5  1  0.12606039  0.75000100  0.76960785  1
  Cl  Cl6  1  0.23240627  0.75000100  0.42984051  1
  Cl  Cl7  1  0.76759273  0.24999900  0.57015949  1
  O  O8  1  0.89555282  0.24999900  0.09029257  1
  O  O9  1  0.55263742  0.75000100  0.16205664  1
  O  O10  1  0.44736358  0.24999900  0.83794336  1
  O  O11  1  0.10444618  0.75000100  0.90970843  1
