# generated using pymatgen
data_Hf4Co4Si7
_symmetry_space_group_name_H-M   'P 1'
_cell_length_a   9.43805507
_cell_length_b   9.43805507
_cell_length_c   9.43805507
_cell_angle_alpha   94.09914316
_cell_angle_beta   94.09914316
_cell_angle_gamma   148.98527904
_symmetry_Int_Tables_number   1
_chemical_formula_structural   Hf4Co4Si7
_chemical_formula_sum   'Hf8 Co8 Si14'
_cell_volume   417.41451711
_cell_formula_units_Z   2
loop_
 _symmetry_equiv_pos_site_id
 _symmetry_equiv_pos_as_xyz
  1  'x, y, z'
loop_
 _atom_site_type_symbol
 _atom_site_label
 _atom_site_symmetry_multiplicity
 _atom_site_fract_x
 _atom_site_fract_y
 _atom_site_fract_z
 _atom_site_occupancy
  Hf  Hf0  1  0.13748582  0.13748582  0.27497164  1
  Hf  Hf1  1  0.86251518  0.86251518  0.72502736  1
  Hf  Hf2  1  0.86251518  0.13748682  0.00000000  1
  Hf  Hf3  1  0.13748682  0.86251518  -0.00000000  1
  Hf  Hf4  1  0.50000000  0.30362199  0.80362199  1
  Hf  Hf5  1  0.50000100  0.69638001  0.19637901  1
  Hf  Hf6  1  0.69638001  0.50000100  0.19637901  1
  Hf  Hf7  1  0.30362199  0.50000000  0.80362199  1
  Co  Co8  1  0.60206063  0.10206063  0.20412227  1
  Co  Co9  1  0.89793837  0.39793837  0.79587773  1
  Co  Co10  1  0.10206063  0.89793837  0.50000000  1
  Co  Co11  1  0.39793837  0.60206063  0.50000000  1
  Co  Co12  1  0.10206063  0.60206063  0.20412227  1
  Co  Co13  1  0.39793837  0.89793837  0.79587773  1
  Co  Co14  1  0.89793837  0.10206063  0.50000000  1
  Co  Co15  1  0.60206063  0.39793837  0.50000000  1
  Si  Si16  1  0.28970955  0.28970955  0.57941910  1
  Si  Si17  1  0.71029145  0.71029145  0.42058090  1
  Si  Si18  1  0.71029145  0.28971055  0.00000000  1
  Si  Si19  1  0.28971055  0.71029145  -0.00000000  1
  Si  Si20  1  0.50000000  0.09181380  0.59181380  1
  Si  Si21  1  0.50000100  0.90818720  0.40818620  1
  Si  Si22  1  0.90818720  0.50000100  0.40818620  1
  Si  Si23  1  0.09181380  0.50000000  0.59181380  1
  Si  Si24  1  0.25053884  0.25053884  0.00000000  1
  Si  Si25  1  0.74946116  0.74946116  -0.00000000  1
  Si  Si26  1  0.00000000  0.30139827  0.30139827  1
  Si  Si27  1  -0.00000000  0.69860173  0.69860173  1
  Si  Si28  1  0.69860173  -0.00000000  0.69860173  1
  Si  Si29  1  0.30139827  0.00000000  0.30139827  1
