# generated using pymatgen
data_Tm2Co3Si5
_symmetry_space_group_name_H-M   'P 1'
_cell_length_a   7.83126065
_cell_length_b   7.83126065
_cell_length_c   7.83126065
_cell_angle_alpha   105.39925485
_cell_angle_beta   88.78815339
_cell_angle_gamma   139.07831019
_symmetry_Int_Tables_number   1
_chemical_formula_structural   Tm2Co3Si5
_chemical_formula_sum   'Tm4 Co6 Si10'
_cell_volume   290.79256646
_cell_formula_units_Z   2
loop_
 _symmetry_equiv_pos_site_id
 _symmetry_equiv_pos_as_xyz
  1  'x, y, z'
loop_
 _atom_site_type_symbol
 _atom_site_label
 _atom_site_symmetry_multiplicity
 _atom_site_fract_x
 _atom_site_fract_y
 _atom_site_fract_z
 _atom_site_occupancy
  Tm  Tm0  1  0.63496090  0.23288839  0.86784829  1
  Tm  Tm1  1  0.13495990  0.26711061  0.40207051  1
  Tm  Tm2  1  0.86504010  0.73288839  0.59792749  1
  Tm  Tm3  1  0.36504010  0.76711161  0.13215071  1
  Co  Co4  1  0.63880879  0.89161241  0.53042021  1
  Co  Co5  1  0.36119221  0.10838859  0.46957979  1
  Co  Co6  1  0.75000100  0.75000100  0.00000000  1
  Co  Co7  1  0.25000100  0.25000100  -0.00000000  1
  Co  Co8  1  0.13880879  0.60838859  0.74719738  1
  Co  Co9  1  0.86119221  0.39161241  0.25280362  1
  Si  Si10  1  0.52466097  0.75000100  0.77465997  1
  Si  Si11  1  0.97534203  0.75000100  0.22534103  1
  Si  Si12  1  0.75000200  0.25000100  0.50000100  1
  Si  Si13  1  0.40012175  0.33996192  0.74008467  1
  Si  Si14  1  0.59987925  0.66003708  0.25991533  1
  Si  Si15  1  0.09987825  0.83996292  0.93984117  1
  Si  Si16  1  0.25000100  0.75000100  0.50000000  1
  Si  Si17  1  0.90012275  0.16003808  0.06015983  1
  Si  Si18  1  0.47534203  0.25000100  0.22534103  1
  Si  Si19  1  0.02465897  0.24999900  0.77465997  1
