# generated using pymatgen
data_Zr2Co12P7
_symmetry_space_group_name_H-M   'P 1'
_cell_length_a   8.92227498
_cell_length_b   8.92249890
_cell_length_c   3.56033274
_cell_angle_alpha   90.00000000
_cell_angle_beta   90.00000000
_cell_angle_gamma   119.98523018
_symmetry_Int_Tables_number   1
_chemical_formula_structural   Zr2Co12P7
_chemical_formula_sum   'Zr2 Co12 P7'
_cell_volume   245.49799175
_cell_formula_units_Z   1
loop_
 _symmetry_equiv_pos_site_id
 _symmetry_equiv_pos_as_xyz
  1  'x, y, z'
loop_
 _atom_site_type_symbol
 _atom_site_label
 _atom_site_symmetry_multiplicity
 _atom_site_fract_x
 _atom_site_fract_y
 _atom_site_fract_z
 _atom_site_occupancy
  Zr  Zr0  1  0.33350530  0.66670282  0.00000000  1
  Zr  Zr1  1  0.66672521  0.33351842  0.50000200  1
  Co  Co2  1  0.43802040  0.06307994  0.00000000  1
  Co  Co3  1  0.93697101  0.37486940  0.00000000  1
  Co  Co4  1  0.62508939  0.56202876  0.00000000  1
  Co  Co5  1  0.38504712  0.43873413  0.50000200  1
  Co  Co6  1  0.56114105  0.94621740  0.50000200  1
  Co  Co7  1  0.05376285  0.61491147  0.50000200  1
  Co  Co8  1  0.15840683  0.27675631  0.00000000  1
  Co  Co9  1  0.72320162  0.88169233  0.00000000  1
  Co  Co10  1  0.11836556  0.84154836  0.00000000  1
  Co  Co11  1  0.22884375  0.09878857  0.50000200  1
  Co  Co12  1  0.90118841  0.13013413  0.50000200  1
  Co  Co13  1  0.86992606  0.77112645  0.50000200  1
  P  P14  1  0.11591680  0.40528413  0.50000200  1
  P  P15  1  0.59476787  0.71059337  0.50000200  1
  P  P16  1  0.28943624  0.88412059  0.50000200  1
  P  P17  1  0.99985793  0.99984681  0.00000000  1
  P  P18  1  0.40928229  0.29194793  0.00000000  1
  P  P19  1  0.70795039  0.11736943  0.00000000  1
  P  P20  1  0.88258991  0.59072625  0.00000000  1
