# generated using pymatgen
data_RuF4
_symmetry_space_group_name_H-M   'P 1'
_cell_length_a   5.72198473
_cell_length_b   5.05548947
_cell_length_c   5.44646757
_cell_angle_alpha   89.98746213
_cell_angle_beta   120.83913917
_cell_angle_gamma   90.00599892
_symmetry_Int_Tables_number   1
_chemical_formula_structural   RuF4
_chemical_formula_sum   'Ru2 F8'
_cell_volume   135.27598845
_cell_formula_units_Z   2
loop_
 _symmetry_equiv_pos_site_id
 _symmetry_equiv_pos_as_xyz
  1  'x, y, z'
loop_
 _atom_site_type_symbol
 _atom_site_label
 _atom_site_symmetry_multiplicity
 _atom_site_fract_x
 _atom_site_fract_y
 _atom_site_fract_z
 _atom_site_occupancy
  Ru  Ru0  1  -0.00000000  -0.00000000  0.00000000  1
  Ru  Ru1  1  0.50000100  0.49999900  0.50000100  1
  F  F2  1  0.12722651  0.66810326  0.24680495  1
  F  F3  1  0.61344226  0.64641910  0.26579118  1
  F  F4  1  0.88650889  0.14650900  0.23434633  1
  F  F5  1  0.37280384  0.16810583  0.25320391  1
  F  F6  1  0.62719416  0.83189317  0.74679509  1
  F  F7  1  0.11349011  0.85349000  0.76565067  1
  F  F8  1  0.38655874  0.35358090  0.73421082  1
  F  F9  1  0.87277449  0.33189874  0.75319605  1
