# generated using pymatgen
data_Nb3AlC2
_symmetry_space_group_name_H-M   'P 1'
_cell_length_a   3.13051854
_cell_length_b   3.13051826
_cell_length_c   19.24987737
_cell_angle_alpha   90.00000000
_cell_angle_beta   90.00000000
_cell_angle_gamma   119.99999203
_symmetry_Int_Tables_number   1
_chemical_formula_structural   Nb3AlC2
_chemical_formula_sum   'Nb6 Al2 C4'
_cell_volume   163.37708943
_cell_formula_units_Z   2
loop_
 _symmetry_equiv_pos_site_id
 _symmetry_equiv_pos_as_xyz
  1  'x, y, z'
loop_
 _atom_site_type_symbol
 _atom_site_label
 _atom_site_symmetry_multiplicity
 _atom_site_fract_x
 _atom_site_fract_y
 _atom_site_fract_z
 _atom_site_occupancy
  Nb  Nb0  1  0.66666700  0.33333300  0.36620397  1
  Nb  Nb1  1  0.33333300  0.66666700  0.86620397  1
  Nb  Nb2  1  0.33333300  0.66666700  0.63379603  1
  Nb  Nb3  1  0.66666700  0.33333300  0.13379603  1
  Nb  Nb4  1  0.00000000  0.00000000  0.50000000  1
  Nb  Nb5  1  0.00000000  0.00000000  0.00000000  1
  Al  Al6  1  0.00000000  0.00000000  0.75000000  1
  Al  Al7  1  -0.00000000  0.00000000  0.25000000  1
  C  C8  1  0.33333300  0.66666700  0.43078062  1
  C  C9  1  0.66666700  0.33333300  0.93078062  1
  C  C10  1  0.33333300  0.66666700  0.06921938  1
  C  C11  1  0.66666700  0.33333300  0.56921938  1
