# generated using pymatgen
data_TmB4Ru
_symmetry_space_group_name_H-M   'P 1'
_cell_length_a   5.92315362
_cell_length_b   11.45350148
_cell_length_c   3.52997551
_cell_angle_alpha   90.00033264
_cell_angle_beta   89.99991838
_cell_angle_gamma   89.99815066
_symmetry_Int_Tables_number   1
_chemical_formula_structural   TmB4Ru
_chemical_formula_sum   'Tm4 B16 Ru4'
_cell_volume   239.47653461
_cell_formula_units_Z   4
loop_
 _symmetry_equiv_pos_site_id
 _symmetry_equiv_pos_as_xyz
  1  'x, y, z'
loop_
 _atom_site_type_symbol
 _atom_site_label
 _atom_site_symmetry_multiplicity
 _atom_site_fract_x
 _atom_site_fract_y
 _atom_site_fract_z
 _atom_site_occupancy
  Tm  Tm0  1  0.12927374  0.14978810  0.99999348  1
  Tm  Tm1  1  0.87074821  0.85022255  0.99999678  1
  Tm  Tm2  1  0.62924843  0.35023399  0.99999898  1
  Tm  Tm3  1  0.37073456  0.64977618  0.99999297  1
  B  B4  1  0.47652454  0.19247684  0.50000129  1
  B  B5  1  0.52346560  0.80751758  0.50000189  1
  B  B6  1  0.97654630  0.30752568  0.50000327  1
  B  B7  1  0.02346922  0.69247071  0.50000031  1
  B  B8  1  0.29066463  0.31405527  0.50000017  1
  B  B9  1  0.70931954  0.68594398  0.49999967  1
  B  B10  1  0.79068850  0.18595402  0.50000119  1
  B  B11  1  0.20931294  0.81404557  0.50000304  1
  B  B12  1  0.36483038  0.47002855  0.49999988  1
  B  B13  1  0.63515874  0.52996427  0.50000111  1
  B  B14  1  0.86484451  0.02995921  0.49999568  1
  B  B15  1  0.13515888  0.97002650  0.50000193  1
  B  B16  1  0.38738360  0.04720657  0.49999791  1
  B  B17  1  0.61261410  0.95278937  0.49999828  1
  B  B18  1  0.88738422  0.45278650  0.49999868  1
  B  B19  1  0.11261953  0.54721096  0.49999933  1
  Ru  Ru20  1  0.14130885  0.40699973  0.00000281  1
  Ru  Ru21  1  0.85868005  0.59301496  0.00000929  1
  Ru  Ru22  1  0.64131938  0.09301304  -0.00000334  1
  Ru  Ru23  1  0.35869754  0.90699183  0.00000539  1
