# generated using pymatgen
data_Te2MoW3(SeS2)2
_symmetry_space_group_name_H-M   'P 1'
_cell_length_a   3.30741246
_cell_length_b   3.30738902
_cell_length_c   39.27690299
_cell_angle_alpha   89.99907554
_cell_angle_beta   90.00000000
_cell_angle_gamma   120.00023448
_symmetry_Int_Tables_number   1
_chemical_formula_structural   Te2MoW3(SeS2)2
_chemical_formula_sum   'Te2 Mo1 W3 Se2 S4'
_cell_volume   372.08355804
_cell_formula_units_Z   1
loop_
 _symmetry_equiv_pos_site_id
 _symmetry_equiv_pos_as_xyz
  1  'x, y, z'
loop_
 _atom_site_type_symbol
 _atom_site_label
 _atom_site_symmetry_multiplicity
 _atom_site_fract_x
 _atom_site_fract_y
 _atom_site_fract_z
 _atom_site_occupancy
  Te  Te0  1  0.66666783  0.33333467  0.41956414  1
  Te  Te1  1  0.66667500  0.33334900  0.51752388  1
  Mo  Mo2  1  0.66672218  0.33344437  0.28135310  1
  W  W3  1  0.33330948  0.66661896  0.09391755  1
  W  W4  1  0.33333893  0.66667786  0.46854619  1
  W  W5  1  0.66665232  0.33330465  0.65911839  1
  Se  Se6  1  0.33330266  0.66660632  0.70217162  1
  Se  Se7  1  0.33332573  0.66665245  0.61607251  1
  S  S8  1  0.33334473  0.66669046  0.32018324  1
  S  S9  1  0.66665146  0.33330193  0.05489352  1
  S  S10  1  0.66663774  0.33327449  0.13293743  1
  S  S11  1  0.33337193  0.66674485  0.24246643  1
