# generated using pymatgen
data_Lu2Ni12P7
_symmetry_space_group_name_H-M   'P 1'
_cell_length_a   9.00840461
_cell_length_b   9.00673606
_cell_length_c   3.64714841
_cell_angle_alpha   90.00000000
_cell_angle_beta   90.00000000
_cell_angle_gamma   119.99923132
_symmetry_Int_Tables_number   1
_chemical_formula_structural   Lu2Ni12P7
_chemical_formula_sum   'Lu2 Ni12 P7'
_cell_volume   256.27294017
_cell_formula_units_Z   1
loop_
 _symmetry_equiv_pos_site_id
 _symmetry_equiv_pos_as_xyz
  1  'x, y, z'
loop_
 _atom_site_type_symbol
 _atom_site_label
 _atom_site_symmetry_multiplicity
 _atom_site_fract_x
 _atom_site_fract_y
 _atom_site_fract_z
 _atom_site_occupancy
  Lu  Lu0  1  0.33336375  0.66665384  0.00000000  1
  Lu  Lu1  1  0.66667435  0.33346640  0.50000000  1
  Ni  Ni2  1  0.15311407  0.27599756  0.00000000  1
  Ni  Ni3  1  0.72403132  0.87711524  0.00000000  1
  Ni  Ni4  1  0.12287501  0.84690303  0.00000000  1
  Ni  Ni5  1  0.38176837  0.43176310  0.50000000  1
  Ni  Ni6  1  0.56817103  0.95006920  0.50000000  1
  Ni  Ni7  1  0.05002047  0.61820355  0.50000000  1
  Ni  Ni8  1  0.43666407  0.06107110  0.00000000  1
  Ni  Ni9  1  0.93888739  0.37546715  0.00000000  1
  Ni  Ni10  1  0.62445053  0.56343492  0.00000000  1
  Ni  Ni11  1  0.21674236  0.09372209  0.50000000  1
  Ni  Ni12  1  0.90633500  0.12305466  0.50000000  1
  Ni  Ni13  1  0.87690458  0.78305379  0.50000000  1
  P  P14  1  0.11370302  0.40821895  0.50000000  1
  P  P15  1  0.59181164  0.70547408  0.50000000  1
  P  P16  1  0.29449847  0.88631234  0.50000000  1
  P  P17  1  0.40800835  0.29159682  0.00000000  1
  P  P18  1  0.70845049  0.11644099  0.00000000  1
  P  P19  1  0.88354567  0.59201071  0.00000000  1
  P  P20  1  -0.00002193  0.99997248  0.00000000  1
