# generated using pymatgen
data_NdAlPd
_symmetry_space_group_name_H-M   'P 1'
_cell_length_a   7.25032702
_cell_length_b   7.25064834
_cell_length_c   4.25492308
_cell_angle_alpha   90.00000000
_cell_angle_beta   90.00000000
_cell_angle_gamma   119.99853405
_symmetry_Int_Tables_number   1
_chemical_formula_structural   NdAlPd
_chemical_formula_sum   'Nd3 Al3 Pd3'
_cell_volume   193.71497633
_cell_formula_units_Z   3
loop_
 _symmetry_equiv_pos_site_id
 _symmetry_equiv_pos_as_xyz
  1  'x, y, z'
loop_
 _atom_site_type_symbol
 _atom_site_label
 _atom_site_symmetry_multiplicity
 _atom_site_fract_x
 _atom_site_fract_y
 _atom_site_fract_z
 _atom_site_occupancy
  Nd  Nd0  1  0.58065791  0.00000000  0.49999900  1
  Nd  Nd1  1  0.99996316  0.58065515  0.49999900  1
  Nd  Nd2  1  0.41930900  0.41934485  0.49999900  1
  Al  Al3  1  0.22909691  0.00000000  0.00000000  1
  Al  Al4  1  0.00000914  0.22910051  0.00000000  1
  Al  Al5  1  0.77090863  0.77089949  0.00000000  1
  Pd  Pd6  1  0.00000067  0.00000000  0.49999900  1
  Pd  Pd7  1  0.33331644  0.66667830  0.00000000  1
  Pd  Pd8  1  0.66663914  0.33332370  0.00000000  1
