# generated using pymatgen
data_K2TeO3
_symmetry_space_group_name_H-M   'P 1'
_cell_length_a   6.40495744
_cell_length_b   6.40495744
_cell_length_c   7.20373512
_cell_angle_alpha   90.00000000
_cell_angle_beta   90.00000000
_cell_angle_gamma   120.00000008
_symmetry_Int_Tables_number   1
_chemical_formula_structural   K2TeO3
_chemical_formula_sum   'K4 Te2 O6'
_cell_volume   255.92980366
_cell_formula_units_Z   2
loop_
 _symmetry_equiv_pos_site_id
 _symmetry_equiv_pos_as_xyz
  1  'x, y, z'
loop_
 _atom_site_type_symbol
 _atom_site_label
 _atom_site_symmetry_multiplicity
 _atom_site_fract_x
 _atom_site_fract_y
 _atom_site_fract_z
 _atom_site_occupancy
  O  O0  1  0.89611961  0.27599559  0.73578075  1
  O  O1  1  0.37987598  0.10388039  0.73578075  1
  O  O2  1  0.72400441  0.62012402  0.73578075  1
  O  O3  1  0.10388039  0.72400441  0.26421925  1
  O  O4  1  0.27599559  0.37987598  0.26421925  1
  O  O5  1  0.62012402  0.89611961  0.26421925  1
  K  K6  1  0.00000000  0.00000000  0.00000000  1
  K  K7  1  0.33333333  0.66666667  0.62417235  1
  K  K8  1  0.00000000  0.00000000  0.50000000  1
  K  K9  1  0.66666667  0.33333333  0.37582765  1
  Te  Te10  1  0.66666667  0.33333333  0.85407678  1
  Te  Te11  1  0.33333333  0.66666667  0.14592322  1
