# generated using pymatgen
data_HoB4Ru
_symmetry_space_group_name_H-M   'P 1'
_cell_length_a   5.94847844
_cell_length_b   11.50563451
_cell_length_c   3.54977532
_cell_angle_alpha   89.99969205
_cell_angle_beta   90.00005872
_cell_angle_gamma   90.00044461
_symmetry_Int_Tables_number   1
_chemical_formula_structural   HoB4Ru
_chemical_formula_sum   'Ho4 B16 Ru4'
_cell_volume   242.95023948
_cell_formula_units_Z   4
loop_
 _symmetry_equiv_pos_site_id
 _symmetry_equiv_pos_as_xyz
  1  'x, y, z'
loop_
 _atom_site_type_symbol
 _atom_site_label
 _atom_site_symmetry_multiplicity
 _atom_site_fract_x
 _atom_site_fract_y
 _atom_site_fract_z
 _atom_site_occupancy
  Ho  Ho0  1  0.12878505  0.14982877  0.00000436  1
  Ho  Ho1  1  0.87120665  0.85016926  -0.00000004  1
  Ho  Ho2  1  0.62879067  0.35015874  0.00000457  1
  Ho  Ho3  1  0.37121104  0.64983679  -0.00000141  1
  B  B4  1  0.47622202  0.19199779  0.49999779  1
  B  B5  1  0.52378626  0.80800416  0.50000270  1
  B  B6  1  0.97621948  0.30800066  0.49999866  1
  B  B7  1  0.02377672  0.69199900  0.50000137  1
  B  B8  1  0.28958170  0.31439134  0.49999684  1
  B  B9  1  0.71042102  0.68560985  0.50000134  1
  B  B10  1  0.78958299  0.18560843  0.49999756  1
  B  B11  1  0.21041238  0.81439270  0.50000265  1
  B  B12  1  0.36420640  0.46978217  0.50000140  1
  B  B13  1  0.63579400  0.53021693  0.49999911  1
  B  B14  1  0.86420490  0.03021933  0.49999735  1
  B  B15  1  0.13579354  0.96978281  0.49999765  1
  B  B16  1  0.38771096  0.04687582  0.50000047  1
  B  B17  1  0.61228999  0.95312668  0.49999875  1
  B  B18  1  0.88770831  0.45312584  0.49999949  1
  B  B19  1  0.11229319  0.54687508  0.50000194  1
  Ru  Ru20  1  0.14062196  0.40723393  0.99999085  1
  Ru  Ru21  1  0.85938686  0.59276254  -0.00000029  1
  Ru  Ru22  1  0.64062329  0.09276201  0.00000363  1
  Ru  Ru23  1  0.35937264  0.90723738  0.00000324  1
