# generated using pymatgen
data_Y3SbO7
_symmetry_space_group_name_H-M   'P 1'
_cell_length_a   6.49247204
_cell_length_b   6.49247204
_cell_length_c   7.54845483
_cell_angle_alpha   90.00000000
_cell_angle_beta   90.00000000
_cell_angle_gamma   109.50567476
_symmetry_Int_Tables_number   1
_chemical_formula_structural   Y3SbO7
_chemical_formula_sum   'Y6 Sb2 O14'
_cell_volume   299.92284969
_cell_formula_units_Z   2
loop_
 _symmetry_equiv_pos_site_id
 _symmetry_equiv_pos_as_xyz
  1  'x, y, z'
loop_
 _atom_site_type_symbol
 _atom_site_label
 _atom_site_symmetry_multiplicity
 _atom_site_fract_x
 _atom_site_fract_y
 _atom_site_fract_z
 _atom_site_occupancy
  Y  Y0  1  0.50000100  0.50000100  0.00000000  1
  Y  Y1  1  0.50000100  0.50000100  0.50000100  1
  Y  Y2  1  0.46832159  0.99978625  0.25000000  1
  Y  Y3  1  0.53167941  0.00021475  0.75000100  1
  Y  Y4  1  0.00021475  0.53167941  0.25000000  1
  Y  Y5  1  0.99978625  0.46832159  0.75000100  1
  Sb  Sb6  1  0.00000000  0.00000000  0.00000000  1
  Sb  Sb7  1  0.00000000  0.00000000  0.50000100  1
  O  O8  1  0.36318592  0.63681608  0.25000000  1
  O  O9  1  0.63681608  0.36318592  0.75000100  1
  O  O10  1  0.63041315  0.36958885  0.25000000  1
  O  O11  1  0.36958885  0.63041315  0.75000100  1
  O  O12  1  0.06975925  0.93024275  0.25000000  1
  O  O13  1  0.93024275  0.06975925  0.75000100  1
  O  O14  1  0.32201051  0.07285770  0.97024186  1
  O  O15  1  0.67798949  0.92714230  0.47024086  1
  O  O16  1  0.92714230  0.67798949  0.52976014  1
  O  O17  1  0.07285770  0.32201051  0.02976014  1
  O  O18  1  0.67798949  0.92714230  0.02976014  1
  O  O19  1  0.32201051  0.07285770  0.52976014  1
  O  O20  1  0.07285770  0.32201051  0.47024086  1
  O  O21  1  0.92714230  0.67798949  0.97024186  1
