# generated using pymatgen
data_Na3(Pt3O4)4
_symmetry_space_group_name_H-M   'P 1'
_cell_length_a   8.12459738
_cell_length_b   8.12459738
_cell_length_c   8.12459738
_cell_angle_alpha   60.00000000
_cell_angle_beta   60.00000000
_cell_angle_gamma   90.00000000
_symmetry_Int_Tables_number   1
_chemical_formula_structural   Na3(Pt3O4)4
_chemical_formula_sum   'Na3 Pt12 O16'
_cell_volume   379.21940024
_cell_formula_units_Z   1
loop_
 _symmetry_equiv_pos_site_id
 _symmetry_equiv_pos_as_xyz
  1  'x, y, z'
loop_
 _atom_site_type_symbol
 _atom_site_label
 _atom_site_symmetry_multiplicity
 _atom_site_fract_x
 _atom_site_fract_y
 _atom_site_fract_z
 _atom_site_occupancy
  Na  Na0  1  0.50000000  0.50000000  0.00000000  1
  Na  Na1  1  0.75000000  0.25000000  0.50000000  1
  Na  Na2  1  0.25000000  0.75000000  0.50000000  1
  Pt  Pt3  1  0.37222310  0.12477135  0.00000000  1
  Pt  Pt4  1  0.12477135  0.37222310  0.00000000  1
  Pt  Pt5  1  0.12477135  0.12477135  0.50300555  1
  Pt  Pt6  1  0.62777690  0.12477135  0.24745175  1
  Pt  Pt7  1  0.12477135  0.62777690  0.24745175  1
  Pt  Pt8  1  0.37222310  0.37222310  0.50300555  1
  Pt  Pt9  1  0.87522865  0.62777690  0.00000000  1
  Pt  Pt10  1  0.62777690  0.87522865  0.00000000  1
  Pt  Pt11  1  0.62777690  0.62777690  0.49699445  1
  Pt  Pt12  1  0.87522865  0.37222310  0.75254825  1
  Pt  Pt13  1  0.37222310  0.87522865  0.75254825  1
  Pt  Pt14  1  0.87522865  0.87522865  0.49699445  1
  O  O15  1  0.12654480  0.37551527  0.24897047  1
  O  O16  1  0.37551527  0.12654480  0.24897047  1
  O  O17  1  0.87060857  0.12939143  0.25878286  1
  O  O18  1  0.37551527  0.62448473  0.24897047  1
  O  O19  1  0.38817430  0.12939143  0.74121714  1
  O  O20  1  0.12939143  0.38817430  0.74121714  1
  O  O21  1  0.12939143  0.87060857  0.25878286  1
  O  O22  1  0.62448473  0.37551527  0.24897047  1
  O  O23  1  0.61182570  0.87060857  0.25878286  1
  O  O24  1  0.87060857  0.12939143  0.74121714  1
  O  O25  1  0.87060857  0.61182570  0.25878286  1
  O  O26  1  0.62448473  0.37551527  0.75102953  1
  O  O27  1  0.37551527  0.62448473  0.75102953  1
  O  O28  1  0.12939143  0.87060857  0.74121714  1
  O  O29  1  0.87345520  0.62448473  0.75102953  1
  O  O30  1  0.62448473  0.87345520  0.75102953  1
