# generated using pymatgen
data_TaGeRh
_symmetry_space_group_name_H-M   'P 1'
_cell_length_a   6.47274252
_cell_length_b   3.87219696
_cell_length_c   7.49737706
_cell_angle_alpha   90.00000000
_cell_angle_beta   90.00000000
_cell_angle_gamma   90.00000000
_symmetry_Int_Tables_number   1
_chemical_formula_structural   TaGeRh
_chemical_formula_sum   'Ta4 Ge4 Rh4'
_cell_volume   187.91226365
_cell_formula_units_Z   4
loop_
 _symmetry_equiv_pos_site_id
 _symmetry_equiv_pos_as_xyz
  1  'x, y, z'
loop_
 _atom_site_type_symbol
 _atom_site_label
 _atom_site_symmetry_multiplicity
 _atom_site_fract_x
 _atom_site_fract_y
 _atom_site_fract_z
 _atom_site_occupancy
  Ta  Ta0  1  0.52779858  0.75000000  0.17854452  1
  Ta  Ta1  1  0.02779858  0.75000000  0.32145548  1
  Ta  Ta2  1  0.97220242  0.25000000  0.67854352  1
  Ta  Ta3  1  0.47220242  0.25000000  0.82145548  1
  Ge  Ge4  1  0.24064066  0.25000000  0.12383230  1
  Ge  Ge5  1  0.74064166  0.25000000  0.37616770  1
  Ge  Ge6  1  0.25935934  0.75000000  0.62383230  1
  Ge  Ge7  1  0.75935834  0.75000000  0.87616770  1
  Rh  Rh8  1  0.85537809  0.25000000  0.06292077  1
  Rh  Rh9  1  0.35537909  0.25000000  0.43707923  1
  Rh  Rh10  1  0.64462091  0.75000000  0.56291977  1
  Rh  Rh11  1  0.14462091  0.75000000  0.93707923  1
