# generated using pymatgen
data_AgHO2
_symmetry_space_group_name_H-M   'P 1'
_cell_length_a   3.94592946
_cell_length_b   5.61308000
_cell_length_c   5.63124994
_cell_angle_alpha   82.15368458
_cell_angle_beta   70.45511081
_cell_angle_gamma   70.79172147
_symmetry_Int_Tables_number   1
_chemical_formula_structural   AgHO2
_chemical_formula_sum   'Ag2 H2 O4'
_cell_volume   110.94624507
_cell_formula_units_Z   2
loop_
 _symmetry_equiv_pos_site_id
 _symmetry_equiv_pos_as_xyz
  1  'x, y, z'
loop_
 _atom_site_type_symbol
 _atom_site_label
 _atom_site_symmetry_multiplicity
 _atom_site_fract_x
 _atom_site_fract_y
 _atom_site_fract_z
 _atom_site_occupancy
  Ag  Ag0  1  0.82341000  0.16889000  0.99309000  1
  Ag  Ag1  1  0.82319000  0.66908000  0.49369000  1
  H  H2  1  0.23908000  0.69752000  0.02209000  1
  H  H3  1  0.78995000  0.64226000  0.96647000  1
  O  O4  1  0.96152000  0.78408000  0.10892000  1
  O  O5  1  0.27145000  0.23708000  0.38584000  1
  O  O6  1  0.67622000  0.55555000  0.87996000  1
  O  O7  1  0.26857000  0.06059000  0.56089000  1
