# generated using pymatgen
data_K4Hf5O12
_symmetry_space_group_name_H-M   'P 1'
_cell_length_a   5.82457440
_cell_length_b   5.82459485
_cell_length_c   10.42041699
_cell_angle_alpha   89.99674363
_cell_angle_beta   90.00270965
_cell_angle_gamma   120.00196982
_symmetry_Int_Tables_number   1
_chemical_formula_structural   K4Hf5O12
_chemical_formula_sum   'K4 Hf5 O12'
_cell_volume   306.15194872
_cell_formula_units_Z   1
loop_
 _symmetry_equiv_pos_site_id
 _symmetry_equiv_pos_as_xyz
  1  'x, y, z'
loop_
 _atom_site_type_symbol
 _atom_site_label
 _atom_site_symmetry_multiplicity
 _atom_site_fract_x
 _atom_site_fract_y
 _atom_site_fract_z
 _atom_site_occupancy
  K  K0  1  0.99998543  0.00001748  0.32438549  1
  K  K1  1  0.00000254  0.00000593  0.67562543  1
  K  K2  1  0.33333701  0.66668575  0.11410943  1
  K  K3  1  0.66665396  0.33332338  0.88588871  1
  Hf  Hf4  1  0.33330503  0.66665383  0.47646388  1
  Hf  Hf5  1  0.66663534  0.33333103  0.52353520  1
  Hf  Hf6  1  0.00000348  0.00000107  0.00000067  1
  Hf  Hf7  1  0.33331812  0.66667958  0.78347333  1
  Hf  Hf8  1  0.66667957  0.33332400  0.21652509  1
  O  O9  1  0.83537460  0.16462370  0.12173035  1
  O  O10  1  0.83543534  0.67080639  0.12178014  1
  O  O11  1  0.32921462  0.16458934  0.12176241  1
  O  O12  1  0.67077980  0.83543128  0.87823755  1
  O  O13  1  0.16455577  0.32919862  0.87822198  1
  O  O14  1  0.16460213  0.83536386  0.87826524  1
  O  O15  1  0.50929880  0.49065223  0.37738749  1
  O  O16  1  0.50935098  0.01867882  0.37739688  1
  O  O17  1  0.98127365  0.49058347  0.37739810  1
  O  O18  1  0.01866350  0.50939276  0.62260134  1
  O  O19  1  0.49057509  0.98130585  0.62260426  1
  O  O20  1  0.49065323  0.50934663  0.62260803  1
