# generated using pymatgen
data_LuPt
_symmetry_space_group_name_H-M   'P 1'
_cell_length_a   4.40264653
_cell_length_b   6.91270101
_cell_length_c   5.53906793
_cell_angle_alpha   90.00000000
_cell_angle_beta   90.00000000
_cell_angle_gamma   90.00000000
_symmetry_Int_Tables_number   1
_chemical_formula_structural   LuPt
_chemical_formula_sum   'Lu4 Pt4'
_cell_volume   168.57698551
_cell_formula_units_Z   4
loop_
 _symmetry_equiv_pos_site_id
 _symmetry_equiv_pos_as_xyz
  1  'x, y, z'
loop_
 _atom_site_type_symbol
 _atom_site_label
 _atom_site_symmetry_multiplicity
 _atom_site_fract_x
 _atom_site_fract_y
 _atom_site_fract_z
 _atom_site_occupancy
  Lu  Lu0  1  0.75000000  0.81975518  0.35986192  1
  Lu  Lu1  1  0.25000000  0.18024482  0.64013808  1
  Lu  Lu2  1  0.25000000  0.68024482  0.85986192  1
  Lu  Lu3  1  0.75000000  0.31975518  0.14013808  1
  Pt  Pt4  1  0.75000000  0.95444580  0.84287644  1
  Pt  Pt5  1  0.25000000  0.04555420  0.15712356  1
  Pt  Pt6  1  0.25000000  0.54555420  0.34287644  1
  Pt  Pt7  1  0.75000000  0.45444580  0.65712356  1
