# generated using pymatgen
data_TbCBr
_symmetry_space_group_name_H-M   'P 1'
_cell_length_a   3.81332769
_cell_length_b   4.01977264
_cell_length_c   10.56500717
_cell_angle_alpha   98.49291016
_cell_angle_beta   90.00000000
_cell_angle_gamma   118.31517002
_symmetry_Int_Tables_number   1
_chemical_formula_structural   TbCBr
_chemical_formula_sum   'Tb2 C2 Br2'
_cell_volume   140.55063988
_cell_formula_units_Z   2
loop_
 _symmetry_equiv_pos_site_id
 _symmetry_equiv_pos_as_xyz
  1  'x, y, z'
loop_
 _atom_site_type_symbol
 _atom_site_label
 _atom_site_symmetry_multiplicity
 _atom_site_fract_x
 _atom_site_fract_y
 _atom_site_fract_z
 _atom_site_occupancy
  Tb  Tb0  1  0.59329940  0.18659879  0.86010628  1
  Tb  Tb1  1  0.40670060  0.81340121  0.13989372  1
  C  C2  1  0.91238920  0.82477840  0.96497903  1
  C  C3  1  0.08761080  0.17522160  0.03502097  1
  Br  Br4  1  0.79494325  0.58988650  0.32107931  1
  Br  Br5  1  0.20505675  0.41011350  0.67892069  1
