# generated using pymatgen
data_TlZnF3
_symmetry_space_group_name_H-M   'P 1'
_cell_length_a   4.19874582
_cell_length_b   4.19958052
_cell_length_c   4.20162991
_cell_angle_alpha   89.92060762
_cell_angle_beta   89.84039620
_cell_angle_gamma   89.98925783
_symmetry_Int_Tables_number   1
_chemical_formula_structural   TlZnF3
_chemical_formula_sum   'Tl1 Zn1 F3'
_cell_volume   74.08685915
_cell_formula_units_Z   1
loop_
 _symmetry_equiv_pos_site_id
 _symmetry_equiv_pos_as_xyz
  1  'x, y, z'
loop_
 _atom_site_type_symbol
 _atom_site_label
 _atom_site_symmetry_multiplicity
 _atom_site_fract_x
 _atom_site_fract_y
 _atom_site_fract_z
 _atom_site_occupancy
  Tl  Tl0  1  0.98937525  0.99894039  0.99626217  1
  Zn  Zn1  1  0.48770271  0.49976480  0.49724459  1
  F  F2  1  0.48689378  0.00005648  0.49728430  1
  F  F3  1  0.98761844  0.50160894  0.50128373  1
  F  F4  1  0.48841181  0.49962839  0.99793122  1
