# generated using pymatgen
data_Sr3Tb2(BO3)4
_symmetry_space_group_name_H-M   'P 1'
_cell_length_a   7.40603242
_cell_length_b   8.72203225
_cell_length_c   16.43287099
_cell_angle_alpha   90.00000000
_cell_angle_beta   90.00000000
_cell_angle_gamma   90.00000000
_symmetry_Int_Tables_number   1
_chemical_formula_structural   Sr3Tb2(BO3)4
_chemical_formula_sum   'Sr12 Tb8 B16 O48'
_cell_volume   1061.49204232
_cell_formula_units_Z   4
loop_
 _symmetry_equiv_pos_site_id
 _symmetry_equiv_pos_as_xyz
  1  'x, y, z'
loop_
 _atom_site_type_symbol
 _atom_site_label
 _atom_site_symmetry_multiplicity
 _atom_site_fract_x
 _atom_site_fract_y
 _atom_site_fract_z
 _atom_site_occupancy
  Sr  Sr0  1  0.02923856  0.33095908  0.45774409  1
  Sr  Sr1  1  0.97076144  0.66904092  0.95774409  1
  Sr  Sr2  1  0.52923856  0.16904092  0.45774409  1
  Sr  Sr3  1  0.47076144  0.83095908  0.95774409  1
  Sr  Sr4  1  0.17933241  0.84792232  0.41388168  1
  Sr  Sr5  1  0.82066759  0.15207768  0.91388168  1
  Sr  Sr6  1  0.67933241  0.65207768  0.41388168  1
  Sr  Sr7  1  0.32066759  0.34792232  0.91388168  1
  Sr  Sr8  1  0.31579081  0.35409600  0.66417545  1
  Sr  Sr9  1  0.68420919  0.64590400  0.16417545  1
  Sr  Sr10  1  0.81579081  0.14590400  0.66417545  1
  Sr  Sr11  1  0.18420919  0.85409600  0.16417545  1
  Tb  Tb12  1  0.31741555  0.46656903  0.28937261  1
  Tb  Tb13  1  0.68258445  0.53343097  0.78937261  1
  Tb  Tb14  1  0.81741555  0.03343097  0.28937261  1
  Tb  Tb15  1  0.18258445  0.96656903  0.78937261  1
  Tb  Tb16  1  0.02764010  0.32944740  0.11989673  1
  Tb  Tb17  1  0.97235990  0.67055260  0.61989673  1
  Tb  Tb18  1  0.52764010  0.17055260  0.11989673  1
  Tb  Tb19  1  0.47235990  0.82944740  0.61989673  1
  B  B20  1  0.16971568  0.06444108  0.99868973  1
  B  B21  1  0.83028432  0.93555892  0.49868973  1
  B  B22  1  0.66971568  0.43555892  0.99868973  1
  B  B23  1  0.33028432  0.56444108  0.49868973  1
  B  B24  1  0.00690365  0.37373318  0.78552442  1
  B  B25  1  0.99309635  0.62626682  0.28552442  1
  B  B26  1  0.50690365  0.12626682  0.78552442  1
  B  B27  1  0.49309635  0.87373318  0.28552442  1
  B  B28  1  0.16114516  0.04448122  0.58625015  1
  B  B29  1  0.83885484  0.95551878  0.08625015  1
  B  B30  1  0.66114516  0.45551878  0.58625015  1
  B  B31  1  0.33885484  0.54448122  0.08625015  1
  B  B32  1  0.21304100  0.15068787  0.28651520  1
  B  B33  1  0.78695900  0.84931213  0.78651520  1
  B  B34  1  0.71304100  0.34931213  0.28651520  1
  B  B35  1  0.28695900  0.65068787  0.78651520  1
  O  O36  1  0.23866284  0.22400604  0.21234504  1
  O  O37  1  0.76133716  0.77599396  0.71234504  1
  O  O38  1  0.73866284  0.27599396  0.21234504  1
  O  O39  1  0.26133716  0.72400604  0.71234504  1
  O  O40  1  0.09519199  0.19227893  0.58391364  1
  O  O41  1  0.90480801  0.80772107  0.08391364  1
  O  O42  1  0.59519199  0.30772107  0.58391364  1
  O  O43  1  0.40480801  0.69227893  0.08391364  1
  O  O44  1  0.08772977  0.20816789  0.00259837  1
  O  O45  1  0.91227023  0.79183211  0.50259837  1
  O  O46  1  0.58772977  0.29183211  0.00259837  1
  O  O47  1  0.41227023  0.70816789  0.50259837  1
  O  O48  1  0.12525571  0.01271075  0.29209213  1
  O  O49  1  0.87474429  0.98728925  0.79209213  1
  O  O50  1  0.62525571  0.48728925  0.29209213  1
  O  O51  1  0.37474429  0.51271075  0.79209213  1
  O  O52  1  0.19716453  0.49982552  0.03643641  1
  O  O53  1  0.80283547  0.50017448  0.53643641  1
  O  O54  1  0.69716453  0.00017448  0.03643641  1
  O  O55  1  0.30283547  0.99982552  0.53643641  1
  O  O56  1  0.11105893  0.24143526  0.78295791  1
  O  O57  1  0.88894107  0.75856474  0.28295791  1
  O  O58  1  0.61105893  0.25856474  0.78295791  1
  O  O59  1  0.38894107  0.74143526  0.28295791  1
  O  O60  1  0.04820407  0.54882145  0.21440812  1
  O  O61  1  0.95179593  0.45117855  0.71440812  1
  O  O62  1  0.54820407  0.95117855  0.21440812  1
  O  O63  1  0.45179593  0.04882145  0.71440812  1
  O  O64  1  0.27155794  0.22926198  0.35445215  1
  O  O65  1  0.72844206  0.77073802  0.85445215  1
  O  O66  1  0.77155794  0.27073802  0.35445215  1
  O  O67  1  0.22844206  0.72926198  0.85445215  1
  O  O68  1  0.38288708  0.46559122  0.43764545  1
  O  O69  1  0.61711292  0.53440878  0.93764545  1
  O  O70  1  0.88288708  0.03440878  0.43764545  1
  O  O71  1  0.11711292  0.96559122  0.93764545  1
  O  O72  1  0.41022806  0.43989180  0.14214765  1
  O  O73  1  0.58977194  0.56010820  0.64214765  1
  O  O74  1  0.91022806  0.06010820  0.14214765  1
  O  O75  1  0.08977194  0.93989180  0.64214765  1
  O  O76  1  0.30680878  0.03115932  0.05357065  1
  O  O77  1  0.69319122  0.96884068  0.55357065  1
  O  O78  1  0.80680878  0.46884068  0.05357065  1
  O  O79  1  0.19319122  0.53115932  0.55357065  1
  O  O80  1  0.06087680  0.57027924  0.35838243  1
  O  O81  1  0.93912320  0.42972076  0.85838243  1
  O  O82  1  0.56087680  0.92972076  0.35838243  1
  O  O83  1  0.43912320  0.07027924  0.85838243  1
