# generated using pymatgen
data_Lu2Fe2Si2C
_symmetry_space_group_name_H-M   'P 1'
_cell_length_a   3.87964468
_cell_length_b   5.56562760
_cell_length_c   5.54233923
_cell_angle_alpha   72.79350063
_cell_angle_beta   69.51264504
_cell_angle_gamma   69.60219519
_symmetry_Int_Tables_number   1
_chemical_formula_structural   Lu2Fe2Si2C
_chemical_formula_sum   'Lu2 Fe2 Si2 C1'
_cell_volume   102.99508457
_cell_formula_units_Z   1
loop_
 _symmetry_equiv_pos_site_id
 _symmetry_equiv_pos_as_xyz
  1  'x, y, z'
loop_
 _atom_site_type_symbol
 _atom_site_label
 _atom_site_symmetry_multiplicity
 _atom_site_fract_x
 _atom_site_fract_y
 _atom_site_fract_z
 _atom_site_occupancy
  Lu  Lu0  1  0.44083885  0.82662896  0.29169333  1
  Lu  Lu1  1  0.55916115  0.17337104  0.70830667  1
  Fe  Fe2  1  0.79666577  0.30727103  0.09939742  1
  Fe  Fe3  1  0.20333423  0.69272897  0.90060258  1
  Si  Si4  1  0.84292861  0.60637115  0.70777164  1
  Si  Si5  1  0.15707139  0.39362885  0.29222836  1
  C  C6  1  0.00000000  -0.00000000  -0.00000000  1
