# generated using pymatgen
data_MnAuO2
_symmetry_space_group_name_H-M   'P 1'
_cell_length_a   3.00625269
_cell_length_b   3.23004025
_cell_length_c   6.36137383
_cell_angle_alpha   102.10086736
_cell_angle_beta   89.99999810
_cell_angle_gamma   117.73342112
_symmetry_Int_Tables_number   1
_chemical_formula_structural   MnAuO2
_chemical_formula_sum   'Mn1 Au1 O2'
_cell_volume   53.11926669
_cell_formula_units_Z   1
loop_
 _symmetry_equiv_pos_site_id
 _symmetry_equiv_pos_as_xyz
  1  'x, y, z'
loop_
 _atom_site_type_symbol
 _atom_site_label
 _atom_site_symmetry_multiplicity
 _atom_site_fract_x
 _atom_site_fract_y
 _atom_site_fract_z
 _atom_site_occupancy
  Mn  Mn0  1  0.50000000  -0.00000000  0.50000000  1
  Au  Au1  1  0.00000000  -0.00000000  0.00000000  1
  O  O2  1  0.10001644  0.20003288  0.33531442  1
  O  O3  1  0.89998356  0.79996712  0.66468558  1
