# generated using pymatgen
data_MnTlF3
_symmetry_space_group_name_H-M   'P 1'
_cell_length_a   4.31536205
_cell_length_b   4.31642400
_cell_length_c   4.31674712
_cell_angle_alpha   90.17953323
_cell_angle_beta   89.63034457
_cell_angle_gamma   90.03238658
_symmetry_Int_Tables_number   1
_chemical_formula_structural   MnTlF3
_chemical_formula_sum   'Mn1 Tl1 F3'
_cell_volume   80.40567644
_cell_formula_units_Z   1
loop_
 _symmetry_equiv_pos_site_id
 _symmetry_equiv_pos_as_xyz
  1  'x, y, z'
loop_
 _atom_site_type_symbol
 _atom_site_label
 _atom_site_symmetry_multiplicity
 _atom_site_fract_x
 _atom_site_fract_y
 _atom_site_fract_z
 _atom_site_occupancy
  Mn  Mn0  1  0.51202126  0.49914678  0.50412811  1
  Tl  Tl1  1  0.00850186  0.99772270  0.00534603  1
  F  F2  1  0.51448126  0.99974234  0.50276145  1
  F  F3  1  0.01250427  0.50405751  0.49480899  1
  F  F4  1  0.51249334  0.49933067  0.00294943  1
