# generated using pymatgen
data_Ho2Re2Si2C
_symmetry_space_group_name_H-M   'P 1'
_cell_length_a   3.98349421
_cell_length_b   5.81395585
_cell_length_c   5.97049604
_cell_angle_alpha   71.80546835
_cell_angle_beta   70.51267842
_cell_angle_gamma   69.96583802
_symmetry_Int_Tables_number   1
_chemical_formula_structural   Ho2Re2Si2C
_chemical_formula_sum   'Ho2 Re2 Si2 C1'
_cell_volume   119.36847183
_cell_formula_units_Z   1
loop_
 _symmetry_equiv_pos_site_id
 _symmetry_equiv_pos_as_xyz
  1  'x, y, z'
loop_
 _atom_site_type_symbol
 _atom_site_label
 _atom_site_symmetry_multiplicity
 _atom_site_fract_x
 _atom_site_fract_y
 _atom_site_fract_z
 _atom_site_occupancy
  Ho  Ho0  1  0.42798945  0.84481578  0.29920533  1
  Ho  Ho1  1  0.57201055  0.15518422  0.70079467  1
  Re  Re2  1  0.79242059  0.32193150  0.09322732  1
  Re  Re3  1  0.20757941  0.67806850  0.90677268  1
  Si  Si4  1  0.85830560  0.60283227  0.68055654  1
  Si  Si5  1  0.14169440  0.39716773  0.31944346  1
  C  C6  1  -0.00000000  0.00000000  -0.00000000  1
