# generated using pymatgen
data_Dy2Mo2C3
_symmetry_space_group_name_H-M   'P 1'
_cell_length_a   3.35106251
_cell_length_b   5.73306674
_cell_length_c   6.11793294
_cell_angle_alpha   111.55537017
_cell_angle_beta   105.89481112
_cell_angle_gamma   90.00000000
_symmetry_Int_Tables_number   1
_chemical_formula_structural   Dy2Mo2C3
_chemical_formula_sum   'Dy2 Mo2 C3'
_cell_volume   104.46982083
_cell_formula_units_Z   1
loop_
 _symmetry_equiv_pos_site_id
 _symmetry_equiv_pos_as_xyz
  1  'x, y, z'
loop_
 _atom_site_type_symbol
 _atom_site_label
 _atom_site_symmetry_multiplicity
 _atom_site_fract_x
 _atom_site_fract_y
 _atom_site_fract_z
 _atom_site_occupancy
  Dy  Dy0  1  0.38970853  0.17494950  0.77941706  1
  Dy  Dy1  1  0.61029147  0.82505050  0.22058294  1
  Mo  Mo2  1  0.15702141  0.32653198  0.31404281  1
  Mo  Mo3  1  0.84297859  0.67346802  0.68595719  1
  C  C4  1  0.24903947  0.73356254  0.49807894  1
  C  C5  1  0.75096053  0.26643746  0.50192106  1
  C  C6  1  0.00000000  0.00000000  0.00000000  1
