# generated using pymatgen
data_Ba3(AlP2)2
_symmetry_space_group_name_H-M   'P 1'
_cell_length_a   7.37267091
_cell_length_b   11.66724848
_cell_length_c   11.70159274
_cell_angle_alpha   90.00000000
_cell_angle_beta   90.00000000
_cell_angle_gamma   90.00000000
_symmetry_Int_Tables_number   1
_chemical_formula_structural   Ba3(AlP2)2
_chemical_formula_sum   'Ba12 Al8 P16'
_cell_volume   1006.55677214
_cell_formula_units_Z   4
loop_
 _symmetry_equiv_pos_site_id
 _symmetry_equiv_pos_as_xyz
  1  'x, y, z'
loop_
 _atom_site_type_symbol
 _atom_site_label
 _atom_site_symmetry_multiplicity
 _atom_site_fract_x
 _atom_site_fract_y
 _atom_site_fract_z
 _atom_site_occupancy
  Ba  Ba0  1  0.57911284  0.07919486  0.35982622  1
  Ba  Ba1  1  0.07911284  0.42080514  0.14017378  1
  Ba  Ba2  1  0.42088716  0.57919486  0.64017378  1
  Ba  Ba3  1  0.92088716  0.92080514  0.85982622  1
  Ba  Ba4  1  0.42088716  0.92080514  0.64017378  1
  Ba  Ba5  1  0.92088716  0.57919486  0.85982622  1
  Ba  Ba6  1  0.57911284  0.42080514  0.35982622  1
  Ba  Ba7  1  0.07911284  0.07919486  0.14017378  1
  Ba  Ba8  1  0.59695398  0.25000000  0.73374948  1
  Ba  Ba9  1  0.09695398  0.25000000  0.76625052  1
  Ba  Ba10  1  0.40304602  0.75000000  0.26625052  1
  Ba  Ba11  1  0.90304602  0.75000000  0.23374948  1
  Al  Al12  1  0.55851407  0.12498362  0.03568531  1
  Al  Al13  1  0.05851407  0.37501638  0.46431469  1
  Al  Al14  1  0.44148593  0.62498362  0.96431469  1
  Al  Al15  1  0.94148593  0.87501638  0.53568531  1
  Al  Al16  1  0.44148593  0.87501638  0.96431469  1
  Al  Al17  1  0.94148593  0.62498362  0.53568531  1
  Al  Al18  1  0.55851407  0.37501638  0.03568531  1
  Al  Al19  1  0.05851407  0.12498362  0.46431469  1
  P  P20  1  0.65356971  0.55654221  0.11233226  1
  P  P21  1  0.15356971  0.94345779  0.38766774  1
  P  P22  1  0.34643029  0.05654221  0.88766774  1
  P  P23  1  0.84643029  0.44345779  0.61233226  1
  P  P24  1  0.34643029  0.44345779  0.88766774  1
  P  P25  1  0.84643029  0.05654221  0.61233226  1
  P  P26  1  0.65356971  0.94345779  0.11233226  1
  P  P27  1  0.15356971  0.55654221  0.38766774  1
  P  P28  1  0.80605419  0.25000000  0.97237751  1
  P  P29  1  0.30605419  0.25000000  0.52762249  1
  P  P30  1  0.19394581  0.75000000  0.02762249  1
  P  P31  1  0.69394581  0.75000000  0.47237751  1
  P  P32  1  0.91101104  0.25000000  0.33187609  1
  P  P33  1  0.41101104  0.25000000  0.16812391  1
  P  P34  1  0.08898896  0.75000000  0.66812391  1
  P  P35  1  0.58898896  0.75000000  0.83187609  1
