# generated using pymatgen
data_La2Fe2Si2C
_symmetry_space_group_name_H-M   'P 1'
_cell_length_a   4.02093791
_cell_length_b   5.84007614
_cell_length_c   6.09117264
_cell_angle_alpha   73.16400627
_cell_angle_beta   70.72741812
_cell_angle_gamma   69.86374258
_symmetry_Int_Tables_number   1
_chemical_formula_structural   La2Fe2Si2C
_chemical_formula_sum   'La2 Fe2 Si2 C1'
_cell_volume   124.24262237
_cell_formula_units_Z   1
loop_
 _symmetry_equiv_pos_site_id
 _symmetry_equiv_pos_as_xyz
  1  'x, y, z'
loop_
 _atom_site_type_symbol
 _atom_site_label
 _atom_site_symmetry_multiplicity
 _atom_site_fract_x
 _atom_site_fract_y
 _atom_site_fract_z
 _atom_site_occupancy
  La  La0  1  0.44348554  0.81035837  0.30267055  1
  La  La1  1  0.55651446  0.18964163  0.69732945  1
  Fe  Fe2  1  0.80912215  0.29986575  0.08188994  1
  Fe  Fe3  1  0.19087785  0.70013425  0.91811006  1
  Si  Si4  1  0.81248050  0.61976438  0.75527461  1
  Si  Si5  1  0.18751950  0.38023562  0.24472539  1
  C  C6  1  -0.00000000  -0.00000000  -0.00000000  1
