# generated using pymatgen
data_Mg14AlZnO16
_symmetry_space_group_name_H-M   'P 1'
_cell_length_a   8.57034178
_cell_length_b   8.59163134
_cell_length_c   4.26162950
_cell_angle_alpha   90.00000000
_cell_angle_beta   90.00000000
_cell_angle_gamma   90.00000000
_symmetry_Int_Tables_number   1
_chemical_formula_structural   Mg14AlZnO16
_chemical_formula_sum   'Mg14 Al1 Zn1 O16'
_cell_volume   313.79748988
_cell_formula_units_Z   1
loop_
 _symmetry_equiv_pos_site_id
 _symmetry_equiv_pos_as_xyz
  1  'x, y, z'
loop_
 _atom_site_type_symbol
 _atom_site_label
 _atom_site_symmetry_multiplicity
 _atom_site_fract_x
 _atom_site_fract_y
 _atom_site_fract_z
 _atom_site_occupancy
  Mg  Mg0  1  0.50000000  0.00000000  -0.00000000  1
  Mg  Mg1  1  0.50000000  0.50000000  -0.00000000  1
  Mg  Mg2  1  -0.00000000  0.25191372  0.50000000  1
  Mg  Mg3  1  -0.00000000  0.74808628  0.50000000  1
  Mg  Mg4  1  0.50000000  0.25183982  0.50000000  1
  Mg  Mg5  1  0.50000000  0.74816018  0.50000000  1
  Mg  Mg6  1  0.25031393  -0.00000000  0.50000000  1
  Mg  Mg7  1  0.25044341  0.50000000  0.50000000  1
  Mg  Mg8  1  0.74968607  -0.00000000  0.50000000  1
  Mg  Mg9  1  0.74955659  0.50000000  0.50000000  1
  Mg  Mg10  1  0.25000771  0.25293551  -0.00000000  1
  Mg  Mg11  1  0.25000771  0.74706449  0.00000000  1
  Mg  Mg12  1  0.74999229  0.25293551  -0.00000000  1
  Mg  Mg13  1  0.74999229  0.74706449  0.00000000  1
  Al  Al14  1  -0.00000000  0.00000000  -0.00000000  1
  Zn  Zn15  1  -0.00000000  0.50000000  -0.00000000  1
  O  O16  1  0.23671979  -0.00000000  0.00000000  1
  O  O17  1  0.26422658  0.50000000  0.00000000  1
  O  O18  1  0.76328021  0.00000000  0.00000000  1
  O  O19  1  0.73577342  0.50000000  0.00000000  1
  O  O20  1  0.24947242  0.24905447  0.50000000  1
  O  O21  1  0.24947242  0.75094553  0.50000000  1
  O  O22  1  0.75052758  0.24905447  0.50000000  1
  O  O23  1  0.75052758  0.75094553  0.50000000  1
  O  O24  1  -0.00000000  -0.00000000  0.50000000  1
  O  O25  1  -0.00000000  0.50000000  0.50000000  1
  O  O26  1  0.50000000  -0.00000000  0.50000000  1
  O  O27  1  0.50000000  0.50000000  0.50000000  1
  O  O28  1  -0.00000000  0.21553448  -0.00000000  1
  O  O29  1  -0.00000000  0.78446552  0.00000000  1
  O  O30  1  0.50000000  0.24397249  -0.00000000  1
  O  O31  1  0.50000000  0.75602751  -0.00000000  1
