# generated using pymatgen
data_SmGe2Pt
_symmetry_space_group_name_H-M   'P 1'
_cell_length_a   4.41211421
_cell_length_b   8.81404924
_cell_length_c   9.61045482
_cell_angle_alpha   117.29459126
_cell_angle_beta   103.27044020
_cell_angle_gamma   90.00000000
_symmetry_Int_Tables_number   1
_chemical_formula_structural   SmGe2Pt
_chemical_formula_sum   'Sm4 Ge8 Pt4'
_cell_volume   320.85395111
_cell_formula_units_Z   4
loop_
 _symmetry_equiv_pos_site_id
 _symmetry_equiv_pos_as_xyz
  1  'x, y, z'
loop_
 _atom_site_type_symbol
 _atom_site_label
 _atom_site_symmetry_multiplicity
 _atom_site_fract_x
 _atom_site_fract_y
 _atom_site_fract_z
 _atom_site_occupancy
  Sm  Sm0  1  -0.00000000  0.24124280  -0.00000000  1
  Sm  Sm1  1  -0.00000000  0.75875720  -0.00000000  1
  Sm  Sm2  1  0.20287359  0.20287359  0.40574618  1
  Sm  Sm3  1  0.79712741  0.79712741  0.59425382  1
  Ge  Ge4  1  0.57426100  0.07426000  0.14852100  1
  Ge  Ge5  1  0.57433222  0.57433122  0.14866244  1
  Ge  Ge6  1  0.19800244  0.54775982  0.39600387  1
  Ge  Ge7  1  0.19800244  0.84824306  0.39600387  1
  Ge  Ge8  1  0.80199956  0.15175594  0.60399613  1
  Ge  Ge9  1  0.80199956  0.45224018  0.60399613  1
  Ge  Ge10  1  0.42566878  0.42566878  0.85133756  1
  Ge  Ge11  1  0.42574000  0.92574000  0.85148000  1
  Pt  Pt12  1  0.64891918  0.40011239  0.29783635  1
  Pt  Pt13  1  0.64891918  0.89772497  0.29783635  1
  Pt  Pt14  1  0.35108182  0.10227603  0.70216465  1
  Pt  Pt15  1  0.35108182  0.59988861  0.70216465  1
