# generated using pymatgen
data_Pr2Re2Si2C
_symmetry_space_group_name_H-M   'P 1'
_cell_length_a   4.09092207
_cell_length_b   5.98052744
_cell_length_c   6.17066534
_cell_angle_alpha   73.05843513
_cell_angle_beta   70.64128237
_cell_angle_gamma   69.99999807
_symmetry_Int_Tables_number   1
_chemical_formula_structural   Pr2Re2Si2C
_chemical_formula_sum   'Pr2 Re2 Si2 C1'
_cell_volume   131.11904652
_cell_formula_units_Z   1
loop_
 _symmetry_equiv_pos_site_id
 _symmetry_equiv_pos_as_xyz
  1  'x, y, z'
loop_
 _atom_site_type_symbol
 _atom_site_label
 _atom_site_symmetry_multiplicity
 _atom_site_fract_x
 _atom_site_fract_y
 _atom_site_fract_z
 _atom_site_occupancy
  Pr  Pr0  1  0.42881084  0.83771427  0.30466405  1
  Pr  Pr1  1  0.57118916  0.16228573  0.69533595  1
  Re  Re2  1  0.79697644  0.31878629  0.08726084  1
  Re  Re3  1  0.20302356  0.68121371  0.91273916  1
  Si  Si4  1  0.84763289  0.60127308  0.70346114  1
  Si  Si5  1  0.15236711  0.39872692  0.29653886  1
  C  C6  1  0.00000000  -0.00000000  0.00000000  1
