# generated using pymatgen
data_RbAgCl3
_symmetry_space_group_name_H-M   'P 1'
_cell_length_a   5.16547509
_cell_length_b   5.16709633
_cell_length_c   5.16928331
_cell_angle_alpha   90.06324242
_cell_angle_beta   89.97804692
_cell_angle_gamma   90.04440996
_symmetry_Int_Tables_number   1
_chemical_formula_structural   RbAgCl3
_chemical_formula_sum   'Rb1 Ag1 Cl3'
_cell_volume   137.97065904
_cell_formula_units_Z   1
loop_
 _symmetry_equiv_pos_site_id
 _symmetry_equiv_pos_as_xyz
  1  'x, y, z'
loop_
 _atom_site_type_symbol
 _atom_site_label
 _atom_site_symmetry_multiplicity
 _atom_site_fract_x
 _atom_site_fract_y
 _atom_site_fract_z
 _atom_site_occupancy
  Rb  Rb0  1  0.99987506  0.00006796  0.99499491  1
  Ag  Ag1  1  0.49965931  0.49666383  0.48556563  1
  Cl  Cl2  1  0.99969183  0.49450515  0.48554719  1
  Cl  Cl3  1  0.50238300  0.50202458  0.98559032  1
  Cl  Cl4  1  0.49838881  0.99674049  0.48830295  1
