# generated using pymatgen
data_SrMg30SnO32
_symmetry_space_group_name_H-M   'P 1'
_cell_length_a   8.66833877
_cell_length_b   8.67618227
_cell_length_c   8.67618227
_cell_angle_alpha   90.00000000
_cell_angle_beta   90.00000000
_cell_angle_gamma   90.00000000
_symmetry_Int_Tables_number   1
_chemical_formula_structural   SrMg30SnO32
_chemical_formula_sum   'Sr1 Mg30 Sn1 O32'
_cell_volume   652.51907226
_cell_formula_units_Z   1
loop_
 _symmetry_equiv_pos_site_id
 _symmetry_equiv_pos_as_xyz
  1  'x, y, z'
loop_
 _atom_site_type_symbol
 _atom_site_label
 _atom_site_symmetry_multiplicity
 _atom_site_fract_x
 _atom_site_fract_y
 _atom_site_fract_z
 _atom_site_occupancy
  Sr  Sr0  1  0.00000000  0.50000000  0.50000000  1
  Mg  Mg1  1  0.00000000  -0.00000000  0.50000000  1
  Mg  Mg2  1  0.00000000  0.50000000  -0.00000000  1
  Mg  Mg3  1  0.50000000  -0.00000000  -0.00000000  1
  Mg  Mg4  1  0.50000000  -0.00000000  0.50000000  1
  Mg  Mg5  1  0.50000000  0.50000000  -0.00000000  1
  Mg  Mg6  1  0.50000000  0.50000000  0.50000000  1
  Mg  Mg7  1  0.00000000  0.24934152  0.24934152  1
  Mg  Mg8  1  0.00000000  0.24934152  0.75065848  1
  Mg  Mg9  1  0.00000000  0.75065848  0.24934152  1
  Mg  Mg10  1  0.00000000  0.75065848  0.75065848  1
  Mg  Mg11  1  0.50000000  0.24997387  0.24997387  1
  Mg  Mg12  1  0.50000000  0.24997387  0.75002613  1
  Mg  Mg13  1  0.50000000  0.75002613  0.24997387  1
  Mg  Mg14  1  0.50000000  0.75002613  0.75002613  1
  Mg  Mg15  1  0.25460515  -0.00000000  0.25409102  1
  Mg  Mg16  1  0.25460515  -0.00000000  0.74590898  1
  Mg  Mg17  1  0.25524415  0.50000000  0.24519943  1
  Mg  Mg18  1  0.25524415  0.50000000  0.75480057  1
  Mg  Mg19  1  0.74539485  -0.00000000  0.25409102  1
  Mg  Mg20  1  0.74539485  -0.00000000  0.74590898  1
  Mg  Mg21  1  0.74475585  0.50000000  0.24519943  1
  Mg  Mg22  1  0.74475585  0.50000000  0.75480057  1
  Mg  Mg23  1  0.25460515  0.25409102  -0.00000000  1
  Mg  Mg24  1  0.25524415  0.24519943  0.50000000  1
  Mg  Mg25  1  0.25460515  0.74590898  -0.00000000  1
  Mg  Mg26  1  0.25524415  0.75480057  0.50000000  1
  Mg  Mg27  1  0.74539485  0.25409102  -0.00000000  1
  Mg  Mg28  1  0.74475585  0.24519943  0.50000000  1
  Mg  Mg29  1  0.74539485  0.74590898  -0.00000000  1
  Mg  Mg30  1  0.74475585  0.75480057  0.50000000  1
  Sn  Sn31  1  0.00000000  -0.00000000  -0.00000000  1
  O  O32  1  0.27002305  -0.00000000  -0.00000000  1
  O  O33  1  0.25665322  -0.00000000  0.50000000  1
  O  O34  1  0.25665322  0.50000000  -0.00000000  1
  O  O35  1  0.27030010  0.50000000  0.50000000  1
  O  O36  1  0.72997695  -0.00000000  -0.00000000  1
  O  O37  1  0.74334678  -0.00000000  0.50000000  1
  O  O38  1  0.74334678  0.50000000  -0.00000000  1
  O  O39  1  0.72969990  0.50000000  0.50000000  1
  O  O40  1  0.24943079  0.24990085  0.24990085  1
  O  O41  1  0.24943079  0.24990085  0.75009915  1
  O  O42  1  0.24943079  0.75009915  0.24990085  1
  O  O43  1  0.24943079  0.75009915  0.75009915  1
  O  O44  1  0.75056921  0.24990085  0.24990085  1
  O  O45  1  0.75056921  0.24990085  0.75009915  1
  O  O46  1  0.75056921  0.75009915  0.24990085  1
  O  O47  1  0.75056921  0.75009915  0.75009915  1
  O  O48  1  0.00000000  -0.00000000  0.26724506  1
  O  O49  1  0.00000000  -0.00000000  0.73275494  1
  O  O50  1  0.00000000  0.50000000  0.23193501  1
  O  O51  1  0.00000000  0.50000000  0.76806499  1
  O  O52  1  0.50000000  -0.00000000  0.25260860  1
  O  O53  1  0.50000000  -0.00000000  0.74739140  1
  O  O54  1  0.50000000  0.50000000  0.24702533  1
  O  O55  1  0.50000000  0.50000000  0.75297467  1
  O  O56  1  0.00000000  0.26724506  -0.00000000  1
  O  O57  1  0.00000000  0.23193501  0.50000000  1
  O  O58  1  0.00000000  0.73275494  -0.00000000  1
  O  O59  1  0.00000000  0.76806499  0.50000000  1
  O  O60  1  0.50000000  0.25260860  -0.00000000  1
  O  O61  1  0.50000000  0.24702533  0.50000000  1
  O  O62  1  0.50000000  0.74739140  -0.00000000  1
  O  O63  1  0.50000000  0.75297467  0.50000000  1
