# generated using pymatgen
data_YPt
_symmetry_space_group_name_H-M   'P 1'
_cell_length_a   4.55419316
_cell_length_b   7.05735457
_cell_length_c   5.59438724
_cell_angle_alpha   90.00000000
_cell_angle_beta   90.00000000
_cell_angle_gamma   90.00000000
_symmetry_Int_Tables_number   1
_chemical_formula_structural   YPt
_chemical_formula_sum   'Y4 Pt4'
_cell_volume   179.80671587
_cell_formula_units_Z   4
loop_
 _symmetry_equiv_pos_site_id
 _symmetry_equiv_pos_as_xyz
  1  'x, y, z'
loop_
 _atom_site_type_symbol
 _atom_site_label
 _atom_site_symmetry_multiplicity
 _atom_site_fract_x
 _atom_site_fract_y
 _atom_site_fract_z
 _atom_site_occupancy
  Y  Y0  1  0.75000000  0.81871566  0.35957012  1
  Y  Y1  1  0.25000000  0.18128434  0.64042988  1
  Y  Y2  1  0.25000000  0.68128434  0.85957012  1
  Y  Y3  1  0.75000000  0.31871566  0.14042988  1
  Pt  Pt4  1  0.75000000  0.95709107  0.84735334  1
  Pt  Pt5  1  0.25000000  0.04290893  0.15264666  1
  Pt  Pt6  1  0.25000000  0.54290893  0.34735334  1
  Pt  Pt7  1  0.75000000  0.45709107  0.65264666  1
