# generated using pymatgen
data_KMn2O4
_symmetry_space_group_name_H-M   'P 1'
_cell_length_a   3.05228648
_cell_length_b   5.16178131
_cell_length_c   6.57268169
_cell_angle_alpha   105.17220718
_cell_angle_beta   91.27970730
_cell_angle_gamma   93.30093486
_symmetry_Int_Tables_number   1
_chemical_formula_structural   KMn2O4
_chemical_formula_sum   'K1 Mn2 O4'
_cell_volume   99.70359219
_cell_formula_units_Z   1
loop_
 _symmetry_equiv_pos_site_id
 _symmetry_equiv_pos_as_xyz
  1  'x, y, z'
loop_
 _atom_site_type_symbol
 _atom_site_label
 _atom_site_symmetry_multiplicity
 _atom_site_fract_x
 _atom_site_fract_y
 _atom_site_fract_z
 _atom_site_occupancy
  K  K0  1  0.50000483  0.99996120  0.49997967  1
  Mn  Mn1  1  0.99999418  0.00003508  -0.00000806  1
  Mn  Mn2  1  0.49998324  0.49999206  0.00000855  1
  O  O3  1  0.47588457  0.79106617  0.84493127  1
  O  O4  1  0.03398222  0.26054607  0.83626287  1
  O  O5  1  0.96606470  0.73949548  0.16378649  1
  O  O6  1  0.52408627  0.20891894  0.15505520  1
