# generated using pymatgen
data_Cs2Li5(BO2)7
_symmetry_space_group_name_H-M   'P 1'
_cell_length_a   4.47237822
_cell_length_b   7.26799490
_cell_length_c   21.61578564
_cell_angle_alpha   90.00000000
_cell_angle_beta   90.00000000
_cell_angle_gamma   107.91924365
_symmetry_Int_Tables_number   1
_chemical_formula_structural   Cs2Li5(BO2)7
_chemical_formula_sum   'Cs4 Li10 B14 O28'
_cell_volume   668.54231710
_cell_formula_units_Z   2
loop_
 _symmetry_equiv_pos_site_id
 _symmetry_equiv_pos_as_xyz
  1  'x, y, z'
loop_
 _atom_site_type_symbol
 _atom_site_label
 _atom_site_symmetry_multiplicity
 _atom_site_fract_x
 _atom_site_fract_y
 _atom_site_fract_z
 _atom_site_occupancy
  Cs  Cs0  1  0.26530453  0.43502341  0.15288898  1
  Cs  Cs1  1  0.83028112  0.56497659  0.84711102  1
  Cs  Cs2  1  0.26530453  0.43502341  0.34711102  1
  Cs  Cs3  1  0.83028112  0.56497659  0.65288898  1
  Li  Li4  1  0.91702885  0.73040781  0.25000000  1
  Li  Li5  1  0.18662104  0.26959219  0.75000000  1
  Li  Li6  1  0.56491062  0.97843872  0.06188505  1
  Li  Li7  1  0.58647090  0.02156128  0.93811495  1
  Li  Li8  1  0.56491062  0.97843872  0.43811495  1
  Li  Li9  1  0.58647090  0.02156128  0.56188505  1
  Li  Li10  1  0.16138923  0.16965918  0.00668851  1
  Li  Li11  1  0.99173005  0.83034082  0.99331149  1
  Li  Li12  1  0.16138923  0.16965918  0.49331149  1
  Li  Li13  1  0.99173005  0.83034082  0.50668851  1
  B  B14  1  0.00312578  0.90738481  0.12831683  1
  B  B15  1  0.09574097  0.09261519  0.87168317  1
  B  B16  1  0.00312578  0.90738481  0.37168317  1
  B  B17  1  0.09574097  0.09261519  0.62831683  1
  B  B18  1  0.51613490  0.93188986  0.19158495  1
  B  B19  1  0.58424504  0.06811014  0.80841505  1
  B  B20  1  0.51613490  0.93188986  0.30841505  1
  B  B21  1  0.58424504  0.06811014  0.69158495  1
  B  B22  1  0.75387842  0.39943703  0.00437465  1
  B  B23  1  0.35444039  0.60056297  0.99562535  1
  B  B24  1  0.75387842  0.39943703  0.49562535  1
  B  B25  1  0.35444039  0.60056297  0.50437465  1
  B  B26  1  0.67473397  0.24961458  0.25000000  1
  B  B27  1  0.42511939  0.75038542  0.75000000  1
  O  O28  1  0.77508630  0.44543743  0.25000000  1
  O  O29  1  0.32964987  0.55456257  0.75000000  1
  O  O30  1  0.62275951  0.14666691  0.19408543  1
  O  O31  1  0.47609260  0.85333309  0.80591457  1
  O  O32  1  0.62275951  0.14666691  0.30591457  1
  O  O33  1  0.47609260  0.85333309  0.69408543  1
  O  O34  1  0.02146039  0.56325120  0.99656106  1
  O  O35  1  0.45820919  0.43674880  0.00343894  1
  O  O36  1  0.02146039  0.56325120  0.50343894  1
  O  O37  1  0.45820919  0.43674880  0.49656106  1
  O  O38  1  0.57081004  0.84436021  0.25000000  1
  O  O39  1  0.72644883  0.15563979  0.75000000  1
  O  O40  1  0.75582575  0.21936441  0.01164893  1
  O  O41  1  0.53646135  0.78063559  0.98835107  1
  O  O42  1  0.75582575  0.21936441  0.48835107  1
  O  O43  1  0.53646135  0.78063559  0.51164893  1
  O  O44  1  0.12726665  0.97194285  0.07194715  1
  O  O45  1  0.15532380  0.02805715  0.92805285  1
  O  O46  1  0.12726665  0.97194285  0.42805285  1
  O  O47  1  0.15532380  0.02805715  0.57194715  1
  O  O48  1  0.16906829  0.86240964  0.17765781  1
  O  O49  1  0.30665866  0.13759036  0.82234219  1
  O  O50  1  0.16906829  0.86240964  0.32234219  1
  O  O51  1  0.30665866  0.13759036  0.67765781  1
  O  O52  1  0.67935494  0.87397518  0.13780733  1
  O  O53  1  0.80537976  0.12602482  0.86219267  1
  O  O54  1  0.67935494  0.87397518  0.36219267  1
  O  O55  1  0.80537976  0.12602482  0.63780733  1
