# generated using pymatgen
data_Sm2(Ga3Co)3
_symmetry_space_group_name_H-M   'P 1'
_cell_length_a   7.40643606
_cell_length_b   7.40643606
_cell_length_c   9.50859887
_cell_angle_alpha   90.00000000
_cell_angle_beta   90.00000000
_cell_angle_gamma   119.63084871
_symmetry_Int_Tables_number   1
_chemical_formula_structural   Sm2(Ga3Co)3
_chemical_formula_sum   'Sm4 Ga18 Co6'
_cell_volume   453.38716347
_cell_formula_units_Z   2
loop_
 _symmetry_equiv_pos_site_id
 _symmetry_equiv_pos_as_xyz
  1  'x, y, z'
loop_
 _atom_site_type_symbol
 _atom_site_label
 _atom_site_symmetry_multiplicity
 _atom_site_fract_x
 _atom_site_fract_y
 _atom_site_fract_z
 _atom_site_occupancy
  Sm  Sm0  1  0.33125357  0.00300533  0.25000000  1
  Sm  Sm1  1  0.66874843  0.99699567  0.75000000  1
  Sm  Sm2  1  0.99699567  0.66874843  0.75000000  1
  Sm  Sm3  1  0.00300533  0.33125357  0.25000000  1
  Ga  Ga4  1  0.45124322  0.66313751  0.25000000  1
  Ga  Ga5  1  0.54875778  0.33686349  0.75000000  1
  Ga  Ga6  1  0.33686349  0.54875778  0.75000000  1
  Ga  Ga7  1  0.66313751  0.45124322  0.25000000  1
  Ga  Ga8  1  0.12339428  0.12339428  0.75000000  1
  Ga  Ga9  1  0.87660672  0.87660672  0.25000000  1
  Ga  Ga10  1  0.66537328  0.66537328  0.55526375  1
  Ga  Ga11  1  0.33462672  0.33462672  0.05526275  1
  Ga  Ga12  1  0.33462672  0.33462672  0.44473725  1
  Ga  Ga13  1  0.66537328  0.66537328  0.94473825  1
  Ga  Ga14  1  0.33441578  0.00186864  0.57119550  1
  Ga  Ga15  1  0.66558422  0.99813136  0.07119550  1
  Ga  Ga16  1  0.99813136  0.66558422  0.42880550  1
  Ga  Ga17  1  0.00186864  0.33441578  0.92880450  1
  Ga  Ga18  1  0.66558422  0.99813136  0.42880550  1
  Ga  Ga19  1  0.33441578  0.00186864  0.92880450  1
  Ga  Ga20  1  0.00186864  0.33441578  0.57119550  1
  Ga  Ga21  1  0.99813136  0.66558422  0.07119550  1
  Co  Co22  1  0.00000000  0.00000000  0.50000100  1
  Co  Co23  1  0.00000000  0.00000000  -0.00000000  1
  Co  Co24  1  0.32926572  0.67073428  0.50000100  1
  Co  Co25  1  0.67073428  0.32926572  -0.00000000  1
  Co  Co26  1  0.67073428  0.32926572  0.50000100  1
  Co  Co27  1  0.32926572  0.67073428  -0.00000000  1
