# generated using pymatgen
data_LaSi2Ag
_symmetry_space_group_name_H-M   'P 1'
_cell_length_a   4.28378411
_cell_length_b   4.36208108
_cell_length_c   9.09501322
_cell_angle_alpha   103.87510229
_cell_angle_beta   90.00000000
_cell_angle_gamma   90.00000000
_symmetry_Int_Tables_number   1
_chemical_formula_structural   LaSi2Ag
_chemical_formula_sum   'La2 Si4 Ag2'
_cell_volume   164.99231179
_cell_formula_units_Z   2
loop_
 _symmetry_equiv_pos_site_id
 _symmetry_equiv_pos_as_xyz
  1  'x, y, z'
loop_
 _atom_site_type_symbol
 _atom_site_label
 _atom_site_symmetry_multiplicity
 _atom_site_fract_x
 _atom_site_fract_y
 _atom_site_fract_z
 _atom_site_occupancy
  La  La0  1  0.25000000  0.40190926  0.80381852  1
  La  La1  1  0.75000000  0.59809074  0.19618148  1
  Si  Si2  1  0.25000000  0.03265483  0.06530966  1
  Si  Si3  1  0.75000000  0.96734517  0.93469034  1
  Si  Si4  1  0.25000000  0.16551571  0.33103142  1
  Si  Si5  1  0.75000000  0.83448429  0.66896858  1
  Ag  Ag6  1  0.25000000  0.74805586  0.49611172  1
  Ag  Ag7  1  0.75000000  0.25194414  0.50388828  1
