# generated using pymatgen
data_TmPt
_symmetry_space_group_name_H-M   'P 1'
_cell_length_a   4.42250479
_cell_length_b   6.97508087
_cell_length_c   5.57786118
_cell_angle_alpha   90.00000000
_cell_angle_beta   90.00000000
_cell_angle_gamma   90.00000000
_symmetry_Int_Tables_number   1
_chemical_formula_structural   TmPt
_chemical_formula_sum   'Tm4 Pt4'
_cell_volume   172.06211647
_cell_formula_units_Z   4
loop_
 _symmetry_equiv_pos_site_id
 _symmetry_equiv_pos_as_xyz
  1  'x, y, z'
loop_
 _atom_site_type_symbol
 _atom_site_label
 _atom_site_symmetry_multiplicity
 _atom_site_fract_x
 _atom_site_fract_y
 _atom_site_fract_z
 _atom_site_occupancy
  Tm  Tm0  1  0.75000000  0.81902577  0.35835050  1
  Tm  Tm1  1  0.25000000  0.18097423  0.64164950  1
  Tm  Tm2  1  0.25000000  0.68097423  0.85835050  1
  Tm  Tm3  1  0.75000000  0.31902577  0.14164950  1
  Pt  Pt4  1  0.75000000  0.95528305  0.84247856  1
  Pt  Pt5  1  0.25000000  0.04471695  0.15752144  1
  Pt  Pt6  1  0.25000000  0.54471695  0.34247856  1
  Pt  Pt7  1  0.75000000  0.45528305  0.65752144  1
