# generated using pymatgen
data_NdSi2Rh
_symmetry_space_group_name_H-M   'P 1'
_cell_length_a   4.22250307
_cell_length_b   4.26774469
_cell_length_c   8.63534812
_cell_angle_alpha   104.30650409
_cell_angle_beta   90.00000000
_cell_angle_gamma   90.00000000
_symmetry_Int_Tables_number   1
_chemical_formula_structural   NdSi2Rh
_chemical_formula_sum   'Nd2 Si4 Rh2'
_cell_volume   150.78790705
_cell_formula_units_Z   2
loop_
 _symmetry_equiv_pos_site_id
 _symmetry_equiv_pos_as_xyz
  1  'x, y, z'
loop_
 _atom_site_type_symbol
 _atom_site_label
 _atom_site_symmetry_multiplicity
 _atom_site_fract_x
 _atom_site_fract_y
 _atom_site_fract_z
 _atom_site_occupancy
  Nd  Nd0  1  0.25000000  0.39578878  0.79157757  1
  Nd  Nd1  1  0.75000000  0.60421122  0.20842243  1
  Si  Si2  1  0.25000000  0.03909333  0.07818666  1
  Si  Si3  1  0.75000000  0.96090667  0.92181334  1
  Si  Si4  1  0.25000000  0.75028195  0.50056390  1
  Si  Si5  1  0.75000000  0.24971805  0.49943610  1
  Rh  Rh6  1  0.25000000  0.18035551  0.36071101  1
  Rh  Rh7  1  0.75000000  0.81964449  0.63928899  1
