# generated using pymatgen
data_CeI3
_symmetry_space_group_name_H-M   'P 1'
_cell_length_a   4.35023912
_cell_length_b   7.86489595
_cell_length_c   10.17955906
_cell_angle_alpha   90.00000000
_cell_angle_beta   90.00000000
_cell_angle_gamma   106.05503141
_symmetry_Int_Tables_number   1
_chemical_formula_structural   CeI3
_chemical_formula_sum   'Ce2 I6'
_cell_volume   334.70090548
_cell_formula_units_Z   2
loop_
 _symmetry_equiv_pos_site_id
 _symmetry_equiv_pos_as_xyz
  1  'x, y, z'
loop_
 _atom_site_type_symbol
 _atom_site_label
 _atom_site_symmetry_multiplicity
 _atom_site_fract_x
 _atom_site_fract_y
 _atom_site_fract_z
 _atom_site_occupancy
  Ce  Ce0  1  0.74283340  0.48566680  0.25000000  1
  Ce  Ce1  1  0.25716660  0.51433320  0.75000000  1
  I  I2  1  0.34828136  0.69656273  0.06704621  1
  I  I3  1  0.65171864  0.30343727  0.93295379  1
  I  I4  1  0.65171864  0.30343727  0.56704621  1
  I  I5  1  0.34828136  0.69656273  0.43295379  1
  I  I6  1  0.09110189  0.18220378  0.25000000  1
  I  I7  1  0.90889811  0.81779622  0.75000000  1
