# generated using pymatgen
data_Mo3P
_symmetry_space_group_name_H-M   'P 1'
_cell_length_a   4.84707120
_cell_length_b   7.37798300
_cell_length_c   7.37798300
_cell_angle_alpha   83.80569828
_cell_angle_beta   70.82332971
_cell_angle_gamma   70.82332971
_symmetry_Int_Tables_number   1
_chemical_formula_structural   Mo3P
_chemical_formula_sum   'Mo12 P4'
_cell_volume   235.37915753
_cell_formula_units_Z   4
loop_
 _symmetry_equiv_pos_site_id
 _symmetry_equiv_pos_as_xyz
  1  'x, y, z'
loop_
 _atom_site_type_symbol
 _atom_site_label
 _atom_site_symmetry_multiplicity
 _atom_site_fract_x
 _atom_site_fract_y
 _atom_site_fract_z
 _atom_site_occupancy
  Mo  Mo0  1  0.17357802  0.00000000  0.18545803  1
  Mo  Mo1  1  0.35903605  0.00000000  0.81454197  1
  Mo  Mo2  1  0.82642198  0.81454197  1.00000000  1
  Mo  Mo3  1  0.64096395  0.18545803  1.00000000  1
  Mo  Mo4  1  0.96888036  0.00000000  0.59852560  1
  Mo  Mo5  1  0.56740596  0.00000000  0.40147440  1
  Mo  Mo6  1  0.03111964  0.40147440  1.00000000  1
  Mo  Mo7  1  0.43259404  0.59852560  1.00000000  1
  Mo  Mo8  1  0.50000000  0.64478006  0.35521994  1
  Mo  Mo9  1  0.50000000  0.35521994  0.64478006  1
  Mo  Mo10  1  0.85521994  0.64478006  0.64478006  1
  Mo  Mo11  1  0.14478006  0.35521994  0.35521994  1
  P  P12  1  -0.00000000  0.70826829  0.29173171  1
  P  P13  1  0.00000000  0.29173171  0.70826829  1
  P  P14  1  0.29173171  0.70826829  0.70826829  1
  P  P15  1  0.70826829  0.29173171  0.29173171  1
