# generated using pymatgen
data_Ba3NaY3(Si3O10)2
_symmetry_space_group_name_H-M   'P 1'
_cell_length_a   5.58718491
_cell_length_b   12.29522187
_cell_length_c   14.85038708
_cell_angle_alpha   90.00000000
_cell_angle_beta   90.00000000
_cell_angle_gamma   103.13284473
_symmetry_Int_Tables_number   1
_chemical_formula_structural   Ba3NaY3(Si3O10)2
_chemical_formula_sum   'Ba6 Na2 Y6 Si12 O40'
_cell_volume   993.47609099
_cell_formula_units_Z   2
loop_
 _symmetry_equiv_pos_site_id
 _symmetry_equiv_pos_as_xyz
  1  'x, y, z'
loop_
 _atom_site_type_symbol
 _atom_site_label
 _atom_site_symmetry_multiplicity
 _atom_site_fract_x
 _atom_site_fract_y
 _atom_site_fract_z
 _atom_site_occupancy
  Ba  Ba0  1  0.85035093  0.84130227  0.75000000  1
  Ba  Ba1  1  0.00904866  0.15869773  0.25000000  1
  Ba  Ba2  1  0.17410586  0.48534400  0.11349884  1
  Ba  Ba3  1  0.68876186  0.51465600  0.88650116  1
  Ba  Ba4  1  0.17410586  0.48534400  0.38650116  1
  Ba  Ba5  1  0.68876186  0.51465600  0.61349884  1
  Na  Na6  1  0.25290476  0.77718468  0.25000000  1
  Na  Na7  1  0.47572008  0.22281532  0.75000000  1
  Y  Y8  1  0.39701792  0.78119154  0.97078247  1
  Y  Y9  1  0.61582637  0.21880846  0.02921753  1
  Y  Y10  1  0.39701792  0.78119154  0.52921753  1
  Y  Y11  1  0.61582637  0.21880846  0.47078247  1
  Y  Y12  1  0.99747262  -0.00000000  -0.00000000  1
  Y  Y13  1  0.99747262  -0.00000000  0.50000000  1
  Si  Si14  1  0.28228657  0.64521349  0.75000000  1
  Si  Si15  1  0.63707307  0.35478651  0.25000000  1
  Si  Si16  1  0.81598332  0.70049599  0.05688102  1
  Si  Si17  1  0.11548733  0.29950401  0.94311898  1
  Si  Si18  1  0.81598332  0.70049599  0.44311898  1
  Si  Si19  1  0.11548733  0.29950401  0.55688102  1
  Si  Si20  1  0.44037167  0.99928660  0.13808143  1
  Si  Si21  1  0.44108507  0.00071340  0.86191857  1
  Si  Si22  1  0.44037167  0.99928660  0.36191857  1
  Si  Si23  1  0.44108507  0.00071340  0.63808143  1
  Si  Si24  1  0.71942788  0.61841448  0.25000000  1
  Si  Si25  1  0.10101340  0.38158552  0.75000000  1
  O  O26  1  0.78637032  0.82666459  0.03616998  1
  O  O27  1  0.95970573  0.17333541  0.96383002  1
  O  O28  1  0.78637032  0.82666459  0.46383002  1
  O  O29  1  0.95970573  0.17333541  0.53616998  1
  O  O30  1  0.54322891  0.62449871  0.03040381  1
  O  O31  1  0.91873020  0.37550129  0.96959619  1
  O  O32  1  0.54322891  0.62449871  0.46959619  1
  O  O33  1  0.91873020  0.37550129  0.53040381  1
  O  O34  1  0.43247548  0.98043504  0.25000000  1
  O  O35  1  0.45204044  0.01956496  0.75000000  1
  O  O36  1  0.88263967  0.68263382  0.16471097  1
  O  O37  1  0.20000586  0.31736618  0.83528903  1
  O  O38  1  0.88263967  0.68263382  0.33528903  1
  O  O39  1  0.20000586  0.31736618  0.66471097  1
  O  O40  1  0.29375439  0.50730434  0.75000000  1
  O  O41  1  0.78645005  0.49269566  0.25000000  1
  O  O42  1  0.72242664  0.05340511  0.10563750  1
  O  O43  1  0.66902153  0.94659489  0.89436250  1
  O  O44  1  0.72242664  0.05340511  0.39436250  1
  O  O45  1  0.66902153  0.94659489  0.60563750  1
  O  O46  1  0.02954421  0.65969388  0.99968833  1
  O  O47  1  0.36985033  0.34030612  0.00031167  1
  O  O48  1  0.02954421  0.65969388  0.50031167  1
  O  O49  1  0.36985033  0.34030612  0.49968833  1
  O  O50  1  0.44455190  0.69667984  0.83866230  1
  O  O51  1  0.74787207  0.30332016  0.16133770  1
  O  O52  1  0.44455190  0.69667984  0.66133770  1
  O  O53  1  0.74787207  0.30332016  0.33866230  1
  O  O54  1  0.18990183  0.90647766  0.88999829  1
  O  O55  1  0.28342416  0.09352234  0.11000171  1
  O  O56  1  0.18990183  0.90647766  0.61000171  1
  O  O57  1  0.28342416  0.09352234  0.38999829  1
  O  O58  1  0.99427037  0.64958373  0.75000000  1
  O  O59  1  0.34468664  0.35041627  0.25000000  1
  O  O60  1  0.30526990  0.88318864  0.08997132  1
  O  O61  1  0.42208126  0.11681136  0.91002868  1
  O  O62  1  0.30526990  0.88318864  0.41002868  1
  O  O63  1  0.42208126  0.11681136  0.58997132  1
  O  O64  1  0.43326449  0.61802483  0.25000000  1
  O  O65  1  0.81523966  0.38197517  0.75000000  1
