# generated using pymatgen
data_RbErBeF6
_symmetry_space_group_name_H-M   'P 1'
_cell_length_a   5.85754054
_cell_length_b   6.52466343
_cell_length_c   7.18260649
_cell_angle_alpha   113.66164937
_cell_angle_beta   90.00000000
_cell_angle_gamma   90.00000000
_symmetry_Int_Tables_number   1
_chemical_formula_structural   RbErBeF6
_chemical_formula_sum   'Rb2 Er2 Be2 F12'
_cell_volume   251.43078579
_cell_formula_units_Z   2
loop_
 _symmetry_equiv_pos_site_id
 _symmetry_equiv_pos_as_xyz
  1  'x, y, z'
loop_
 _atom_site_type_symbol
 _atom_site_label
 _atom_site_symmetry_multiplicity
 _atom_site_fract_x
 _atom_site_fract_y
 _atom_site_fract_z
 _atom_site_occupancy
  Rb  Rb0  1  0.75000000  0.07694229  0.20955612  1
  Rb  Rb1  1  0.25000000  0.92305771  0.79044388  1
  Er  Er2  1  0.75000000  0.39069769  0.82022708  1
  Er  Er3  1  0.25000000  0.60930231  0.17977292  1
  Be  Be4  1  0.75000000  0.76599043  0.53527540  1
  Be  Be5  1  0.25000000  0.23400957  0.46472460  1
  F  F6  1  0.96598782  0.76042591  0.40330603  1
  F  F7  1  0.03401218  0.23957409  0.59669397  1
  F  F8  1  0.46598782  0.23957409  0.59669397  1
  F  F9  1  0.53401218  0.76042591  0.40330603  1
  F  F10  1  0.75000000  0.56594508  0.59951771  1
  F  F11  1  0.25000000  0.43405492  0.40048229  1
  F  F12  1  0.99919632  0.67288045  0.96782599  1
  F  F13  1  0.00080368  0.32711955  0.03217401  1
  F  F14  1  0.49919632  0.32711955  0.03217401  1
  F  F15  1  0.50080368  0.67288045  0.96782599  1
  F  F16  1  0.75000000  0.99276148  0.73099547  1
  F  F17  1  0.25000000  0.00723852  0.26900453  1
