# generated using pymatgen
data_Rb(Zr3Te4)4
_symmetry_space_group_name_H-M   'P 1'
_cell_length_a   11.18961768
_cell_length_b   11.18742803
_cell_length_c   15.86440137
_cell_angle_alpha   89.99966939
_cell_angle_beta   89.99982801
_cell_angle_gamma   120.00472592
_symmetry_Int_Tables_number   1
_chemical_formula_structural   Rb(Zr3Te4)4
_chemical_formula_sum   'Rb2 Zr24 Te32'
_cell_volume   1719.80473164
_cell_formula_units_Z   2
loop_
 _symmetry_equiv_pos_site_id
 _symmetry_equiv_pos_as_xyz
  1  'x, y, z'
loop_
 _atom_site_type_symbol
 _atom_site_label
 _atom_site_symmetry_multiplicity
 _atom_site_fract_x
 _atom_site_fract_y
 _atom_site_fract_z
 _atom_site_occupancy
  Rb  Rb0  1  0.99999177  0.00002409  0.67330715  1
  Rb  Rb1  1  0.99998101  0.99999620  0.95072107  1
  Zr  Zr2  1  0.12350743  0.62902646  0.06401405  1
  Zr  Zr3  1  0.12330460  0.63212060  0.31248298  1
  Zr  Zr4  1  0.12352943  0.62891304  0.56101823  1
  Zr  Zr5  1  0.12318701  0.62384441  0.81256188  1
  Zr  Zr6  1  0.50546488  0.87650530  0.06400404  1
  Zr  Zr7  1  0.50059002  0.87684078  0.81256915  1
  Zr  Zr8  1  0.50879401  0.87670594  0.31247923  1
  Zr  Zr9  1  0.50535130  0.87648274  0.56101797  1
  Zr  Zr10  1  0.37094146  0.49450278  0.06400362  1
  Zr  Zr11  1  0.37616757  0.49938162  0.81257112  1
  Zr  Zr12  1  0.36781295  0.49118206  0.31247179  1
  Zr  Zr13  1  0.37104929  0.49462395  0.56102894  1
  Zr  Zr14  1  0.63559490  0.51114872  0.18766222  1
  Zr  Zr15  1  0.63564347  0.51121049  0.43735888  1
  Zr  Zr16  1  0.63823992  0.51483483  0.68778056  1
  Zr  Zr17  1  0.63816302  0.51475414  0.93723989  1
  Zr  Zr18  1  0.48888488  0.12440574  0.18766961  1
  Zr  Zr19  1  0.48882969  0.12437853  0.43735523  1
  Zr  Zr20  1  0.48517656  0.12337076  0.68777526  1
  Zr  Zr21  1  0.48525643  0.12337858  0.93724399  1
  Zr  Zr22  1  0.87560546  0.36445109  0.18767863  1
  Zr  Zr23  1  0.87563325  0.36441879  0.43735248  1
  Zr  Zr24  1  0.87663883  0.36177028  0.68776582  1
  Zr  Zr25  1  0.87663373  0.36184698  0.93724788  1
  Te  Te26  1  0.28503887  0.94450868  0.06394707  1
  Te  Te27  1  0.28812421  0.94528141  0.31249841  1
  Te  Te28  1  0.28492876  0.94445166  0.56107636  1
  Te  Te29  1  0.27907922  0.94387610  0.81252598  1
  Te  Te30  1  0.05551103  0.34052631  0.06395252  1
  Te  Te31  1  0.05472016  0.34279544  0.31249585  1
  Te  Te32  1  0.05557048  0.34045846  0.56107330  1
  Te  Te33  1  0.05615550  0.33522627  0.81252731  1
  Te  Te34  1  0.33331457  0.66667110  0.18842887  1
  Te  Te35  1  0.33330865  0.66666558  0.68679693  1
  Te  Te36  1  0.33332145  0.66666578  0.43658634  1
  Te  Te37  1  0.33330575  0.66666819  0.93831802  1
  Te  Te38  1  0.34594896  0.29153001  0.18754861  1
  Te  Te39  1  0.34601296  0.29164968  0.43747178  1
  Te  Te40  1  0.35037591  0.29784503  0.68783627  1
  Te  Te41  1  0.35032915  0.29773192  0.93724792  1
  Te  Te42  1  0.65940481  0.71496716  0.06394144  1
  Te  Te43  1  0.65948540  0.71509015  0.56108233  1
  Te  Te44  1  0.65712023  0.71189004  0.31249216  1
  Te  Te45  1  0.66474015  0.72092474  0.81252732  1
  Te  Te46  1  0.66671188  0.33331508  0.31252801  1
  Te  Te47  1  0.66671353  0.33331544  0.06183143  1
  Te  Te48  1  0.66671319  0.33330091  0.81249848  1
  Te  Te49  1  0.66670318  0.33330323  0.56319356  1
  Te  Te50  1  0.94562654  0.65410707  0.18755738  1
  Te  Te51  1  0.94570364  0.65406336  0.43747314  1
  Te  Te52  1  0.94749321  0.64966037  0.68782377  1
  Te  Te53  1  0.94743107  0.64970649  0.93724575  1
  Te  Te54  1  0.70844259  0.05436095  0.18754634  1
  Te  Te55  1  0.70833627  0.05429345  0.43747060  1
  Te  Te56  1  0.70212311  0.05248037  0.68783071  1
  Te  Te57  1  0.70223466  0.05255065  0.93724541  1
