# generated using pymatgen
data_Mg3SbN
_symmetry_space_group_name_H-M   'P 1'
_cell_length_a   6.18766290
_cell_length_b   6.18768228
_cell_length_c   8.76388807
_cell_angle_alpha   90.00000000
_cell_angle_beta   90.00000000
_cell_angle_gamma   90.00001926
_symmetry_Int_Tables_number   1
_chemical_formula_structural   Mg3SbN
_chemical_formula_sum   'Mg12 Sb4 N4'
_cell_volume   335.54554230
_cell_formula_units_Z   4
loop_
 _symmetry_equiv_pos_site_id
 _symmetry_equiv_pos_as_xyz
  1  'x, y, z'
loop_
 _atom_site_type_symbol
 _atom_site_label
 _atom_site_symmetry_multiplicity
 _atom_site_fract_x
 _atom_site_fract_y
 _atom_site_fract_z
 _atom_site_occupancy
  Mg  Mg0  1  0.75001928  0.75002107  0.99998994  1
  Mg  Mg1  1  0.74998027  0.25002076  0.50001028  1
  Mg  Mg2  1  0.24998072  0.24997893  0.49998994  1
  Mg  Mg3  1  0.25001973  0.74997924  0.00001028  1
  Mg  Mg4  1  0.24998072  0.24997893  0.00001006  1
  Mg  Mg5  1  0.25001973  0.74997924  0.49998972  1
  Mg  Mg6  1  0.75001928  0.75002107  0.50001006  1
  Mg  Mg7  1  0.74998027  0.25002076  0.99998972  1
  Mg  Mg8  1  0.50001519  0.99996653  0.25000000  1
  Mg  Mg9  1  0.99998426  0.49996678  0.25000000  1
  Mg  Mg10  1  0.49998481  0.00003347  0.75000000  1
  Mg  Mg11  1  0.00001574  0.50003322  0.75000000  1
  Sb  Sb12  1  0.50000211  0.49998158  0.25000000  1
  Sb  Sb13  1  0.99999791  0.99998157  0.25000000  1
  Sb  Sb14  1  0.49999789  0.50001842  0.75000000  1
  Sb  Sb15  1  0.00000209  0.00001843  0.75000000  1
  N  N16  1  -0.00000000  0.50000000  0.00000000  1
  N  N17  1  0.50000000  -0.00000000  0.50000000  1
  N  N18  1  -0.00000000  0.50000000  0.50000000  1
  N  N19  1  0.50000000  -0.00000000  -0.00000000  1
