# generated using pymatgen
data_TlPdF3
_symmetry_space_group_name_H-M   'P 1'
_cell_length_a   4.35039490
_cell_length_b   4.35101365
_cell_length_c   4.35238038
_cell_angle_alpha   89.36303729
_cell_angle_beta   89.93530352
_cell_angle_gamma   89.68593465
_symmetry_Int_Tables_number   1
_chemical_formula_structural   TlPdF3
_chemical_formula_sum   'Tl1 Pd1 F3'
_cell_volume   82.37821188
_cell_formula_units_Z   1
loop_
 _symmetry_equiv_pos_site_id
 _symmetry_equiv_pos_as_xyz
  1  'x, y, z'
loop_
 _atom_site_type_symbol
 _atom_site_label
 _atom_site_symmetry_multiplicity
 _atom_site_fract_x
 _atom_site_fract_y
 _atom_site_fract_z
 _atom_site_occupancy
  Tl  Tl0  1  0.99891487  0.99805231  0.99399185  1
  Pd  Pd1  1  0.50002676  0.49779736  0.48713648  1
  F  F2  1  0.00004149  0.49597446  0.48540006  1
  F  F3  1  0.50196963  0.50040723  0.98699910  1
  F  F4  1  0.49904325  0.99776363  0.48646950  1
