# generated using pymatgen
data_Th2Fe2Si2C
_symmetry_space_group_name_H-M   'P 1'
_cell_length_a   3.98202598
_cell_length_b   5.79271300
_cell_length_c   5.81253160
_cell_angle_alpha   74.59404816
_cell_angle_beta   69.96842120
_cell_angle_gamma   69.89693492
_symmetry_Int_Tables_number   1
_chemical_formula_structural   Th2Fe2Si2C
_chemical_formula_sum   'Th2 Fe2 Si2 C1'
_cell_volume   116.61627122
_cell_formula_units_Z   1
loop_
 _symmetry_equiv_pos_site_id
 _symmetry_equiv_pos_as_xyz
  1  'x, y, z'
loop_
 _atom_site_type_symbol
 _atom_site_label
 _atom_site_symmetry_multiplicity
 _atom_site_fract_x
 _atom_site_fract_y
 _atom_site_fract_z
 _atom_site_occupancy
  Th  Th0  1  0.44048842  0.82050699  0.29851618  1
  Th  Th1  1  0.55951158  0.17949301  0.70148382  1
  Fe  Fe2  1  0.80592003  0.31075385  0.07740609  1
  Fe  Fe3  1  0.19407997  0.68924615  0.92259391  1
  Si  Si4  1  0.82824804  0.61896936  0.72453457  1
  Si  Si5  1  0.17175196  0.38103064  0.27546543  1
  C  C6  1  -0.00000000  -0.00000000  -0.00000000  1
