# generated using pymatgen
data_CeFeSi2
_symmetry_space_group_name_H-M   'P 1'
_cell_length_a   4.02242352
_cell_length_b   4.07214575
_cell_length_c   8.49885508
_cell_angle_alpha   103.86117780
_cell_angle_beta   90.00000000
_cell_angle_gamma   90.00000000
_symmetry_Int_Tables_number   1
_chemical_formula_structural   CeFeSi2
_chemical_formula_sum   'Ce2 Fe2 Si4'
_cell_volume   135.15641221
_cell_formula_units_Z   2
loop_
 _symmetry_equiv_pos_site_id
 _symmetry_equiv_pos_as_xyz
  1  'x, y, z'
loop_
 _atom_site_type_symbol
 _atom_site_label
 _atom_site_symmetry_multiplicity
 _atom_site_fract_x
 _atom_site_fract_y
 _atom_site_fract_z
 _atom_site_occupancy
  Ce  Ce0  1  0.25000000  0.39016136  0.78032272  1
  Ce  Ce1  1  0.75000000  0.60983864  0.21967728  1
  Fe  Fe2  1  0.25000000  0.74970226  0.49940452  1
  Fe  Fe3  1  0.75000000  0.25029774  0.50059548  1
  Si  Si4  1  0.25000000  0.03645416  0.07290833  1
  Si  Si5  1  0.75000000  0.96354584  0.92709167  1
  Si  Si6  1  0.25000000  0.18531659  0.37063318  1
  Si  Si7  1  0.75000000  0.81468341  0.62936682  1
