# generated using pymatgen
data_Tm2Si5Ni3
_symmetry_space_group_name_H-M   'P 1'
_cell_length_a   5.59793215
_cell_length_b   7.82224182
_cell_length_c   7.82224182
_cell_angle_alpha   75.91299994
_cell_angle_beta   69.03353802
_cell_angle_gamma   69.03353802
_symmetry_Int_Tables_number   1
_chemical_formula_structural   Tm2Si5Ni3
_chemical_formula_sum   'Tm4 Si10 Ni6'
_cell_volume   296.04263865
_cell_formula_units_Z   2
loop_
 _symmetry_equiv_pos_site_id
 _symmetry_equiv_pos_as_xyz
  1  'x, y, z'
loop_
 _atom_site_type_symbol
 _atom_site_label
 _atom_site_symmetry_multiplicity
 _atom_site_fract_x
 _atom_site_fract_y
 _atom_site_fract_z
 _atom_site_occupancy
  Tm  Tm0  1  0.36981051  0.39334557  0.86703341  1
  Tm  Tm1  1  0.63018949  0.60665443  0.13296659  1
  Tm  Tm2  1  0.86981051  0.86703341  0.39334557  1
  Tm  Tm3  1  0.13018949  0.13296659  0.60665443  1
  Si  Si4  1  0.25000000  0.50000000  0.50000000  1
  Si  Si5  1  0.75000000  0.50000000  0.50000000  1
  Si  Si6  1  0.01362547  0.23637453  0.23637453  1
  Si  Si7  1  0.48637453  0.76362547  0.76362547  1
  Si  Si8  1  0.98637453  0.76362547  0.76362547  1
  Si  Si9  1  0.51362547  0.23637453  0.23637453  1
  Si  Si10  1  0.10885627  0.74002100  0.04226647  1
  Si  Si11  1  0.89114373  0.25997900  0.95773353  1
  Si  Si12  1  0.60885627  0.04226647  0.74002100  1
  Si  Si13  1  0.39114373  0.95773353  0.25997900  1
  Ni  Ni14  1  0.25000000  0.00000000  0.00000000  1
  Ni  Ni15  1  0.75000000  0.00000000  0.00000000  1
  Ni  Ni16  1  0.13359585  0.48267272  0.25013557  1
  Ni  Ni17  1  0.86640415  0.51732728  0.74986443  1
  Ni  Ni18  1  0.63359585  0.25013557  0.48267272  1
  Ni  Ni19  1  0.36640415  0.74986443  0.51732728  1
