# generated using pymatgen
data_Eu3AlO5
_symmetry_space_group_name_H-M   'P 1'
_cell_length_a   6.70581053
_cell_length_b   6.70581053
_cell_length_c   7.30019923
_cell_angle_alpha   117.34127340
_cell_angle_beta   117.34127340
_cell_angle_gamma   90.00000000
_symmetry_Int_Tables_number   1
_chemical_formula_structural   Eu3AlO5
_chemical_formula_sum   'Eu6 Al2 O10'
_cell_volume   249.59799096
_cell_formula_units_Z   2
loop_
 _symmetry_equiv_pos_site_id
 _symmetry_equiv_pos_as_xyz
  1  'x, y, z'
loop_
 _atom_site_type_symbol
 _atom_site_label
 _atom_site_symmetry_multiplicity
 _atom_site_fract_x
 _atom_site_fract_y
 _atom_site_fract_z
 _atom_site_occupancy
  Eu  Eu0  1  0.82147445  0.67852555  0.00000000  1
  Eu  Eu1  1  0.17852555  0.32147445  0.00000000  1
  Eu  Eu2  1  0.67852555  0.17852555  0.00000000  1
  Eu  Eu3  1  0.32147445  0.82147445  0.00000000  1
  Eu  Eu4  1  0.75000000  0.75000000  0.50000000  1
  Eu  Eu5  1  0.25000000  0.25000000  0.50000000  1
  Al  Al6  1  0.25000000  0.75000000  0.50000000  1
  Al  Al7  1  0.75000000  0.25000000  0.50000000  1
  O  O8  1  0.50000000  0.50000000  0.00000000  1
  O  O9  1  -0.00000000  0.00000000  0.00000000  1
  O  O10  1  0.20795603  0.99472858  0.70268461  1
  O  O11  1  0.49472858  0.70795603  0.70268461  1
  O  O12  1  0.99472858  0.49472858  0.70268461  1
  O  O13  1  0.70795603  0.20795603  0.70268461  1
  O  O14  1  0.79204397  0.00527142  0.29731539  1
  O  O15  1  0.50527142  0.29204397  0.29731539  1
  O  O16  1  0.00527142  0.50527142  0.29731539  1
  O  O17  1  0.29204397  0.79204397  0.29731539  1
