# generated using pymatgen
data_Ba2Mn2Se2OF2
_symmetry_space_group_name_H-M   'P 1'
_cell_length_a   4.35266721
_cell_length_b   4.35266721
_cell_length_c   10.41747274
_cell_angle_alpha   102.05858859
_cell_angle_beta   102.05858859
_cell_angle_gamma   90.00000000
_symmetry_Int_Tables_number   1
_chemical_formula_structural   Ba2Mn2Se2OF2
_chemical_formula_sum   'Ba2 Mn2 Se2 O1 F2'
_cell_volume   188.55589458
_cell_formula_units_Z   1
loop_
 _symmetry_equiv_pos_site_id
 _symmetry_equiv_pos_as_xyz
  1  'x, y, z'
loop_
 _atom_site_type_symbol
 _atom_site_label
 _atom_site_symmetry_multiplicity
 _atom_site_fract_x
 _atom_site_fract_y
 _atom_site_fract_z
 _atom_site_occupancy
  Ba  Ba0  1  0.32844173  0.32844173  0.65688345  1
  Ba  Ba1  1  0.67155827  0.67155827  0.34311655  1
  Mn  Mn2  1  0.00000000  0.50000000  -0.00000000  1
  Mn  Mn3  1  0.50000000  0.00000000  -0.00000000  1
  Se  Se4  1  0.90734923  0.90734923  0.81469846  1
  Se  Se5  1  0.09265077  0.09265077  0.18530154  1
  O  O6  1  0.50000000  0.50000000  -0.00000000  1
  F  F7  1  0.75000000  0.25000000  0.50000000  1
  F  F8  1  0.25000000  0.75000000  0.50000000  1
