# generated using pymatgen
data_Rb2Ge(S2O7)3
_symmetry_space_group_name_H-M   'P 1'
_cell_length_a   9.90460092
_cell_length_b   9.90484167
_cell_length_c   11.40648117
_cell_angle_alpha   89.99487164
_cell_angle_beta   89.99997604
_cell_angle_gamma   120.00081987
_symmetry_Int_Tables_number   1
_chemical_formula_structural   Rb2Ge(S2O7)3
_chemical_formula_sum   'Rb4 Ge2 S12 O42'
_cell_volume   969.08807227
_cell_formula_units_Z   2
loop_
 _symmetry_equiv_pos_site_id
 _symmetry_equiv_pos_as_xyz
  1  'x, y, z'
loop_
 _atom_site_type_symbol
 _atom_site_label
 _atom_site_symmetry_multiplicity
 _atom_site_fract_x
 _atom_site_fract_y
 _atom_site_fract_z
 _atom_site_occupancy
  Rb  Rb0  1  0.66664596  0.33333057  0.56060114  1
  Rb  Rb1  1  0.33335404  0.66666943  0.43939886  1
  Rb  Rb2  1  0.33335484  0.66668567  0.87789291  1
  Rb  Rb3  1  0.66664516  0.33331433  0.12210709  1
  Ge  Ge4  1  1.00003281  0.99998878  0.75746962  1
  Ge  Ge5  1  -0.00003281  0.00001122  0.24253038  1
  S  S6  1  0.08194384  0.33435762  0.66030265  1
  S  S7  1  0.25239681  0.91805000  0.66030858  1
  S  S8  1  0.66565169  0.74758999  0.66029965  1
  S  S9  1  0.91805616  0.66564238  0.33969735  1
  S  S10  1  0.74760319  0.08195000  0.33969142  1
  S  S11  1  0.33434831  0.25241001  0.33970035  1
  S  S12  1  0.80450630  0.65603460  0.84597899  1
  S  S13  1  0.85153652  0.19550581  0.84599035  1
  S  S14  1  0.34395583  0.14844631  0.84598641  1
  S  S15  1  0.19549370  0.34396540  0.15402101  1
  S  S16  1  0.14846348  0.80449419  0.15400965  1
  S  S17  1  0.65604417  0.85155369  0.15401359  1
  O  O18  1  0.66000071  0.67845441  0.79483386  1
  O  O19  1  0.01846214  0.33999846  0.79483906  1
  O  O20  1  0.32153388  0.98153161  0.79484581  1
  O  O21  1  0.33999929  0.32154559  0.20516614  1
  O  O22  1  0.98153786  0.66000154  0.20516094  1
  O  O23  1  0.67846612  0.01846839  0.20515419  1
  O  O24  1  0.93707279  0.82514804  0.85891858  1
  O  O25  1  0.88806889  0.06292754  0.85894288  1
  O  O26  1  0.17484023  0.11191078  0.85893134  1
  O  O27  1  0.06292721  0.17485196  0.14108142  1
  O  O28  1  0.11193111  0.93707246  0.14105712  1
  O  O29  1  0.82515977  0.88808922  0.14106866  1
  O  O30  1  0.06121274  0.17171849  0.65278160  1
  O  O31  1  0.11048839  0.93878586  0.65279255  1
  O  O32  1  0.82829744  0.88950035  0.65277431  1
  O  O33  1  0.93878726  0.82828151  0.34721840  1
  O  O34  1  0.88951161  0.06121414  0.34720745  1
  O  O35  1  0.17170256  0.11049965  0.34722569  1
  O  O36  1  0.83916003  0.57122963  0.76088143  1
  O  O37  1  0.73206770  0.16085434  0.76089050  1
  O  O38  1  0.42878033  0.26792754  0.76088878  1
  O  O39  1  0.16083997  0.42877037  0.23911857  1
  O  O40  1  0.26793230  0.83914566  0.23910950  1
  O  O41  1  0.57121967  0.73207246  0.23911122  1
  O  O42  1  0.74969717  0.59144180  0.96004414  1
  O  O43  1  0.84175482  0.25030294  0.96005660  1
  O  O44  1  0.40854029  0.15822140  0.96005160  1
  O  O45  1  0.25030283  0.40855820  0.03995586  1
  O  O46  1  0.15824518  0.74969706  0.03994340  1
  O  O47  1  0.59145971  0.84177860  0.03994840  1
  O  O48  1  0.24299169  0.45311559  0.66836127  1
  O  O49  1  0.21011796  0.75701228  0.66837838  1
  O  O50  1  0.54688995  0.78987075  0.66835933  1
  O  O51  1  0.75700831  0.54688441  0.33163873  1
  O  O52  1  0.78988204  0.24298772  0.33162162  1
  O  O53  1  0.45311005  0.21012925  0.33164067  1
  O  O54  1  0.98490139  0.35205570  0.57579339  1
  O  O55  1  0.36714061  0.01508864  0.57579812  1
  O  O56  1  0.64795857  0.63285769  0.57579522  1
  O  O57  1  0.01509861  0.64794430  0.42420661  1
  O  O58  1  0.63285939  0.98491136  0.42420188  1
  O  O59  1  0.35204143  0.36714231  0.42420478  1
