# generated using pymatgen
data_Tm2Mo2C3
_symmetry_space_group_name_H-M   'P 1'
_cell_length_a   3.30944171
_cell_length_b   5.66222447
_cell_length_c   6.02282410
_cell_angle_alpha   110.60213462
_cell_angle_beta   105.94662104
_cell_angle_gamma   90.00000000
_symmetry_Int_Tables_number   1
_chemical_formula_structural   Tm2Mo2C3
_chemical_formula_sum   'Tm2 Mo2 C3'
_cell_volume   100.98965537
_cell_formula_units_Z   1
loop_
 _symmetry_equiv_pos_site_id
 _symmetry_equiv_pos_as_xyz
  1  'x, y, z'
loop_
 _atom_site_type_symbol
 _atom_site_label
 _atom_site_symmetry_multiplicity
 _atom_site_fract_x
 _atom_site_fract_y
 _atom_site_fract_z
 _atom_site_occupancy
  Tm  Tm0  1  0.38895501  0.17197851  0.77791001  1
  Tm  Tm1  1  0.61104499  0.82802149  0.22208999  1
  Mo  Mo2  1  0.15577700  0.32761117  0.31155401  1
  Mo  Mo3  1  0.84422300  0.67238883  0.68844599  1
  C  C4  1  0.24730358  0.73671565  0.49460717  1
  C  C5  1  0.75269642  0.26328435  0.50539283  1
  C  C6  1  0.00000000  0.00000000  0.00000000  1
