# generated using pymatgen
data_Zn3(Ni10B3)2
_symmetry_space_group_name_H-M   'P 1'
_cell_length_a   7.41854333
_cell_length_b   7.41854332
_cell_length_c   7.41854332
_cell_angle_alpha   60.00000001
_cell_angle_beta   60.00000002
_cell_angle_gamma   60.00000003
_symmetry_Int_Tables_number   1
_chemical_formula_structural   Zn3(Ni10B3)2
_chemical_formula_sum   'Zn3 Ni20 B6'
_cell_volume   288.69609799
_cell_formula_units_Z   1
loop_
 _symmetry_equiv_pos_site_id
 _symmetry_equiv_pos_as_xyz
  1  'x, y, z'
loop_
 _atom_site_type_symbol
 _atom_site_label
 _atom_site_symmetry_multiplicity
 _atom_site_fract_x
 _atom_site_fract_y
 _atom_site_fract_z
 _atom_site_occupancy
  B  B0  1  0.27480839  0.72519161  0.72519161  1
  B  B1  1  0.27480839  0.72519161  0.27480839  1
  B  B2  1  0.72519161  0.27480839  0.72519161  1
  B  B3  1  0.27480839  0.27480839  0.72519161  1
  B  B4  1  0.72519161  0.72519161  0.27480839  1
  B  B5  1  0.72519161  0.27480839  0.27480839  1
  Ni  Ni6  1  0.00000000  0.66194624  0.33805376  1
  Ni  Ni7  1  0.61670585  0.61670585  0.61670585  1
  Ni  Ni8  1  0.33805376  0.00000000  0.00000000  1
  Ni  Ni9  1  0.00000000  0.00000000  0.33805376  1
  Ni  Ni10  1  0.33805376  0.66194624  0.00000000  1
  Ni  Ni11  1  0.00000000  0.33805376  0.66194624  1
  Ni  Ni12  1  0.33805376  0.00000000  0.66194624  1
  Ni  Ni13  1  0.00000000  0.33805376  0.00000000  1
  Ni  Ni14  1  0.00000000  0.00000000  0.66194624  1
  Ni  Ni15  1  0.66194624  0.33805376  0.00000000  1
  Ni  Ni16  1  0.00000000  0.66194624  0.00000000  1
  Ni  Ni17  1  0.66194624  0.00000000  0.33805376  1
  Ni  Ni18  1  0.61670585  0.14988246  0.61670585  1
  Ni  Ni19  1  0.66194624  0.00000000  0.00000000  1
  Ni  Ni20  1  0.38329415  0.38329415  0.38329415  1
  Ni  Ni21  1  0.61670585  0.61670585  0.14988246  1
  Ni  Ni22  1  0.14988246  0.61670585  0.61670585  1
  Ni  Ni23  1  0.38329415  0.85011754  0.38329415  1
  Ni  Ni24  1  0.85011754  0.38329415  0.38329415  1
  Ni  Ni25  1  0.38329415  0.38329415  0.85011754  1
  Zn  Zn26  1  0.75000000  0.75000000  0.75000000  1
  Zn  Zn27  1  0.25000000  0.25000000  0.25000000  1
  Zn  Zn28  1  0.00000000  0.00000000  0.00000000  1
