# generated using pymatgen
data_YAgS2
_symmetry_space_group_name_H-M   'P 1'
_cell_length_a   7.66785906
_cell_length_b   7.66057245
_cell_length_c   12.85392448
_cell_angle_alpha   90.00000000
_cell_angle_beta   89.90579165
_cell_angle_gamma   90.00000000
_symmetry_Int_Tables_number   1
_chemical_formula_structural   YAgS2
_chemical_formula_sum   'Y8 Ag8 S16'
_cell_volume   755.04094379
_cell_formula_units_Z   8
loop_
 _symmetry_equiv_pos_site_id
 _symmetry_equiv_pos_as_xyz
  1  'x, y, z'
loop_
 _atom_site_type_symbol
 _atom_site_label
 _atom_site_symmetry_multiplicity
 _atom_site_fract_x
 _atom_site_fract_y
 _atom_site_fract_z
 _atom_site_occupancy
  Y  Y0  1  0.50265281  0.27446659  0.25344577  1
  Y  Y1  1  0.49734719  0.77446659  0.74655423  1
  Y  Y2  1  0.24595960  0.02711442  0.50463827  1
  Y  Y3  1  0.75404040  0.52711442  0.49536173  1
  Y  Y4  1  0.99576732  0.28304442  0.75290704  1
  Y  Y5  1  0.00423268  0.78304442  0.24709296  1
  Y  Y6  1  0.25258604  0.52888355  0.00331773  1
  Y  Y7  1  0.74741396  0.02888355  0.99668227  1
  Ag  Ag8  1  0.99654717  0.28016495  0.29485729  1
  Ag  Ag9  1  0.00345283  0.78016495  0.70514271  1
  Ag  Ag10  1  0.25448642  0.52992792  0.53790254  1
  Ag  Ag11  1  0.74551358  0.02992792  0.46209746  1
  Ag  Ag12  1  0.49564463  0.78068342  0.19400530  1
  Ag  Ag13  1  0.50435537  0.28068342  0.80599470  1
  Ag  Ag14  1  0.24488818  0.02921450  0.03533685  1
  Ag  Ag15  1  0.75511182  0.52921450  0.96466315  1
  S  S16  1  0.27441738  0.55065900  0.21870978  1
  S  S17  1  0.72558262  0.05065900  0.78129022  1
  S  S18  1  0.47521563  0.25334657  0.03802994  1
  S  S19  1  0.52478437  0.75334657  0.96197006  1
  S  S20  1  0.02593736  0.30421025  0.53813517  1
  S  S21  1  0.97406264  0.80421025  0.46186483  1
  S  S22  1  0.22632510  0.05469656  0.28975113  1
  S  S23  1  0.77367490  0.55469656  0.71024887  1
  S  S24  1  0.51953288  0.25806601  0.46902192  1
  S  S25  1  0.48046712  0.75806601  0.53097808  1
  S  S26  1  0.22746384  0.00849100  0.72054747  1
  S  S27  1  0.77253616  0.50849100  0.27945253  1
  S  S28  1  0.02107530  0.79967141  0.03069541  1
  S  S29  1  0.97892470  0.29967141  0.96930459  1
  S  S30  1  0.72729753  0.00415941  0.21134044  1
  S  S31  1  0.27270247  0.50415941  0.78865956  1
