# generated using pymatgen
data_Te4Mo3W(SeS)2
_symmetry_space_group_name_H-M   'P 1'
_cell_length_a   3.39923677
_cell_length_b   3.39912221
_cell_length_c   38.70084196
_cell_angle_alpha   90.00070885
_cell_angle_beta   90.00000000
_cell_angle_gamma   120.00111475
_symmetry_Int_Tables_number   1
_chemical_formula_structural   Te4Mo3W(SeS)2
_chemical_formula_sum   'Te4 Mo3 W1 Se2 S2'
_cell_volume   387.25261776
_cell_formula_units_Z   1
loop_
 _symmetry_equiv_pos_site_id
 _symmetry_equiv_pos_as_xyz
  1  'x, y, z'
loop_
 _atom_site_type_symbol
 _atom_site_label
 _atom_site_symmetry_multiplicity
 _atom_site_fract_x
 _atom_site_fract_y
 _atom_site_fract_z
 _atom_site_occupancy
  Te  Te0  1  0.33335506  0.66671112  0.33022292  1
  Te  Te1  1  0.33335650  0.66671401  0.70619321  1
  Te  Te2  1  0.33334795  0.66669690  0.23341201  1
  Te  Te3  1  0.33336055  0.66672209  0.60884931  1
  Mo  Mo4  1  0.33330118  0.66660235  0.09390390  1
  Mo  Mo5  1  0.33329536  0.66659073  0.46965309  1
  Mo  Mo6  1  0.66669585  0.33339170  0.28181816  1
  W  W7  1  0.66669536  0.33339073  0.65754112  1
  Se  Se8  1  0.66663554  0.33327007  0.05129340  1
  Se  Se9  1  0.66664933  0.33329767  0.13654368  1
  S  S10  1  0.66665264  0.33330427  0.43083068  1
  S  S11  1  0.66665468  0.33330837  0.50848650  1
