# generated using pymatgen
data_NaMo2P2O9
_symmetry_space_group_name_H-M   'P 1'
_cell_length_a   6.70454245
_cell_length_b   7.93331911
_cell_length_c   14.60701782
_cell_angle_alpha   90.00000000
_cell_angle_beta   90.00000000
_cell_angle_gamma   90.00000000
_symmetry_Int_Tables_number   1
_chemical_formula_structural   NaMo2P2O9
_chemical_formula_sum   'Na4 Mo8 P8 O36'
_cell_volume   776.93668399
_cell_formula_units_Z   4
loop_
 _symmetry_equiv_pos_site_id
 _symmetry_equiv_pos_as_xyz
  1  'x, y, z'
loop_
 _atom_site_type_symbol
 _atom_site_label
 _atom_site_symmetry_multiplicity
 _atom_site_fract_x
 _atom_site_fract_y
 _atom_site_fract_z
 _atom_site_occupancy
  Na  Na0  1  0.75000000  0.87354724  0.77534019  1
  Na  Na1  1  0.75000000  0.62645276  0.27534019  1
  Na  Na2  1  0.25000100  0.37354624  0.72465981  1
  Na  Na3  1  0.25000100  0.12645276  0.22465981  1
  Mo  Mo4  1  0.75000000  0.35408323  0.88189704  1
  Mo  Mo5  1  0.25000100  0.64591677  0.11810296  1
  Mo  Mo6  1  0.25000100  0.85408323  0.61810296  1
  Mo  Mo7  1  0.75000000  0.14591677  0.38189704  1
  Mo  Mo8  1  0.50000000  -0.00000000  0.00000000  1
  Mo  Mo9  1  0.50000000  0.50000000  0.50000000  1
  Mo  Mo10  1  -0.00000000  0.50000000  0.50000000  1
  Mo  Mo11  1  -0.00000000  -0.00000000  0.00000000  1
  P  P12  1  0.25000100  0.34928707  0.93715671  1
  P  P13  1  0.75000000  0.65071293  0.06284429  1
  P  P14  1  0.75000000  0.84928707  0.56284329  1
  P  P15  1  0.25000100  0.15071393  0.43715671  1
  P  P16  1  0.75000000  0.39628093  0.69415296  1
  P  P17  1  0.75000000  0.10371907  0.19415296  1
  P  P18  1  0.25000100  0.89628093  0.80584704  1
  P  P19  1  0.25000100  0.60371807  0.30584704  1
  O  O20  1  0.05863133  0.59368936  0.36473336  1
  O  O21  1  0.55863033  0.40630964  0.63526664  1
  O  O22  1  0.94136867  0.09368936  0.13526664  1
  O  O23  1  0.44136867  0.90631064  0.86473336  1
  O  O24  1  0.94136867  0.40630964  0.63526664  1
  O  O25  1  0.44136867  0.59368936  0.36473336  1
  O  O26  1  0.05863133  0.90631064  0.86473336  1
  O  O27  1  0.55863033  0.09368936  0.13526664  1
  O  O28  1  0.25000100  0.32805837  0.48670358  1
  O  O29  1  0.75000000  0.67194263  0.51329642  1
  O  O30  1  0.75000000  0.82805737  0.01329542  1
  O  O31  1  0.25000100  0.17194263  0.98670358  1
  O  O32  1  0.75000000  0.14212479  0.94932433  1
  O  O33  1  0.25000100  0.85787521  0.05067467  1
  O  O34  1  0.25000100  0.64212479  0.55067467  1
  O  O35  1  0.75000000  0.35787621  0.44932533  1
  O  O36  1  0.75000000  0.23119507  0.75350767  1
  O  O37  1  0.25000100  0.76880493  0.24649333  1
  O  O38  1  0.25000100  0.73119507  0.74649233  1
  O  O39  1  0.75000000  0.26880593  0.25350667  1
  O  O40  1  0.43359664  0.13903304  0.37505539  1
  O  O41  1  0.93359664  0.86096696  0.62494461  1
  O  O42  1  0.56640336  0.63903204  0.12494461  1
  O  O43  1  0.06640336  0.36096696  0.87505539  1
  O  O44  1  0.56640336  0.86096696  0.62494461  1
  O  O45  1  0.06640336  0.13903304  0.37505539  1
  O  O46  1  0.43359664  0.36096696  0.87505539  1
  O  O47  1  0.93359664  0.63903204  0.12494461  1
  O  O48  1  0.75000000  0.51863744  0.98645672  1
  O  O49  1  0.25000100  0.03374821  0.72828643  1
  O  O50  1  0.25000100  0.46625079  0.22828643  1
  O  O51  1  0.75000000  0.53374821  0.77171357  1
  O  O52  1  0.75000000  0.98136256  0.48645672  1
  O  O53  1  0.25000100  0.01863744  0.51354328  1
  O  O54  1  0.25000100  0.48136156  0.01354228  1
  O  O55  1  0.75000000  0.96625179  0.27171357  1
