# generated using pymatgen
data_Sr(InP)2
_symmetry_space_group_name_H-M   'P 1'
_cell_length_a   4.15274645
_cell_length_b   4.15274645
_cell_length_c   18.03850865
_cell_angle_alpha   90.00000000
_cell_angle_beta   90.00000000
_cell_angle_gamma   120.00256091
_symmetry_Int_Tables_number   1
_chemical_formula_structural   Sr(InP)2
_chemical_formula_sum   'Sr2 In4 P4'
_cell_volume   269.39583898
_cell_formula_units_Z   2
loop_
 _symmetry_equiv_pos_site_id
 _symmetry_equiv_pos_as_xyz
  1  'x, y, z'
loop_
 _atom_site_type_symbol
 _atom_site_label
 _atom_site_symmetry_multiplicity
 _atom_site_fract_x
 _atom_site_fract_y
 _atom_site_fract_z
 _atom_site_occupancy
  Sr  Sr0  1  0.00000000  0.00000000  -0.00000000  1
  Sr  Sr1  1  0.00000000  0.00000000  0.50000000  1
  In  In2  1  0.33336335  0.66663665  0.82811156  1
  In  In3  1  0.66663665  0.33336335  0.17188844  1
  In  In4  1  0.66663665  0.33336335  0.32811156  1
  In  In5  1  0.33336335  0.66663665  0.67188844  1
  P  P6  1  0.66667252  0.33332748  0.89157529  1
  P  P7  1  0.33332748  0.66667252  0.10842471  1
  P  P8  1  0.33332748  0.66667252  0.39157529  1
  P  P9  1  0.66667252  0.33332748  0.60842471  1
