# generated using pymatgen
data_MgTlF3
_symmetry_space_group_name_H-M   'P 1'
_cell_length_a   4.14531725
_cell_length_b   4.14523226
_cell_length_c   4.15006712
_cell_angle_alpha   90.09182310
_cell_angle_beta   90.18213711
_cell_angle_gamma   90.02094714
_symmetry_Int_Tables_number   1
_chemical_formula_structural   MgTlF3
_chemical_formula_sum   'Mg1 Tl1 F3'
_cell_volume   71.31140303
_cell_formula_units_Z   1
loop_
 _symmetry_equiv_pos_site_id
 _symmetry_equiv_pos_as_xyz
  1  'x, y, z'
loop_
 _atom_site_type_symbol
 _atom_site_label
 _atom_site_symmetry_multiplicity
 _atom_site_fract_x
 _atom_site_fract_y
 _atom_site_fract_z
 _atom_site_occupancy
  Mg  Mg0  1  0.48777741  0.49977556  0.49738310  1
  Tl  Tl1  1  0.99072012  0.99917902  0.99679543  1
  F  F2  1  0.48609926  0.99991436  0.49688596  1
  F  F3  1  0.98729471  0.50172390  0.50161214  1
  F  F4  1  0.48810751  0.49940716  0.99732237  1
