# generated using pymatgen
data_Rb2Li5(BO2)7
_symmetry_space_group_name_H-M   'P 1'
_cell_length_a   4.45340556
_cell_length_b   7.17719564
_cell_length_c   20.85006731
_cell_angle_alpha   90.00000000
_cell_angle_beta   90.00000000
_cell_angle_gamma   108.07411114
_symmetry_Int_Tables_number   1
_chemical_formula_structural   Rb2Li5(BO2)7
_chemical_formula_sum   'Rb4 Li10 B14 O28'
_cell_volume   633.54561940
_cell_formula_units_Z   2
loop_
 _symmetry_equiv_pos_site_id
 _symmetry_equiv_pos_as_xyz
  1  'x, y, z'
loop_
 _atom_site_type_symbol
 _atom_site_label
 _atom_site_symmetry_multiplicity
 _atom_site_fract_x
 _atom_site_fract_y
 _atom_site_fract_z
 _atom_site_occupancy
  Rb  Rb0  1  0.28016971  0.62571178  0.15579673  1
  Rb  Rb1  1  0.65445794  0.37428822  0.84420327  1
  Rb  Rb2  1  0.28016971  0.62571178  0.34420327  1
  Rb  Rb3  1  0.65445794  0.37428822  0.65579673  1
  Li  Li4  1  0.63568051  0.34133734  0.25000000  1
  Li  Li5  1  0.29434316  0.65866266  0.75000000  1
  Li  Li6  1  0.00314356  0.03373938  0.06437105  1
  Li  Li7  1  0.96940418  0.96626062  0.93562895  1
  Li  Li8  1  0.00314356  0.03373938  0.43562895  1
  Li  Li9  1  0.96940418  0.96626062  0.56437105  1
  Li  Li10  1  0.56640362  0.16823556  0.98821171  1
  Li  Li11  1  0.39816806  0.83176444  0.01178829  1
  Li  Li12  1  0.56640362  0.16823556  0.51178829  1
  Li  Li13  1  0.39816806  0.83176444  0.48821171  1
  B  B14  1  0.87652140  0.81953294  0.25000000  1
  B  B15  1  0.05698846  0.18046706  0.75000000  1
  B  B16  1  0.03206793  0.14086077  0.18945036  1
  B  B17  1  0.89120716  0.85913923  0.81054964  1
  B  B18  1  0.03206793  0.14086077  0.31054964  1
  B  B19  1  0.89120716  0.85913923  0.68945036  1
  B  B20  1  0.15976923  0.40010493  0.99306898  1
  B  B21  1  0.75966430  0.59989507  0.00693102  1
  B  B22  1  0.15976923  0.40010493  0.50693102  1
  B  B23  1  0.75966430  0.59989507  0.49306898  1
  B  B24  1  0.53282150  0.14865707  0.12645018  1
  B  B25  1  0.38416442  0.85134293  0.87354982  1
  B  B26  1  0.53282150  0.14865707  0.37354982  1
  B  B27  1  0.38416442  0.85134293  0.62645018  1
  O  O28  1  0.78047509  0.62195038  0.25000000  1
  O  O29  1  0.15852472  0.37804962  0.75000000  1
  O  O30  1  0.92754846  0.92330900  0.19198045  1
  O  O31  1  0.00423946  0.07669100  0.80801955  1
  O  O32  1  0.92754846  0.92330900  0.30801955  1
  O  O33  1  0.00423946  0.07669100  0.69198045  1
  O  O34  1  0.42468920  0.56193264  0.00836909  1
  O  O35  1  0.86275656  0.43806736  0.99163091  1
  O  O36  1  0.42468920  0.56193264  0.49163091  1
  O  O37  1  0.86275656  0.43806736  0.50836909  1
  O  O38  1  0.17285885  0.23052917  0.25000000  1
  O  O39  1  0.94232969  0.76947083  0.75000000  1
  O  O40  1  0.75621440  0.21237660  0.17470147  1
  O  O41  1  0.54383780  0.78762340  0.82529853  1
  O  O42  1  0.75621440  0.21237660  0.32529853  1
  O  O43  1  0.54383780  0.78762340  0.67470147  1
  O  O44  1  0.25422017  0.20113321  0.13396242  1
  O  O45  1  0.05308696  0.79886679  0.86603758  1
  O  O46  1  0.25422017  0.20113321  0.36603758  1
  O  O47  1  0.05308696  0.79886679  0.63396242  1
  O  O48  1  0.56798388  0.04785622  0.07312183  1
  O  O49  1  0.52012766  0.95214378  0.92687817  1
  O  O50  1  0.56798388  0.04785622  0.42687817  1
  O  O51  1  0.52012766  0.95214378  0.57312183  1
  O  O52  1  0.16305677  0.22004067  0.98024175  1
  O  O53  1  0.94301611  0.77995933  0.01975825  1
  O  O54  1  0.16305677  0.22004067  0.51975825  1
  O  O55  1  0.94301611  0.77995933  0.48024175  1
