# generated using pymatgen
data_Er2Re2Si2C
_symmetry_space_group_name_H-M   'P 1'
_cell_length_a   3.97784812
_cell_length_b   5.80028324
_cell_length_c   5.95354432
_cell_angle_alpha   71.69606053
_cell_angle_beta   70.48376492
_cell_angle_gamma   69.94627049
_symmetry_Int_Tables_number   1
_chemical_formula_structural   Er2Re2Si2C
_chemical_formula_sum   'Er2 Re2 Si2 C1'
_cell_volume   118.49463867
_cell_formula_units_Z   1
loop_
 _symmetry_equiv_pos_site_id
 _symmetry_equiv_pos_as_xyz
  1  'x, y, z'
loop_
 _atom_site_type_symbol
 _atom_site_label
 _atom_site_symmetry_multiplicity
 _atom_site_fract_x
 _atom_site_fract_y
 _atom_site_fract_z
 _atom_site_occupancy
  Er  Er0  1  0.42801888  0.84516563  0.29879661  1
  Er  Er1  1  0.57198112  0.15483437  0.70120339  1
  Re  Re2  1  0.79234402  0.32138874  0.09392321  1
  Re  Re3  1  0.20765598  0.67861126  0.90607679  1
  Si  Si4  1  0.85872439  0.60342508  0.67912615  1
  Si  Si5  1  0.14127561  0.39657492  0.32087385  1
  C  C6  1  0.00000000  0.00000000  0.00000000  1
