# generated using pymatgen
data_NiP3H12NO7
_symmetry_space_group_name_H-M   'P 1'
_cell_length_a   7.42930084
_cell_length_b   9.27404330
_cell_length_c   15.03085617
_cell_angle_alpha   90.00000000
_cell_angle_beta   90.00000000
_cell_angle_gamma   108.90394920
_symmetry_Int_Tables_number   1
_chemical_formula_structural   NiP3H12NO7
_chemical_formula_sum   'Ni4 P12 H48 N4 O28'
_cell_volume   979.76259414
_cell_formula_units_Z   4
loop_
 _symmetry_equiv_pos_site_id
 _symmetry_equiv_pos_as_xyz
  1  'x, y, z'
loop_
 _atom_site_type_symbol
 _atom_site_label
 _atom_site_symmetry_multiplicity
 _atom_site_fract_x
 _atom_site_fract_y
 _atom_site_fract_z
 _atom_site_occupancy
  Ni  Ni0  1  0.10240158  0.09745786  0.82794687  1
  Ni  Ni1  1  0.39759842  0.40254214  0.32794687  1
  Ni  Ni2  1  0.89759842  0.90254214  0.17205313  1
  Ni  Ni3  1  0.60240158  0.59745786  0.67205313  1
  P  P4  1  0.14404522  0.04656051  0.34742484  1
  P  P5  1  0.64404522  0.54656051  0.15257516  1
  P  P6  1  0.42511081  0.19776802  0.66915593  1
  P  P7  1  0.19327963  0.77157916  0.07423877  1
  P  P8  1  0.07488919  0.30223198  0.16915593  1
  P  P9  1  0.35595478  0.45343949  0.84742484  1
  P  P10  1  0.57488919  0.80223198  0.33084407  1
  P  P11  1  0.92511081  0.69776802  0.83084407  1
  P  P12  1  0.80672037  0.22842084  0.92576123  1
  P  P13  1  0.30672037  0.72842084  0.57423877  1
  P  P14  1  0.69327963  0.27157916  0.42576123  1
  P  P15  1  0.85595478  0.95343949  0.65257516  1
  H  H16  1  0.12753320  0.44880384  0.64700024  1
  H  H17  1  0.07837719  0.63609888  0.40694134  1
  H  H18  1  0.07688742  0.54015465  0.30888358  1
  H  H19  1  0.39161018  0.15205418  0.95287257  1
  H  H20  1  0.26982043  0.18080516  0.61036410  1
  H  H21  1  0.66938370  0.48582097  0.06847919  1
  H  H22  1  0.92311258  0.45984535  0.69111642  1
  H  H23  1  0.76982043  0.68080516  0.88963590  1
  H  H24  1  0.80232024  0.95394512  0.00488420  1
  H  H25  1  0.78649995  0.29600640  0.84342446  1
  H  H26  1  0.73017957  0.81919484  0.38963590  1
  H  H27  1  0.60838982  0.84794582  0.04712743  1
  H  H28  1  0.37246680  0.05119616  0.14700024  1
  H  H29  1  0.99701666  0.88425129  0.63663483  1
  H  H30  1  0.42162281  0.86390112  0.90694134  1
  H  H31  1  0.87246680  0.55119616  0.35299976  1
  H  H32  1  0.71350005  0.20399360  0.34342446  1
  H  H33  1  0.03213186  0.61557223  0.87372653  1
  H  H34  1  0.57688742  0.04015465  0.19111642  1
  H  H35  1  0.53213186  0.11557223  0.62627347  1
  H  H36  1  0.69767976  0.54605488  0.50488420  1
  H  H37  1  0.42311258  0.95984535  0.80888358  1
  H  H38  1  0.30232024  0.45394512  0.49511580  1
  H  H39  1  0.50298334  0.61574871  0.13663483  1
  H  H40  1  0.96844062  0.28911372  0.68954904  1
  H  H41  1  0.62753320  0.94880384  0.85299976  1
  H  H42  1  0.83061630  0.01417903  0.56847919  1
  H  H43  1  0.10838982  0.34794582  0.45287257  1
  H  H44  1  0.03728582  0.66108478  0.03285694  1
  H  H45  1  0.92162281  0.36390112  0.59305866  1
  H  H46  1  0.00298334  0.11574871  0.36336517  1
  H  H47  1  0.96786814  0.38442777  0.12627347  1
  H  H48  1  0.89161018  0.65205418  0.54712743  1
  H  H49  1  0.23017957  0.31919484  0.11036410  1
  H  H50  1  0.46271418  0.83891522  0.53285694  1
  H  H51  1  0.16938370  0.98582097  0.43152081  1
  H  H52  1  0.03155938  0.71088628  0.31045096  1
  H  H53  1  0.53728582  0.16108478  0.46714306  1
  H  H54  1  0.46844062  0.78911372  0.81045096  1
  H  H55  1  0.46786814  0.88442777  0.37372653  1
  H  H56  1  0.49701666  0.38425129  0.86336517  1
  H  H57  1  0.19767976  0.04605488  0.99511580  1
  H  H58  1  0.53155938  0.21088628  0.18954904  1
  H  H59  1  0.96271418  0.33891522  0.96714306  1
  H  H60  1  0.57837719  0.13609888  0.09305866  1
  H  H61  1  0.21350005  0.70399360  0.15657554  1
  H  H62  1  0.28649995  0.79600640  0.65657554  1
  H  H63  1  0.33061630  0.51417903  0.93152081  1
  N  N64  1  0.51610201  0.10942629  0.15583858  1
  N  N65  1  0.98389799  0.39057371  0.65583858  1
  N  N66  1  0.48389799  0.89057371  0.84416142  1
  N  N67  1  0.01610201  0.60942629  0.34416142  1
  O  O68  1  0.17024666  0.33352101  0.81979430  1
  O  O69  1  0.87163349  0.29470444  0.48117380  1
  O  O70  1  0.12836651  0.70529556  0.51882620  1
  O  O71  1  0.43695277  0.58983444  0.78515227  1
  O  O72  1  0.64960298  0.88811807  0.24450968  1
  O  O73  1  0.35039702  0.11188193  0.75549032  1
  O  O74  1  0.35972833  0.58364375  0.59236873  1
  O  O75  1  0.85039702  0.61188193  0.74450968  1
  O  O76  1  0.32975334  0.16647899  0.31979430  1
  O  O77  1  0.24959073  0.37623333  0.44860170  1
  O  O78  1  0.06304723  0.91016556  0.28515227  1
  O  O79  1  0.14027167  0.91635625  0.09236873  1
  O  O80  1  0.75040927  0.62376667  0.55139830  1
  O  O81  1  0.67024666  0.83352101  0.68020570  1
  O  O82  1  0.93695277  0.08983444  0.71484773  1
  O  O83  1  0.25040927  0.12376667  0.94860170  1
  O  O84  1  0.37163349  0.79470444  0.01882620  1
  O  O85  1  0.54719754  0.36355529  0.67295835  1
  O  O86  1  0.74959073  0.87623333  0.05139830  1
  O  O87  1  0.56304723  0.41016556  0.21484773  1
  O  O88  1  0.85972833  0.08364375  0.90763127  1
  O  O89  1  0.62836651  0.20529556  0.98117380  1
  O  O90  1  0.04719754  0.86355529  0.82704165  1
  O  O91  1  0.95280246  0.13644471  0.17295835  1
  O  O92  1  0.82975334  0.66647899  0.18020570  1
  O  O93  1  0.14960298  0.38811807  0.25549032  1
  O  O94  1  0.45280246  0.63644471  0.32704165  1
  O  O95  1  0.64027167  0.41635625  0.40763127  1
