# generated using pymatgen
data_IrI3
_symmetry_space_group_name_H-M   'P 1'
_cell_length_a   6.95615347
_cell_length_b   6.95261229
_cell_length_c   7.47261520
_cell_angle_alpha   81.77887312
_cell_angle_beta   73.39079389
_cell_angle_gamma   59.98315649
_symmetry_Int_Tables_number   1
_chemical_formula_structural   IrI3
_chemical_formula_sum   'Ir2 I6'
_cell_volume   299.87315647
_cell_formula_units_Z   2
loop_
 _symmetry_equiv_pos_site_id
 _symmetry_equiv_pos_as_xyz
  1  'x, y, z'
loop_
 _atom_site_type_symbol
 _atom_site_label
 _atom_site_symmetry_multiplicity
 _atom_site_fract_x
 _atom_site_fract_y
 _atom_site_fract_z
 _atom_site_occupancy
  Ir  Ir0  1  0.16668390  0.66663220  0.00000000  1
  Ir  Ir1  1  0.83331610  0.33336780  1.00000000  1
  I  I2  1  0.56371925  0.35664754  0.79202933  1
  I  I3  1  0.43628075  0.64335246  0.20797067  1
  I  I4  1  0.07963321  0.35664754  0.20797067  1
  I  I5  1  0.92036679  0.64335246  0.79202933  1
  I  I6  1  0.20772126  1.00000000  0.79201678  1
  I  I7  1  0.79227874  0.00000000  0.20798322  1
