# generated using pymatgen
data_SmSi2Ni
_symmetry_space_group_name_H-M   'P 1'
_cell_length_a   4.04615456
_cell_length_b   4.10163342
_cell_length_c   8.44376030
_cell_angle_alpha   104.05655634
_cell_angle_beta   90.00000000
_cell_angle_gamma   90.00000000
_symmetry_Int_Tables_number   1
_chemical_formula_structural   SmSi2Ni
_chemical_formula_sum   'Sm2 Si4 Ni2'
_cell_volume   135.93528963
_cell_formula_units_Z   2
loop_
 _symmetry_equiv_pos_site_id
 _symmetry_equiv_pos_as_xyz
  1  'x, y, z'
loop_
 _atom_site_type_symbol
 _atom_site_label
 _atom_site_symmetry_multiplicity
 _atom_site_fract_x
 _atom_site_fract_y
 _atom_site_fract_z
 _atom_site_occupancy
  Sm  Sm0  1  0.25000000  0.39378490  0.78756981  1
  Sm  Sm1  1  0.75000000  0.60621510  0.21243019  1
  Si  Si2  1  0.25000000  0.04044381  0.08088762  1
  Si  Si3  1  0.75000000  0.95955619  0.91911238  1
  Si  Si4  1  0.25000000  0.74983700  0.49967401  1
  Si  Si5  1  0.75000000  0.25016300  0.50032599  1
  Ni  Ni6  1  0.25000000  0.18058245  0.36116490  1
  Ni  Ni7  1  0.75000000  0.81941755  0.63883510  1
