# generated using pymatgen
data_LiScP2O7
_symmetry_space_group_name_H-M   'P 1'
_cell_length_a   5.01522908
_cell_length_b   7.11600232
_cell_length_c   8.52197514
_cell_angle_alpha   90.00000000
_cell_angle_beta   90.00000000
_cell_angle_gamma   108.91558209
_symmetry_Int_Tables_number   1
_chemical_formula_structural   LiScP2O7
_chemical_formula_sum   'Li2 Sc2 P4 O14'
_cell_volume   287.71134335
_cell_formula_units_Z   2
loop_
 _symmetry_equiv_pos_site_id
 _symmetry_equiv_pos_as_xyz
  1  'x, y, z'
loop_
 _atom_site_type_symbol
 _atom_site_label
 _atom_site_symmetry_multiplicity
 _atom_site_fract_x
 _atom_site_fract_y
 _atom_site_fract_z
 _atom_site_occupancy
  Li  Li0  1  0.81695608  0.34111264  0.35368270  1
  Li  Li1  1  0.18304392  0.65888736  0.85368270  1
  O  O2  1  0.03586291  0.86125312  0.33021611  1
  O  O3  1  0.59614169  0.76264583  0.15778437  1
  O  O4  1  0.40385831  0.23735417  0.65778437  1
  O  O5  1  0.80176518  0.50593519  0.53923781  1
  O  O6  1  0.19823482  0.49406481  0.03923781  1
  O  O7  1  0.40201603  0.59276694  0.67705358  1
  O  O8  1  0.85596099  0.12071820  0.20257271  1
  O  O9  1  0.14403901  0.87928180  0.70257271  1
  O  O10  1  0.59798397  0.40723306  0.17705358  1
  O  O11  1  0.75785899  0.48454964  0.83588604  1
  O  O12  1  0.59337458  0.91783614  0.42936426  1
  O  O13  1  0.24214101  0.51545036  0.33588604  1
  O  O14  1  0.40662542  0.08216386  0.92936426  1
  O  O15  1  0.96413709  0.13874688  0.83021611  1
  P  P16  1  0.40102835  0.53259749  0.17930133  1
  P  P17  1  0.78030349  0.91989595  0.28709495  1
  P  P18  1  0.21969651  0.08010405  0.78709495  1
  P  P19  1  0.59897165  0.46740251  0.67930133  1
  Sc  Sc20  1  0.78871499  0.26823356  0.00080614  1
  Sc  Sc21  1  0.21128501  0.73176644  0.50080614  1
