# generated using pymatgen
data_ErGa2Ni
_symmetry_space_group_name_H-M   'P 1'
_cell_length_a   4.09643839
_cell_length_b   5.40476541
_cell_length_c   6.66291873
_cell_angle_alpha   90.00000000
_cell_angle_beta   90.00000000
_cell_angle_gamma   112.26961318
_symmetry_Int_Tables_number   1
_chemical_formula_structural   ErGa2Ni
_chemical_formula_sum   'Er2 Ga4 Ni2'
_cell_volume   136.51562795
_cell_formula_units_Z   2
loop_
 _symmetry_equiv_pos_site_id
 _symmetry_equiv_pos_as_xyz
  1  'x, y, z'
loop_
 _atom_site_type_symbol
 _atom_site_label
 _atom_site_symmetry_multiplicity
 _atom_site_fract_x
 _atom_site_fract_y
 _atom_site_fract_z
 _atom_site_occupancy
  Er  Er0  1  0.42887978  0.85775955  0.25000000  1
  Er  Er1  1  0.57112022  0.14224045  0.75000000  1
  Ga  Ga2  1  0.14277279  0.28554557  0.05446685  1
  Ga  Ga3  1  0.85722721  0.71445443  0.94553315  1
  Ga  Ga4  1  0.85722721  0.71445443  0.55446685  1
  Ga  Ga5  1  0.14277279  0.28554557  0.44553315  1
  Ni  Ni6  1  0.71377579  0.42755159  0.25000000  1
  Ni  Ni7  1  0.28622421  0.57244841  0.75000000  1
