# generated using pymatgen
data_Sr(YS2)2
_symmetry_space_group_name_H-M   'P 1'
_cell_length_a   4.00376418
_cell_length_b   12.06357584
_cell_length_c   14.40180683
_cell_angle_alpha   90.00000000
_cell_angle_beta   90.00000000
_cell_angle_gamma   90.00000000
_symmetry_Int_Tables_number   1
_chemical_formula_structural   Sr(YS2)2
_chemical_formula_sum   'Sr4 Y8 S16'
_cell_volume   695.60313414
_cell_formula_units_Z   4
loop_
 _symmetry_equiv_pos_site_id
 _symmetry_equiv_pos_as_xyz
  1  'x, y, z'
loop_
 _atom_site_type_symbol
 _atom_site_label
 _atom_site_symmetry_multiplicity
 _atom_site_fract_x
 _atom_site_fract_y
 _atom_site_fract_z
 _atom_site_occupancy
  S  S0  1  0.25000000  0.63018710  0.97311725  1
  S  S1  1  0.75000000  0.36981290  0.02688275  1
  S  S2  1  0.25000000  0.13018710  0.52688275  1
  S  S3  1  0.75000000  0.86981290  0.47311725  1
  S  S4  1  0.75000000  0.29260894  0.32530392  1
  S  S5  1  0.25000000  0.70739106  0.67469608  1
  S  S6  1  0.75000000  0.79260894  0.17469608  1
  S  S7  1  0.25000000  0.20739106  0.82530392  1
  S  S8  1  0.75000000  0.58586625  0.42150476  1
  S  S9  1  0.25000000  0.41413375  0.57849524  1
  S  S10  1  0.75000000  0.08586625  0.07849524  1
  S  S11  1  0.25000000  0.91413375  0.92150476  1
  S  S12  1  0.75000000  0.97765405  0.71585152  1
  S  S13  1  0.25000000  0.02234595  0.28414848  1
  S  S14  1  0.75000000  0.47765405  0.78414848  1
  S  S15  1  0.25000000  0.52234595  0.21585152  1
  Sr  Sr16  1  0.25000000  0.75792922  0.33809328  1
  Sr  Sr17  1  0.75000000  0.24207078  0.66190672  1
  Sr  Sr18  1  0.25000000  0.25792922  0.16190672  1
  Sr  Sr19  1  0.75000000  0.74207078  0.83809328  1
  Y  Y20  1  0.25000000  0.43223319  0.38985833  1
  Y  Y21  1  0.75000000  0.56776681  0.61014167  1
  Y  Y22  1  0.25000000  0.93223319  0.11014167  1
  Y  Y23  1  0.75000000  0.06776681  0.88985833  1
  Y  Y24  1  0.25000000  0.91937993  0.60081286  1
  Y  Y25  1  0.75000000  0.08062007  0.39918714  1
  Y  Y26  1  0.25000000  0.41937993  0.89918714  1
  Y  Y27  1  0.75000000  0.58062007  0.10081286  1
