# generated using pymatgen
data_SrTi11O20
_symmetry_space_group_name_H-M   'P 1'
_cell_length_a   7.18400228
_cell_length_b   7.70659114
_cell_length_c   13.28018377
_cell_angle_alpha   90.28528798
_cell_angle_beta   92.73433235
_cell_angle_gamma   103.73561118
_symmetry_Int_Tables_number   1
_chemical_formula_structural   SrTi11O20
_chemical_formula_sum   'Sr2 Ti22 O40'
_cell_volume   713.30564492
_cell_formula_units_Z   2
loop_
 _symmetry_equiv_pos_site_id
 _symmetry_equiv_pos_as_xyz
  1  'x, y, z'
loop_
 _atom_site_type_symbol
 _atom_site_label
 _atom_site_symmetry_multiplicity
 _atom_site_fract_x
 _atom_site_fract_y
 _atom_site_fract_z
 _atom_site_occupancy
  Sr  Sr0  1  0.46138130  0.81241691  0.76115266  1
  Sr  Sr1  1  0.53861870  0.18758309  0.23884734  1
  Ti  Ti2  1  0.03473464  0.43091270  0.70845038  1
  Ti  Ti3  1  0.69715489  0.79654464  0.41588619  1
  Ti  Ti4  1  0.68194025  0.92172936  0.99854139  1
  Ti  Ti5  1  0.35528239  0.63527638  0.28656988  1
  Ti  Ti6  1  0.67831781  0.06651151  0.56301573  1
  Ti  Ti7  1  0.32168219  0.93348849  0.43698427  1
  Ti  Ti8  1  0.99407848  0.70422628  0.87356628  1
  Ti  Ti9  1  0.98187454  0.79279201  0.63286195  1
  Ti  Ti10  1  0.32369019  0.57914369  0.51200649  1
  Ti  Ti11  1  0.30284511  0.20345536  0.58411381  1
  Ti  Ti12  1  0.33669543  0.43262358  0.93013407  1
  Ti  Ti13  1  0.00851682  0.92923681  0.20332192  1
  Ti  Ti14  1  0.31832064  0.71179469  0.08295555  1
  Ti  Ti15  1  0.66330457  0.56737642  0.06986593  1
  Ti  Ti16  1  0.96526536  0.56908730  0.29154962  1
  Ti  Ti17  1  0.31805975  0.07827064  0.00145861  1
  Ti  Ti18  1  0.67630981  0.42085631  0.48799351  1
  Ti  Ti19  1  0.99148318  0.07076319  0.79667808  1
  Ti  Ti20  1  0.68167936  0.28820531  0.91704445  1
  Ti  Ti21  1  0.00592152  0.29577372  0.12643372  1
  Ti  Ti22  1  0.64471761  0.36472362  0.71343012  1
  Ti  Ti23  1  0.01812546  0.20720799  0.36713805  1
  O  O24  1  0.50277113  0.31798813  0.03324075  1
  O  O25  1  0.85032447  0.59745220  0.73203562  1
  O  O26  1  0.87765545  0.11676147  0.23342739  1
  O  O27  1  0.84130536  0.26362598  0.79935874  1
  O  O28  1  0.50317593  0.82185824  0.53214676  1
  O  O29  1  0.83274089  0.81882780  0.09679605  1
  O  O30  1  0.51525268  0.04533252  0.90458557  1
  O  O31  1  0.49506635  0.59479197  0.17493714  1
  O  O32  1  0.84918752  0.76661660  0.30539038  1
  O  O33  1  0.48942219  0.45288003  0.60321023  1
  O  O34  1  0.17465622  0.66995811  0.40467199  1
  O  O35  1  0.16892739  0.82496560  0.97676707  1
  O  O36  1  0.14967553  0.40254780  0.26796438  1
  O  O37  1  0.82696708  0.53524951  0.95218380  1
  O  O38  1  0.83399689  0.04619916  0.44714317  1
  O  O39  1  0.83107261  0.17503440  0.02323293  1
  O  O40  1  0.17303292  0.46475049  0.04781620  1
  O  O41  1  0.49682407  0.17814176  0.46785324  1
  O  O42  1  0.50493365  0.40520803  0.82506286  1
  O  O43  1  0.49722887  0.68201187  0.96675925  1
  O  O44  1  0.15869464  0.73637402  0.20064126  1
  O  O45  1  0.15081248  0.23338340  0.69460962  1
  O  O46  1  0.83069971  0.44853651  0.16750242  1
  O  O47  1  0.17582053  0.04416962  0.33338089  1
  O  O48  1  0.17567118  0.62288654  0.62716401  1
  O  O49  1  0.16600311  0.95380084  0.55285683  1
  O  O50  1  0.51057781  0.54711997  0.39678977  1
  O  O51  1  0.82432882  0.37711346  0.37283599  1
  O  O52  1  0.82417947  0.95583038  0.66661911  1
  O  O53  1  0.82301822  0.67186126  0.52061014  1
  O  O54  1  0.17540989  0.11669757  0.12441416  1
  O  O55  1  0.16725911  0.18117220  0.90320395  1
  O  O56  1  0.48474732  0.95466748  0.09541443  1
  O  O57  1  0.12234455  0.88323853  0.76657261  1
  O  O58  1  0.82534378  0.33004189  0.59532801  1
  O  O59  1  0.49562150  0.87905723  0.33218924  1
  O  O60  1  0.17698178  0.32813874  0.47938986  1
  O  O61  1  0.82459011  0.88330243  0.87558584  1
  O  O62  1  0.50437850  0.12094277  0.66781076  1
  O  O63  1  0.16930029  0.55146349  0.83249758  1
