# generated using pymatgen
data_UF4
_symmetry_space_group_name_H-M   'P 1'
_cell_length_a   8.42078783
_cell_length_b   8.42078783
_cell_length_c   8.43062976
_cell_angle_alpha   63.12341438
_cell_angle_beta   63.12341442
_cell_angle_gamma   80.22399052
_symmetry_Int_Tables_number   1
_chemical_formula_structural   UF4
_chemical_formula_sum   'U6 F24'
_cell_volume   475.19037622
_cell_formula_units_Z   6
loop_
 _symmetry_equiv_pos_site_id
 _symmetry_equiv_pos_as_xyz
  1  'x, y, z'
loop_
 _atom_site_type_symbol
 _atom_site_label
 _atom_site_symmetry_multiplicity
 _atom_site_fract_x
 _atom_site_fract_y
 _atom_site_fract_z
 _atom_site_occupancy
  F  F0  1  0.27354703  0.97385053  0.84817707  1
  F  F1  1  0.02614947  0.72645297  0.65182293  1
  F  F2  1  0.72645297  0.02614947  0.15182293  1
  F  F3  1  0.97385053  0.27354703  0.34817707  1
  F  F4  1  0.49733700  0.74503445  0.70937188  1
  F  F5  1  0.25496555  0.50266300  0.79062812  1
  F  F6  1  0.50000000  0.00000000  0.00000000  1
  F  F7  1  0.00000000  0.50000000  0.50000000  1
  F  F8  1  0.60095813  0.39904187  0.75000000  1
  F  F9  1  0.39904187  0.60095813  0.25000000  1
  F  F10  1  0.18970174  0.60042708  0.07294303  1
  F  F11  1  0.39957292  0.81029826  0.42705697  1
  F  F12  1  0.81029826  0.39957292  0.92705697  1
  F  F13  1  0.60042708  0.18970174  0.57294303  1
  F  F14  1  0.93264351  0.82328073  0.95479262  1
  F  F15  1  0.17671927  0.06735649  0.54520738  1
  F  F16  1  0.06735649  0.17671927  0.04520738  1
  F  F17  1  0.82328073  0.93264351  0.45479262  1
  F  F18  1  0.32282692  0.26142006  0.10445884  1
  F  F19  1  0.73857994  0.67717308  0.39554116  1
  F  F20  1  0.67717308  0.73857994  0.89554116  1
  F  F21  1  0.26142006  0.32282692  0.60445884  1
  F  F22  1  0.74503445  0.49733700  0.20937188  1
  F  F23  1  0.50266300  0.25496555  0.29062812  1
  U  U24  1  0.77601065  0.63205649  0.67030320  1
  U  U25  1  0.36794351  0.22398935  0.82969680  1
  U  U26  1  0.22398935  0.36794351  0.32969680  1
  U  U27  1  0.63205649  0.77601065  0.17030320  1
  U  U28  1  0.78725358  0.21274642  0.25000000  1
  U  U29  1  0.21274642  0.78725358  0.75000000  1
