# generated using pymatgen
data_KTlF4
_symmetry_space_group_name_H-M   'P 1'
_cell_length_a   8.21665358
_cell_length_b   8.21665359
_cell_length_c   10.38701845
_cell_angle_alpha   90.00000000
_cell_angle_beta   90.00000000
_cell_angle_gamma   119.99999999
_symmetry_Int_Tables_number   1
_chemical_formula_structural   KTlF4
_chemical_formula_sum   'K6 Tl6 F24'
_cell_volume   607.31147833
_cell_formula_units_Z   6
loop_
 _symmetry_equiv_pos_site_id
 _symmetry_equiv_pos_as_xyz
  1  'x, y, z'
loop_
 _atom_site_type_symbol
 _atom_site_label
 _atom_site_symmetry_multiplicity
 _atom_site_fract_x
 _atom_site_fract_y
 _atom_site_fract_z
 _atom_site_occupancy
  F  F0  1  0.11388125  0.05167709  0.70019326  1
  F  F1  1  0.93779584  0.88611875  0.36685993  1
  F  F2  1  0.94832291  0.06220416  0.03352659  1
  F  F3  1  0.81241207  0.79656998  0.84820620  1
  F  F4  1  0.98415791  0.18758793  0.51487287  1
  F  F5  1  0.20343002  0.01584209  0.18153953  1
  F  F6  1  0.70873267  0.19998838  0.09482003  1
  F  F7  1  0.49125571  0.29126733  0.76148670  1
  F  F8  1  0.80001162  0.50874429  0.42815336  1
  F  F9  1  0.19373410  0.72237858  0.63362097  1
  F  F10  1  0.52864448  0.80626590  0.30028764  1
  F  F11  1  0.27762142  0.47135552  0.96695431  1
  F  F12  1  0.05770904  0.32102369  0.24711985  1
  F  F13  1  0.67897631  0.73668535  0.58045318  1
  F  F14  1  0.26331465  0.94229096  0.91378651  1
  F  F15  1  0.47023217  0.35024270  0.26801430  1
  F  F16  1  0.64975730  0.11998948  0.60134764  1
  F  F17  1  0.88001052  0.52976783  0.93468097  1
  F  F18  1  0.32834788  0.06238152  0.47379825  1
  F  F19  1  0.93761848  0.26596636  0.80713159  1
  F  F20  1  0.73403364  0.67165212  0.14046492  1
  F  F21  1  0.34846183  0.46856445  0.45594139  1
  F  F22  1  0.53143555  0.87989738  0.78927473  1
  F  F23  1  0.12010262  0.65153817  0.12260806  1
  K  K24  1  0.48397977  0.31537688  0.01779951  1
  K  K25  1  0.68462312  0.16860289  0.35113284  1
  K  K26  1  0.83139711  0.51602023  0.68446617  1
  K  K27  1  0.31027617  0.48032469  0.70627857  1
  K  K28  1  0.51967531  0.82995148  0.03961191  1
  K  K29  1  0.17004852  0.68972383  0.37294524  1
  Tl  Tl30  1  0.99350958  0.35604049  0.02960392  1
  Tl  Tl31  1  0.64395951  0.63746910  0.36293725  1
  Tl  Tl32  1  0.36253090  0.00649042  0.69627058  1
  Tl  Tl33  1  0.17894312  0.17752948  0.36027041  1
  Tl  Tl34  1  0.82247052  0.00141364  0.69360374  1
  Tl  Tl35  1  0.99858636  0.82105688  0.02693708  1
