# generated using pymatgen
data_RbZnPO4
_symmetry_space_group_name_H-M   'P 1'
_cell_length_a   5.49863117
_cell_length_b   9.00297757
_cell_length_c   9.09152561
_cell_angle_alpha   90.18503265
_cell_angle_beta   90.00000000
_cell_angle_gamma   90.00000000
_symmetry_Int_Tables_number   1
_chemical_formula_structural   RbZnPO4
_chemical_formula_sum   'Rb4 Zn4 P4 O16'
_cell_volume   450.06501936
_cell_formula_units_Z   4
loop_
 _symmetry_equiv_pos_site_id
 _symmetry_equiv_pos_as_xyz
  1  'x, y, z'
loop_
 _atom_site_type_symbol
 _atom_site_label
 _atom_site_symmetry_multiplicity
 _atom_site_fract_x
 _atom_site_fract_y
 _atom_site_fract_z
 _atom_site_occupancy
  O  O0  1  0.21107268  0.80756084  0.74635378  1
  O  O1  1  0.71107268  0.19243916  0.25364622  1
  O  O2  1  0.04584379  0.72198931  0.49743353  1
  O  O3  1  0.54584379  0.27801069  0.50256647  1
  O  O4  1  0.49844368  0.72244163  0.54092596  1
  O  O5  1  0.99844368  0.27755837  0.45907404  1
  O  O6  1  0.27346954  0.96597593  0.51889153  1
  O  O7  1  0.77346954  0.03402407  0.48110847  1
  O  O8  1  0.64042022  0.70872884  0.95240014  1
  O  O9  1  0.14042022  0.29127116  0.04759986  1
  O  O10  1  0.06266213  0.72573346  0.06690231  1
  O  O11  1  0.56266213  0.27426654  0.93309769  1
  O  O12  1  0.25819477  0.46578906  0.83597558  1
  O  O13  1  0.75819477  0.53421094  0.16402442  1
  O  O14  1  0.19277904  0.19176935  0.78926151  1
  O  O15  1  0.69277904  0.80823065  0.21073849  1
  P  P16  1  0.78873953  0.69210059  0.09766449  1
  P  P17  1  0.28873953  0.30789941  0.90233551  1
  P  P18  1  0.25684247  0.80582352  0.57757836  1
  P  P19  1  0.75684247  0.19417648  0.42242164  1
  Zn  Zn20  1  0.79126549  0.32896470  0.09186947  1
  Zn  Zn21  1  0.29126549  0.67103530  0.90813053  1
  Zn  Zn22  1  0.75318623  0.82513688  0.42312878  1
  Zn  Zn23  1  0.25318623  0.17486312  0.57687122  1
  Rb  Rb24  1  0.78178820  0.49824556  0.68722717  1
  Rb  Rb25  1  0.28178820  0.50175444  0.31277283  1
  Rb  Rb26  1  0.25819222  0.00871707  0.19838343  1
  Rb  Rb27  1  0.75819222  0.99128293  0.80161657  1
