# generated using pymatgen
data_Mg3V6(FeO6)4
_symmetry_space_group_name_H-M   'P 1'
_cell_length_a   6.75125777
_cell_length_b   8.17608777
_cell_length_c   9.91681741
_cell_angle_alpha   105.25593707
_cell_angle_beta   105.49383340
_cell_angle_gamma   102.25582974
_symmetry_Int_Tables_number   1
_chemical_formula_structural   Mg3V6(FeO6)4
_chemical_formula_sum   'Mg3 V6 Fe4 O24'
_cell_volume   484.83970817
_cell_formula_units_Z   1
loop_
 _symmetry_equiv_pos_site_id
 _symmetry_equiv_pos_as_xyz
  1  'x, y, z'
loop_
 _atom_site_type_symbol
 _atom_site_label
 _atom_site_symmetry_multiplicity
 _atom_site_fract_x
 _atom_site_fract_y
 _atom_site_fract_z
 _atom_site_occupancy
  O  O0  1  0.87770389  0.69347582  0.58575743  1
  O  O1  1  0.12229611  0.30652418  0.41424257  1
  O  O2  1  0.26539155  0.51362902  0.74121320  1
  O  O3  1  0.73460845  0.48637098  0.25878680  1
  O  O4  1  0.78506514  0.30148478  0.54427401  1
  O  O5  1  0.21493486  0.69851522  0.45572599  1
  O  O6  1  0.66731796  0.96154759  0.57522311  1
  O  O7  1  0.33268204  0.03845241  0.42477689  1
  O  O8  1  0.64672931  0.73735166  0.00156553  1
  O  O9  1  0.35327069  0.26264834  0.99843447  1
  O  O10  1  0.47393995  0.77235271  0.27150024  1
  O  O11  1  0.52606005  0.22764729  0.72849976  1
  O  O12  1  0.13203898  0.03105842  0.65257658  1
  O  O13  1  0.07233762  0.05400862  0.14249895  1
  O  O14  1  0.92766238  0.94599138  0.85750105  1
  O  O15  1  0.55882158  0.13306176  0.22972472  1
  O  O16  1  0.44117842  0.86693824  0.77027528  1
  O  O17  1  0.18102919  0.44001410  0.18546978  1
  O  O18  1  0.81897081  0.55998590  0.81453022  1
  O  O19  1  0.98691869  0.27935008  0.83276152  1
  O  O20  1  0.01308131  0.72064992  0.16723848  1
  O  O21  1  0.23422313  0.78386463  0.96764411  1
  O  O22  1  0.76577687  0.21613537  0.03235589  1
  O  O23  1  0.86796102  0.96894158  0.34742342  1
  Mg  Mg24  1  0.00000000  0.50000000  0.50000000  1
  Mg  Mg25  1  0.27889158  0.29111072  0.79219020  1
  Mg  Mg26  1  0.72110842  0.70888928  0.20780980  1
  V  V27  1  0.77722748  0.34170810  0.72826619  1
  V  V28  1  0.22277252  0.65829190  0.27173381  1
  V  V29  1  0.89765406  0.90549939  0.66752766  1
  V  V30  1  0.39904329  0.72675753  0.87028085  1
  V  V31  1  0.10234594  0.09450061  0.33247234  1
  V  V32  1  0.60095671  0.27324247  0.12971915  1
  Fe  Fe33  1  0.38000382  0.95368162  0.60789768  1
  Fe  Fe34  1  0.61999618  0.04631838  0.39210232  1
  Fe  Fe35  1  0.04636689  0.21072074  0.01583435  1
  Fe  Fe36  1  0.95363311  0.78927926  0.98416565  1
