# generated using pymatgen
data_TiSeS
_symmetry_space_group_name_H-M   'P 1'
_cell_length_a   3.48641815
_cell_length_b   3.48641757
_cell_length_c   6.46128556
_cell_angle_alpha   89.84768506
_cell_angle_beta   89.84768509
_cell_angle_gamma   60.00744265
_symmetry_Int_Tables_number   1
_chemical_formula_structural   TiSeS
_chemical_formula_sum   'Ti1 Se1 S1'
_cell_volume   68.02036573
_cell_formula_units_Z   1
loop_
 _symmetry_equiv_pos_site_id
 _symmetry_equiv_pos_as_xyz
  1  'x, y, z'
loop_
 _atom_site_type_symbol
 _atom_site_label
 _atom_site_symmetry_multiplicity
 _atom_site_fract_x
 _atom_site_fract_y
 _atom_site_fract_z
 _atom_site_occupancy
  Ti  Ti0  1  0.00551106  0.00551106  0.01467623  1
  Se  Se1  1  0.33064433  0.33064433  0.76409908  1
  S  S2  1  0.66384461  0.66384461  0.22122469  1
