# generated using pymatgen
data_Hf5Ga3
_symmetry_space_group_name_H-M   'P 1'
_cell_length_a   5.69615722
_cell_length_b   8.01638236
_cell_length_c   8.01645218
_cell_angle_alpha   119.99971131
_cell_angle_beta   90.00000000
_cell_angle_gamma   90.00000000
_symmetry_Int_Tables_number   1
_chemical_formula_structural   Hf5Ga3
_chemical_formula_sum   'Hf10 Ga6'
_cell_volume   317.01111728
_cell_formula_units_Z   2
loop_
 _symmetry_equiv_pos_site_id
 _symmetry_equiv_pos_as_xyz
  1  'x, y, z'
loop_
 _atom_site_type_symbol
 _atom_site_label
 _atom_site_symmetry_multiplicity
 _atom_site_fract_x
 _atom_site_fract_y
 _atom_site_fract_z
 _atom_site_occupancy
  Hf  Hf0  1  0.49999924  0.33334932  0.66670628  1
  Hf  Hf1  1  0.49999924  0.66664304  0.33329372  1
  Hf  Hf2  1  0.99999924  0.66665068  0.33329372  1
  Hf  Hf3  1  0.99999924  0.33335696  0.66670628  1
  Hf  Hf4  1  0.75000172  0.24251719  0.00000000  1
  Hf  Hf5  1  0.75000000  0.75744967  0.75748048  1
  Hf  Hf6  1  0.75000000  0.99996919  0.24251952  1
  Hf  Hf7  1  0.25000172  0.75748281  1.00000000  1
  Hf  Hf8  1  0.25000000  0.24255033  0.24251952  1
  Hf  Hf9  1  0.25000000  0.00003081  0.75748048  1
  Ga  Ga10  1  0.74998869  0.60843541  1.00000000  1
  Ga  Ga11  1  0.75000555  0.39153689  0.39155088  1
  Ga  Ga12  1  0.75000555  0.99998601  0.60844912  1
  Ga  Ga13  1  0.24998869  0.39156459  0.00000000  1
  Ga  Ga14  1  0.25000555  0.60846311  0.60844912  1
  Ga  Ga15  1  0.25000555  0.00001399  0.39155088  1
