# generated using pymatgen
data_Gd5Si2BO13
_symmetry_space_group_name_H-M   'P 1'
_cell_length_a   6.92214126
_cell_length_b   9.39581877
_cell_length_c   9.34855309
_cell_angle_alpha   60.04701178
_cell_angle_beta   90.00000000
_cell_angle_gamma   90.00000000
_symmetry_Int_Tables_number   1
_chemical_formula_structural   Gd5Si2BO13
_chemical_formula_sum   'Gd10 Si4 B2 O26'
_cell_volume   526.81200081
_cell_formula_units_Z   2
loop_
 _symmetry_equiv_pos_site_id
 _symmetry_equiv_pos_as_xyz
  1  'x, y, z'
loop_
 _atom_site_type_symbol
 _atom_site_label
 _atom_site_symmetry_multiplicity
 _atom_site_fract_x
 _atom_site_fract_y
 _atom_site_fract_z
 _atom_site_occupancy
  Gd  Gd0  1  0.75000000  0.22537253  0.76001015  1
  Gd  Gd1  1  0.75000000  0.99260720  0.24879179  1
  Gd  Gd2  1  0.75000000  0.77379170  0.97817754  1
  Gd  Gd3  1  0.25000000  0.75561462  0.22174264  1
  Gd  Gd4  1  0.25000000  0.99226729  0.76683052  1
  Gd  Gd5  1  0.25000000  0.24293783  0.00268854  1
  Gd  Gd6  1  0.49940400  0.67451376  0.67857924  1
  Gd  Gd7  1  0.99911643  0.32984024  0.33436407  1
  Gd  Gd8  1  0.50088357  0.32984024  0.33436407  1
  Gd  Gd9  1  0.00059600  0.67451376  0.67857924  1
  Si  Si10  1  0.75000000  0.37097026  0.03103644  1
  Si  Si11  1  0.75000000  0.60229359  0.37032164  1
  Si  Si12  1  0.25000000  0.96875971  0.39677561  1
  Si  Si13  1  0.25000000  0.40407047  0.62849362  1
  B  B14  1  0.75000000  0.03262381  0.59724204  1
  B  B15  1  0.25000000  0.62608571  0.97134307  1
  O  O16  1  0.57229299  0.08571740  0.65336440  1
  O  O17  1  0.56165144  0.24898915  0.09636706  1
  O  O18  1  0.56079690  0.65742538  0.24918298  1
  O  O19  1  0.05983348  0.90688668  0.34069988  1
  O  O20  1  0.07317442  0.73917822  0.91153656  1
  O  O21  1  0.05998004  0.34251898  0.75058846  1
  O  O22  1  0.44016652  0.90688668  0.34069988  1
  O  O23  1  0.42682558  0.73917822  0.91153656  1
  O  O24  1  0.44001996  0.34251898  0.75058846  1
  O  O25  1  0.92770701  0.08571740  0.65336440  1
  O  O26  1  0.93834856  0.24898915  0.09636706  1
  O  O27  1  0.93920310  0.65742538  0.24918298  1
  O  O28  1  0.75000000  0.84971891  0.67109226  1
  O  O29  1  0.75000000  0.49453741  0.83294271  1
  O  O30  1  0.75000000  0.67958599  0.49262823  1
  O  O31  1  0.25000000  0.16757423  0.32042657  1
  O  O32  1  0.25000000  0.51603983  0.15185740  1
  O  O33  1  0.25000000  0.32525421  0.50710654  1
  O  O34  1  0.75000000  0.12459037  0.41100381  1
  O  O35  1  0.75000000  0.47304741  0.13097425  1
  O  O36  1  0.75000000  0.39999167  0.47025050  1
  O  O37  1  0.25000000  0.87254008  0.59918189  1
  O  O38  1  0.25000000  0.53576192  0.87595957  1
  O  O39  1  0.25000000  0.60555350  0.52742336  1
  O  O40  1  0.75000000  0.99489558  0.00631307  1
  O  O41  1  0.25000000  0.00337452  0.00002099  1
