# generated using pymatgen
data_Ca2B5ClO9
_symmetry_space_group_name_H-M   'P 1'
_cell_length_a   6.34629098
_cell_length_b   11.27660977
_cell_length_c   11.41466887
_cell_angle_alpha   90.00000000
_cell_angle_beta   90.00000000
_cell_angle_gamma   90.00000000
_symmetry_Int_Tables_number   1
_chemical_formula_structural   Ca2B5ClO9
_chemical_formula_sum   'Ca8 B20 Cl4 O36'
_cell_volume   816.88674680
_cell_formula_units_Z   4
loop_
 _symmetry_equiv_pos_site_id
 _symmetry_equiv_pos_as_xyz
  1  'x, y, z'
loop_
 _atom_site_type_symbol
 _atom_site_label
 _atom_site_symmetry_multiplicity
 _atom_site_fract_x
 _atom_site_fract_y
 _atom_site_fract_z
 _atom_site_occupancy
  Ca  Ca0  1  0.14979455  0.03703019  0.74621321  1
  Ca  Ca1  1  0.14979455  0.96296981  0.25378679  1
  Ca  Ca2  1  0.64979455  0.53703019  0.75378679  1
  Ca  Ca3  1  0.64979455  0.46296981  0.24621321  1
  Ca  Ca4  1  0.31790889  0.25477474  0.46753912  1
  Ca  Ca5  1  0.31790889  0.74522526  0.53246088  1
  Ca  Ca6  1  0.81790889  0.75477474  0.03246088  1
  Ca  Ca7  1  0.81790889  0.24522526  0.96753912  1
  B  B8  1  0.31439130  0.72130477  0.19460537  1
  B  B9  1  0.31439130  0.27869523  0.80539463  1
  B  B10  1  0.81439130  0.22130477  0.30539463  1
  B  B11  1  0.81439130  0.77869523  0.69460537  1
  B  B12  1  0.35640787  0.24797393  0.02673603  1
  B  B13  1  0.35640787  0.75202607  0.97326397  1
  B  B14  1  0.85640787  0.74797393  0.47326397  1
  B  B15  1  0.85640787  0.25202607  0.52673603  1
  B  B16  1  0.19184218  0.51249454  0.23645993  1
  B  B17  1  0.19184218  0.48750546  0.76354007  1
  B  B18  1  0.69184218  0.01249454  0.26354007  1
  B  B19  1  0.69184218  0.98750546  0.73645993  1
  B  B20  1  0.45554654  0.17889663  0.22652998  1
  B  B21  1  0.45554654  0.82110337  0.77347002  1
  B  B22  1  0.95554654  0.67889663  0.27347002  1
  B  B23  1  0.95554654  0.32110337  0.72652998  1
  B  B24  1  0.12863201  0.29051620  0.19302325  1
  B  B25  1  0.12863201  0.70948380  0.80697675  1
  B  B26  1  0.62863201  0.79051620  0.30697675  1
  B  B27  1  0.62863201  0.20948380  0.69302325  1
  Cl  Cl28  1  0.99782603  -0.00000000  -0.00000000  1
  Cl  Cl29  1  0.49782603  0.50000000  0.50000000  1
  Cl  Cl30  1  0.23447490  0.00000000  0.50000000  1
  Cl  Cl31  1  0.73447490  0.50000000  -0.00000000  1
  O  O32  1  0.51252251  0.21775368  0.10610133  1
  O  O33  1  0.51252251  0.78224632  0.89389867  1
  O  O34  1  0.01252251  0.71775368  0.39389867  1
  O  O35  1  0.01252251  0.28224632  0.60610133  1
  O  O36  1  0.42468558  0.75695551  0.08659474  1
  O  O37  1  0.42468558  0.24304449  0.91340526  1
  O  O38  1  0.92468558  0.25695551  0.41340526  1
  O  O39  1  0.92468558  0.74304449  0.58659474  1
  O  O40  1  0.35067547  0.59227911  0.21450562  1
  O  O41  1  0.35067547  0.40772089  0.78549438  1
  O  O42  1  0.85067547  0.09227911  0.28549438  1
  O  O43  1  0.85067547  0.90772089  0.71450562  1
  O  O44  1  0.58513705  0.24571356  0.31296205  1
  O  O45  1  0.58513705  0.75428644  0.68703795  1
  O  O46  1  0.08513705  0.74571356  0.18703795  1
  O  O47  1  0.08513705  0.25428644  0.81296205  1
  O  O48  1  0.40175414  0.20527760  0.71027420  1
  O  O49  1  0.40175414  0.79472240  0.28972580  1
  O  O50  1  0.90175414  0.70527760  0.78972580  1
  O  O51  1  0.90175414  0.29472240  0.21027420  1
  O  O52  1  0.49206314  0.04867622  0.23611613  1
  O  O53  1  0.49206314  0.95132378  0.76388387  1
  O  O54  1  0.99206314  0.54867622  0.26388387  1
  O  O55  1  0.99206314  0.45132378  0.73611613  1
  O  O56  1  0.23260609  0.19034409  0.25230458  1
  O  O57  1  0.23260609  0.80965591  0.74769542  1
  O  O58  1  0.73260609  0.69034409  0.24769542  1
  O  O59  1  0.73260609  0.30965591  0.75230458  1
  O  O60  1  0.15826020  0.28098444  0.06197107  1
  O  O61  1  0.15826020  0.71901556  0.93802893  1
  O  O62  1  0.65826020  0.78098444  0.43802893  1
  O  O63  1  0.65826020  0.21901556  0.56197107  1
  O  O64  1  0.25037202  0.39632826  0.23496675  1
  O  O65  1  0.25037202  0.60367174  0.76503325  1
  O  O66  1  0.75037202  0.89632826  0.26503325  1
  O  O67  1  0.75037202  0.10367174  0.73496675  1
