# generated using pymatgen
data_Cd4P2Cl3
_symmetry_space_group_name_H-M   'P 1'
_cell_length_a   12.42100939
_cell_length_b   12.42100939
_cell_length_c   12.42100939
_cell_angle_alpha   90.00000000
_cell_angle_beta   90.00000000
_cell_angle_gamma   90.00000000
_symmetry_Int_Tables_number   1
_chemical_formula_structural   Cd4P2Cl3
_chemical_formula_sum   'Cd32 P16 Cl24'
_cell_volume   1916.33164057
_cell_formula_units_Z   8
loop_
 _symmetry_equiv_pos_site_id
 _symmetry_equiv_pos_as_xyz
  1  'x, y, z'
loop_
 _atom_site_type_symbol
 _atom_site_label
 _atom_site_symmetry_multiplicity
 _atom_site_fract_x
 _atom_site_fract_y
 _atom_site_fract_z
 _atom_site_occupancy
  P  P0  1  0.94898417  0.05101583  0.55101583  1
  P  P1  1  0.55101583  0.94898417  0.05101583  1
  P  P2  1  0.05101583  0.55101583  0.94898417  1
  P  P3  1  0.44898417  0.44898417  0.44898417  1
  P  P4  1  0.05101583  0.94898417  0.44898417  1
  P  P5  1  0.44898417  0.05101583  0.94898417  1
  P  P6  1  0.94898417  0.44898417  0.05101583  1
  P  P7  1  0.55101583  0.55101583  0.55101583  1
  P  P8  1  0.60730979  0.10730979  0.39269021  1
  P  P9  1  0.39269021  0.60730979  0.10730979  1
  P  P10  1  0.10730979  0.39269021  0.60730979  1
  P  P11  1  0.89269021  0.89269021  0.89269021  1
  P  P12  1  0.39269021  0.89269021  0.60730979  1
  P  P13  1  0.60730979  0.39269021  0.89269021  1
  P  P14  1  0.89269021  0.60730979  0.39269021  1
  P  P15  1  0.10730979  0.10730979  0.10730979  1
  Cl  Cl16  1  0.68131135  0.07366804  0.72670038  1
  Cl  Cl17  1  0.72670038  0.68131135  0.07366804  1
  Cl  Cl18  1  0.07366804  0.72670038  0.68131135  1
  Cl  Cl19  1  0.42633196  0.27329962  0.18131135  1
  Cl  Cl20  1  0.22670038  0.81868865  0.92633196  1
  Cl  Cl21  1  0.92633196  0.22670038  0.81868865  1
  Cl  Cl22  1  0.77329962  0.31868865  0.57366804  1
  Cl  Cl23  1  0.27329962  0.18131135  0.42633196  1
  Cl  Cl24  1  0.57366804  0.77329962  0.31868865  1
  Cl  Cl25  1  0.18131135  0.42633196  0.27329962  1
  Cl  Cl26  1  0.31868865  0.57366804  0.77329962  1
  Cl  Cl27  1  0.81868865  0.92633196  0.22670038  1
  Cl  Cl28  1  0.31868865  0.92633196  0.27329962  1
  Cl  Cl29  1  0.27329962  0.31868865  0.92633196  1
  Cl  Cl30  1  0.92633196  0.27329962  0.31868865  1
  Cl  Cl31  1  0.57366804  0.72670038  0.81868865  1
  Cl  Cl32  1  0.77329962  0.18131135  0.07366804  1
  Cl  Cl33  1  0.07366804  0.77329962  0.18131135  1
  Cl  Cl34  1  0.22670038  0.68131135  0.42633196  1
  Cl  Cl35  1  0.72670038  0.81868865  0.57366804  1
  Cl  Cl36  1  0.42633196  0.22670038  0.68131135  1
  Cl  Cl37  1  0.81868865  0.57366804  0.72670038  1
  Cl  Cl38  1  0.68131135  0.42633196  0.22670038  1
  Cl  Cl39  1  0.18131135  0.07366804  0.77329962  1
  Cd  Cd40  1  0.72338136  0.22338136  0.27661864  1
  Cd  Cd41  1  0.27661864  0.72338136  0.22338136  1
  Cd  Cd42  1  0.22338136  0.27661864  0.72338136  1
  Cd  Cd43  1  0.77661864  0.77661864  0.77661864  1
  Cd  Cd44  1  0.27661864  0.77661864  0.72338136  1
  Cd  Cd45  1  0.72338136  0.27661864  0.77661864  1
  Cd  Cd46  1  0.77661864  0.72338136  0.27661864  1
  Cd  Cd47  1  0.22338136  0.22338136  0.22338136  1
  Cd  Cd48  1  0.75012713  0.03042985  0.51210533  1
  Cd  Cd49  1  0.51210533  0.75012713  0.03042985  1
  Cd  Cd50  1  0.03042985  0.51210533  0.75012713  1
  Cd  Cd51  1  0.46957015  0.48789467  0.25012713  1
  Cd  Cd52  1  0.01210533  0.74987287  0.96957015  1
  Cd  Cd53  1  0.96957015  0.01210533  0.74987287  1
  Cd  Cd54  1  0.98789467  0.24987287  0.53042985  1
  Cd  Cd55  1  0.48789467  0.25012713  0.46957015  1
  Cd  Cd56  1  0.53042985  0.98789467  0.24987287  1
  Cd  Cd57  1  0.25012713  0.46957015  0.48789467  1
  Cd  Cd58  1  0.24987287  0.53042985  0.98789467  1
  Cd  Cd59  1  0.74987287  0.96957015  0.01210533  1
  Cd  Cd60  1  0.24987287  0.96957015  0.48789467  1
  Cd  Cd61  1  0.48789467  0.24987287  0.96957015  1
  Cd  Cd62  1  0.96957015  0.48789467  0.24987287  1
  Cd  Cd63  1  0.53042985  0.51210533  0.74987287  1
  Cd  Cd64  1  0.98789467  0.25012713  0.03042985  1
  Cd  Cd65  1  0.03042985  0.98789467  0.25012713  1
  Cd  Cd66  1  0.01210533  0.75012713  0.46957015  1
  Cd  Cd67  1  0.51210533  0.74987287  0.53042985  1
  Cd  Cd68  1  0.46957015  0.01210533  0.75012713  1
  Cd  Cd69  1  0.74987287  0.53042985  0.51210533  1
  Cd  Cd70  1  0.75012713  0.46957015  0.01210533  1
  Cd  Cd71  1  0.25012713  0.03042985  0.98789467  1
