# generated using pymatgen
data_OsBr4
_symmetry_space_group_name_H-M   'P 1'
_cell_length_a   6.43324678
_cell_length_b   13.14401235
_cell_length_c   15.46428937
_cell_angle_alpha   90.00000000
_cell_angle_beta   90.00000000
_cell_angle_gamma   90.00000000
_symmetry_Int_Tables_number   1
_chemical_formula_structural   OsBr4
_chemical_formula_sum   'Os8 Br32'
_cell_volume   1307.63982091
_cell_formula_units_Z   8
loop_
 _symmetry_equiv_pos_site_id
 _symmetry_equiv_pos_as_xyz
  1  'x, y, z'
loop_
 _atom_site_type_symbol
 _atom_site_label
 _atom_site_symmetry_multiplicity
 _atom_site_fract_x
 _atom_site_fract_y
 _atom_site_fract_z
 _atom_site_occupancy
  Os  Os0  1  0.59661855  0.87081373  0.81550599  1
  Os  Os1  1  0.90338145  0.37081373  0.81550599  1
  Os  Os2  1  0.90338145  0.12918627  0.31550599  1
  Os  Os3  1  0.40338145  0.37081373  0.68449401  1
  Os  Os4  1  0.40338145  0.12918627  0.18449401  1
  Os  Os5  1  0.59661855  0.62918627  0.31550599  1
  Os  Os6  1  0.09661855  0.62918627  0.18449401  1
  Os  Os7  1  0.09661855  0.87081373  0.68449401  1
  Br  Br8  1  0.23122817  0.47561731  0.80629319  1
  Br  Br9  1  0.75881866  0.01327215  0.42210109  1
  Br  Br10  1  0.24118134  0.98672785  0.57789891  1
  Br  Br11  1  0.95103066  0.75544486  0.57792587  1
  Br  Br12  1  0.92542339  0.73316637  0.30633159  1
  Br  Br13  1  0.92542339  0.76683363  0.80633159  1
  Br  Br14  1  0.25881866  0.48672785  0.57789891  1
  Br  Br15  1  0.54896934  0.25544486  0.57792587  1
  Br  Br16  1  0.04896934  0.24455514  0.42207413  1
  Br  Br17  1  0.75881866  0.48672785  0.92210109  1
  Br  Br18  1  0.24118134  0.51327215  0.07789891  1
  Br  Br19  1  0.73122817  0.02438269  0.19370681  1
  Br  Br20  1  0.42542339  0.73316637  0.19366841  1
  Br  Br21  1  0.76877183  0.97561731  0.69370681  1
  Br  Br22  1  0.45103066  0.74455514  0.42207413  1
  Br  Br23  1  0.95103066  0.74455514  0.07792587  1
  Br  Br24  1  0.57457661  0.23316637  0.30633159  1
  Br  Br25  1  0.26877183  0.97561731  0.80629319  1
  Br  Br26  1  0.76877183  0.52438269  0.19370681  1
  Br  Br27  1  0.57457661  0.26683363  0.80633159  1
  Br  Br28  1  0.23122817  0.02438269  0.30629319  1
  Br  Br29  1  0.26877183  0.52438269  0.30629319  1
  Br  Br30  1  0.54896934  0.24455514  0.07792587  1
  Br  Br31  1  0.74118134  0.98672785  0.92210109  1
  Br  Br32  1  0.04896934  0.25544486  0.92207413  1
  Br  Br33  1  0.73122817  0.47561731  0.69370681  1
  Br  Br34  1  0.74118134  0.51327215  0.42210109  1
  Br  Br35  1  0.25881866  0.01327215  0.07789891  1
  Br  Br36  1  0.42542339  0.76683363  0.69366841  1
  Br  Br37  1  0.07457661  0.23316637  0.19366841  1
  Br  Br38  1  0.45103066  0.75544486  0.92207413  1
  Br  Br39  1  0.07457661  0.26683363  0.69366841  1
