# generated using pymatgen
data_Ca2FeMoO6
_symmetry_space_group_name_H-M   'P 1'
_cell_length_a   5.45761128
_cell_length_b   5.59719167
_cell_length_c   7.82960434
_cell_angle_alpha   90.00000000
_cell_angle_beta   90.53353615
_cell_angle_gamma   90.00000000
_symmetry_Int_Tables_number   1
_chemical_formula_structural   Ca2FeMoO6
_chemical_formula_sum   'Ca4 Fe2 Mo2 O12'
_cell_volume   239.16287484
_cell_formula_units_Z   2
loop_
 _symmetry_equiv_pos_site_id
 _symmetry_equiv_pos_as_xyz
  1  'x, y, z'
loop_
 _atom_site_type_symbol
 _atom_site_label
 _atom_site_symmetry_multiplicity
 _atom_site_fract_x
 _atom_site_fract_y
 _atom_site_fract_z
 _atom_site_occupancy
  Ca  Ca0  1  0.98826440  0.94774467  0.75421165  1
  Ca  Ca1  1  0.51173460  0.44774467  0.74578835  1
  Ca  Ca2  1  0.01173560  0.05225633  0.24578735  1
  Ca  Ca3  1  0.48826540  0.55225633  0.25421265  1
  Fe  Fe4  1  0.49999900  0.00000000  0.50000000  1
  Fe  Fe5  1  -0.00000000  0.50000000  -0.00000000  1
  Mo  Mo6  1  0.50000000  0.00000000  -0.00000000  1
  Mo  Mo7  1  0.00000100  0.50000000  0.50000100  1
  O  O8  1  0.69964829  0.70550000  0.54868176  1
  O  O9  1  0.80035271  0.20550000  0.95131824  1
  O  O10  1  0.30035171  0.29449900  0.45131924  1
  O  O11  1  0.19964729  0.79449900  0.04868176  1
  O  O12  1  0.19230919  0.78534584  0.45181775  1
  O  O13  1  0.30768981  0.28534584  0.04818325  1
  O  O14  1  0.80769081  0.21465316  0.54818225  1
  O  O15  1  0.69231019  0.71465316  0.95181775  1
  O  O16  1  0.09198494  0.52934046  0.75189408  1
  O  O17  1  0.40801606  0.02933946  0.74810692  1
  O  O18  1  0.59198394  0.97065954  0.25189408  1
  O  O19  1  0.90801506  0.47066054  0.24810692  1
