# generated using pymatgen
data_YMnO3
_symmetry_space_group_name_H-M   'P 1'
_cell_length_a   6.23302198
_cell_length_b   6.23302198
_cell_length_c   11.58909017
_cell_angle_alpha   90.00000000
_cell_angle_beta   90.00000000
_cell_angle_gamma   119.99999999
_symmetry_Int_Tables_number   1
_chemical_formula_structural   YMnO3
_chemical_formula_sum   'Y6 Mn6 O18'
_cell_volume   389.92159706
_cell_formula_units_Z   6
loop_
 _symmetry_equiv_pos_site_id
 _symmetry_equiv_pos_as_xyz
  1  'x, y, z'
loop_
 _atom_site_type_symbol
 _atom_site_label
 _atom_site_symmetry_multiplicity
 _atom_site_fract_x
 _atom_site_fract_y
 _atom_site_fract_z
 _atom_site_occupancy
  O  O0  1  0.66666667  0.33333333  0.02122239  1
  O  O1  1  0.33333333  0.66666667  0.52122239  1
  O  O2  1  0.66666667  0.33333333  0.52122239  1
  O  O3  1  0.33333333  0.66666667  0.02122239  1
  O  O4  1  0.00000000  0.00000000  0.97754047  1
  O  O5  1  0.00000000  0.00000000  0.47754047  1
  O  O6  1  0.35859472  0.00000000  0.83727654  1
  O  O7  1  0.35859472  0.35859472  0.33727654  1
  O  O8  1  0.00000000  0.64140528  0.33727654  1
  O  O9  1  0.00000000  0.35859472  0.83727654  1
  O  O10  1  0.64140528  0.64140528  0.83727654  1
  O  O11  1  0.64140528  0.00000000  0.33727654  1
  O  O12  1  0.30771488  0.00000000  0.16566377  1
  O  O13  1  0.30771488  0.30771488  0.66566377  1
  O  O14  1  0.00000000  0.69228512  0.66566377  1
  O  O15  1  0.00000000  0.30771488  0.16566377  1
  O  O16  1  0.69228512  0.69228512  0.16566377  1
  O  O17  1  0.69228512  0.00000000  0.66566377  1
  Mn  Mn18  1  0.66639895  0.00000000  0.50137500  1
  Mn  Mn19  1  0.66639895  0.66639895  0.00137500  1
  Mn  Mn20  1  0.00000000  0.33360105  0.00137500  1
  Mn  Mn21  1  0.00000000  0.66639895  0.50137500  1
  Mn  Mn22  1  0.33360105  0.33360105  0.50137500  1
  Mn  Mn23  1  0.33360105  0.00000000  0.00137500  1
  Y  Y24  1  0.66666667  0.33333333  0.23304533  1
  Y  Y25  1  0.33333333  0.66666667  0.73304533  1
  Y  Y26  1  0.66666667  0.33333333  0.73304533  1
  Y  Y27  1  0.33333333  0.66666667  0.23304533  1
  Y  Y28  1  0.00000000  0.00000000  0.77597816  1
  Y  Y29  1  0.00000000  0.00000000  0.27597816  1
