# generated using pymatgen
data_La5Cu19P12
_symmetry_space_group_name_H-M   'P 1'
_cell_length_a   12.72838021
_cell_length_b   12.72838021
_cell_length_c   3.97896174
_cell_angle_alpha   90.00000000
_cell_angle_beta   90.00000000
_cell_angle_gamma   119.99999998
_symmetry_Int_Tables_number   1
_chemical_formula_structural   La5Cu19P12
_chemical_formula_sum   'La5 Cu19 P12'
_cell_volume   558.27306398
_cell_formula_units_Z   1
loop_
 _symmetry_equiv_pos_site_id
 _symmetry_equiv_pos_as_xyz
  1  'x, y, z'
loop_
 _atom_site_type_symbol
 _atom_site_label
 _atom_site_symmetry_multiplicity
 _atom_site_fract_x
 _atom_site_fract_y
 _atom_site_fract_z
 _atom_site_occupancy
  P  P0  1  0.17259855  0.47956971  0.50000000  1
  P  P1  1  0.52043029  0.69302884  0.50000000  1
  P  P2  1  0.30697116  0.82740145  0.50000000  1
  P  P3  1  0.82740145  0.30697116  0.50000000  1
  P  P4  1  0.69302884  0.52043029  0.50000000  1
  P  P5  1  0.00000000  0.63091481  0.00000000  1
  P  P6  1  0.36908519  0.36908519  0.00000000  1
  P  P7  1  0.17683085  0.00000000  0.00000000  1
  P  P8  1  0.00000000  0.17683085  0.00000000  1
  P  P9  1  0.82316915  0.82316915  0.00000000  1
  P  P10  1  0.47956971  0.17259855  0.50000000  1
  P  P11  1  0.63091481  0.00000000  0.00000000  1
  Cu  Cu12  1  0.82822998  0.20714924  0.00000000  1
  Cu  Cu13  1  0.62108074  0.79285076  0.00000000  1
  Cu  Cu14  1  0.17177002  0.37891926  0.00000000  1
  Cu  Cu15  1  0.20714924  0.82822998  0.00000000  1
  Cu  Cu16  1  0.48329239  0.36561245  0.50000000  1
  Cu  Cu17  1  0.88232006  0.51670761  0.50000000  1
  Cu  Cu18  1  0.51670761  0.88232006  0.50000000  1
  Cu  Cu19  1  0.36561245  0.48329239  0.50000000  1
  Cu  Cu20  1  0.11767994  0.63438755  0.50000000  1
  Cu  Cu21  1  0.54957400  0.54957400  0.00000000  1
  Cu  Cu22  1  0.00000000  0.45042600  0.00000000  1
  Cu  Cu23  1  0.45042600  0.00000000  0.00000000  1
  Cu  Cu24  1  0.37891926  0.17177002  0.00000000  1
  Cu  Cu25  1  0.28864083  0.00000000  0.50000000  1
  Cu  Cu26  1  0.00000000  0.28864083  0.50000000  1
  Cu  Cu27  1  0.71135917  0.71135917  0.50000000  1
  Cu  Cu28  1  0.00000000  0.00000000  0.00000000  1
  Cu  Cu29  1  0.63438755  0.11767994  0.50000000  1
  Cu  Cu30  1  0.79285076  0.62108074  0.00000000  1
  La  La31  1  0.80748774  0.00000000  0.50000000  1
  La  La32  1  0.00000000  0.80748774  0.50000000  1
  La  La33  1  0.19251226  0.19251226  0.50000000  1
  La  La34  1  0.33333333  0.66666667  0.00000000  1
  La  La35  1  0.66666667  0.33333333  0.00000000  1
