# generated using pymatgen
data_Tb2Mn3Sb3O14
_symmetry_space_group_name_H-M   'P 1'
_cell_length_a   7.38427668
_cell_length_b   7.29650266
_cell_length_c   7.36967049
_cell_angle_alpha   90.00000000
_cell_angle_beta   60.06541065
_cell_angle_gamma   121.29668845
_symmetry_Int_Tables_number   1
_chemical_formula_structural   Tb2Mn3Sb3O14
_chemical_formula_sum   'Tb2 Mn3 Sb3 O14'
_cell_volume   275.42677864
_cell_formula_units_Z   1
loop_
 _symmetry_equiv_pos_site_id
 _symmetry_equiv_pos_as_xyz
  1  'x, y, z'
loop_
 _atom_site_type_symbol
 _atom_site_label
 _atom_site_symmetry_multiplicity
 _atom_site_fract_x
 _atom_site_fract_y
 _atom_site_fract_z
 _atom_site_occupancy
  Tb  Tb0  1  -0.00000000  -0.00000000  0.50000000  1
  Tb  Tb1  1  -0.00000000  -0.00000000  0.00000000  1
  Mn  Mn2  1  0.50000000  -0.00000000  0.50000000  1
  Mn  Mn3  1  0.50000000  0.50000000  0.00000000  1
  Mn  Mn4  1  0.50000000  -0.00000000  0.00000000  1
  Sb  Sb5  1  0.50000000  0.50000000  0.50000000  1
  Sb  Sb6  1  -0.00000000  0.50000000  0.00000000  1
  Sb  Sb7  1  -0.00000000  0.50000000  0.50000000  1
  O  O8  1  0.26667414  0.13647619  0.11666293  1
  O  O9  1  0.73332586  0.86352381  0.88333707  1
  O  O10  1  0.68245371  0.83043204  0.40877314  1
  O  O11  1  0.84326429  0.41526168  0.82836785  1
  O  O12  1  0.24500983  0.83201127  0.82685189  1
  O  O13  1  0.25039125  0.42483178  0.42042832  1
  O  O14  1  0.25039125  0.42483178  0.82918043  1
  O  O15  1  0.24500983  0.83201127  0.42813828  1
  O  O16  1  0.31754629  0.16956796  0.59122686  1
  O  O17  1  0.15673571  0.58473832  0.17163215  1
  O  O18  1  0.75499017  0.16798873  0.17314811  1
  O  O19  1  0.74960875  0.57516822  0.57957168  1
  O  O20  1  0.74960875  0.57516822  0.17081957  1
  O  O21  1  0.75499017  0.16798873  0.57186172  1
