# generated using pymatgen
data_AgIO3
_symmetry_space_group_name_H-M   'P 1'
_cell_length_a   5.89721606
_cell_length_b   7.26060505
_cell_length_c   15.51162123
_cell_angle_alpha   90.00000000
_cell_angle_beta   90.00000000
_cell_angle_gamma   90.00000000
_symmetry_Int_Tables_number   1
_chemical_formula_structural   AgIO3
_chemical_formula_sum   'Ag8 I8 O24'
_cell_volume   664.16661930
_cell_formula_units_Z   8
loop_
 _symmetry_equiv_pos_site_id
 _symmetry_equiv_pos_as_xyz
  1  'x, y, z'
loop_
 _atom_site_type_symbol
 _atom_site_label
 _atom_site_symmetry_multiplicity
 _atom_site_fract_x
 _atom_site_fract_y
 _atom_site_fract_z
 _atom_site_occupancy
  O  O0  1  0.16900760  0.37390635  0.19509686  1
  O  O1  1  0.66900760  0.62609365  0.80490314  1
  O  O2  1  0.16900760  0.62609365  0.69509686  1
  O  O3  1  0.66900760  0.37390635  0.30490314  1
  O  O4  1  0.14410296  0.86442783  0.20708116  1
  O  O5  1  0.64410296  0.13557217  0.79291884  1
  O  O6  1  0.14410296  0.13557217  0.70708116  1
  O  O7  1  0.64410296  0.86442783  0.29291884  1
  O  O8  1  0.29466277  0.06308740  0.06679424  1
  O  O9  1  0.79466277  0.93691260  0.93320576  1
  O  O10  1  0.29466277  0.93691260  0.56679424  1
  O  O11  1  0.79466277  0.06308740  0.43320576  1
  O  O12  1  0.82962854  0.16775781  0.11948323  1
  O  O13  1  0.32962854  0.83224219  0.88051677  1
  O  O14  1  0.82962854  0.83224219  0.61948323  1
  O  O15  1  0.32962854  0.16775781  0.38051677  1
  O  O16  1  0.32086152  0.56015694  0.39185989  1
  O  O17  1  0.82086152  0.43984306  0.60814011  1
  O  O18  1  0.32086152  0.43984306  0.89185989  1
  O  O19  1  0.82086152  0.56015694  0.10814011  1
  O  O20  1  0.79588106  0.67569483  0.43543819  1
  O  O21  1  0.29588106  0.32430517  0.56456181  1
  O  O22  1  0.79588106  0.32430517  0.93543819  1
  O  O23  1  0.29588106  0.67569483  0.06456181  1
  Ag  Ag24  1  0.00104284  0.60578094  0.29736866  1
  Ag  Ag25  1  0.50104284  0.39421906  0.70263134  1
  Ag  Ag26  1  0.00104284  0.39421906  0.79736866  1
  Ag  Ag27  1  0.50104284  0.60578094  0.20263134  1
  Ag  Ag28  1  0.99359326  0.13095087  0.29413510  1
  Ag  Ag29  1  0.49359326  0.86904913  0.70586490  1
  Ag  Ag30  1  0.99359326  0.86904913  0.79413510  1
  Ag  Ag31  1  0.49359326  0.13095087  0.20586490  1
  I  I32  1  0.60010435  0.86943394  0.41074683  1
  I  I33  1  0.10010435  0.13056606  0.58925317  1
  I  I34  1  0.60010435  0.13056606  0.91074683  1
  I  I35  1  0.10010435  0.86943394  0.08925317  1
  I  I36  1  0.51471509  0.36411503  0.40975682  1
  I  I37  1  0.01471509  0.63588497  0.59024318  1
  I  I38  1  0.51471509  0.63588497  0.90975682  1
  I  I39  1  0.01471509  0.36411503  0.09024318  1
