# generated using pymatgen
data_Nd3RuO7
_symmetry_space_group_name_H-M   'P 1'
_cell_length_a   6.63941220
_cell_length_b   6.63941219
_cell_length_c   7.61259165
_cell_angle_alpha   90.00000000
_cell_angle_beta   90.00000000
_cell_angle_gamma   111.45673117
_symmetry_Int_Tables_number   1
_chemical_formula_structural   Nd3RuO7
_chemical_formula_sum   'Nd6 Ru2 O14'
_cell_volume   312.31924674
_cell_formula_units_Z   2
loop_
 _symmetry_equiv_pos_site_id
 _symmetry_equiv_pos_as_xyz
  1  'x, y, z'
loop_
 _atom_site_type_symbol
 _atom_site_label
 _atom_site_symmetry_multiplicity
 _atom_site_fract_x
 _atom_site_fract_y
 _atom_site_fract_z
 _atom_site_occupancy
  O  O0  1  0.58265410  0.58265410  0.75000000  1
  O  O1  1  0.41734590  0.41734590  0.25000000  1
  O  O2  1  0.10496682  0.84163387  0.75000000  1
  O  O3  1  0.89503318  0.15836613  0.25000000  1
  O  O4  1  0.84163387  0.10496682  0.75000000  1
  O  O5  1  0.15836613  0.89503318  0.25000000  1
  O  O6  1  0.18852135  0.43988617  0.96061547  1
  O  O7  1  0.81147865  0.56011383  0.46061547  1
  O  O8  1  0.43988617  0.18852135  0.96061547  1
  O  O9  1  0.56011383  0.81147865  0.46061547  1
  O  O10  1  0.18852135  0.43988617  0.53938453  1
  O  O11  1  0.81147865  0.56011383  0.03938453  1
  O  O12  1  0.56011383  0.81147865  0.03938453  1
  O  O13  1  0.43988617  0.18852135  0.53938453  1
  Ru  Ru14  1  0.50000000  0.50000000  0.50000000  1
  Ru  Ru15  1  0.50000000  0.50000000  0.00000000  1
  Nd  Nd16  1  0.91421064  0.47229711  0.75000000  1
  Nd  Nd17  1  0.08578936  0.52770289  0.25000000  1
  Nd  Nd18  1  0.47229711  0.91421064  0.75000000  1
  Nd  Nd19  1  0.52770289  0.08578936  0.25000000  1
  Nd  Nd20  1  0.00000000  0.00000000  0.50000000  1
  Nd  Nd21  1  0.00000000  0.00000000  0.00000000  1
