# generated using pymatgen
data_Y(AlCu)6
_symmetry_space_group_name_H-M   'P 1'
_cell_length_a   5.08754182
_cell_length_b   6.61462855
_cell_length_c   6.61462855
_cell_angle_alpha   99.14377710
_cell_angle_beta   112.61689515
_cell_angle_gamma   67.38310485
_symmetry_Int_Tables_number   1
_chemical_formula_structural   Y(AlCu)6
_chemical_formula_sum   'Y1 Al6 Cu6'
_cell_volume   189.66060692
_cell_formula_units_Z   1
loop_
 _symmetry_equiv_pos_site_id
 _symmetry_equiv_pos_as_xyz
  1  'x, y, z'
loop_
 _atom_site_type_symbol
 _atom_site_label
 _atom_site_symmetry_multiplicity
 _atom_site_fract_x
 _atom_site_fract_y
 _atom_site_fract_z
 _atom_site_occupancy
  Y  Y0  1  -0.00000000  0.00000000  0.00000000  1
  Al  Al1  1  0.65093754  0.34906246  0.65093754  1
  Al  Al2  1  0.34906246  0.65093754  0.34906246  1
  Al  Al3  1  0.00000000  0.34612792  0.34612792  1
  Al  Al4  1  -0.00000000  0.65387208  0.65387208  1
  Al  Al5  1  0.70349394  0.79650606  0.20349394  1
  Al  Al6  1  0.29650606  0.20349394  0.79650606  1
  Cu  Cu7  1  0.50000000  0.00000000  0.50000000  1
  Cu  Cu8  1  -0.00000000  0.00000000  0.50000000  1
  Cu  Cu9  1  0.50000000  0.50000000  0.00000000  1
  Cu  Cu10  1  -0.00000000  0.50000000  0.00000000  1
  Cu  Cu11  1  0.50000000  0.77166808  0.77166808  1
  Cu  Cu12  1  0.50000000  0.22833192  0.22833192  1
