# generated using pymatgen
data_MoC3S2Cl7O
_symmetry_space_group_name_H-M   'P 1'
_cell_length_a   8.37877344
_cell_length_b   9.00111118
_cell_length_c   10.33117842
_cell_angle_alpha   90.00000000
_cell_angle_beta   90.00000000
_cell_angle_gamma   107.64826950
_symmetry_Int_Tables_number   1
_chemical_formula_structural   MoC3S2Cl7O
_chemical_formula_sum   'Mo2 C6 S4 Cl14 O2'
_cell_volume   742.48893274
_cell_formula_units_Z   2
loop_
 _symmetry_equiv_pos_site_id
 _symmetry_equiv_pos_as_xyz
  1  'x, y, z'
loop_
 _atom_site_type_symbol
 _atom_site_label
 _atom_site_symmetry_multiplicity
 _atom_site_fract_x
 _atom_site_fract_y
 _atom_site_fract_z
 _atom_site_occupancy
  Mo  Mo0  1  0.56581022  0.87901089  0.76914604  1
  Mo  Mo1  1  0.56581022  0.37901089  0.23085396  1
  C  C2  1  0.07848961  0.95756980  0.33494814  1
  C  C3  1  0.14691130  0.40474124  0.77307248  1
  C  C4  1  0.07848961  0.45756980  0.66505186  1
  C  C5  1  0.94044497  0.50947450  0.69254055  1
  C  C6  1  0.14691130  0.90474124  0.22692752  1
  C  C7  1  0.94044497  0.00947450  0.30745945  1
  S  S8  1  0.05922518  0.41661943  0.92036371  1
  S  S9  1  0.87897897  0.00550767  0.14990018  1
  S  S10  1  0.87897897  0.50550767  0.85009982  1
  S  S11  1  0.05922518  0.91661943  0.07963629  1
  Cl  Cl12  1  0.28245461  0.36603829  0.18936737  1
  Cl  Cl13  1  0.85919304  0.97910767  0.82122934  1
  Cl  Cl14  1  0.15570548  0.45734151  0.51342887  1
  Cl  Cl15  1  0.28245461  0.86603829  0.81063263  1
  Cl  Cl16  1  0.54657110  0.71584253  0.95283971  1
  Cl  Cl17  1  0.30571093  0.32773722  0.76685031  1
  Cl  Cl18  1  0.82958879  0.57164819  0.58098032  1
  Cl  Cl19  1  0.59736255  0.13077696  0.68073138  1
  Cl  Cl20  1  0.85919304  0.47910767  0.17877066  1
  Cl  Cl21  1  0.54657110  0.21584253  0.04716029  1
  Cl  Cl22  1  0.82958879  0.07164819  0.41901968  1
  Cl  Cl23  1  0.59736255  0.63077696  0.31926862  1
  Cl  Cl24  1  0.30571093  0.82773722  0.23314969  1
  Cl  Cl25  1  0.15570548  0.95734151  0.48657113  1
  O  O26  1  0.55449326  0.76009409  0.64009156  1
  O  O27  1  0.55449326  0.26009409  0.35990844  1
