# generated using pymatgen
data_CaCrP2O7
_symmetry_space_group_name_H-M   'P 1'
_cell_length_a   6.19330899
_cell_length_b   6.60406922
_cell_length_c   7.37992057
_cell_angle_alpha   81.99407534
_cell_angle_beta   88.35541907
_cell_angle_gamma   68.62071239
_symmetry_Int_Tables_number   1
_chemical_formula_structural   CaCrP2O7
_chemical_formula_sum   'Ca2 Cr2 P4 O14'
_cell_volume   278.25647122
_cell_formula_units_Z   2
loop_
 _symmetry_equiv_pos_site_id
 _symmetry_equiv_pos_as_xyz
  1  'x, y, z'
loop_
 _atom_site_type_symbol
 _atom_site_label
 _atom_site_symmetry_multiplicity
 _atom_site_fract_x
 _atom_site_fract_y
 _atom_site_fract_z
 _atom_site_occupancy
  Ca  Ca0  1  0.29670430  0.71334426  0.63560878  1
  Ca  Ca1  1  0.70329670  0.28665674  0.36439122  1
  Cr  Cr2  1  0.26731766  0.12556003  0.17118780  1
  Cr  Cr3  1  0.73268434  0.87443897  0.82881220  1
  P  P4  1  0.16473559  0.65830635  0.11783712  1
  P  P5  1  0.83526241  0.34169365  0.88216288  1
  P  P6  1  0.23515045  0.21895300  0.62088334  1
  P  P7  1  0.76485055  0.78104600  0.37911566  1
  O  O8  1  0.07560301  0.73508843  0.91748462  1
  O  O9  1  0.92439799  0.26491157  0.08251538  1
  O  O10  1  0.25312696  0.81429417  0.19665392  1
  O  O11  1  0.74687204  0.18570483  0.80334608  1
  O  O12  1  0.33615947  0.41966357  0.14433644  1
  O  O13  1  0.66384253  0.58033543  0.85566456  1
  O  O14  1  0.63836651  0.62904139  0.45271301  1
  O  O15  1  0.36163249  0.37095861  0.54728799  1
  O  O16  1  0.09921416  0.16494141  0.47736884  1
  O  O17  1  0.90078484  0.83505859  0.52263116  1
  O  O18  1  0.06198967  0.35125199  0.76775976  1
  O  O19  1  0.60378291  -0.00005197  0.27131997  1
  O  O20  1  0.39621909  0.00005097  0.72868103  1
  O  O21  1  0.93800933  0.64874901  0.23223924  1
