# generated using pymatgen
data_Sr2CoMoO6
_symmetry_space_group_name_H-M   'P 1'
_cell_length_a   5.70342575
_cell_length_b   5.70342574
_cell_length_c   5.70342575
_cell_angle_alpha   87.33321492
_cell_angle_beta   121.55142900
_cell_angle_gamma   121.55142903
_symmetry_Int_Tables_number   1
_chemical_formula_structural   Sr2CoMoO6
_chemical_formula_sum   'Sr2 Co1 Mo1 O6'
_cell_volume   127.96049227
_cell_formula_units_Z   1
loop_
 _symmetry_equiv_pos_site_id
 _symmetry_equiv_pos_as_xyz
  1  'x, y, z'
loop_
 _atom_site_type_symbol
 _atom_site_label
 _atom_site_symmetry_multiplicity
 _atom_site_fract_x
 _atom_site_fract_y
 _atom_site_fract_z
 _atom_site_occupancy
  O  O0  1  0.00000080  0.73649992  0.73650084  1
  O  O1  1  0.99999905  0.26349925  0.26349968  1
  O  O2  1  0.48587265  0.78877264  0.69710108  1
  O  O3  1  0.90832773  0.69710094  0.21122809  1
  O  O4  1  0.51412765  0.21122783  0.30289936  1
  O  O5  1  0.09167257  0.30289954  0.78877235  1
  Co  Co6  1  0.00000000  0.00000000  0.00000000  1
  Sr  Sr7  1  0.50000017  0.75000068  0.24999932  1
  Sr  Sr8  1  0.50000013  0.24999980  0.74999935  1
  Mo  Mo9  1  0.99999992  0.49999958  0.50000026  1
