# generated using pymatgen
data_ErFe4B
_symmetry_space_group_name_H-M   'P 1'
_cell_length_a   5.03241835
_cell_length_b   5.02762100
_cell_length_c   7.01908680
_cell_angle_alpha   90.00000000
_cell_angle_beta   90.00000000
_cell_angle_gamma   120.03157011
_symmetry_Int_Tables_number   1
_chemical_formula_structural   ErFe4B
_chemical_formula_sum   'Er2 Fe8 B2'
_cell_volume   153.74898834
_cell_formula_units_Z   2
loop_
 _symmetry_equiv_pos_site_id
 _symmetry_equiv_pos_as_xyz
  1  'x, y, z'
loop_
 _atom_site_type_symbol
 _atom_site_label
 _atom_site_symmetry_multiplicity
 _atom_site_fract_x
 _atom_site_fract_y
 _atom_site_fract_z
 _atom_site_occupancy
  Er  Er0  1  0.99999047  -0.00000000  -0.00000000  1
  Er  Er1  1  0.99998424  0.00000000  0.50000000  1
  Fe  Fe2  1  0.33191449  0.66385940  -0.00000000  1
  Fe  Fe3  1  0.66805509  0.33614060  -0.00000000  1
  Fe  Fe4  1  0.49997986  0.00000000  0.28375883  1
  Fe  Fe5  1  0.49998098  0.49999749  0.28688819  1
  Fe  Fe6  1  0.99998349  0.50000251  0.28688819  1
  Fe  Fe7  1  0.49997986  0.00000000  0.71624117  1
  Fe  Fe8  1  0.49998098  0.49999749  0.71311181  1
  Fe  Fe9  1  0.99998349  0.50000251  0.71311181  1
  B  B10  1  0.33457882  0.66919060  0.50000000  1
  B  B11  1  0.66538822  0.33080940  0.50000000  1
