# generated using pymatgen
data_Eu3MoO7
_symmetry_space_group_name_H-M   'P 1'
_cell_length_a   7.55305657
_cell_length_b   7.69626275
_cell_length_c   10.88839397
_cell_angle_alpha   90.00000000
_cell_angle_beta   90.00000000
_cell_angle_gamma   90.00000000
_symmetry_Int_Tables_number   1
_chemical_formula_structural   Eu3MoO7
_chemical_formula_sum   'Eu12 Mo4 O28'
_cell_volume   632.94569432
_cell_formula_units_Z   4
loop_
 _symmetry_equiv_pos_site_id
 _symmetry_equiv_pos_as_xyz
  1  'x, y, z'
loop_
 _atom_site_type_symbol
 _atom_site_label
 _atom_site_symmetry_multiplicity
 _atom_site_fract_x
 _atom_site_fract_y
 _atom_site_fract_z
 _atom_site_occupancy
  Eu  Eu0  1  0.52554126  0.00519322  0.25367648  1
  Eu  Eu1  1  0.97445874  0.99480678  0.75367648  1
  Eu  Eu2  1  0.47445874  0.50519322  0.24632352  1
  Eu  Eu3  1  0.02554126  0.49480678  0.74632352  1
  Eu  Eu4  1  0.21296544  0.25570042  0.47737926  1
  Eu  Eu5  1  0.28703456  0.74429958  0.97737926  1
  Eu  Eu6  1  0.78703456  0.75570042  0.02262074  1
  Eu  Eu7  1  0.71296544  0.24429958  0.52262074  1
  Eu  Eu8  1  0.20294413  0.24958018  0.01472517  1
  Eu  Eu9  1  0.29705587  0.75041982  0.51472517  1
  Eu  Eu10  1  0.79705587  0.74958018  0.48527483  1
  Eu  Eu11  1  0.70294413  0.25041982  0.98527483  1
  Mo  Mo12  1  0.00425446  0.01665943  0.24871217  1
  Mo  Mo13  1  0.49574554  0.98334057  0.74871217  1
  Mo  Mo14  1  0.99574554  0.51665943  0.25128783  1
  Mo  Mo15  1  0.50425446  0.48334057  0.75128783  1
  O  O16  1  0.17623395  0.53224607  0.12370222  1
  O  O17  1  0.32376605  0.46775393  0.62370222  1
  O  O18  1  0.82376605  0.03224607  0.37629778  1
  O  O19  1  0.67623395  0.96775393  0.87629778  1
  O  O20  1  0.48532672  0.25762379  0.38122137  1
  O  O21  1  0.01467328  0.74237621  0.88122137  1
  O  O22  1  0.51467328  0.75762379  0.11877863  1
  O  O23  1  0.98532672  0.24237621  0.61877863  1
  O  O24  1  0.06906318  0.24928427  0.24213057  1
  O  O25  1  0.43093682  0.75071573  0.74213057  1
  O  O26  1  0.93093682  0.74928427  0.25786943  1
  O  O27  1  0.56906318  0.25071573  0.75786943  1
  O  O28  1  0.35776994  0.04806175  0.61162692  1
  O  O29  1  0.14223006  0.95193825  0.11162692  1
  O  O30  1  0.64223006  0.54806175  0.88837308  1
  O  O31  1  0.85776994  0.45193825  0.38837308  1
  O  O32  1  0.19973442  0.53513127  0.36563427  1
  O  O33  1  0.30026558  0.46486873  0.86563427  1
  O  O34  1  0.80026558  0.03513127  0.13436573  1
  O  O35  1  0.69973442  0.96486873  0.63436573  1
  O  O36  1  0.31469382  0.03499821  0.86512993  1
  O  O37  1  0.18530618  0.96500179  0.36512993  1
  O  O38  1  0.68530618  0.53499821  0.63487007  1
  O  O39  1  0.81469382  0.46500179  0.13487007  1
  O  O40  1  0.46538785  0.24588677  0.11493330  1
  O  O41  1  0.03461215  0.75411323  0.61493330  1
  O  O42  1  0.53461215  0.74588677  0.38506670  1
  O  O43  1  0.96538785  0.25411323  0.88506670  1
