# generated using pymatgen
data_PrZnSn
_symmetry_space_group_name_H-M   'P 1'
_cell_length_a   4.60135337
_cell_length_b   4.60135337
_cell_length_c   16.63145458
_cell_angle_alpha   90.00000000
_cell_angle_beta   90.00000000
_cell_angle_gamma   119.99391741
_symmetry_Int_Tables_number   1
_chemical_formula_structural   PrZnSn
_chemical_formula_sum   'Pr4 Zn4 Sn4'
_cell_volume   304.97107789
_cell_formula_units_Z   4
loop_
 _symmetry_equiv_pos_site_id
 _symmetry_equiv_pos_as_xyz
  1  'x, y, z'
loop_
 _atom_site_type_symbol
 _atom_site_label
 _atom_site_symmetry_multiplicity
 _atom_site_fract_x
 _atom_site_fract_y
 _atom_site_fract_z
 _atom_site_occupancy
  Pr  Pr0  1  -0.00000000  -0.00000000  0.50000000  1
  Pr  Pr1  1  -0.00000000  -0.00000000  0.00000000  1
  Pr  Pr2  1  0.00003606  0.99996394  0.75000000  1
  Pr  Pr3  1  0.99996394  0.00003606  0.25000000  1
  Zn  Zn4  1  0.66665693  0.33334307  0.65511745  1
  Zn  Zn5  1  0.33334307  0.66665693  0.34488255  1
  Zn  Zn6  1  0.33334307  0.66665693  0.15511745  1
  Zn  Zn7  1  0.66665693  0.33334307  0.84488255  1
  Sn  Sn8  1  0.66665854  0.33334146  0.11574697  1
  Sn  Sn9  1  0.33334146  0.66665854  0.88425303  1
  Sn  Sn10  1  0.33334146  0.66665854  0.61574697  1
  Sn  Sn11  1  0.66665854  0.33334146  0.38425303  1
