# generated using pymatgen
data_YSi3Ni5
_symmetry_space_group_name_H-M   'P 1'
_cell_length_a   3.79008096
_cell_length_b   6.63337565
_cell_length_c   18.70639300
_cell_angle_alpha   90.00000000
_cell_angle_beta   90.00000000
_cell_angle_gamma   90.00000000
_symmetry_Int_Tables_number   1
_chemical_formula_structural   YSi3Ni5
_chemical_formula_sum   'Y4 Si12 Ni20'
_cell_volume   470.29800166
_cell_formula_units_Z   4
loop_
 _symmetry_equiv_pos_site_id
 _symmetry_equiv_pos_as_xyz
  1  'x, y, z'
loop_
 _atom_site_type_symbol
 _atom_site_label
 _atom_site_symmetry_multiplicity
 _atom_site_fract_x
 _atom_site_fract_y
 _atom_site_fract_z
 _atom_site_occupancy
  Si  Si0  1  0.25000000  0.84413782  0.92556428  1
  Si  Si1  1  0.75000000  0.15586218  0.07443572  1
  Si  Si2  1  0.75000000  0.34413782  0.57443572  1
  Si  Si3  1  0.25000000  0.65586218  0.42556428  1
  Si  Si4  1  0.75000000  0.62162651  0.76263805  1
  Si  Si5  1  0.25000000  0.37837349  0.23736195  1
  Si  Si6  1  0.25000000  0.41819697  0.91428224  1
  Si  Si7  1  0.75000000  0.58180303  0.08571776  1
  Si  Si8  1  0.75000000  0.91819697  0.58571776  1
  Si  Si9  1  0.25000000  0.08180303  0.41428224  1
  Si  Si10  1  0.25000000  0.12162651  0.73736195  1
  Si  Si11  1  0.75000000  0.87837349  0.26263805  1
  Ni  Ni12  1  0.25000000  0.13333517  0.99471293  1
  Ni  Ni13  1  0.75000000  0.38416576  0.98498855  1
  Ni  Ni14  1  0.75000000  0.11583424  0.48498855  1
  Ni  Ni15  1  0.25000000  0.61583424  0.01501145  1
  Ni  Ni16  1  0.25000000  0.35702704  0.11500689  1
  Ni  Ni17  1  0.75000000  0.64297296  0.88499311  1
  Ni  Ni18  1  0.75000000  0.85702704  0.38499311  1
  Ni  Ni19  1  0.25000000  0.14297296  0.61500689  1
  Ni  Ni20  1  0.25000000  0.06923925  0.29353849  1
  Ni  Ni21  1  0.75000000  0.93076075  0.70646151  1
  Ni  Ni22  1  0.75000000  0.56923925  0.20646151  1
  Ni  Ni23  1  0.25000000  0.43076075  0.79353849  1
  Ni  Ni24  1  0.75000000  0.63333517  0.50528707  1
  Ni  Ni25  1  0.25000000  0.36666483  0.49471293  1
  Ni  Ni26  1  0.25000000  0.81441707  0.80039327  1
  Ni  Ni27  1  0.75000000  0.18558293  0.19960673  1
  Ni  Ni28  1  0.75000000  0.31441707  0.69960673  1
  Ni  Ni29  1  0.25000000  0.68558293  0.30039327  1
  Ni  Ni30  1  0.25000000  0.88416576  0.51501145  1
  Ni  Ni31  1  0.75000000  0.86666483  0.00528707  1
  Y  Y32  1  0.25000000  0.62284998  0.64371176  1
  Y  Y33  1  0.75000000  0.37715002  0.35628824  1
  Y  Y34  1  0.75000000  0.12284998  0.85628824  1
  Y  Y35  1  0.25000000  0.87715002  0.14371176  1
