# generated using pymatgen
data_Y2TeO6
_symmetry_space_group_name_H-M   'P 1'
_cell_length_a   5.31934172
_cell_length_b   9.17268634
_cell_length_c   10.05800829
_cell_angle_alpha   90.00000000
_cell_angle_beta   90.00000000
_cell_angle_gamma   90.00000000
_symmetry_Int_Tables_number   1
_chemical_formula_structural   Y2TeO6
_chemical_formula_sum   'Y8 Te4 O24'
_cell_volume   490.75690970
_cell_formula_units_Z   4
loop_
 _symmetry_equiv_pos_site_id
 _symmetry_equiv_pos_as_xyz
  1  'x, y, z'
loop_
 _atom_site_type_symbol
 _atom_site_label
 _atom_site_symmetry_multiplicity
 _atom_site_fract_x
 _atom_site_fract_y
 _atom_site_fract_z
 _atom_site_occupancy
  O  O0  1  0.75770925  0.41466415  0.49493877  1
  O  O1  1  0.25770925  0.08533585  0.50506123  1
  O  O2  1  0.24229075  0.91466415  0.00506123  1
  O  O3  1  0.74229075  0.58533585  0.99493877  1
  O  O4  1  0.73325321  0.11443522  0.56864378  1
  O  O5  1  0.23325321  0.38556478  0.43135622  1
  O  O6  1  0.26674679  0.61443522  0.93135622  1
  O  O7  1  0.76674679  0.88556478  0.06864378  1
  O  O8  1  0.81819142  0.35967671  0.82205720  1
  O  O9  1  0.31819142  0.14032329  0.17794280  1
  O  O10  1  0.18180858  0.85967671  0.67794280  1
  O  O11  1  0.68180858  0.64032329  0.32205720  1
  O  O12  1  0.66874004  0.94945604  0.79911377  1
  O  O13  1  0.16874004  0.55054396  0.20088623  1
  O  O14  1  0.33125996  0.44945604  0.70088623  1
  O  O15  1  0.83125996  0.05054396  0.29911377  1
  O  O16  1  0.68718657  0.64081122  0.73884898  1
  O  O17  1  0.18718657  0.85918878  0.26115102  1
  O  O18  1  0.31281343  0.14081122  0.76115102  1
  O  O19  1  0.81281343  0.35918878  0.23884898  1
  O  O20  1  0.58882629  0.84457762  0.52949542  1
  O  O21  1  0.08882629  0.65542238  0.47050458  1
  O  O22  1  0.41117371  0.34457762  0.97050458  1
  O  O23  1  0.91117371  0.15542238  0.02949542  1
  Y  Y24  1  0.96158821  0.78308463  0.86453940  1
  Y  Y25  1  0.46158821  0.71691537  0.13546060  1
  Y  Y26  1  0.03841179  0.28308463  0.63546060  1
  Y  Y27  1  0.53841179  0.21691537  0.36453940  1
  Y  Y28  1  0.51875104  0.10346248  0.96159015  1
  Y  Y29  1  0.01875104  0.39653752  0.03840985  1
  Y  Y30  1  0.48124896  0.60346248  0.53840985  1
  Y  Y31  1  0.98124896  0.89653752  0.46159015  1
  Te  Te32  1  0.46224150  0.99506136  0.64782076  1
  Te  Te33  1  0.96224150  0.50493864  0.35217924  1
  Te  Te34  1  0.53775850  0.49506136  0.85217924  1
  Te  Te35  1  0.03775850  0.00493864  0.14782076  1
