# generated using pymatgen
data_Rb7NbAs4
_symmetry_space_group_name_H-M   'P 1'
_cell_length_a   8.77254827
_cell_length_b   9.64884060
_cell_length_c   10.81128159
_cell_angle_alpha   90.00000000
_cell_angle_beta   90.00000000
_cell_angle_gamma   90.00000000
_symmetry_Int_Tables_number   1
_chemical_formula_structural   Rb7NbAs4
_chemical_formula_sum   'Rb14 Nb2 As8'
_cell_volume   915.12006434
_cell_formula_units_Z   2
loop_
 _symmetry_equiv_pos_site_id
 _symmetry_equiv_pos_as_xyz
  1  'x, y, z'
loop_
 _atom_site_type_symbol
 _atom_site_label
 _atom_site_symmetry_multiplicity
 _atom_site_fract_x
 _atom_site_fract_y
 _atom_site_fract_z
 _atom_site_occupancy
  As  As0  1  0.71092753  0.68305817  0.00000000  1
  As  As1  1  0.21092753  0.31694183  0.50000000  1
  As  As2  1  0.07481509  0.41908254  0.00000000  1
  As  As3  1  0.57481509  0.58091746  0.50000000  1
  As  As4  1  0.09013041  0.80046318  0.80506579  1
  As  As5  1  0.59013041  0.19953682  0.69493421  1
  As  As6  1  0.59013041  0.19953682  0.30506579  1
  As  As7  1  0.09013041  0.80046318  0.19493421  1
  Rb  Rb8  1  0.87786155  0.02872657  0.00000000  1
  Rb  Rb9  1  0.70821261  0.83296924  0.28508397  1
  Rb  Rb10  1  0.39109379  0.88790126  0.00000000  1
  Rb  Rb11  1  0.37786155  0.97127343  0.50000000  1
  Rb  Rb12  1  0.87337077  0.46821530  0.71166658  1
  Rb  Rb13  1  0.89109379  0.11209874  0.50000000  1
  Rb  Rb14  1  0.66455693  0.33902250  0.00000000  1
  Rb  Rb15  1  0.16455693  0.66097750  0.50000000  1
  Rb  Rb16  1  0.20821261  0.16703076  0.78508397  1
  Rb  Rb17  1  0.37337077  0.53178470  0.78833342  1
  Rb  Rb18  1  0.37337077  0.53178470  0.21166658  1
  Rb  Rb19  1  0.87337077  0.46821530  0.28833342  1
  Rb  Rb20  1  0.70821261  0.83296924  0.71491603  1
  Rb  Rb21  1  0.20821261  0.16703076  0.21491603  1
  Nb  Nb22  1  0.99841753  0.67267725  0.00000000  1
  Nb  Nb23  1  0.49841753  0.32732275  0.50000000  1
