# generated using pymatgen
data_SnPS3
_symmetry_space_group_name_H-M   'P 1'
_cell_length_a   6.65579758
_cell_length_b   7.68465435
_cell_length_c   9.84142791
_cell_angle_alpha   90.00000000
_cell_angle_beta   90.36372697
_cell_angle_gamma   90.00000000
_symmetry_Int_Tables_number   1
_chemical_formula_structural   SnPS3
_chemical_formula_sum   'Sn4 P4 S12'
_cell_volume   503.35432923
_cell_formula_units_Z   4
loop_
 _symmetry_equiv_pos_site_id
 _symmetry_equiv_pos_as_xyz
  1  'x, y, z'
loop_
 _atom_site_type_symbol
 _atom_site_label
 _atom_site_symmetry_multiplicity
 _atom_site_fract_x
 _atom_site_fract_y
 _atom_site_fract_z
 _atom_site_occupancy
  P  P0  1  0.81312008  0.64974314  0.68705480  1
  P  P1  1  0.31312008  0.35025686  0.18705480  1
  P  P2  1  0.69105397  0.86511317  0.81848742  1
  P  P3  1  0.19105397  0.13488683  0.31848742  1
  S  S4  1  0.56824864  0.42668547  0.28991165  1
  S  S5  1  0.06824864  0.57331453  0.78991165  1
  S  S6  1  0.10855996  0.54655586  0.20307331  1
  S  S7  1  0.60855996  0.45344414  0.70307331  1
  S  S8  1  0.15055955  0.24828972  0.50334978  1
  S  S9  1  0.65055955  0.75171028  0.00334978  1
  S  S10  1  0.93209552  0.04669594  0.23162501  1
  S  S11  1  0.43209552  0.95330406  0.73162501  1
  S  S12  1  0.40960967  0.94836313  0.31118360  1
  S  S13  1  0.90960967  0.05163687  0.81118360  1
  S  S14  1  0.35372585  0.25994815  0.99679344  1
  S  S15  1  0.85372585  0.74005185  0.49679344  1
  Sn  Sn16  1  0.70368463  0.12955834  0.44892647  1
  Sn  Sn17  1  0.20368463  0.87044166  0.94892647  1
  Sn  Sn18  1  0.76114213  0.39972229  0.95629453  1
  Sn  Sn19  1  0.26114213  0.60027771  0.45629453  1
