# generated using pymatgen
data_Ba(SiIr)2
_symmetry_space_group_name_H-M   'P 1'
_cell_length_a   6.77458041
_cell_length_b   7.79051040
_cell_length_c   7.97733482
_cell_angle_alpha   91.83904015
_cell_angle_beta   90.00000000
_cell_angle_gamma   90.00000000
_symmetry_Int_Tables_number   1
_chemical_formula_structural   Ba(SiIr)2
_chemical_formula_sum   'Ba4 Si8 Ir8'
_cell_volume   420.80644517
_cell_formula_units_Z   4
loop_
 _symmetry_equiv_pos_site_id
 _symmetry_equiv_pos_as_xyz
  1  'x, y, z'
loop_
 _atom_site_type_symbol
 _atom_site_label
 _atom_site_symmetry_multiplicity
 _atom_site_fract_x
 _atom_site_fract_y
 _atom_site_fract_z
 _atom_site_occupancy
  Si  Si0  1  0.58049739  0.62903943  0.92662970  1
  Si  Si1  1  0.85194160  0.81290800  0.56312692  1
  Si  Si2  1  0.35194160  0.68709200  0.43687308  1
  Si  Si3  1  0.14805840  0.18709200  0.43687308  1
  Si  Si4  1  0.08049739  0.87096057  0.07337030  1
  Si  Si5  1  0.41950261  0.37096057  0.07337030  1
  Si  Si6  1  0.91950261  0.12903943  0.92662970  1
  Si  Si7  1  0.64805840  0.31290800  0.56312692  1
  Ba  Ba8  1  0.61906880  0.99851374  0.23547832  1
  Ba  Ba9  1  0.11906880  0.50148626  0.76452168  1
  Ba  Ba10  1  0.88093120  0.49851374  0.23547832  1
  Ba  Ba11  1  0.38093120  0.00148626  0.76452168  1
  Ir  Ir12  1  0.60525469  0.61367725  0.62152374  1
  Ir  Ir13  1  0.39474531  0.38632275  0.37847626  1
  Ir  Ir14  1  0.89474531  0.11367725  0.62152374  1
  Ir  Ir15  1  0.83318593  0.83000249  0.86263054  1
  Ir  Ir16  1  0.33318593  0.66999751  0.13736946  1
  Ir  Ir17  1  0.16681407  0.16999751  0.13736946  1
  Ir  Ir18  1  0.66681407  0.33000249  0.86263054  1
  Ir  Ir19  1  0.10525469  0.88632275  0.37847626  1
