# generated using pymatgen
data_Mn2InSnPd4
_symmetry_space_group_name_H-M   'P 1'
_cell_length_a   4.53609218
_cell_length_b   4.53609218
_cell_length_c   7.89033812
_cell_angle_alpha   73.29488692
_cell_angle_beta   90.00000000
_cell_angle_gamma   120.00000000
_symmetry_Int_Tables_number   1
_chemical_formula_structural   Mn2InSnPd4
_chemical_formula_sum   'Mn2 In1 Sn1 Pd4'
_cell_volume   132.63076016
_cell_formula_units_Z   1
loop_
 _symmetry_equiv_pos_site_id
 _symmetry_equiv_pos_as_xyz
  1  'x, y, z'
loop_
 _atom_site_type_symbol
 _atom_site_label
 _atom_site_symmetry_multiplicity
 _atom_site_fract_x
 _atom_site_fract_y
 _atom_site_fract_z
 _atom_site_occupancy
  Mn  Mn0  1  0.25035346  0.50070691  0.24893963  1
  Mn  Mn1  1  0.74964654  0.49929309  0.75106037  1
  In  In2  1  -0.00000000  0.00000000  0.00000000  1
  Sn  Sn3  1  0.50000000  0.00000000  0.50000000  1
  Pd  Pd4  1  0.62473553  0.24947106  0.12579341  1
  Pd  Pd5  1  0.12521552  0.25043104  0.62435344  1
  Pd  Pd6  1  0.87478448  0.74956896  0.37564656  1
  Pd  Pd7  1  0.37526447  0.75052894  0.87420659  1
