# generated using pymatgen
data_CeGa2Ni3
_symmetry_space_group_name_H-M   'P 1'
_cell_length_a   4.14369170
_cell_length_b   8.82087013
_cell_length_c   8.82086954
_cell_angle_alpha   60.07055431
_cell_angle_beta   90.00000000
_cell_angle_gamma   90.00000000
_symmetry_Int_Tables_number   1
_chemical_formula_structural   CeGa2Ni3
_chemical_formula_sum   'Ce3 Ga6 Ni9'
_cell_volume   279.41467901
_cell_formula_units_Z   3
loop_
 _symmetry_equiv_pos_site_id
 _symmetry_equiv_pos_as_xyz
  1  'x, y, z'
loop_
 _atom_site_type_symbol
 _atom_site_label
 _atom_site_symmetry_multiplicity
 _atom_site_fract_x
 _atom_site_fract_y
 _atom_site_fract_z
 _atom_site_occupancy
  Ce  Ce0  1  0.50000000  0.33331881  0.33322396  1
  Ce  Ce1  1  0.50000000  0.66677604  0.66668119  1
  Ce  Ce2  1  -0.00000000  -0.00014385  0.00014385  1
  Ga  Ga3  1  0.00000000  0.50997448  0.49002552  1
  Ga  Ga4  1  -0.00000000  0.49006520  0.00004547  1
  Ga  Ga5  1  -0.00000000  0.99995453  0.50993480  1
  Ga  Ga6  1  0.50000000  0.27869443  0.72130557  1
  Ga  Ga7  1  0.50000000  0.72099750  0.00003363  1
  Ga  Ga8  1  0.50000000  -0.00003363  0.27900250  1
  Ni  Ni9  1  -0.00000000  0.17763165  0.18759282  1
  Ni  Ni10  1  -0.00000000  0.18808922  0.63423606  1
  Ni  Ni11  1  -0.00000000  0.63442519  0.17777140  1
  Ni  Ni12  1  -0.00000000  0.81240718  0.82236835  1
  Ni  Ni13  1  -0.00000000  0.36576394  0.81191078  1
  Ni  Ni14  1  0.00000000  0.82222860  0.36557481  1
  Ni  Ni15  1  0.50000000  0.70904645  0.29095355  1
  Ni  Ni16  1  0.50000000  0.29078199  0.00007773  1
  Ni  Ni17  1  0.50000000  0.99992227  0.70921801  1
