# generated using pymatgen
data_IrS2
_symmetry_space_group_name_H-M   'P 1'
_cell_length_a   3.61255731
_cell_length_b   5.68606406
_cell_length_c   20.04169609
_cell_angle_alpha   90.00000000
_cell_angle_beta   90.00000000
_cell_angle_gamma   90.00000000
_symmetry_Int_Tables_number   1
_chemical_formula_structural   IrS2
_chemical_formula_sum   'Ir8 S16'
_cell_volume   411.68113477
_cell_formula_units_Z   8
loop_
 _symmetry_equiv_pos_site_id
 _symmetry_equiv_pos_as_xyz
  1  'x, y, z'
loop_
 _atom_site_type_symbol
 _atom_site_label
 _atom_site_symmetry_multiplicity
 _atom_site_fract_x
 _atom_site_fract_y
 _atom_site_fract_z
 _atom_site_occupancy
  S  S0  1  0.25000000  0.22155457  0.49101628  1
  S  S1  1  0.75000000  0.77844543  0.50898372  1
  S  S2  1  0.75000000  0.72155457  0.00898372  1
  S  S3  1  0.25000000  0.27844543  0.99101628  1
  S  S4  1  0.25000000  0.17928915  0.26292181  1
  S  S5  1  0.75000000  0.82071085  0.73707819  1
  S  S6  1  0.75000000  0.67928915  0.23707819  1
  S  S7  1  0.25000000  0.32071085  0.76292181  1
  S  S8  1  0.25000000  0.93584832  0.35937699  1
  S  S9  1  0.75000000  0.06415168  0.64062301  1
  S  S10  1  0.75000000  0.43584832  0.14062301  1
  S  S11  1  0.25000000  0.56415168  0.85937699  1
  S  S12  1  0.25000000  0.54641413  0.62346571  1
  S  S13  1  0.75000000  0.45358587  0.37653429  1
  S  S14  1  0.75000000  0.04641413  0.87653429  1
  S  S15  1  0.25000000  0.95358587  0.12346571  1
  Ir  Ir16  1  0.25000000  0.94102139  0.80402316  1
  Ir  Ir17  1  0.75000000  0.05897861  0.19597684  1
  Ir  Ir18  1  0.75000000  0.44102139  0.69597684  1
  Ir  Ir19  1  0.25000000  0.55897861  0.30402316  1
  Ir  Ir20  1  0.25000000  0.92727884  0.57743445  1
  Ir  Ir21  1  0.75000000  0.07272116  0.42256555  1
  Ir  Ir22  1  0.75000000  0.42727884  0.92256555  1
  Ir  Ir23  1  0.25000000  0.57272116  0.07743445  1
