# generated using pymatgen
data_CsFeCoF6
_symmetry_space_group_name_H-M   'P 1'
_cell_length_a   7.46864647
_cell_length_b   7.38964555
_cell_length_c   7.53544650
_cell_angle_alpha   90.00000000
_cell_angle_beta   59.70368915
_cell_angle_gamma   119.65070586
_symmetry_Int_Tables_number   1
_chemical_formula_structural   CsFeCoF6
_chemical_formula_sum   'Cs2 Fe2 Co2 F12'
_cell_volume   294.30195570
_cell_formula_units_Z   2
loop_
 _symmetry_equiv_pos_site_id
 _symmetry_equiv_pos_as_xyz
  1  'x, y, z'
loop_
 _atom_site_type_symbol
 _atom_site_label
 _atom_site_symmetry_multiplicity
 _atom_site_fract_x
 _atom_site_fract_y
 _atom_site_fract_z
 _atom_site_occupancy
  Cs  Cs0  1  0.75415992  0.37707996  0.37292004  1
  Cs  Cs1  1  0.24584008  0.62292004  0.62707996  1
  Fe  Fe2  1  0.00000000  -0.00000000  0.50000000  1
  Fe  Fe3  1  0.00000000  -0.00000000  -0.00000000  1
  Co  Co4  1  0.50000000  0.50000000  -0.00000000  1
  Co  Co5  1  0.50000000  -0.00000000  -0.00000000  1
  F  F6  1  0.86649547  0.93324773  0.31675227  1
  F  F7  1  0.64465711  0.32232856  0.92767144  1
  F  F8  1  0.24177709  0.93081734  0.92892408  1
  F  F9  1  0.24177709  0.31095974  0.32929883  1
  F  F10  1  0.24177709  0.31095974  0.92892408  1
  F  F11  1  0.24177709  0.93081734  0.32929883  1
  F  F12  1  0.13350453  0.06675227  0.68324773  1
  F  F13  1  0.35534289  0.67767144  0.07232856  1
  F  F14  1  0.75822291  0.06918266  0.07107592  1
  F  F15  1  0.75822291  0.68904026  0.67070117  1
  F  F16  1  0.75822291  0.68904026  0.07107592  1
  F  F17  1  0.75822291  0.06918266  0.67070117  1
