# generated using pymatgen
data_Eu2WO6
_symmetry_space_group_name_H-M   'P 1'
_cell_length_a   5.53666379
_cell_length_b   10.15513490
_cell_length_c   10.15513490
_cell_angle_alpha   68.23124016
_cell_angle_beta   75.48039876
_cell_angle_gamma   75.48039876
_symmetry_Int_Tables_number   1
_chemical_formula_structural   Eu2WO6
_chemical_formula_sum   'Eu8 W4 O24'
_cell_volume   505.36293272
_cell_formula_units_Z   4
loop_
 _symmetry_equiv_pos_site_id
 _symmetry_equiv_pos_as_xyz
  1  'x, y, z'
loop_
 _atom_site_type_symbol
 _atom_site_label
 _atom_site_symmetry_multiplicity
 _atom_site_fract_x
 _atom_site_fract_y
 _atom_site_fract_z
 _atom_site_occupancy
  Eu  Eu0  1  0.25000000  0.36740525  0.63259475  1
  Eu  Eu1  1  0.75000000  0.63259475  0.36740525  1
  Eu  Eu2  1  0.25000000  0.88895425  0.11104575  1
  Eu  Eu3  1  0.75000000  0.11104575  0.88895425  1
  Eu  Eu4  1  0.38934322  0.94207233  0.71009404  1
  Eu  Eu5  1  0.61065678  0.05792767  0.28990596  1
  Eu  Eu6  1  0.11065678  0.28990596  0.05792767  1
  Eu  Eu7  1  0.88934322  0.71009404  0.94207233  1
  W  W8  1  0.06251040  0.79940942  0.50543078  1
  W  W9  1  0.93748960  0.20059058  0.49456922  1
  W  W10  1  0.43748960  0.49456922  0.20059058  1
  W  W11  1  0.56251040  0.50543078  0.79940942  1
  O  O12  1  0.07639792  0.16032512  0.68576999  1
  O  O13  1  0.92360208  0.83967488  0.31423001  1
  O  O14  1  0.42360208  0.31423001  0.83967488  1
  O  O15  1  0.57639792  0.68576999  0.16032512  1
  O  O16  1  0.37055139  0.82781277  0.38110589  1
  O  O17  1  0.62944861  0.17218723  0.61889411  1
  O  O18  1  0.12944861  0.61889411  0.17218723  1
  O  O19  1  0.87055139  0.38110589  0.82781277  1
  O  O20  1  0.13455446  0.78684224  0.67915879  1
  O  O21  1  0.86544554  0.21315776  0.32084121  1
  O  O22  1  0.36544554  0.32084121  0.21315776  1
  O  O23  1  0.63455446  0.67915879  0.78684224  1
  O  O24  1  0.23703250  0.06470241  0.47756124  1
  O  O25  1  0.76296750  0.93529759  0.52243876  1
  O  O26  1  0.26296750  0.52243876  0.93529759  1
  O  O27  1  0.73703250  0.47756124  0.06470241  1
  O  O28  1  0.01282330  0.61576637  0.54541031  1
  O  O29  1  0.98717670  0.38423363  0.45458969  1
  O  O30  1  0.48717670  0.45458969  0.38423363  1
  O  O31  1  0.51282330  0.54541031  0.61576637  1
  O  O32  1  0.57096343  0.92238086  0.89791284  1
  O  O33  1  0.42903657  0.07761914  0.10208716  1
  O  O34  1  0.92903657  0.10208716  0.07761914  1
  O  O35  1  0.07096343  0.89791284  0.92238086  1
