# generated using pymatgen
data_BaMg30CuO32
_symmetry_space_group_name_H-M   'P 1'
_cell_length_a   8.72630036
_cell_length_b   8.61682859
_cell_length_c   8.61682859
_cell_angle_alpha   90.00000000
_cell_angle_beta   90.00000000
_cell_angle_gamma   90.00000000
_symmetry_Int_Tables_number   1
_chemical_formula_structural   BaMg30CuO32
_chemical_formula_sum   'Ba1 Mg30 Cu1 O32'
_cell_volume   647.92548882
_cell_formula_units_Z   1
loop_
 _symmetry_equiv_pos_site_id
 _symmetry_equiv_pos_as_xyz
  1  'x, y, z'
loop_
 _atom_site_type_symbol
 _atom_site_label
 _atom_site_symmetry_multiplicity
 _atom_site_fract_x
 _atom_site_fract_y
 _atom_site_fract_z
 _atom_site_occupancy
  Ba  Ba0  1  0.00000000  0.50000000  0.50000000  1
  Mg  Mg1  1  0.00000000  0.00000000  0.50000000  1
  Mg  Mg2  1  0.00000000  0.50000000  -0.00000000  1
  Mg  Mg3  1  0.50000000  0.00000000  -0.00000000  1
  Mg  Mg4  1  0.50000000  0.00000000  0.50000000  1
  Mg  Mg5  1  0.50000000  0.50000000  -0.00000000  1
  Mg  Mg6  1  0.50000000  0.50000000  0.50000000  1
  Mg  Mg7  1  0.00000000  0.24190939  0.24190939  1
  Mg  Mg8  1  0.00000000  0.24190939  0.75809061  1
  Mg  Mg9  1  0.00000000  0.75809061  0.24190939  1
  Mg  Mg10  1  0.00000000  0.75809061  0.75809061  1
  Mg  Mg11  1  0.50000000  0.24891219  0.24891219  1
  Mg  Mg12  1  0.50000000  0.24891219  0.75108781  1
  Mg  Mg13  1  0.50000000  0.75108781  0.24891219  1
  Mg  Mg14  1  0.50000000  0.75108781  0.75108781  1
  Mg  Mg15  1  0.25221362  0.00000000  0.24658488  1
  Mg  Mg16  1  0.25221362  0.00000000  0.75341512  1
  Mg  Mg17  1  0.25833635  0.50000000  0.24232127  1
  Mg  Mg18  1  0.25833635  0.50000000  0.75767873  1
  Mg  Mg19  1  0.74778638  0.00000000  0.24658488  1
  Mg  Mg20  1  0.74778638  0.00000000  0.75341512  1
  Mg  Mg21  1  0.74166365  0.50000000  0.24232127  1
  Mg  Mg22  1  0.74166365  0.50000000  0.75767873  1
  Mg  Mg23  1  0.25221362  0.24658488  -0.00000000  1
  Mg  Mg24  1  0.25833635  0.24232127  0.50000000  1
  Mg  Mg25  1  0.25221362  0.75341512  -0.00000000  1
  Mg  Mg26  1  0.25833635  0.75767873  0.50000000  1
  Mg  Mg27  1  0.74778638  0.24658488  -0.00000000  1
  Mg  Mg28  1  0.74166365  0.24232127  0.50000000  1
  Mg  Mg29  1  0.74778638  0.75341512  -0.00000000  1
  Mg  Mg30  1  0.74166365  0.75767873  0.50000000  1
  Cu  Cu31  1  0.00000000  0.00000000  -0.00000000  1
  O  O32  1  0.26631613  0.00000000  -0.00000000  1
  O  O33  1  0.25483807  0.00000000  0.50000000  1
  O  O34  1  0.25483807  0.50000000  -0.00000000  1
  O  O35  1  0.27867505  0.50000000  0.50000000  1
  O  O36  1  0.73368387  0.00000000  -0.00000000  1
  O  O37  1  0.74516193  0.00000000  0.50000000  1
  O  O38  1  0.74516193  0.50000000  -0.00000000  1
  O  O39  1  0.72132495  0.50000000  0.50000000  1
  O  O40  1  0.24911239  0.25005433  0.25005433  1
  O  O41  1  0.24911239  0.25005433  0.74994567  1
  O  O42  1  0.24911239  0.74994567  0.25005433  1
  O  O43  1  0.24911239  0.74994567  0.74994567  1
  O  O44  1  0.75088761  0.25005433  0.25005433  1
  O  O45  1  0.75088761  0.25005433  0.74994567  1
  O  O46  1  0.75088761  0.74994567  0.25005433  1
  O  O47  1  0.75088761  0.74994567  0.74994567  1
  O  O48  1  0.00000000  0.00000000  0.24145681  1
  O  O49  1  0.00000000  0.00000000  0.75854319  1
  O  O50  1  0.00000000  0.50000000  0.22058004  1
  O  O51  1  0.00000000  0.50000000  0.77941996  1
  O  O52  1  0.50000000  0.00000000  0.25096181  1
  O  O53  1  0.50000000  0.00000000  0.74903819  1
  O  O54  1  0.50000000  0.50000000  0.24482831  1
  O  O55  1  0.50000000  0.50000000  0.75517169  1
  O  O56  1  0.00000000  0.24145681  -0.00000000  1
  O  O57  1  0.00000000  0.22058004  0.50000000  1
  O  O58  1  0.00000000  0.75854319  -0.00000000  1
  O  O59  1  0.00000000  0.77941996  0.50000000  1
  O  O60  1  0.50000000  0.25096181  -0.00000000  1
  O  O61  1  0.50000000  0.24482831  0.50000000  1
  O  O62  1  0.50000000  0.74903819  -0.00000000  1
  O  O63  1  0.50000000  0.75517169  0.50000000  1
