# generated using pymatgen
data_SmCrO4
_symmetry_space_group_name_H-M   'P 1'
_cell_length_a   6.10487537
_cell_length_b   6.10487537
_cell_length_c   6.10487537
_cell_angle_alpha   105.86944926
_cell_angle_beta   105.86944925
_cell_angle_gamma   116.94321817
_symmetry_Int_Tables_number   1
_chemical_formula_structural   SmCrO4
_chemical_formula_sum   'Sm2 Cr2 O8'
_cell_volume   172.88772523
_cell_formula_units_Z   2
loop_
 _symmetry_equiv_pos_site_id
 _symmetry_equiv_pos_as_xyz
  1  'x, y, z'
loop_
 _atom_site_type_symbol
 _atom_site_label
 _atom_site_symmetry_multiplicity
 _atom_site_fract_x
 _atom_site_fract_y
 _atom_site_fract_z
 _atom_site_occupancy
  O  O0  1  0.29614555  0.22766111  0.43151511  1
  O  O1  1  0.86463007  0.29614559  0.56848496  1
  O  O2  1  0.22766104  0.29614647  0.93151607  1
  O  O3  1  0.29614527  0.86463089  0.06848437  1
  O  O4  1  0.13536952  0.70385515  0.43151517  1
  O  O5  1  0.70385403  0.77233964  0.56848503  1
  O  O6  1  0.77233854  0.70385428  0.06848407  1
  O  O7  1  0.70385431  0.13536985  0.93151576  1
  Cr  Cr8  1  0.87500129  0.12500103  0.75000021  1
  Cr  Cr9  1  0.12500000  0.87499972  0.25000040  1
  Sm  Sm10  1  0.37500015  0.62499976  0.74999954  1
  Sm  Sm11  1  0.62500114  0.37500099  0.25000107  1
