# generated using pymatgen
data_Ba2SmReO6
_symmetry_space_group_name_H-M   'P 1'
_cell_length_a   6.06093614
_cell_length_b   6.06093614
_cell_length_c   6.06093614
_cell_angle_alpha   59.99999998
_cell_angle_beta   60.00000001
_cell_angle_gamma   59.99999995
_symmetry_Int_Tables_number   1
_chemical_formula_structural   Ba2SmReO6
_chemical_formula_sum   'Ba2 Sm1 Re1 O6'
_cell_volume   157.43602875
_cell_formula_units_Z   1
loop_
 _symmetry_equiv_pos_site_id
 _symmetry_equiv_pos_as_xyz
  1  'x, y, z'
loop_
 _atom_site_type_symbol
 _atom_site_label
 _atom_site_symmetry_multiplicity
 _atom_site_fract_x
 _atom_site_fract_y
 _atom_site_fract_z
 _atom_site_occupancy
  O  O0  1  0.23179822  0.76820178  0.76820178  1
  O  O1  1  0.23179822  0.76820178  0.23179822  1
  O  O2  1  0.76820178  0.23179822  0.76820178  1
  O  O3  1  0.23179822  0.23179822  0.76820178  1
  O  O4  1  0.76820178  0.23179822  0.23179822  1
  O  O5  1  0.76820178  0.76820178  0.23179822  1
  Ba  Ba6  1  0.25000000  0.25000000  0.25000000  1
  Ba  Ba7  1  0.75000000  0.75000000  0.75000000  1
  Sm  Sm8  1  0.50000000  0.50000000  0.50000000  1
  Re  Re9  1  0.00000000  0.00000000  0.00000000  1
