# generated using pymatgen
data_Nb3I8
_symmetry_space_group_name_H-M   'P 1'
_cell_length_a   15.56674075
_cell_length_b   15.56674102
_cell_length_c   15.56674034
_cell_angle_alpha   28.66922228
_cell_angle_beta   28.66922057
_cell_angle_gamma   28.66922182
_symmetry_Int_Tables_number   1
_chemical_formula_structural   Nb3I8
_chemical_formula_sum   'Nb6 I16'
_cell_volume   767.56475000
_cell_formula_units_Z   2
loop_
 _symmetry_equiv_pos_site_id
 _symmetry_equiv_pos_as_xyz
  1  'x, y, z'
loop_
 _atom_site_type_symbol
 _atom_site_label
 _atom_site_symmetry_multiplicity
 _atom_site_fract_x
 _atom_site_fract_y
 _atom_site_fract_z
 _atom_site_occupancy
  Nb  Nb0  1  0.54660202  0.15331979  0.54660202  1
  Nb  Nb1  1  0.45339798  0.84668021  0.45339798  1
  Nb  Nb2  1  0.15331979  0.54660202  0.54660202  1
  Nb  Nb3  1  0.45339798  0.45339798  0.84668021  1
  Nb  Nb4  1  0.84668021  0.45339798  0.45339798  1
  Nb  Nb5  1  0.54660202  0.54660202  0.15331979  1
  I  I6  1  0.70698107  0.21159531  0.70698107  1
  I  I7  1  0.11599890  0.11599890  0.62366193  1
  I  I8  1  0.88400110  0.37633807  0.88400110  1
  I  I9  1  0.37633807  0.88400110  0.88400110  1
  I  I10  1  0.36766446  0.36766446  0.36766446  1
  I  I11  1  0.29301893  0.78840469  0.29301893  1
  I  I12  1  0.29301893  0.29301893  0.78840469  1
  I  I13  1  0.63233554  0.63233554  0.63233554  1
  I  I14  1  0.11599890  0.62366193  0.11599890  1
  I  I15  1  0.62366193  0.11599890  0.11599890  1
  I  I16  1  0.78840469  0.29301893  0.29301893  1
  I  I17  1  0.88400110  0.88400110  0.37633807  1
  I  I18  1  0.21159531  0.70698107  0.70698107  1
  I  I19  1  0.70698107  0.70698107  0.21159531  1
  I  I20  1  0.78142717  0.78142717  0.78142717  1
  I  I21  1  0.21857283  0.21857283  0.21857283  1
