# generated using pymatgen
data_Ca2YbRuO6
_symmetry_space_group_name_H-M   'P 1'
_cell_length_a   5.54615889
_cell_length_b   5.83237646
_cell_length_c   7.97799348
_cell_angle_alpha   90.00000000
_cell_angle_beta   90.05438372
_cell_angle_gamma   90.00000000
_symmetry_Int_Tables_number   1
_chemical_formula_structural   Ca2YbRuO6
_chemical_formula_sum   'Ca4 Yb2 Ru2 O12'
_cell_volume   258.06632490
_cell_formula_units_Z   2
loop_
 _symmetry_equiv_pos_site_id
 _symmetry_equiv_pos_as_xyz
  1  'x, y, z'
loop_
 _atom_site_type_symbol
 _atom_site_label
 _atom_site_symmetry_multiplicity
 _atom_site_fract_x
 _atom_site_fract_y
 _atom_site_fract_z
 _atom_site_occupancy
  Ca  Ca0  1  0.01672958  0.43937555  0.25506925  1
  Ca  Ca1  1  0.98327042  0.56062445  0.74493075  1
  Ca  Ca2  1  0.48327042  0.93937555  0.24493075  1
  Ca  Ca3  1  0.51672958  0.06062445  0.75506925  1
  Yb  Yb4  1  0.00000000  0.00000000  0.50000000  1
  Yb  Yb5  1  0.50000000  0.50000000  0.00000000  1
  Ru  Ru6  1  0.00000000  0.00000000  0.00000000  1
  Ru  Ru7  1  0.50000000  0.50000000  0.50000000  1
  O  O8  1  0.88776552  0.04982309  0.22838926  1
  O  O9  1  0.11223448  0.95017691  0.77161074  1
  O  O10  1  0.61223448  0.54982309  0.27161074  1
  O  O11  1  0.38776552  0.45017691  0.72838926  1
  O  O12  1  0.17082800  0.72090188  0.06840300  1
  O  O13  1  0.82917200  0.27909812  0.93159700  1
  O  O14  1  0.32917200  0.22090188  0.43159700  1
  O  O15  1  0.67082800  0.77909812  0.56840300  1
  O  O16  1  0.28594065  0.17957459  0.05196244  1
  O  O17  1  0.71405935  0.82042541  0.94803756  1
  O  O18  1  0.21405935  0.67957459  0.44803756  1
  O  O19  1  0.78594065  0.32042541  0.55196244  1
