# generated using pymatgen
data_TbNiC2
_symmetry_space_group_name_H-M   'P 1'
_cell_length_a   3.62559560
_cell_length_b   3.76355952
_cell_length_c   3.76355952
_cell_angle_alpha   106.16914701
_cell_angle_beta   90.00000000
_cell_angle_gamma   90.00000000
_symmetry_Int_Tables_number   1
_chemical_formula_structural   TbNiC2
_chemical_formula_sum   'Tb1 Ni1 C2'
_cell_volume   49.32293212
_cell_formula_units_Z   1
loop_
 _symmetry_equiv_pos_site_id
 _symmetry_equiv_pos_as_xyz
  1  'x, y, z'
loop_
 _atom_site_type_symbol
 _atom_site_label
 _atom_site_symmetry_multiplicity
 _atom_site_fract_x
 _atom_site_fract_y
 _atom_site_fract_z
 _atom_site_occupancy
  C  C0  1  0.50000000  0.45193366  0.85167648  1
  C  C1  1  0.50000000  0.14832352  0.54806634  1
  Ni  Ni2  1  0.50000000  0.61163374  0.38836626  1
  Tb  Tb3  1  0.00000000  0.00010907  0.99989093  1
