# generated using pymatgen
data_Th(MoO4)2
_symmetry_space_group_name_H-M   'P 1'
_cell_length_a   10.11807500
_cell_length_b   10.41885127
_cell_length_c   14.85918788
_cell_angle_alpha   90.00000000
_cell_angle_beta   90.00000000
_cell_angle_gamma   90.00000000
_symmetry_Int_Tables_number   1
_chemical_formula_structural   Th(MoO4)2
_chemical_formula_sum   'Th8 Mo16 O64'
_cell_volume   1566.43654521
_cell_formula_units_Z   8
loop_
 _symmetry_equiv_pos_site_id
 _symmetry_equiv_pos_as_xyz
  1  'x, y, z'
loop_
 _atom_site_type_symbol
 _atom_site_label
 _atom_site_symmetry_multiplicity
 _atom_site_fract_x
 _atom_site_fract_y
 _atom_site_fract_z
 _atom_site_occupancy
  O  O0  1  0.78758095  0.22769619  0.67503574  1
  O  O1  1  0.28758024  0.77230328  0.82496400  1
  O  O2  1  0.71241921  0.72769592  0.32496408  1
  O  O3  1  0.21241949  0.27230355  0.17503583  1
  O  O4  1  0.21241949  0.77230328  0.32496408  1
  O  O5  1  0.71241921  0.22769619  0.17503583  1
  O  O6  1  0.28758024  0.27230355  0.67503574  1
  O  O7  1  0.78758095  0.72769592  0.82496400  1
  O  O8  1  0.59901326  0.32794175  0.87669430  1
  O  O9  1  0.09901353  0.67205868  0.62330610  1
  O  O10  1  0.90098690  0.82794149  0.12330619  1
  O  O11  1  0.40098718  0.17205895  0.37669372  1
  O  O12  1  0.40098718  0.67205868  0.12330619  1
  O  O13  1  0.90098690  0.32794175  0.37669372  1
  O  O14  1  0.09901353  0.17205895  0.87669430  1
  O  O15  1  0.59901326  0.82794149  0.62330610  1
  O  O16  1  0.50778653  0.08555241  0.67253211  1
  O  O17  1  0.00778681  0.91444802  0.82746762  1
  O  O18  1  0.99221362  0.58555215  0.32746771  1
  O  O19  1  0.49221291  0.41444828  0.17253220  1
  O  O20  1  0.49221291  0.91444802  0.32746771  1
  O  O21  1  0.89546403  0.18316335  0.01245563  1
  O  O22  1  0.00778681  0.41444828  0.67253211  1
  O  O23  1  0.50778653  0.58555215  0.82746762  1
  O  O24  1  0.74368941  0.49279552  0.73295221  1
  O  O25  1  0.24368969  0.50720491  0.76704820  1
  O  O26  1  0.75631074  0.99279526  0.26704762  1
  O  O27  1  0.25631102  0.00720518  0.23295229  1
  O  O28  1  0.25631102  0.50720491  0.26704762  1
  O  O29  1  0.75631074  0.49279552  0.23295229  1
  O  O30  1  0.24368969  0.00720518  0.73295221  1
  O  O31  1  0.74368941  0.99279526  0.76704820  1
  O  O32  1  0.89984034  0.88555271  0.62308715  1
  O  O33  1  0.39984062  0.11444676  0.87691326  1
  O  O34  1  0.60015882  0.38555298  0.37691334  1
  O  O35  1  0.10015910  0.61444746  0.12308657  1
  O  O36  1  0.10015910  0.11444676  0.37691334  1
  O  O37  1  0.60015882  0.88555271  0.12308657  1
  O  O38  1  0.39984062  0.61444746  0.62308715  1
  O  O39  1  0.89984034  0.38555298  0.87691326  1
  O  O40  1  0.89439172  0.62613986  0.98436336  1
  O  O41  1  0.39439200  0.37386058  0.51563704  1
  O  O42  1  0.60560843  0.12613916  0.01563713  1
  O  O43  1  0.10560871  0.87386031  0.48436345  1
  O  O44  1  0.10560871  0.37386058  0.01563713  1
  O  O45  1  0.60560843  0.62613986  0.48436345  1
  O  O46  1  0.39439200  0.87386031  0.98436336  1
  O  O47  1  0.89439172  0.12613916  0.51563704  1
  O  O48  1  0.79579298  0.93444908  0.95776812  1
  O  O49  1  0.29579326  0.06555040  0.54223228  1
  O  O50  1  0.70420717  0.43444934  0.04223237  1
  O  O51  1  0.20420646  0.56555109  0.45776754  1
  O  O52  1  0.20420646  0.06555040  0.04223237  1
  O  O53  1  0.70420717  0.93444908  0.45776754  1
  O  O54  1  0.29579326  0.56555109  0.95776812  1
  O  O55  1  0.79579298  0.43444934  0.54223228  1
  O  O56  1  0.89546403  0.68316405  0.48754428  1
  O  O57  1  0.39546431  0.31683639  0.01245563  1
  O  O58  1  0.60453613  0.18316335  0.51245622  1
  O  O59  1  0.10453640  0.81683612  0.98754419  1
  O  O60  1  0.10453640  0.31683639  0.51245622  1
  O  O61  1  0.60453613  0.68316405  0.98754419  1
  O  O62  1  0.39546431  0.81683612  0.48754428  1
  O  O63  1  0.99221362  0.08555241  0.17253220  1
  Mo  Mo64  1  0.00179200  0.77967237  0.55601511  1
  Mo  Mo65  1  0.50179172  0.22032711  0.94398462  1
  Mo  Mo66  1  0.49820772  0.27967263  0.44398471  1
  Mo  Mo67  1  0.99820843  0.72032780  0.05601520  1
  Mo  Mo68  1  0.99820843  0.22032711  0.44398471  1
  Mo  Mo69  1  0.49820772  0.77967237  0.05601520  1
  Mo  Mo70  1  0.50179172  0.72032780  0.55601511  1
  Mo  Mo71  1  0.00179200  0.27967263  0.94398462  1
  Mo  Mo72  1  0.83379860  0.39231116  0.65656646  1
  Mo  Mo73  1  0.33379887  0.60768927  0.84343328  1
  Mo  Mo74  1  0.66620156  0.89231089  0.34343336  1
  Mo  Mo75  1  0.16620085  0.10768954  0.15656655  1
  Mo  Mo76  1  0.83379860  0.89231089  0.84343328  1
  Mo  Mo77  1  0.66620156  0.39231116  0.15656655  1
  Mo  Mo78  1  0.33379887  0.10768954  0.65656646  1
  Mo  Mo79  1  0.16620085  0.60768927  0.34343336  1
  Th  Th80  1  0.71905730  0.03183719  0.60865117  1
  Th  Th81  1  0.21905758  0.96816228  0.89134857  1
  Th  Th82  1  0.78094285  0.53183692  0.39134866  1
  Th  Th83  1  0.28094214  0.46816255  0.10865125  1
  Th  Th84  1  0.28094214  0.96816228  0.39134866  1
  Th  Th85  1  0.78094285  0.03183719  0.10865125  1
  Th  Th86  1  0.21905758  0.46816255  0.60865117  1
  Th  Th87  1  0.71905730  0.53183692  0.89134857  1
