# generated using pymatgen
data_LuPO4
_symmetry_space_group_name_H-M   'P 1'
_cell_length_a   5.67663731
_cell_length_b   5.67663731
_cell_length_c   5.67663731
_cell_angle_alpha   106.00628967
_cell_angle_beta   106.00628974
_cell_angle_gamma   116.64839942
_symmetry_Int_Tables_number   1
_chemical_formula_structural   LuPO4
_chemical_formula_sum   'Lu2 P2 O8'
_cell_volume   139.13883511
_cell_formula_units_Z   2
loop_
 _symmetry_equiv_pos_site_id
 _symmetry_equiv_pos_as_xyz
  1  'x, y, z'
loop_
 _atom_site_type_symbol
 _atom_site_label
 _atom_site_symmetry_multiplicity
 _atom_site_fract_x
 _atom_site_fract_y
 _atom_site_fract_z
 _atom_site_occupancy
  O  O0  1  0.78891468  0.71560535  0.42669067  1
  O  O1  1  0.36222401  0.78891468  0.57330933  1
  O  O2  1  0.71560535  0.78891468  0.92669067  1
  O  O3  1  0.78891468  0.36222401  0.07330933  1
  O  O4  1  0.63777599  0.21108532  0.42669067  1
  O  O5  1  0.21108532  0.28439465  0.57330933  1
  O  O6  1  0.21108532  0.63777599  0.92669067  1
  O  O7  1  0.28439465  0.21108532  0.07330933  1
  P  P8  1  0.37500000  0.62500000  0.75000000  1
  P  P9  1  0.62500000  0.37500000  0.25000000  1
  Lu  Lu10  1  0.12500000  0.87500000  0.25000000  1
  Lu  Lu11  1  0.87500000  0.12500000  0.75000000  1
