# generated using pymatgen
data_MnCu2SiSe4
_symmetry_space_group_name_H-M   'P 1'
_cell_length_a   6.56689620
_cell_length_b   6.78326784
_cell_length_c   7.94394958
_cell_angle_alpha   90.00000000
_cell_angle_beta   90.00000000
_cell_angle_gamma   90.00000000
_symmetry_Int_Tables_number   1
_chemical_formula_structural   MnCu2SiSe4
_chemical_formula_sum   'Mn2 Cu4 Si2 Se8'
_cell_volume   353.86335957
_cell_formula_units_Z   2
loop_
 _symmetry_equiv_pos_site_id
 _symmetry_equiv_pos_as_xyz
  1  'x, y, z'
loop_
 _atom_site_type_symbol
 _atom_site_label
 _atom_site_symmetry_multiplicity
 _atom_site_fract_x
 _atom_site_fract_y
 _atom_site_fract_z
 _atom_site_occupancy
  Mn  Mn0  1  0.51023577  0.34882807  -0.00000000  1
  Mn  Mn1  1  0.01023577  0.65117193  0.50000000  1
  Cu  Cu2  1  0.51537083  0.82411526  0.75618838  1
  Cu  Cu3  1  0.01537083  0.17588474  0.74381162  1
  Cu  Cu4  1  0.01537083  0.17588474  0.25618838  1
  Cu  Cu5  1  0.51537083  0.82411526  0.24381162  1
  Si  Si6  1  0.99862480  0.67339489  -0.00000000  1
  Si  Si7  1  0.49862480  0.32660511  0.50000000  1
  Se  Se8  1  0.89570097  0.34751420  -0.00000000  1
  Se  Se9  1  0.39570097  0.65248580  0.50000000  1
  Se  Se10  1  0.88203984  0.83789891  0.76220028  1
  Se  Se11  1  0.38203984  0.16210109  0.73779972  1
  Se  Se12  1  0.38203984  0.16210109  0.26220028  1
  Se  Se13  1  0.88203984  0.83789891  0.23779972  1
  Se  Se14  1  0.35311713  0.68575111  -0.00000000  1
  Se  Se15  1  0.85311713  0.31424889  0.50000000  1
