# generated using pymatgen
data_CaCo3(P2O7)2
_symmetry_space_group_name_H-M   'P 1'
_cell_length_a   7.45391784
_cell_length_b   7.72115750
_cell_length_c   9.52993204
_cell_angle_alpha   90.00000000
_cell_angle_beta   111.83729415
_cell_angle_gamma   90.00000000
_symmetry_Int_Tables_number   1
_chemical_formula_structural   CaCo3(P2O7)2
_chemical_formula_sum   'Ca2 Co6 P8 O28'
_cell_volume   509.11855164
_cell_formula_units_Z   2
loop_
 _symmetry_equiv_pos_site_id
 _symmetry_equiv_pos_as_xyz
  1  'x, y, z'
loop_
 _atom_site_type_symbol
 _atom_site_label
 _atom_site_symmetry_multiplicity
 _atom_site_fract_x
 _atom_site_fract_y
 _atom_site_fract_z
 _atom_site_occupancy
  Ca  Ca0  1  0.50000000  0.00000000  0.00000000  1
  Ca  Ca1  1  0.50000000  0.50000000  0.50000000  1
  Co  Co2  1  0.18551724  0.87297570  0.52501046  1
  Co  Co3  1  0.81448276  0.37297570  0.97498954  1
  Co  Co4  1  0.81448276  0.12702430  0.47498954  1
  Co  Co5  1  0.18551724  0.62702430  0.02501046  1
  Co  Co6  1  0.00000000  0.00000000  0.00000000  1
  Co  Co7  1  0.00000000  0.50000000  0.50000000  1
  P  P8  1  0.59808293  0.06523225  0.70351282  1
  P  P9  1  0.40191707  0.56523225  0.79648718  1
  P  P10  1  0.40191707  0.93476775  0.29648718  1
  P  P11  1  0.59808293  0.43476775  0.20351282  1
  P  P12  1  0.88041774  0.79638127  0.69103784  1
  P  P13  1  0.11958226  0.29638127  0.80896216  1
  P  P14  1  0.11958226  0.20361873  0.30896216  1
  P  P15  1  0.88041774  0.70361873  0.19103784  1
  O  O16  1  0.83008034  0.62345079  0.60706954  1
  O  O17  1  0.16991966  0.12345079  0.89293046  1
  O  O18  1  0.16991966  0.37654921  0.39293046  1
  O  O19  1  0.83008034  0.87654921  0.10706954  1
  O  O20  1  0.27557047  0.61783299  0.63119580  1
  O  O21  1  0.72442953  0.11783299  0.86880420  1
  O  O22  1  0.72442953  0.38216701  0.36880420  1
  O  O23  1  0.27557047  0.88216701  0.13119580  1
  O  O24  1  0.62048126  0.19189215  0.58814716  1
  O  O25  1  0.37951874  0.69189215  0.91185284  1
  O  O26  1  0.37951874  0.80810785  0.41185284  1
  O  O27  1  0.62048126  0.30810785  0.08814716  1
  O  O28  1  0.67536971  0.87760274  0.67545249  1
  O  O29  1  0.32463029  0.37760274  0.82454751  1
  O  O30  1  0.32463029  0.12239726  0.32454751  1
  O  O31  1  0.67536971  0.62239726  0.17545249  1
  O  O32  1  0.39439356  0.47667438  0.19536109  1
  O  O33  1  0.60560644  0.97667438  0.30463891  1
  O  O34  1  0.60560644  0.52332562  0.80463891  1
  O  O35  1  0.39439356  0.02332562  0.69536109  1
  O  O36  1  0.00824606  0.21213692  0.13712798  1
  O  O37  1  0.99175394  0.71213692  0.36287202  1
  O  O38  1  0.99175394  0.78786308  0.86287202  1
  O  O39  1  0.00824606  0.28786308  0.63712798  1
  O  O40  1  0.97141542  0.57809043  0.11210688  1
  O  O41  1  0.02858458  0.07809043  0.38789312  1
  O  O42  1  0.02858458  0.42190957  0.88789312  1
  O  O43  1  0.97141542  0.92190957  0.61210688  1
