# generated using pymatgen
data_KMg30SbO32
_symmetry_space_group_name_H-M   'P 1'
_cell_length_a   8.66257552
_cell_length_b   8.66544769
_cell_length_c   8.66544769
_cell_angle_alpha   90.00000000
_cell_angle_beta   90.00000000
_cell_angle_gamma   90.00000000
_symmetry_Int_Tables_number   1
_chemical_formula_structural   KMg30SbO32
_chemical_formula_sum   'K1 Mg30 Sb1 O32'
_cell_volume   650.47265432
_cell_formula_units_Z   1
loop_
 _symmetry_equiv_pos_site_id
 _symmetry_equiv_pos_as_xyz
  1  'x, y, z'
loop_
 _atom_site_type_symbol
 _atom_site_label
 _atom_site_symmetry_multiplicity
 _atom_site_fract_x
 _atom_site_fract_y
 _atom_site_fract_z
 _atom_site_occupancy
  K  K0  1  0.00000000  -0.00000000  -0.00000000  1
  Mg  Mg1  1  0.00000000  -0.00000000  0.50000000  1
  Mg  Mg2  1  0.00000000  0.50000000  -0.00000000  1
  Mg  Mg3  1  0.50000000  -0.00000000  -0.00000000  1
  Mg  Mg4  1  0.50000000  -0.00000000  0.50000000  1
  Mg  Mg5  1  0.50000000  0.50000000  -0.00000000  1
  Mg  Mg6  1  0.50000000  0.50000000  0.50000000  1
  Mg  Mg7  1  0.00000000  0.24441790  0.24441790  1
  Mg  Mg8  1  0.00000000  0.24441790  0.75558210  1
  Mg  Mg9  1  0.00000000  0.75558210  0.24441790  1
  Mg  Mg10  1  0.00000000  0.75558210  0.75558210  1
  Mg  Mg11  1  0.50000000  0.24858554  0.24858554  1
  Mg  Mg12  1  0.50000000  0.24858554  0.75141446  1
  Mg  Mg13  1  0.50000000  0.75141446  0.24858554  1
  Mg  Mg14  1  0.50000000  0.75141446  0.75141446  1
  Mg  Mg15  1  0.25208118  -0.00000000  0.25047453  1
  Mg  Mg16  1  0.25208118  -0.00000000  0.74952547  1
  Mg  Mg17  1  0.25600080  0.50000000  0.24283255  1
  Mg  Mg18  1  0.25600080  0.50000000  0.75716745  1
  Mg  Mg19  1  0.74791882  -0.00000000  0.25047453  1
  Mg  Mg20  1  0.74791882  -0.00000000  0.74952547  1
  Mg  Mg21  1  0.74399920  0.50000000  0.24283255  1
  Mg  Mg22  1  0.74399920  0.50000000  0.75716745  1
  Mg  Mg23  1  0.25208118  0.25047453  -0.00000000  1
  Mg  Mg24  1  0.25600080  0.24283255  0.50000000  1
  Mg  Mg25  1  0.25208118  0.74952547  -0.00000000  1
  Mg  Mg26  1  0.25600080  0.75716745  0.50000000  1
  Mg  Mg27  1  0.74791882  0.25047453  -0.00000000  1
  Mg  Mg28  1  0.74399920  0.24283255  0.50000000  1
  Mg  Mg29  1  0.74791882  0.74952547  -0.00000000  1
  Mg  Mg30  1  0.74399920  0.75716745  0.50000000  1
  Sb  Sb31  1  0.00000000  0.50000000  0.50000000  1
  O  O32  1  0.27377052  -0.00000000  -0.00000000  1
  O  O33  1  0.25605617  -0.00000000  0.50000000  1
  O  O34  1  0.25605617  0.50000000  -0.00000000  1
  O  O35  1  0.26301478  0.50000000  0.50000000  1
  O  O36  1  0.72622948  -0.00000000  -0.00000000  1
  O  O37  1  0.74394383  -0.00000000  0.50000000  1
  O  O38  1  0.74394383  0.50000000  -0.00000000  1
  O  O39  1  0.73698522  0.50000000  0.50000000  1
  O  O40  1  0.24895583  0.25093673  0.25093673  1
  O  O41  1  0.24895583  0.25093673  0.74906327  1
  O  O42  1  0.24895583  0.74906327  0.25093673  1
  O  O43  1  0.24895583  0.74906327  0.74906327  1
  O  O44  1  0.75104417  0.25093673  0.25093673  1
  O  O45  1  0.75104417  0.25093673  0.74906327  1
  O  O46  1  0.75104417  0.74906327  0.25093673  1
  O  O47  1  0.75104417  0.74906327  0.74906327  1
  O  O48  1  0.00000000  -0.00000000  0.27281316  1
  O  O49  1  0.00000000  -0.00000000  0.72718684  1
  O  O50  1  0.00000000  0.50000000  0.24101443  1
  O  O51  1  0.00000000  0.50000000  0.75898557  1
  O  O52  1  0.50000000  -0.00000000  0.25473840  1
  O  O53  1  0.50000000  -0.00000000  0.74526160  1
  O  O54  1  0.50000000  0.50000000  0.24995977  1
  O  O55  1  0.50000000  0.50000000  0.75004023  1
  O  O56  1  0.00000000  0.27281316  -0.00000000  1
  O  O57  1  0.00000000  0.24101443  0.50000000  1
  O  O58  1  0.00000000  0.72718684  -0.00000000  1
  O  O59  1  0.00000000  0.75898557  0.50000000  1
  O  O60  1  0.50000000  0.25473840  -0.00000000  1
  O  O61  1  0.50000000  0.24995977  0.50000000  1
  O  O62  1  0.50000000  0.74526160  -0.00000000  1
  O  O63  1  0.50000000  0.75004023  0.50000000  1
