# generated using pymatgen
data_Ta6Si7Ni16
_symmetry_space_group_name_H-M   'P 1'
_cell_length_a   7.94185099
_cell_length_b   7.94185099
_cell_length_c   7.94185099
_cell_angle_alpha   59.99999997
_cell_angle_beta   59.99999997
_cell_angle_gamma   60.00000000
_symmetry_Int_Tables_number   1
_chemical_formula_structural   Ta6Si7Ni16
_chemical_formula_sum   'Ta6 Si7 Ni16'
_cell_volume   354.20134424
_cell_formula_units_Z   1
loop_
 _symmetry_equiv_pos_site_id
 _symmetry_equiv_pos_as_xyz
  1  'x, y, z'
loop_
 _atom_site_type_symbol
 _atom_site_label
 _atom_site_symmetry_multiplicity
 _atom_site_fract_x
 _atom_site_fract_y
 _atom_site_fract_z
 _atom_site_occupancy
  Si  Si0  1  0.50000000  0.50000000  0.50000000  1
  Si  Si1  1  0.50000000  0.00000000  0.50000000  1
  Si  Si2  1  0.00000000  0.50000000  0.00000000  1
  Si  Si3  1  0.00000000  0.50000000  0.50000000  1
  Si  Si4  1  0.50000000  0.50000000  0.00000000  1
  Si  Si5  1  0.00000000  0.00000000  0.50000000  1
  Si  Si6  1  0.50000000  0.00000000  0.00000000  1
  Ni  Ni7  1  0.83275861  0.83275861  0.50172416  1
  Ni  Ni8  1  0.50172416  0.83275861  0.83275861  1
  Ni  Ni9  1  0.83275861  0.50172416  0.83275861  1
  Ni  Ni10  1  0.49827584  0.16724139  0.16724139  1
  Ni  Ni11  1  0.16724139  0.49827584  0.16724139  1
  Ni  Ni12  1  0.16724139  0.16724139  0.49827584  1
  Ni  Ni13  1  0.83275861  0.83275861  0.83275861  1
  Ni  Ni14  1  0.38335019  0.38335019  0.38335019  1
  Ni  Ni15  1  0.61664981  0.61664981  0.15005058  1
  Ni  Ni16  1  0.15005058  0.61664981  0.61664981  1
  Ni  Ni17  1  0.61664981  0.15005058  0.61664981  1
  Ni  Ni18  1  0.84994942  0.38335019  0.38335019  1
  Ni  Ni19  1  0.38335019  0.84994942  0.38335019  1
  Ni  Ni20  1  0.38335019  0.38335019  0.84994942  1
  Ni  Ni21  1  0.61664981  0.61664981  0.61664981  1
  Ni  Ni22  1  0.16724139  0.16724139  0.16724139  1
  Ta  Ta23  1  0.20281919  0.79718081  0.79718081  1
  Ta  Ta24  1  0.20281919  0.79718081  0.20281919  1
  Ta  Ta25  1  0.79718081  0.20281919  0.79718081  1
  Ta  Ta26  1  0.20281919  0.20281919  0.79718081  1
  Ta  Ta27  1  0.79718081  0.79718081  0.20281919  1
  Ta  Ta28  1  0.79718081  0.20281919  0.20281919  1
