# generated using pymatgen
data_DyPS4
_symmetry_space_group_name_H-M   'P 1'
_cell_length_a   10.80162123
_cell_length_b   10.80162124
_cell_length_c   12.22752170
_cell_angle_alpha   116.21195052
_cell_angle_beta   116.21195054
_cell_angle_gamma   90.00000001
_symmetry_Int_Tables_number   1
_chemical_formula_structural   DyPS4
_chemical_formula_sum   'Dy8 P8 S32'
_cell_volume   1114.07708707
_cell_formula_units_Z   8
loop_
 _symmetry_equiv_pos_site_id
 _symmetry_equiv_pos_as_xyz
  1  'x, y, z'
loop_
 _atom_site_type_symbol
 _atom_site_label
 _atom_site_symmetry_multiplicity
 _atom_site_fract_x
 _atom_site_fract_y
 _atom_site_fract_z
 _atom_site_occupancy
  P  P0  1  0.28809560  0.25000000  0.50000000  1
  P  P1  1  0.78809560  0.25000000  0.50000000  1
  P  P2  1  0.75000000  0.78809560  0.00000000  1
  P  P3  1  0.25000000  0.71190440  0.00000000  1
  P  P4  1  0.71190440  0.75000000  0.50000000  1
  P  P5  1  0.21190440  0.75000000  0.50000000  1
  P  P6  1  0.25000000  0.21190440  0.00000000  1
  P  P7  1  0.75000000  0.28809560  0.00000000  1
  S  S8  1  0.08457775  0.61127209  0.99443804  1
  S  S9  1  0.90986030  0.88316596  0.99443804  1
  S  S10  1  0.61127209  0.90986030  0.49443804  1
  S  S11  1  0.88316596  0.08457775  0.49443804  1
  S  S12  1  0.41542225  0.61683404  0.00556196  1
  S  S13  1  0.59013970  0.88872791  0.00556196  1
  S  S14  1  0.88872791  0.41542225  0.50556196  1
  S  S15  1  0.61683404  0.59013970  0.50556196  1
  S  S16  1  0.34355899  0.40433571  0.17995096  1
  S  S17  1  0.27561525  0.34355899  0.67995096  1
  S  S18  1  0.40433571  0.83639197  0.67995096  1
  S  S19  1  0.66360803  0.09566429  0.82004904  1
  S  S20  1  0.15644101  0.22438475  0.82004904  1
  S  S21  1  0.22438475  0.66360803  0.32004904  1
  S  S22  1  0.09566429  0.15644101  0.32004904  1
  S  S23  1  0.83639197  0.27561525  0.17995096  1
  S  S24  1  0.65644101  0.59566429  0.82004904  1
  S  S25  1  0.72438475  0.65644101  0.32004904  1
  S  S26  1  0.59566429  0.16360803  0.32004904  1
  S  S27  1  0.33639197  0.90433571  0.17995096  1
  S  S28  1  0.84355899  0.77561525  0.17995096  1
  S  S29  1  0.77561525  0.33639197  0.67995096  1
  S  S30  1  0.90433571  0.84355899  0.67995096  1
  S  S31  1  0.16360803  0.72438475  0.82004904  1
  S  S32  1  0.09013970  0.11683404  0.00556196  1
  S  S33  1  0.38872791  0.09013970  0.50556196  1
  S  S34  1  0.11683404  0.91542225  0.50556196  1
  S  S35  1  0.58457775  0.38316596  0.99443804  1
  S  S36  1  0.40986030  0.11127209  0.99443804  1
  S  S37  1  0.11127209  0.58457775  0.49443804  1
  S  S38  1  0.38316596  0.40986030  0.49443804  1
  S  S39  1  0.91542225  0.38872791  0.00556196  1
  Dy  Dy40  1  0.87500000  0.12500000  0.75000000  1
  Dy  Dy41  1  0.12500000  0.87500000  0.25000000  1
  Dy  Dy42  1  0.62500000  0.37500000  0.25000000  1
  Dy  Dy43  1  0.37500000  0.62500000  0.75000000  1
  Dy  Dy44  1  0.62500000  0.87500000  0.25000000  1
  Dy  Dy45  1  0.87500000  0.62500000  0.75000000  1
  Dy  Dy46  1  0.37500000  0.12500000  0.75000000  1
  Dy  Dy47  1  0.12500000  0.37500000  0.25000000  1
