# generated using pymatgen
data_Te2SO7
_symmetry_space_group_name_H-M   'P 1'
_cell_length_a   4.77061153
_cell_length_b   7.12248296
_cell_length_c   9.06278579
_cell_angle_alpha   90.00000000
_cell_angle_beta   90.00000000
_cell_angle_gamma   90.00000000
_symmetry_Int_Tables_number   1
_chemical_formula_structural   Te2SO7
_chemical_formula_sum   'Te4 S2 O14'
_cell_volume   307.94076718
_cell_formula_units_Z   2
loop_
 _symmetry_equiv_pos_site_id
 _symmetry_equiv_pos_as_xyz
  1  'x, y, z'
loop_
 _atom_site_type_symbol
 _atom_site_label
 _atom_site_symmetry_multiplicity
 _atom_site_fract_x
 _atom_site_fract_y
 _atom_site_fract_z
 _atom_site_occupancy
  O  O0  1  0.27041005  0.83151959  0.50000000  1
  O  O1  1  0.77041005  0.16848041  0.00000000  1
  O  O2  1  0.11321320  0.41084157  0.23783420  1
  O  O3  1  0.61321320  0.58915843  0.26216580  1
  O  O4  1  0.61321320  0.58915843  0.73783420  1
  O  O5  1  0.11321320  0.41084157  0.76216580  1
  O  O6  1  0.99620250  0.05821176  0.63615337  1
  O  O7  1  0.49620250  0.94178824  0.86384663  1
  O  O8  1  0.49620250  0.94178824  0.13615337  1
  O  O9  1  0.99620250  0.05821176  0.36384663  1
  O  O10  1  0.90687286  0.83399039  0.00000000  1
  O  O11  1  0.40687286  0.16600961  0.50000000  1
  O  O12  1  0.33615801  0.58368586  0.00000000  1
  O  O13  1  0.83615801  0.41631414  0.50000000  1
  S  S14  1  0.17381236  0.02720667  0.50000000  1
  S  S15  1  0.67381236  0.97279333  0.00000000  1
  Te  Te16  1  0.75260766  0.32300022  0.30235528  1
  Te  Te17  1  0.25260766  0.67699978  0.19764472  1
  Te  Te18  1  0.25260766  0.67699978  0.80235528  1
  Te  Te19  1  0.75260766  0.32300022  0.69764472  1
