# generated using pymatgen
data_KNaMg30O31
_symmetry_space_group_name_H-M   'P 1'
_cell_length_a   8.56925311
_cell_length_b   8.64263635
_cell_length_c   8.65696535
_cell_angle_alpha   90.00000000
_cell_angle_beta   90.00000000
_cell_angle_gamma   90.00000000
_symmetry_Int_Tables_number   1
_chemical_formula_structural   KNaMg30O31
_chemical_formula_sum   'K1 Na1 Mg30 O31'
_cell_volume   641.14297770
_cell_formula_units_Z   1
loop_
 _symmetry_equiv_pos_site_id
 _symmetry_equiv_pos_as_xyz
  1  'x, y, z'
loop_
 _atom_site_type_symbol
 _atom_site_label
 _atom_site_symmetry_multiplicity
 _atom_site_fract_x
 _atom_site_fract_y
 _atom_site_fract_z
 _atom_site_occupancy
  K  K0  1  0.99423024  -0.00000000  0.00000000  1
  Na  Na1  1  0.99544096  -0.00000000  0.50000000  1
  Mg  Mg2  1  0.99841670  0.50000000  0.00000000  1
  Mg  Mg3  1  0.99533301  0.50000000  0.50000000  1
  Mg  Mg4  1  0.50000587  -0.00000000  0.00000000  1
  Mg  Mg5  1  0.51623531  -0.00000000  0.50000000  1
  Mg  Mg6  1  0.50111534  0.50000000  0.00000000  1
  Mg  Mg7  1  0.50278286  0.50000000  0.50000000  1
  Mg  Mg8  1  0.00115168  0.24948707  0.25294618  1
  Mg  Mg9  1  0.00115168  0.24948707  0.74705382  1
  Mg  Mg10  1  0.00115168  0.75051293  0.25294618  1
  Mg  Mg11  1  0.00115168  0.75051293  0.74705382  1
  Mg  Mg12  1  0.49944150  0.24915322  0.25063686  1
  Mg  Mg13  1  0.49944150  0.24915322  0.74936314  1
  Mg  Mg14  1  0.49944150  0.75084678  0.25063686  1
  Mg  Mg15  1  0.49944150  0.75084678  0.74936314  1
  Mg  Mg16  1  0.24771488  -0.00000000  0.22735649  1
  Mg  Mg17  1  0.24771488  -0.00000000  0.77264351  1
  Mg  Mg18  1  0.24901146  0.50000000  0.24667942  1
  Mg  Mg19  1  0.24901146  0.50000000  0.75332058  1
  Mg  Mg20  1  0.75337287  -0.00000000  0.25277048  1
  Mg  Mg21  1  0.75337287  -0.00000000  0.74722952  1
  Mg  Mg22  1  0.75109914  0.50000000  0.24922721  1
  Mg  Mg23  1  0.75109914  0.50000000  0.75077279  1
  Mg  Mg24  1  0.24972686  0.25477775  0.00000000  1
  Mg  Mg25  1  0.24638435  0.27272824  0.50000000  1
  Mg  Mg26  1  0.24972686  0.74522225  0.00000000  1
  Mg  Mg27  1  0.24638435  0.72727176  0.50000000  1
  Mg  Mg28  1  0.74932204  0.25146194  0.00000000  1
  Mg  Mg29  1  0.75517679  0.24834596  0.50000000  1
  Mg  Mg30  1  0.74932204  0.74853806  0.00000000  1
  Mg  Mg31  1  0.75517679  0.75165404  0.50000000  1
  O  O32  1  0.27368371  -0.00000000  0.00000000  1
  O  O33  1  0.25559542  0.50000000  0.00000000  1
  O  O34  1  0.25523826  0.50000000  0.50000000  1
  O  O35  1  0.72334596  -0.00000000  0.00000000  1
  O  O36  1  0.74124211  -0.00000000  0.50000000  1
  O  O37  1  0.74493614  0.50000000  0.00000000  1
  O  O38  1  0.74531225  0.50000000  0.50000000  1
  O  O39  1  0.25082131  0.24662885  0.25499351  1
  O  O40  1  0.25082131  0.24662885  0.74500649  1
  O  O41  1  0.25082131  0.75337115  0.25499351  1
  O  O42  1  0.25082131  0.75337115  0.74500649  1
  O  O43  1  0.74965848  0.24794629  0.25123631  1
  O  O44  1  0.74965848  0.24794629  0.74876369  1
  O  O45  1  0.74965848  0.75205371  0.25123631  1
  O  O46  1  0.74965848  0.75205371  0.74876369  1
  O  O47  1  0.01289139  -0.00000000  0.26514440  1
  O  O48  1  0.01289139  -0.00000000  0.73485560  1
  O  O49  1  0.00116615  0.50000000  0.25306365  1
  O  O50  1  0.00116615  0.50000000  0.74693635  1
  O  O51  1  0.49040342  -0.00000000  0.26125509  1
  O  O52  1  0.49040342  -0.00000000  0.73874491  1
  O  O53  1  0.49905001  0.50000000  0.25249957  1
  O  O54  1  0.49905001  0.50000000  0.74750043  1
  O  O55  1  0.00223434  0.27391384  0.00000000  1
  O  O56  1  0.00395117  0.26484293  0.50000000  1
  O  O57  1  0.00223434  0.72608616  0.00000000  1
  O  O58  1  0.00395117  0.73515707  0.50000000  1
  O  O59  1  0.49806171  0.25342968  0.00000000  1
  O  O60  1  0.49183037  0.24528934  0.50000000  1
  O  O61  1  0.49806171  0.74657032  0.00000000  1
  O  O62  1  0.49183037  0.75471066  0.50000000  1
