# generated using pymatgen
data_Rb3NbS4
_symmetry_space_group_name_H-M   'P 1'
_cell_length_a   9.71679332
_cell_length_b   9.88508524
_cell_length_c   11.28878486
_cell_angle_alpha   90.00000000
_cell_angle_beta   90.00000000
_cell_angle_gamma   90.00000000
_symmetry_Int_Tables_number   1
_chemical_formula_structural   Rb3NbS4
_chemical_formula_sum   'Rb12 Nb4 S16'
_cell_volume   1084.30280246
_cell_formula_units_Z   4
loop_
 _symmetry_equiv_pos_site_id
 _symmetry_equiv_pos_as_xyz
  1  'x, y, z'
loop_
 _atom_site_type_symbol
 _atom_site_label
 _atom_site_symmetry_multiplicity
 _atom_site_fract_x
 _atom_site_fract_y
 _atom_site_fract_z
 _atom_site_occupancy
  S  S0  1  0.30316789  0.24482736  0.25000000  1
  S  S1  1  0.80316789  0.25517264  0.25000000  1
  S  S2  1  0.19683211  0.74482736  0.75000000  1
  S  S3  1  0.69683211  0.75517264  0.75000000  1
  S  S4  1  0.99853721  0.58147528  0.25000000  1
  S  S5  1  0.49853721  0.91852472  0.25000000  1
  S  S6  1  0.50146279  0.08147528  0.75000000  1
  S  S7  1  0.00146279  0.41852472  0.75000000  1
  S  S8  1  0.83357573  0.05030558  0.91793427  1
  S  S9  1  0.33357573  0.44969442  0.58206573  1
  S  S10  1  0.66642427  0.55030558  0.08206573  1
  S  S11  1  0.16642427  0.94969442  0.41793427  1
  S  S12  1  0.16642427  0.94969442  0.08206573  1
  S  S13  1  0.83357573  0.05030558  0.58206573  1
  S  S14  1  0.33357573  0.44969442  0.91793427  1
  S  S15  1  0.66642427  0.55030558  0.41793427  1
  Rb  Rb16  1  0.05478234  0.28908174  0.45593472  1
  Rb  Rb17  1  0.86073234  0.92326053  0.25000000  1
  Rb  Rb18  1  0.13926766  0.07673947  0.75000000  1
  Rb  Rb19  1  0.63926766  0.42326053  0.75000000  1
  Rb  Rb20  1  0.94521766  0.71091826  0.54406528  1
  Rb  Rb21  1  0.44521766  0.78908174  0.95593472  1
  Rb  Rb22  1  0.55478234  0.21091826  0.45593472  1
  Rb  Rb23  1  0.05478234  0.28908174  0.04406528  1
  Rb  Rb24  1  0.94521766  0.71091826  0.95593472  1
  Rb  Rb25  1  0.55478234  0.21091826  0.04406528  1
  Rb  Rb26  1  0.44521766  0.78908174  0.54406528  1
  Rb  Rb27  1  0.36073234  0.57673947  0.25000000  1
  Nb  Nb28  1  0.28224631  0.01314321  0.25000000  1
  Nb  Nb29  1  0.78224631  0.48685679  0.25000000  1
  Nb  Nb30  1  0.21775369  0.51314321  0.75000000  1
  Nb  Nb31  1  0.71775369  0.98685679  0.75000000  1
