# generated using pymatgen
data_Ta2Te2O9
_symmetry_space_group_name_H-M   'P 1'
_cell_length_a   7.24220671
_cell_length_b   7.66718975
_cell_length_c   14.96670666
_cell_angle_alpha   90.00000000
_cell_angle_beta   102.38303925
_cell_angle_gamma   90.00000000
_symmetry_Int_Tables_number   1
_chemical_formula_structural   Ta2Te2O9
_chemical_formula_sum   'Ta8 Te8 O36'
_cell_volume   811.72791528
_cell_formula_units_Z   4
loop_
 _symmetry_equiv_pos_site_id
 _symmetry_equiv_pos_as_xyz
  1  'x, y, z'
loop_
 _atom_site_type_symbol
 _atom_site_label
 _atom_site_symmetry_multiplicity
 _atom_site_fract_x
 _atom_site_fract_y
 _atom_site_fract_z
 _atom_site_occupancy
  O  O0  1  0.40066182  0.15188154  0.33188556  1
  O  O1  1  0.59933818  0.65188154  0.16811444  1
  O  O2  1  0.59933818  0.84811846  0.66811444  1
  O  O3  1  0.40066182  0.34811846  0.83188556  1
  O  O4  1  0.88700751  0.10626675  0.65137677  1
  O  O5  1  0.11299249  0.60626675  0.84862323  1
  O  O6  1  0.11299249  0.89373325  0.34862323  1
  O  O7  1  0.88700751  0.39373325  0.15137677  1
  O  O8  1  0.50000000  0.50000000  0.00000000  1
  O  O9  1  0.50000000  0.00000000  0.50000000  1
  O  O10  1  0.10136826  0.41153728  0.68673219  1
  O  O11  1  0.89863174  0.91153728  0.81326781  1
  O  O12  1  0.89863174  0.58846272  0.31326781  1
  O  O13  1  0.10136826  0.08846272  0.18673219  1
  O  O14  1  0.79015426  0.30418451  0.96060388  1
  O  O15  1  0.20984574  0.80418451  0.53939612  1
  O  O16  1  0.20984574  0.69581549  0.03939612  1
  O  O17  1  0.79015426  0.19581549  0.46060388  1
  O  O18  1  0.48702318  0.69038698  0.82972933  1
  O  O19  1  0.51297682  0.19038698  0.67027067  1
  O  O20  1  0.00000000  0.00000000  0.00000000  1
  O  O21  1  0.00000000  0.50000000  0.50000000  1
  O  O22  1  0.71973149  0.06407175  0.09414302  1
  O  O23  1  0.28026851  0.56407175  0.40585698  1
  O  O24  1  0.28026851  0.93592825  0.90585698  1
  O  O25  1  0.71973149  0.43592825  0.59414302  1
  O  O26  1  0.17058038  0.33294154  0.05331892  1
  O  O27  1  0.82941962  0.83294154  0.44668108  1
  O  O28  1  0.82941962  0.66705846  0.94668108  1
  O  O29  1  0.17058038  0.16705846  0.55331892  1
  O  O30  1  0.72828086  0.05918558  0.28401355  1
  O  O31  1  0.27171914  0.55918558  0.21598645  1
  O  O32  1  0.27171914  0.94081442  0.71598645  1
  O  O33  1  0.72828086  0.44081442  0.78401355  1
  O  O34  1  0.48702318  0.80961302  0.32972933  1
  O  O35  1  0.51297682  0.30961302  0.17027067  1
  Te  Te36  1  0.54338277  0.43385684  0.67128139  1
  Te  Te37  1  0.45661723  0.93385684  0.82871861  1
  Te  Te38  1  0.45661723  0.56614316  0.32871861  1
  Te  Te39  1  0.54338277  0.06614316  0.17128139  1
  Te  Te40  1  0.13119208  0.37152346  0.81393372  1
  Te  Te41  1  0.86880792  0.87152346  0.68606628  1
  Te  Te42  1  0.86880792  0.62847654  0.18606628  1
  Te  Te43  1  0.13119208  0.12847654  0.31393372  1
  Ta  Ta44  1  0.63620581  0.49548270  0.90310236  1
  Ta  Ta45  1  0.36379419  0.99548270  0.59689764  1
  Ta  Ta46  1  0.36379419  0.50451730  0.09689764  1
  Ta  Ta47  1  0.63620581  0.00451730  0.40310236  1
  Ta  Ta48  1  0.94619126  0.30123834  0.56833469  1
  Ta  Ta49  1  0.05380874  0.80123834  0.93166531  1
  Ta  Ta50  1  0.05380874  0.69876166  0.43166531  1
  Ta  Ta51  1  0.94619126  0.19876166  0.06833469  1
