# generated using pymatgen
data_KSbF4
_symmetry_space_group_name_H-M   'P 1'
_cell_length_a   4.64598001
_cell_length_b   11.82006484
_cell_length_c   16.69220355
_cell_angle_alpha   90.00000000
_cell_angle_beta   90.00000000
_cell_angle_gamma   90.00000000
_symmetry_Int_Tables_number   1
_chemical_formula_structural   KSbF4
_chemical_formula_sum   'K8 Sb8 F32'
_cell_volume   916.66546072
_cell_formula_units_Z   8
loop_
 _symmetry_equiv_pos_site_id
 _symmetry_equiv_pos_as_xyz
  1  'x, y, z'
loop_
 _atom_site_type_symbol
 _atom_site_label
 _atom_site_symmetry_multiplicity
 _atom_site_fract_x
 _atom_site_fract_y
 _atom_site_fract_z
 _atom_site_occupancy
  F  F0  1  0.37314756  0.57564931  0.25000000  1
  F  F1  1  0.37314756  0.92435069  0.25000000  1
  F  F2  1  0.62685244  0.07564931  0.75000000  1
  F  F3  1  0.62685244  0.42435069  0.75000000  1
  F  F4  1  0.04670978  0.25000000  0.04147902  1
  F  F5  1  0.04670978  0.25000000  0.45852098  1
  F  F6  1  0.95329022  0.75000000  0.95852098  1
  F  F7  1  0.95329022  0.75000000  0.54147902  1
  F  F8  1  0.79333540  0.60131038  0.84651722  1
  F  F9  1  0.79333540  0.89868962  0.65348278  1
  F  F10  1  0.20666460  0.10131038  0.15348278  1
  F  F11  1  0.20666460  0.39868962  0.34651722  1
  F  F12  1  0.20666460  0.39868962  0.15348278  1
  F  F13  1  0.20666460  0.10131038  0.34651722  1
  F  F14  1  0.79333540  0.89868962  0.84651722  1
  F  F15  1  0.79333540  0.60131038  0.65348278  1
  F  F16  1  0.48641007  0.63208985  0.50646453  1
  F  F17  1  0.48641007  0.86791015  0.99353547  1
  F  F18  1  0.51358993  0.13208985  0.49353547  1
  F  F19  1  0.51358993  0.36791015  0.00646453  1
  F  F20  1  0.51358993  0.36791015  0.49353547  1
  F  F21  1  0.51358993  0.13208985  0.00646453  1
  F  F22  1  0.48641007  0.86791015  0.50646453  1
  F  F23  1  0.48641007  0.63208985  0.99353547  1
  F  F24  1  0.07707316  0.38260189  0.65948389  1
  F  F25  1  0.07707316  0.11739811  0.84051611  1
  F  F26  1  0.92292684  0.88260189  0.34051611  1
  F  F27  1  0.92292684  0.61739811  0.15948389  1
  F  F28  1  0.92292684  0.61739811  0.34051611  1
  F  F29  1  0.92292684  0.88260189  0.15948389  1
  F  F30  1  0.07707316  0.11739811  0.65948389  1
  F  F31  1  0.07707316  0.38260189  0.84051611  1
  K  K32  1  0.56595954  0.25000000  0.86594714  1
  K  K33  1  0.56595954  0.25000000  0.63405286  1
  K  K34  1  0.43404046  0.75000000  0.13405286  1
  K  K35  1  0.43404046  0.75000000  0.36594714  1
  K  K36  1  0.00000000  0.50000000  0.00000000  1
  K  K37  1  0.00000000  0.00000000  0.50000000  1
  K  K38  1  0.00000000  0.00000000  0.00000000  1
  K  K39  1  0.00000000  0.50000000  0.50000000  1
  Sb  Sb40  1  0.42979881  0.25000000  0.09301701  1
  Sb  Sb41  1  0.42979881  0.25000000  0.40698299  1
  Sb  Sb42  1  0.57020119  0.75000000  0.90698299  1
  Sb  Sb43  1  0.57020119  0.75000000  0.59301701  1
  Sb  Sb44  1  0.98701036  0.50249467  0.25000000  1
  Sb  Sb45  1  0.98701036  0.99750533  0.25000000  1
  Sb  Sb46  1  0.01298964  0.00249467  0.75000000  1
  Sb  Sb47  1  0.01298964  0.49750533  0.75000000  1
