# generated using pymatgen
data_Sr8Ga7
_symmetry_space_group_name_H-M   'P 1'
_cell_length_a   12.52798079
_cell_length_b   12.52798079
_cell_length_c   12.52798079
_cell_angle_alpha   90.00000000
_cell_angle_beta   90.00000000
_cell_angle_gamma   90.00000000
_symmetry_Int_Tables_number   1
_chemical_formula_structural   Sr8Ga7
_chemical_formula_sum   'Sr32 Ga28'
_cell_volume   1966.27037689
_cell_formula_units_Z   4
loop_
 _symmetry_equiv_pos_site_id
 _symmetry_equiv_pos_as_xyz
  1  'x, y, z'
loop_
 _atom_site_type_symbol
 _atom_site_label
 _atom_site_symmetry_multiplicity
 _atom_site_fract_x
 _atom_site_fract_y
 _atom_site_fract_z
 _atom_site_occupancy
  Ga  Ga0  1  0.43351010  0.43351010  0.43351010  1
  Ga  Ga1  1  0.06648990  0.56648990  0.93351010  1
  Ga  Ga2  1  0.93351010  0.06648990  0.56648990  1
  Ga  Ga3  1  0.56648990  0.93351010  0.06648990  1
  Ga  Ga4  1  0.75224515  0.68568688  0.57827119  1
  Ga  Ga5  1  0.57827119  0.75224515  0.68568688  1
  Ga  Ga6  1  0.68568688  0.57827119  0.75224515  1
  Ga  Ga7  1  0.81431312  0.42172881  0.25224515  1
  Ga  Ga8  1  0.07827119  0.74775485  0.31431312  1
  Ga  Ga9  1  0.31431312  0.07827119  0.74775485  1
  Ga  Ga10  1  0.92172881  0.24775485  0.18568688  1
  Ga  Ga11  1  0.42172881  0.25224515  0.81431312  1
  Ga  Ga12  1  0.18568688  0.92172881  0.24775485  1
  Ga  Ga13  1  0.25224515  0.81431312  0.42172881  1
  Ga  Ga14  1  0.24775485  0.18568688  0.92172881  1
  Ga  Ga15  1  0.74775485  0.31431312  0.07827119  1
  Ga  Ga16  1  0.75350648  0.19351103  0.57369699  1
  Ga  Ga17  1  0.57369699  0.75350648  0.19351103  1
  Ga  Ga18  1  0.19351103  0.57369699  0.75350648  1
  Ga  Ga19  1  0.30648897  0.42630301  0.25350648  1
  Ga  Ga20  1  0.07369699  0.74649352  0.80648897  1
  Ga  Ga21  1  0.80648897  0.07369699  0.74649352  1
  Ga  Ga22  1  0.92630301  0.24649352  0.69351103  1
  Ga  Ga23  1  0.42630301  0.25350648  0.30648897  1
  Ga  Ga24  1  0.69351103  0.92630301  0.24649352  1
  Ga  Ga25  1  0.25350648  0.30648897  0.42630301  1
  Ga  Ga26  1  0.24649352  0.69351103  0.92630301  1
  Ga  Ga27  1  0.74649352  0.80648897  0.07369699  1
  Sr  Sr28  1  0.18605513  0.18605513  0.18605513  1
  Sr  Sr29  1  0.31394487  0.81394487  0.68605513  1
  Sr  Sr30  1  0.68605513  0.31394487  0.81394487  1
  Sr  Sr31  1  0.81394487  0.68605513  0.31394487  1
  Sr  Sr32  1  0.81166104  0.81166104  0.81166104  1
  Sr  Sr33  1  0.68833896  0.18833896  0.31166104  1
  Sr  Sr34  1  0.31166104  0.68833896  0.18833896  1
  Sr  Sr35  1  0.18833896  0.31166104  0.68833896  1
  Sr  Sr36  1  0.52216239  0.70507396  0.93708810  1
  Sr  Sr37  1  0.93708810  0.52216239  0.70507396  1
  Sr  Sr38  1  0.70507396  0.93708810  0.52216239  1
  Sr  Sr39  1  0.79492604  0.06291190  0.02216239  1
  Sr  Sr40  1  0.43708810  0.97783761  0.29492604  1
  Sr  Sr41  1  0.29492604  0.43708810  0.97783761  1
  Sr  Sr42  1  0.56291190  0.47783761  0.20507396  1
  Sr  Sr43  1  0.06291190  0.02216239  0.79492604  1
  Sr  Sr44  1  0.20507396  0.56291190  0.47783761  1
  Sr  Sr45  1  0.02216239  0.79492604  0.06291190  1
  Sr  Sr46  1  0.47783761  0.20507396  0.56291190  1
  Sr  Sr47  1  0.97783761  0.29492604  0.43708810  1
  Sr  Sr48  1  0.80224805  0.55816842  0.00403769  1
  Sr  Sr49  1  0.00403769  0.80224805  0.55816842  1
  Sr  Sr50  1  0.55816842  0.00403769  0.80224805  1
  Sr  Sr51  1  0.94183158  0.99596231  0.30224805  1
  Sr  Sr52  1  0.50403769  0.69775195  0.44183158  1
  Sr  Sr53  1  0.44183158  0.50403769  0.69775195  1
  Sr  Sr54  1  0.49596231  0.19775195  0.05816842  1
  Sr  Sr55  1  0.99596231  0.30224805  0.94183158  1
  Sr  Sr56  1  0.05816842  0.49596231  0.19775195  1
  Sr  Sr57  1  0.30224805  0.94183158  0.99596231  1
  Sr  Sr58  1  0.19775195  0.05816842  0.49596231  1
  Sr  Sr59  1  0.69775195  0.44183158  0.50403769  1
