# generated using pymatgen
data_BaGa4S7
_symmetry_space_group_name_H-M   'P 1'
_cell_length_a   6.03044815
_cell_length_b   6.33466261
_cell_length_c   15.02941960
_cell_angle_alpha   90.00000000
_cell_angle_beta   90.00000000
_cell_angle_gamma   90.00000000
_symmetry_Int_Tables_number   1
_chemical_formula_structural   BaGa4S7
_chemical_formula_sum   'Ba2 Ga8 S14'
_cell_volume   574.13667012
_cell_formula_units_Z   2
loop_
 _symmetry_equiv_pos_site_id
 _symmetry_equiv_pos_as_xyz
  1  'x, y, z'
loop_
 _atom_site_type_symbol
 _atom_site_label
 _atom_site_symmetry_multiplicity
 _atom_site_fract_x
 _atom_site_fract_y
 _atom_site_fract_z
 _atom_site_occupancy
  S  S0  1  0.96488721  0.32884931  0.24818240  1
  S  S1  1  0.46488721  0.67115069  0.25181760  1
  S  S2  1  0.46488721  0.67115069  0.74818240  1
  S  S3  1  0.96488721  0.32884931  0.75181760  1
  S  S4  1  0.96005266  0.80223806  0.11683906  1
  S  S5  1  0.46005266  0.19776194  0.38316094  1
  S  S6  1  0.46005266  0.19776194  0.61683906  1
  S  S7  1  0.96005266  0.80223806  0.88316094  1
  S  S8  1  0.44156738  0.17583623  0.11367701  1
  S  S9  1  0.94156738  0.82416377  0.38632299  1
  S  S10  1  0.45507716  0.63836161  0.00000000  1
  S  S11  1  0.95507716  0.36163839  0.50000000  1
  S  S12  1  0.44156738  0.17583623  0.88632299  1
  S  S13  1  0.94156738  0.82416377  0.61367701  1
  Ga  Ga14  1  0.33957948  0.82947716  0.11989701  1
  Ga  Ga15  1  0.83957948  0.17052284  0.38010299  1
  Ga  Ga16  1  0.83957948  0.17052284  0.61989701  1
  Ga  Ga17  1  0.33957948  0.82947716  0.88010299  1
  Ga  Ga18  1  0.35693243  0.31491085  0.24777862  1
  Ga  Ga19  1  0.85693243  0.68508915  0.25222138  1
  Ga  Ga20  1  0.85693243  0.68508915  0.74777862  1
  Ga  Ga21  1  0.35693243  0.31491085  0.75222138  1
  Ba  Ba22  1  0.45929453  0.65048895  0.50000000  1
  Ba  Ba23  1  0.95929453  0.34951105  0.00000000  1
