# generated using pymatgen
data_ErInRh
_symmetry_space_group_name_H-M   'P 1'
_cell_length_a   7.49964754
_cell_length_b   7.49964754
_cell_length_c   3.91553055
_cell_angle_alpha   90.00000000
_cell_angle_beta   90.00000000
_cell_angle_gamma   120.00000000
_symmetry_Int_Tables_number   1
_chemical_formula_structural   ErInRh
_chemical_formula_sum   'Er3 In3 Rh3'
_cell_volume   190.72294991
_cell_formula_units_Z   3
loop_
 _symmetry_equiv_pos_site_id
 _symmetry_equiv_pos_as_xyz
  1  'x, y, z'
loop_
 _atom_site_type_symbol
 _atom_site_label
 _atom_site_symmetry_multiplicity
 _atom_site_fract_x
 _atom_site_fract_y
 _atom_site_fract_z
 _atom_site_occupancy
  Rh  Rh0  1  0.66666667  0.33333333  0.00000000  1
  Rh  Rh1  1  0.33333333  0.66666667  0.00000000  1
  Rh  Rh2  1  0.00000000  0.00000000  0.50000000  1
  In  In3  1  0.25808524  0.00000000  0.00000000  1
  In  In4  1  0.74191476  0.74191476  0.00000000  1
  In  In5  1  0.00000000  0.25808524  0.00000000  1
  Er  Er6  1  0.00000000  0.59430876  0.50000000  1
  Er  Er7  1  0.40569124  0.40569124  0.50000000  1
  Er  Er8  1  0.59430876  0.00000000  0.50000000  1
