# generated using pymatgen
data_K6Ge2O7
_symmetry_space_group_name_H-M   'P 1'
_cell_length_a   6.62785974
_cell_length_b   9.20850124
_cell_length_c   9.40386184
_cell_angle_alpha   90.00000000
_cell_angle_beta   91.67681010
_cell_angle_gamma   90.00000000
_symmetry_Int_Tables_number   1
_chemical_formula_structural   K6Ge2O7
_chemical_formula_sum   'K12 Ge4 O14'
_cell_volume   573.69688088
_cell_formula_units_Z   2
loop_
 _symmetry_equiv_pos_site_id
 _symmetry_equiv_pos_as_xyz
  1  'x, y, z'
loop_
 _atom_site_type_symbol
 _atom_site_label
 _atom_site_symmetry_multiplicity
 _atom_site_fract_x
 _atom_site_fract_y
 _atom_site_fract_z
 _atom_site_occupancy
  O  O0  1  0.54585202  0.66504774  0.30026887  1
  O  O1  1  0.07727210  0.54660208  0.56926369  1
  O  O2  1  0.49065332  0.74757167  0.99945736  1
  O  O3  1  0.99065332  0.25242833  0.49945736  1
  O  O4  1  0.42993496  0.04615841  0.93989294  1
  O  O5  1  0.92993496  0.95384159  0.43989294  1
  O  O6  1  0.82429280  0.90981419  0.88142368  1
  O  O7  1  0.32429280  0.09018581  0.38142368  1
  O  O8  1  0.46155174  0.84082230  0.70367587  1
  O  O9  1  0.96155174  0.15917770  0.20367587  1
  O  O10  1  0.57727210  0.45339792  0.06926369  1
  O  O11  1  0.67987606  0.41813763  0.63265340  1
  O  O12  1  0.04585202  0.33495226  0.80026887  1
  O  O13  1  0.17987606  0.58186237  0.13265340  1
  K  K14  1  0.37766143  0.54079614  0.78137523  1
  K  K15  1  0.12640201  0.03961771  0.72559953  1
  K  K16  1  0.12601222  0.89785940  0.07918456  1
  K  K17  1  0.62601222  0.10214060  0.57918456  1
  K  K18  1  0.75287178  0.72240671  0.54404776  1
  K  K19  1  0.25287178  0.27759329  0.04404776  1
  K  K20  1  0.25286276  0.77836657  0.46307472  1
  K  K21  1  0.75286276  0.22163343  0.96307472  1
  K  K22  1  0.87830258  0.59988933  0.92907925  1
  K  K23  1  0.37830258  0.40011067  0.42907925  1
  K  K24  1  0.62640201  0.96038229  0.22559953  1
  K  K25  1  0.87766143  0.45920386  0.28137523  1
  Ge  Ge26  1  0.94534074  0.39395075  0.63391483  1
  Ge  Ge27  1  0.55771348  0.89245789  0.87348830  1
  Ge  Ge28  1  0.05771348  0.10754211  0.37348830  1
  Ge  Ge29  1  0.44534074  0.60604925  0.13391483  1
