# generated using pymatgen
data_Nb3S5
_symmetry_space_group_name_H-M   'P 1'
_cell_length_a   12.69567078
_cell_length_b   31.76444354
_cell_length_c   18.44905220
_cell_angle_alpha   10.13966140
_cell_angle_beta   27.48028619
_cell_angle_gamma   30.79578676
_symmetry_Int_Tables_number   1
_chemical_formula_structural   Nb3S5
_chemical_formula_sum   'Nb12 S20'
_cell_volume   594.93621512
_cell_formula_units_Z   4
loop_
 _symmetry_equiv_pos_site_id
 _symmetry_equiv_pos_as_xyz
  1  'x, y, z'
loop_
 _atom_site_type_symbol
 _atom_site_label
 _atom_site_symmetry_multiplicity
 _atom_site_fract_x
 _atom_site_fract_y
 _atom_site_fract_z
 _atom_site_occupancy
  Nb  Nb0  1  0.99456533  0.99704470  0.01150031  1
  Nb  Nb1  1  0.99969762  0.19918613  0.00401362  1
  Nb  Nb2  1  0.49678020  0.99370869  0.01219040  1
  Nb  Nb3  1  0.00165560  0.39878253  0.00324072  1
  Nb  Nb4  1  0.49919751  0.20402275  0.99341915  1
  Nb  Nb5  1  0.99972685  0.60045319  0.99901497  1
  Nb  Nb6  1  0.50476163  0.39828183  0.00264436  1
  Nb  Nb7  1  0.99588121  0.79754621  0.00999516  1
  Nb  Nb8  1  0.51064572  0.60781058  0.98279872  1
  Nb  Nb9  1  0.50821050  0.79738871  0.99787070  1
  Nb  Nb10  1  0.90662311  0.43749234  0.82054803  1
  Nb  Nb11  1  0.91331411  0.63966945  0.81151281  1
  S  S12  1  0.11847773  0.14869781  0.25392114  1
  S  S13  1  0.21046678  0.11736409  0.41717768  1
  S  S14  1  0.12471491  0.35013907  0.24816527  1
  S  S15  1  0.62815146  0.15526008  0.23780727  1
  S  S16  1  0.20755017  0.31789377  0.41815515  1
  S  S17  1  0.70477095  0.09154688  0.46616803  1
  S  S18  1  0.12434990  0.55211306  0.24864010  1
  S  S19  1  0.62407572  0.35421311  0.24029705  1
  S  S20  1  0.22915099  0.51912738  0.40385983  1
  S  S21  1  0.70226358  0.29675356  0.45745968  1
  S  S22  1  0.12031936  0.75089766  0.24838237  1
  S  S23  1  0.62333061  0.55049021  0.24462100  1
  S  S24  1  0.23146627  0.71624624  0.40502437  1
  S  S25  1  0.71139428  0.51477824  0.41964756  1
  S  S26  1  0.12213931  0.95389141  0.24119888  1
  S  S27  1  0.62489538  0.74226427  0.26149012  1
  S  S28  1  0.20711930  0.91190991  0.42782769  1
  S  S29  1  0.69527665  0.72900961  0.41021465  1
  S  S30  1  0.62434167  0.94900459  0.25034105  1
  S  S31  1  0.70268559  0.93981196  0.38685212  1
