# generated using pymatgen
data_HoV2ZnO6
_symmetry_space_group_name_H-M   'P 1'
_cell_length_a   5.26780651
_cell_length_b   5.44116780
_cell_length_c   7.62430789
_cell_angle_alpha   90.00192492
_cell_angle_beta   90.38571609
_cell_angle_gamma   90.00715052
_symmetry_Int_Tables_number   1
_chemical_formula_structural   HoV2ZnO6
_chemical_formula_sum   'Ho2 V4 Zn2 O12'
_cell_volume   218.53072950
_cell_formula_units_Z   2
loop_
 _symmetry_equiv_pos_site_id
 _symmetry_equiv_pos_as_xyz
  1  'x, y, z'
loop_
 _atom_site_type_symbol
 _atom_site_label
 _atom_site_symmetry_multiplicity
 _atom_site_fract_x
 _atom_site_fract_y
 _atom_site_fract_z
 _atom_site_occupancy
  Ho  Ho0  1  0.01544062  0.93110193  0.74891564  1
  Ho  Ho1  1  0.51551339  0.56892437  0.24884856  1
  V  V2  1  0.00044255  0.48781677  0.00258042  1
  V  V3  1  0.99855734  0.48160093  0.49848608  1
  V  V4  1  0.50035292  0.01215876  0.50256639  1
  V  V5  1  0.49858682  0.01837505  0.99845900  1
  Zn  Zn6  1  0.49700782  0.48294544  0.75017099  1
  Zn  Zn7  1  0.99706942  0.01697334  0.25032250  1
  O  O8  1  0.11135916  0.44730157  0.25189590  1
  O  O9  1  0.19109103  0.19307899  0.93688867  1
  O  O10  1  0.17739865  0.20598358  0.55941325  1
  O  O11  1  0.32451455  0.70261933  0.94058450  1
  O  O12  1  0.31151887  0.69260897  0.56198281  1
  O  O13  1  0.37264327  0.96196017  0.24906913  1
  O  O14  1  0.61134192  0.05263006  0.75184475  1
  O  O15  1  0.69089779  0.30706839  0.43696683  1
  O  O16  1  0.67750546  0.29399730  0.05945862  1
  O  O17  1  0.81165177  0.80740755  0.06191642  1
  O  O18  1  0.82447103  0.79744953  0.44057822  1
  O  O19  1  0.87263362  0.53799795  0.74905133  1
