# generated using pymatgen
data_K2UO4
_symmetry_space_group_name_H-M   'P 1'
_cell_length_a   4.36297548
_cell_length_b   4.36297548
_cell_length_c   7.39535968
_cell_angle_alpha   107.15637498
_cell_angle_beta   107.15637495
_cell_angle_gamma   89.99999998
_symmetry_Int_Tables_number   1
_chemical_formula_structural   K2UO4
_chemical_formula_sum   'K2 U1 O4'
_cell_volume   127.94040975
_cell_formula_units_Z   1
loop_
 _symmetry_equiv_pos_site_id
 _symmetry_equiv_pos_as_xyz
  1  'x, y, z'
loop_
 _atom_site_type_symbol
 _atom_site_label
 _atom_site_symmetry_multiplicity
 _atom_site_fract_x
 _atom_site_fract_y
 _atom_site_fract_z
 _atom_site_occupancy
  O  O0  1  0.50000000  0.00000000  0.00000000  1
  O  O1  1  0.00000000  0.50000000  0.00000000  1
  O  O2  1  0.85481681  0.85481681  0.70963362  1
  O  O3  1  0.14518319  0.14518319  0.29036638  1
  K  K4  1  0.34769792  0.34769792  0.69539584  1
  K  K5  1  0.65230208  0.65230208  0.30460416  1
  U  U6  1  0.00000000  0.00000000  0.00000000  1
