# generated using pymatgen
data_PrGe
_symmetry_space_group_name_H-M   'P 1'
_cell_length_a   4.09958128
_cell_length_b   4.53696440
_cell_length_c   6.04243065
_cell_angle_alpha   112.05061029
_cell_angle_beta   90.00000000
_cell_angle_gamma   90.00000000
_symmetry_Int_Tables_number   1
_chemical_formula_structural   PrGe
_chemical_formula_sum   'Pr2 Ge2'
_cell_volume   104.16629515
_cell_formula_units_Z   2
loop_
 _symmetry_equiv_pos_site_id
 _symmetry_equiv_pos_as_xyz
  1  'x, y, z'
loop_
 _atom_site_type_symbol
 _atom_site_label
 _atom_site_symmetry_multiplicity
 _atom_site_fract_x
 _atom_site_fract_y
 _atom_site_fract_z
 _atom_site_occupancy
  Ge  Ge0  1  0.75000000  0.08027923  0.16055846  1
  Ge  Ge1  1  0.25000000  0.91972077  0.83944154  1
  Pr  Pr2  1  0.75000000  0.36192363  0.72384727  1
  Pr  Pr3  1  0.25000000  0.63807637  0.27615273  1
