# generated using pymatgen
data_ErNi7B3
_symmetry_space_group_name_H-M   'P 1'
_cell_length_a   7.63421733
_cell_length_b   7.63421733
_cell_length_c   9.46823329
_cell_angle_alpha   113.77518511
_cell_angle_beta   113.77518506
_cell_angle_gamma   90.00000001
_symmetry_Int_Tables_number   1
_chemical_formula_structural   ErNi7B3
_chemical_formula_sum   'Er4 Ni28 B12'
_cell_volume   453.34741864
_cell_formula_units_Z   4
loop_
 _symmetry_equiv_pos_site_id
 _symmetry_equiv_pos_as_xyz
  1  'x, y, z'
loop_
 _atom_site_type_symbol
 _atom_site_label
 _atom_site_symmetry_multiplicity
 _atom_site_fract_x
 _atom_site_fract_y
 _atom_site_fract_z
 _atom_site_occupancy
  B  B0  1  0.79013209  0.50000000  0.00000000  1
  B  B1  1  0.00000000  0.79013209  0.50000000  1
  B  B2  1  0.50000000  0.20986791  0.50000000  1
  B  B3  1  0.20986791  0.00000000  0.00000000  1
  B  B4  1  0.50000000  0.79013209  0.50000000  1
  B  B5  1  0.79013209  0.00000000  0.00000000  1
  B  B6  1  0.43351871  0.68351871  0.86703741  1
  B  B7  1  0.68351871  0.43351871  0.36703741  1
  B  B8  1  0.56648129  0.31648129  0.13296259  1
  B  B9  1  0.31648129  0.56648129  0.63296259  1
  B  B10  1  0.20986791  0.50000000  0.00000000  1
  B  B11  1  0.00000000  0.20986791  0.50000000  1
  Ni  Ni12  1  0.18734734  0.43734734  0.75000000  1
  Ni  Ni13  1  0.56265266  0.43734734  0.75000000  1
  Ni  Ni14  1  0.18734734  0.81265266  0.75000000  1
  Ni  Ni15  1  0.81265266  0.56265266  0.25000000  1
  Ni  Ni16  1  0.76819739  0.30646962  0.53639477  1
  Ni  Ni17  1  0.72992515  0.76819739  0.03639477  1
  Ni  Ni18  1  0.30646962  0.76819739  0.03639477  1
  Ni  Ni19  1  0.43734734  0.18734734  0.25000000  1
  Ni  Ni20  1  0.23180261  0.27007485  0.46360523  1
  Ni  Ni21  1  0.27007485  0.23180261  0.96360523  1
  Ni  Ni22  1  0.69353038  0.23180261  0.96360523  1
  Ni  Ni23  1  0.76819739  0.72992515  0.53639477  1
  Ni  Ni24  1  0.93138063  0.34363571  0.86276126  1
  Ni  Ni25  1  0.01912555  0.93138063  0.36276126  1
  Ni  Ni26  1  0.34363571  0.93138063  0.36276126  1
  Ni  Ni27  1  0.06861937  0.65636429  0.13723874  1
  Ni  Ni28  1  0.06861937  0.98087445  0.13723874  1
  Ni  Ni29  1  0.98087445  0.06861937  0.63723874  1
  Ni  Ni30  1  0.65636429  0.06861937  0.63723874  1
  Ni  Ni31  1  0.93138063  0.01912555  0.86276126  1
  Ni  Ni32  1  0.43734734  0.56265266  0.25000000  1
  Ni  Ni33  1  0.56265266  0.81265266  0.75000000  1
  Ni  Ni34  1  0.50000000  0.50000000  0.00000000  1
  Ni  Ni35  1  0.00000000  0.50000000  0.50000000  1
  Ni  Ni36  1  0.50000000  0.50000000  0.50000000  1
  Ni  Ni37  1  0.50000000  0.00000000  0.00000000  1
  Ni  Ni38  1  0.23180261  0.69353038  0.46360523  1
  Ni  Ni39  1  0.81265266  0.18734734  0.25000000  1
  Er  Er40  1  0.09085028  0.34085028  0.18170055  1
  Er  Er41  1  0.34085028  0.09085028  0.68170055  1
  Er  Er42  1  0.90914972  0.65914972  0.81829945  1
  Er  Er43  1  0.65914972  0.90914972  0.31829945  1
