# generated using pymatgen
data_RbNaMg30O31
_symmetry_space_group_name_H-M   'P 1'
_cell_length_a   8.48097663
_cell_length_b   8.67500769
_cell_length_c   8.68983412
_cell_angle_alpha   90.00000000
_cell_angle_beta   90.00000000
_cell_angle_gamma   90.00000000
_symmetry_Int_Tables_number   1
_chemical_formula_structural   RbNaMg30O31
_chemical_formula_sum   'Rb1 Na1 Mg30 O31'
_cell_volume   639.33314652
_cell_formula_units_Z   1
loop_
 _symmetry_equiv_pos_site_id
 _symmetry_equiv_pos_as_xyz
  1  'x, y, z'
loop_
 _atom_site_type_symbol
 _atom_site_label
 _atom_site_symmetry_multiplicity
 _atom_site_fract_x
 _atom_site_fract_y
 _atom_site_fract_z
 _atom_site_occupancy
  Rb  Rb0  1  0.10088737  0.00000000  0.50000000  1
  Na  Na1  1  0.99277708  0.00000000  -0.00000000  1
  Mg  Mg2  1  0.99413159  0.50000000  -0.00000000  1
  Mg  Mg3  1  0.99008325  0.50000000  0.50000000  1
  Mg  Mg4  1  0.50114143  -0.00000000  -0.00000000  1
  Mg  Mg5  1  0.52016851  0.00000000  0.50000000  1
  Mg  Mg6  1  0.50058542  0.50000000  -0.00000000  1
  Mg  Mg7  1  0.50458848  0.50000000  0.50000000  1
  Mg  Mg8  1  0.99652879  0.25005089  0.24615660  1
  Mg  Mg9  1  0.99652879  0.25005089  0.75384340  1
  Mg  Mg10  1  0.99652879  0.74994811  0.24615660  1
  Mg  Mg11  1  0.99652879  0.74994811  0.75384340  1
  Mg  Mg12  1  0.49831112  0.24740843  0.25170685  1
  Mg  Mg13  1  0.49831112  0.24740843  0.74829315  1
  Mg  Mg14  1  0.49831112  0.75259157  0.25170685  1
  Mg  Mg15  1  0.49831112  0.75259157  0.74829315  1
  Mg  Mg16  1  0.24457036  0.00000000  0.21793622  1
  Mg  Mg17  1  0.24457036  -0.00000000  0.78206378  1
  Mg  Mg18  1  0.24715114  0.50000000  0.24502760  1
  Mg  Mg19  1  0.24715114  0.50000000  0.75497240  1
  Mg  Mg20  1  0.75916942  -0.00000000  0.25162865  1
  Mg  Mg21  1  0.75916942  -0.00000000  0.74837135  1
  Mg  Mg22  1  0.74777234  0.50000000  0.24913642  1
  Mg  Mg23  1  0.74777234  0.50000000  0.75086358  1
  Mg  Mg24  1  0.24651524  0.25448913  -0.00000000  1
  Mg  Mg25  1  0.24873532  0.28052128  0.50000000  1
  Mg  Mg26  1  0.24651524  0.74551087  -0.00000000  1
  Mg  Mg27  1  0.24873532  0.71947872  0.50000000  1
  Mg  Mg28  1  0.74885032  0.24727415  -0.00000000  1
  Mg  Mg29  1  0.75834436  0.24417561  0.50000000  1
  Mg  Mg30  1  0.74885032  0.75272585  -0.00000000  1
  Mg  Mg31  1  0.75834436  0.75582439  0.50000000  1
  O  O32  1  0.26532955  -0.00000000  -0.00000000  1
  O  O33  1  0.25257476  0.50000000  -0.00000000  1
  O  O34  1  0.25687322  0.50000000  0.50000000  1
  O  O35  1  0.73185535  0.00000000  -0.00000000  1
  O  O36  1  0.74933305  -0.00000000  0.50000000  1
  O  O37  1  0.74397969  0.50000000  -0.00000000  1
  O  O38  1  0.74352779  0.50000000  0.50000000  1
  O  O39  1  0.24730983  0.24540878  0.25578255  1
  O  O40  1  0.24730983  0.24540878  0.74421745  1
  O  O41  1  0.24730983  0.75459122  0.25578255  1
  O  O42  1  0.24730983  0.75459122  0.74421745  1
  O  O43  1  0.74693355  0.24902298  0.25122327  1
  O  O44  1  0.74693355  0.24902298  0.74877673  1
  O  O45  1  0.74693355  0.75097802  0.25122327  1
  O  O46  1  0.74693355  0.75097802  0.74877673  1
  O  O47  1  0.00042122  0.00000000  0.24221871  1
  O  O48  1  0.00042122  0.00000000  0.75778129  1
  O  O49  1  0.99920807  0.50000000  0.24877899  1
  O  O50  1  0.99920807  0.50000000  0.75122101  1
  O  O51  1  0.48767877  0.00000000  0.26115099  1
  O  O52  1  0.48767877  -0.00000000  0.73884901  1
  O  O53  1  0.49619548  0.50000000  0.25192648  1
  O  O54  1  0.49619548  0.50000000  0.74807352  1
  O  O55  1  0.00007361  0.26590915  -0.00000000  1
  O  O56  1  0.00186421  0.27174836  0.50000000  1
  O  O57  1  0.00007361  0.73409085  -0.00000000  1
  O  O58  1  0.00186421  0.72825164  0.50000000  1
  O  O59  1  0.49555480  0.25145145  -0.00000000  1
  O  O60  1  0.49080950  0.24340637  0.50000000  1
  O  O61  1  0.49555480  0.74854855  -0.00000000  1
  O  O62  1  0.49080950  0.75659363  0.50000000  1
