# generated using pymatgen
data_Sn3Te3Ir2
_symmetry_space_group_name_H-M   'P 1'
_cell_length_a   9.47555944
_cell_length_b   9.47555944
_cell_length_c   9.47555944
_cell_angle_alpha   89.93265876
_cell_angle_beta   89.93265872
_cell_angle_gamma   89.93265874
_symmetry_Int_Tables_number   1
_chemical_formula_structural   Sn3Te3Ir2
_chemical_formula_sum   'Sn12 Te12 Ir8'
_cell_volume   850.77296608
_cell_formula_units_Z   4
loop_
 _symmetry_equiv_pos_site_id
 _symmetry_equiv_pos_as_xyz
  1  'x, y, z'
loop_
 _atom_site_type_symbol
 _atom_site_label
 _atom_site_symmetry_multiplicity
 _atom_site_fract_x
 _atom_site_fract_y
 _atom_site_fract_z
 _atom_site_occupancy
  Sn  Sn0  1  0.82570472  0.33940187  0.49968700  1
  Sn  Sn1  1  0.17429528  0.66059813  0.50031300  1
  Sn  Sn2  1  0.66059813  0.50031300  0.17429528  1
  Sn  Sn3  1  0.50031300  0.17429528  0.66059813  1
  Sn  Sn4  1  0.33940187  0.49968700  0.82570472  1
  Sn  Sn5  1  0.49968700  0.82570472  0.33940187  1
  Sn  Sn6  1  0.67476403  0.83999412  0.00140348  1
  Sn  Sn7  1  0.83999412  0.00140348  0.67476403  1
  Sn  Sn8  1  0.99859652  0.32523597  0.16000588  1
  Sn  Sn9  1  0.16000588  0.99859652  0.32523597  1
  Sn  Sn10  1  0.32523597  0.16000588  0.99859652  1
  Sn  Sn11  1  0.00140348  0.67476403  0.83999412  1
  Te  Te12  1  0.15062223  0.00010616  0.65467526  1
  Te  Te13  1  0.65467526  0.15062223  0.00010616  1
  Te  Te14  1  0.50191599  0.84541412  0.65011134  1
  Te  Te15  1  0.65011134  0.50191599  0.84541412  1
  Te  Te16  1  0.15458588  0.34988866  0.49808401  1
  Te  Te17  1  0.84541412  0.65011134  0.50191599  1
  Te  Te18  1  0.49808401  0.15458588  0.34988866  1
  Te  Te19  1  0.34988866  0.49808401  0.15458588  1
  Te  Te20  1  0.99989384  0.34532474  0.84937777  1
  Te  Te21  1  0.84937777  0.99989384  0.34532474  1
  Te  Te22  1  0.34532474  0.84937777  0.99989384  1
  Te  Te23  1  0.00010616  0.65467526  0.15062223  1
  Ir  Ir24  1  0.24810625  0.24832951  0.74764900  1
  Ir  Ir25  1  0.24832951  0.74764900  0.24810625  1
  Ir  Ir26  1  0.74764900  0.24810625  0.24832951  1
  Ir  Ir27  1  0.75189375  0.75167049  0.25235100  1
  Ir  Ir28  1  0.75167049  0.25235100  0.75189375  1
  Ir  Ir29  1  0.25235100  0.75189375  0.75167049  1
  Ir  Ir30  1  0.74890994  0.74890994  0.74890994  1
  Ir  Ir31  1  0.25109006  0.25109006  0.25109006  1
