# generated using pymatgen
data_NdCuSe2
_symmetry_space_group_name_H-M   'P 1'
_cell_length_a   6.74499634
_cell_length_b   7.21991575
_cell_length_c   7.50932532
_cell_angle_alpha   90.00000000
_cell_angle_beta   90.00000000
_cell_angle_gamma   96.53229775
_symmetry_Int_Tables_number   1
_chemical_formula_structural   NdCuSe2
_chemical_formula_sum   'Nd4 Cu4 Se8'
_cell_volume   363.31730669
_cell_formula_units_Z   4
loop_
 _symmetry_equiv_pos_site_id
 _symmetry_equiv_pos_as_xyz
  1  'x, y, z'
loop_
 _atom_site_type_symbol
 _atom_site_label
 _atom_site_symmetry_multiplicity
 _atom_site_fract_x
 _atom_site_fract_y
 _atom_site_fract_z
 _atom_site_occupancy
  Cu  Cu0  1  0.06893367  0.54608118  0.83955749  1
  Cu  Cu1  1  0.93106633  0.45391882  0.16044251  1
  Cu  Cu2  1  0.06893367  0.04608118  0.66044251  1
  Cu  Cu3  1  0.93106633  0.95391882  0.33955749  1
  Se  Se4  1  0.41859206  0.00239161  0.72350955  1
  Se  Se5  1  0.41859206  0.50239161  0.77649045  1
  Se  Se6  1  0.58140794  0.49760839  0.22350955  1
  Se  Se7  1  0.58140794  0.99760839  0.27649045  1
  Se  Se8  1  0.90221998  0.72091986  0.61195428  1
  Se  Se9  1  0.09778002  0.77908014  0.11195428  1
  Se  Se10  1  0.09778002  0.27908014  0.38804572  1
  Se  Se11  1  0.90221998  0.22091986  0.88804572  1
  Nd  Nd12  1  0.69339546  0.29942132  0.54528822  1
  Nd  Nd13  1  0.30660454  0.20057868  0.04528822  1
  Nd  Nd14  1  0.30660454  0.70057868  0.45471178  1
  Nd  Nd15  1  0.69339546  0.79942132  0.95471178  1
