# generated using pymatgen
data_Sr
_symmetry_space_group_name_H-M   'P 1'
_cell_length_a   7.14196030
_cell_length_b   6.73228151
_cell_length_c   6.73228151
_cell_angle_alpha   73.65906936
_cell_angle_beta   57.96572206
_cell_angle_gamma   57.96572206
_symmetry_Int_Tables_number   1
_chemical_formula_structural   Sr
_chemical_formula_sum   Sr4
_cell_volume   232.62586876
_cell_formula_units_Z   4
loop_
 _symmetry_equiv_pos_site_id
 _symmetry_equiv_pos_as_xyz
  1  'x, y, z'
loop_
 _atom_site_type_symbol
 _atom_site_label
 _atom_site_symmetry_multiplicity
 _atom_site_fract_x
 _atom_site_fract_y
 _atom_site_fract_z
 _atom_site_occupancy
  Sr  Sr0  1  0.17024427  0.50000000  0.15951145  1
  Sr  Sr1  1  0.82975573  0.50000000  0.84048855  1
  Sr  Sr2  1  0.32975573  0.84048855  0.50000000  1
  Sr  Sr3  1  0.67024427  0.15951145  0.50000000  1
