# generated using pymatgen
data_Zr5Te4
_symmetry_space_group_name_H-M   'P 1'
_cell_length_a   3.86742459
_cell_length_b   7.93749131
_cell_length_c   7.93749130
_cell_angle_alpha   86.59752558
_cell_angle_beta   75.89985324
_cell_angle_gamma   75.89985326
_symmetry_Int_Tables_number   1
_chemical_formula_structural   Zr5Te4
_chemical_formula_sum   'Zr5 Te4'
_cell_volume   229.20108941
_cell_formula_units_Z   1
loop_
 _symmetry_equiv_pos_site_id
 _symmetry_equiv_pos_as_xyz
  1  'x, y, z'
loop_
 _atom_site_type_symbol
 _atom_site_label
 _atom_site_symmetry_multiplicity
 _atom_site_fract_x
 _atom_site_fract_y
 _atom_site_fract_z
 _atom_site_occupancy
  Zr  Zr0  1  -0.00000000  -0.00000000  0.00000000  1
  Zr  Zr1  1  0.62986825  0.67957977  0.06068373  1
  Zr  Zr2  1  0.37013175  0.32042023  0.93931627  1
  Zr  Zr3  1  0.30944802  0.06068373  0.32042023  1
  Zr  Zr4  1  0.69055198  0.93931627  0.67957977  1
  Te  Te5  1  0.71919449  0.33443741  0.22717361  1
  Te  Te6  1  0.28080551  0.66556259  0.77282639  1
  Te  Te7  1  0.05363190  0.22717361  0.66556259  1
  Te  Te8  1  0.94636810  0.77282639  0.33443741  1
