# generated using pymatgen
data_PPdSe
_symmetry_space_group_name_H-M   'P 1'
_cell_length_a   5.86650903
_cell_length_b   5.91682386
_cell_length_c   14.98561409
_cell_angle_alpha   90.00000000
_cell_angle_beta   90.00000000
_cell_angle_gamma   90.00000000
_symmetry_Int_Tables_number   1
_chemical_formula_structural   PPdSe
_chemical_formula_sum   'P8 Pd8 Se8'
_cell_volume   520.16715828
_cell_formula_units_Z   8
loop_
 _symmetry_equiv_pos_site_id
 _symmetry_equiv_pos_as_xyz
  1  'x, y, z'
loop_
 _atom_site_type_symbol
 _atom_site_label
 _atom_site_symmetry_multiplicity
 _atom_site_fract_x
 _atom_site_fract_y
 _atom_site_fract_z
 _atom_site_occupancy
  P  P0  1  0.62414975  0.28519236  0.07275319  1
  P  P1  1  0.62414975  0.21480764  0.92724681  1
  P  P2  1  0.87585025  0.78519236  0.42724681  1
  P  P3  1  0.87585025  0.71480764  0.57275319  1
  P  P4  1  0.37585025  0.71480764  0.92724681  1
  P  P5  1  0.37585025  0.78519236  0.07275319  1
  P  P6  1  0.12414975  0.21480764  0.57275319  1
  P  P7  1  0.12414975  0.28519236  0.42724681  1
  Se  Se8  1  0.36418280  0.03941974  0.35340529  1
  Se  Se9  1  0.36418280  0.46058026  0.64659471  1
  Se  Se10  1  0.13581720  0.53941974  0.14659471  1
  Se  Se11  1  0.13581720  0.96058026  0.85340529  1
  Se  Se12  1  0.63581720  0.96058026  0.64659471  1
  Se  Se13  1  0.63581720  0.53941974  0.35340529  1
  Se  Se14  1  0.86418280  0.46058026  0.85340529  1
  Se  Se15  1  0.86418280  0.03941974  0.14659471  1
  Pd  Pd16  1  0.75790430  0.15363829  0.39940453  1
  Pd  Pd17  1  0.75790430  0.34636171  0.60059547  1
  Pd  Pd18  1  0.74209570  0.65363829  0.10059547  1
  Pd  Pd19  1  0.74209570  0.84636171  0.89940453  1
  Pd  Pd20  1  0.24209570  0.84636171  0.60059547  1
  Pd  Pd21  1  0.24209570  0.65363829  0.39940453  1
  Pd  Pd22  1  0.25790430  0.34636171  0.89940453  1
  Pd  Pd23  1  0.25790430  0.15363829  0.10059547  1
