# generated using pymatgen
data_YPO4
_symmetry_space_group_name_H-M   'P 1'
_cell_length_a   5.79590301
_cell_length_b   5.79590301
_cell_length_c   5.79590301
_cell_angle_alpha   105.92383130
_cell_angle_beta   105.92383128
_cell_angle_gamma   116.82593778
_symmetry_Int_Tables_number   1
_chemical_formula_structural   YPO4
_chemical_formula_sum   'Y2 P2 O8'
_cell_volume   148.00445364
_cell_formula_units_Z   2
loop_
 _symmetry_equiv_pos_site_id
 _symmetry_equiv_pos_as_xyz
  1  'x, y, z'
loop_
 _atom_site_type_symbol
 _atom_site_label
 _atom_site_symmetry_multiplicity
 _atom_site_fract_x
 _atom_site_fract_y
 _atom_site_fract_z
 _atom_site_occupancy
  O  O0  1  0.78488360  0.36093526  0.07605166  1
  O  O1  1  0.70883194  0.78488360  0.92394834  1
  O  O2  1  0.36093526  0.78488360  0.57605166  1
  O  O3  1  0.78488360  0.70883194  0.42394834  1
  O  O4  1  0.29116806  0.21511640  0.07605166  1
  O  O5  1  0.21511640  0.63906474  0.92394834  1
  O  O6  1  0.21511640  0.29116806  0.57605166  1
  O  O7  1  0.63906474  0.21511640  0.42394834  1
  P  P8  1  0.37500000  0.62500000  0.75000000  1
  P  P9  1  0.62500000  0.37500000  0.25000000  1
  Y  Y10  1  0.12500000  0.87500000  0.25000000  1
  Y  Y11  1  0.87500000  0.12500000  0.75000000  1
