# generated using pymatgen
data_HoNiC2
_symmetry_space_group_name_H-M   'P 1'
_cell_length_a   3.56541532
_cell_length_b   3.74957051
_cell_length_c   3.74957051
_cell_angle_alpha   106.02560782
_cell_angle_beta   90.00000000
_cell_angle_gamma   90.00000000
_symmetry_Int_Tables_number   1
_chemical_formula_structural   HoNiC2
_chemical_formula_sum   'Ho1 Ni1 C2'
_cell_volume   48.17914717
_cell_formula_units_Z   1
loop_
 _symmetry_equiv_pos_site_id
 _symmetry_equiv_pos_as_xyz
  1  'x, y, z'
loop_
 _atom_site_type_symbol
 _atom_site_label
 _atom_site_symmetry_multiplicity
 _atom_site_fract_x
 _atom_site_fract_y
 _atom_site_fract_z
 _atom_site_occupancy
  C  C0  1  0.50000000  0.14873408  0.54669638  1
  C  C1  1  0.50000000  0.45330362  0.85126592  1
  Ni  Ni2  1  0.50000000  0.61263652  0.38736348  1
  Ho  Ho3  1  0.00000000  0.00132578  0.99867422  1
