# generated using pymatgen
data_Sc3(Ga3Fe)2
_symmetry_space_group_name_H-M   'P 1'
_cell_length_a   8.15447946
_cell_length_b   8.42243948
_cell_length_c   10.42789042
_cell_angle_alpha   90.00000000
_cell_angle_beta   90.00000000
_cell_angle_gamma   90.00000000
_symmetry_Int_Tables_number   1
_chemical_formula_structural   Sc3(Ga3Fe)2
_chemical_formula_sum   'Sc12 Ga24 Fe8'
_cell_volume   716.19387238
_cell_formula_units_Z   4
loop_
 _symmetry_equiv_pos_site_id
 _symmetry_equiv_pos_as_xyz
  1  'x, y, z'
loop_
 _atom_site_type_symbol
 _atom_site_label
 _atom_site_symmetry_multiplicity
 _atom_site_fract_x
 _atom_site_fract_y
 _atom_site_fract_z
 _atom_site_occupancy
  Sc  Sc0  1  0.56742347  0.94768308  0.13988528  1
  Sc  Sc1  1  0.53987141  0.25000000  0.56416694  1
  Sc  Sc2  1  0.03987141  0.25000000  0.93583306  1
  Sc  Sc3  1  0.46012859  0.75000000  0.43583306  1
  Sc  Sc4  1  0.96012859  0.75000000  0.06416694  1
  Sc  Sc5  1  0.06742347  0.94768308  0.36011472  1
  Sc  Sc6  1  0.56742347  0.55231692  0.13988528  1
  Sc  Sc7  1  0.93257653  0.44768308  0.63988528  1
  Sc  Sc8  1  0.06742347  0.55231692  0.36011472  1
  Sc  Sc9  1  0.43257653  0.05231692  0.86011472  1
  Sc  Sc10  1  0.43257653  0.44768308  0.86011472  1
  Sc  Sc11  1  0.93257653  0.05231692  0.63988528  1
  Fe  Fe12  1  0.31764837  0.75000000  0.97770048  1
  Fe  Fe13  1  0.81764837  0.75000000  0.52229952  1
  Fe  Fe14  1  0.68235163  0.25000000  0.02229952  1
  Fe  Fe15  1  0.18235163  0.25000000  0.47770048  1
  Fe  Fe16  1  0.36289899  0.75000000  0.73592288  1
  Fe  Fe17  1  0.86289899  0.75000000  0.76407712  1
  Fe  Fe18  1  0.63710101  0.25000000  0.26407712  1
  Fe  Fe19  1  0.13710101  0.25000000  0.23592288  1
  Ga  Ga20  1  0.11597841  0.58879189  0.84355594  1
  Ga  Ga21  1  0.11597841  0.91120811  0.84355594  1
  Ga  Ga22  1  0.61597841  0.58879189  0.65644406  1
  Ga  Ga23  1  0.88402159  0.41120811  0.15644406  1
  Ga  Ga24  1  0.29547550  0.50571815  0.58716799  1
  Ga  Ga25  1  0.79547550  0.99428185  0.91283201  1
  Ga  Ga26  1  0.70452450  0.00571815  0.41283201  1
  Ga  Ga27  1  0.20452450  0.49428185  0.08716799  1
  Ga  Ga28  1  0.70452450  0.49428185  0.41283201  1
  Ga  Ga29  1  0.20452450  0.00571815  0.08716799  1
  Ga  Ga30  1  0.29547550  0.99428185  0.58716799  1
  Ga  Ga31  1  0.79547550  0.50571815  0.91283201  1
  Ga  Ga32  1  0.61597841  0.91120811  0.65644406  1
  Ga  Ga33  1  0.88402159  0.08879189  0.15644406  1
  Ga  Ga34  1  0.38402159  0.41120811  0.34355594  1
  Ga  Ga35  1  0.09842982  0.75000000  0.59080905  1
  Ga  Ga36  1  0.59842982  0.75000000  0.90919095  1
  Ga  Ga37  1  0.90157018  0.25000000  0.40919095  1
  Ga  Ga38  1  0.40157018  0.25000000  0.09080905  1
  Ga  Ga39  1  0.77983216  0.75000000  0.28431800  1
  Ga  Ga40  1  0.27983216  0.75000000  0.21568200  1
  Ga  Ga41  1  0.22016784  0.25000000  0.71568200  1
  Ga  Ga42  1  0.72016784  0.25000000  0.78431800  1
  Ga  Ga43  1  0.38402159  0.08879189  0.34355594  1
