# generated using pymatgen
data_SrNb8O14
_symmetry_space_group_name_H-M   'P 1'
_cell_length_a   6.02082194
_cell_length_b   9.37884791
_cell_length_c   10.39962744
_cell_angle_alpha   90.00000000
_cell_angle_beta   90.00000000
_cell_angle_gamma   90.00000000
_symmetry_Int_Tables_number   1
_chemical_formula_structural   SrNb8O14
_chemical_formula_sum   'Sr2 Nb16 O28'
_cell_volume   587.25004413
_cell_formula_units_Z   2
loop_
 _symmetry_equiv_pos_site_id
 _symmetry_equiv_pos_as_xyz
  1  'x, y, z'
loop_
 _atom_site_type_symbol
 _atom_site_label
 _atom_site_symmetry_multiplicity
 _atom_site_fract_x
 _atom_site_fract_y
 _atom_site_fract_z
 _atom_site_occupancy
  O  O0  1  0.74568262  0.50493254  0.75337898  1
  O  O1  1  0.74568262  0.49506746  0.24662102  1
  O  O2  1  0.25431738  0.00493254  0.74662102  1
  O  O3  1  0.25431738  0.99506746  0.25337898  1
  O  O4  1  0.25431738  0.49506746  0.24662102  1
  O  O5  1  0.25431738  0.50493254  0.75337898  1
  O  O6  1  0.74568262  0.99506746  0.25337898  1
  O  O7  1  0.74568262  0.00493254  0.74662102  1
  O  O8  1  0.25437252  0.73966827  0.91356349  1
  O  O9  1  0.25437252  0.26033173  0.08643651  1
  O  O10  1  0.74562748  0.23966827  0.58643651  1
  O  O11  1  0.74562748  0.76033173  0.41356349  1
  O  O12  1  0.74562748  0.26033173  0.08643651  1
  O  O13  1  0.74562748  0.73966827  0.91356349  1
  O  O14  1  0.25437252  0.76033173  0.41356349  1
  O  O15  1  0.25437252  0.23966827  0.58643651  1
  O  O16  1  0.00000000  0.50000000  0.00000000  1
  O  O17  1  0.00000000  0.00000000  0.50000000  1
  O  O18  1  0.00000000  0.23437746  0.82109009  1
  O  O19  1  0.00000000  0.76562254  0.17890991  1
  O  O20  1  0.00000000  0.73437746  0.67890991  1
  O  O21  1  0.00000000  0.26562254  0.32109009  1
  O  O22  1  0.50000000  0.23666820  0.34862169  1
  O  O23  1  0.50000000  0.76333180  0.65137831  1
  O  O24  1  0.50000000  0.73666820  0.15137831  1
  O  O25  1  0.50000000  0.26333180  0.84862169  1
  O  O26  1  0.00000000  0.00000000  0.00000000  1
  O  O27  1  0.00000000  0.50000000  0.50000000  1
  Sr  Sr28  1  0.50000000  0.50000000  0.00000000  1
  Sr  Sr29  1  0.50000000  0.00000000  0.50000000  1
  Nb  Nb30  1  0.00000000  0.38372914  0.16363403  1
  Nb  Nb31  1  0.00000000  0.61627086  0.83636597  1
  Nb  Nb32  1  0.00000000  0.88372914  0.33636597  1
  Nb  Nb33  1  0.00000000  0.11627086  0.66363403  1
  Nb  Nb34  1  0.50000000  0.38013849  0.66459938  1
  Nb  Nb35  1  0.50000000  0.61986151  0.33540062  1
  Nb  Nb36  1  0.50000000  0.88013849  0.83540062  1
  Nb  Nb37  1  0.50000000  0.11986151  0.16459938  1
  Nb  Nb38  1  0.73173043  0.62528550  0.57684654  1
  Nb  Nb39  1  0.73173043  0.37471450  0.42315346  1
  Nb  Nb40  1  0.26826957  0.12528550  0.92315346  1
  Nb  Nb41  1  0.26826957  0.87471450  0.07684654  1
  Nb  Nb42  1  0.26826957  0.37471450  0.42315346  1
  Nb  Nb43  1  0.26826957  0.62528550  0.57684654  1
  Nb  Nb44  1  0.73173043  0.87471450  0.07684654  1
  Nb  Nb45  1  0.73173043  0.12528550  0.92315346  1
