# generated using pymatgen
data_Mg(AlS2)2
_symmetry_space_group_name_H-M   'P 1'
_cell_length_a   5.95195658
_cell_length_b   7.27308155
_cell_length_c   12.64464102
_cell_angle_alpha   90.00000000
_cell_angle_beta   90.00000000
_cell_angle_gamma   90.00000000
_symmetry_Int_Tables_number   1
_chemical_formula_structural   Mg(AlS2)2
_chemical_formula_sum   'Mg4 Al8 S16'
_cell_volume   547.37469446
_cell_formula_units_Z   4
loop_
 _symmetry_equiv_pos_site_id
 _symmetry_equiv_pos_as_xyz
  1  'x, y, z'
loop_
 _atom_site_type_symbol
 _atom_site_label
 _atom_site_symmetry_multiplicity
 _atom_site_fract_x
 _atom_site_fract_y
 _atom_site_fract_z
 _atom_site_occupancy
  Mg  Mg0  1  0.00180752  0.75000000  0.73482598  1
  Mg  Mg1  1  0.50180752  0.25000000  0.76517402  1
  Mg  Mg2  1  0.99819248  0.25000000  0.26517402  1
  Mg  Mg3  1  0.49819248  0.75000000  0.23482598  1
  Al  Al4  1  0.59073626  0.75000000  0.91521734  1
  Al  Al5  1  0.09073626  0.25000000  0.58478266  1
  Al  Al6  1  0.40926374  0.25000000  0.08478266  1
  Al  Al7  1  0.90926374  0.75000000  0.41521734  1
  Al  Al8  1  0.00000000  0.00000000  0.00000000  1
  Al  Al9  1  0.50000000  0.00000000  0.50000000  1
  Al  Al10  1  0.00000000  0.50000000  0.00000000  1
  Al  Al11  1  0.50000000  0.50000000  0.50000000  1
  S  S12  1  0.21292003  0.75000000  0.91573478  1
  S  S13  1  0.71292003  0.25000000  0.58426522  1
  S  S14  1  0.78707997  0.25000000  0.08426522  1
  S  S15  1  0.28707997  0.75000000  0.41573478  1
  S  S16  1  0.72840591  0.75000000  0.57386894  1
  S  S17  1  0.22840591  0.25000000  0.92613106  1
  S  S18  1  0.27159409  0.25000000  0.42613106  1
  S  S19  1  0.77159409  0.75000000  0.07386894  1
  S  S20  1  0.76117616  0.99515703  0.84208528  1
  S  S21  1  0.26117616  0.00484297  0.65791472  1
  S  S22  1  0.23882384  0.49515703  0.15791472  1
  S  S23  1  0.73882384  0.50484297  0.34208528  1
  S  S24  1  0.23882384  0.00484297  0.15791472  1
  S  S25  1  0.73882384  0.99515703  0.34208528  1
  S  S26  1  0.76117616  0.50484297  0.84208528  1
  S  S27  1  0.26117616  0.49515703  0.65791472  1
