# generated using pymatgen
data_ErSi
_symmetry_space_group_name_H-M   'P 1'
_cell_length_a   3.80439282
_cell_length_b   4.23880927
_cell_length_c   5.63162966
_cell_angle_alpha   112.10712565
_cell_angle_beta   90.00000000
_cell_angle_gamma   90.00000000
_symmetry_Int_Tables_number   1
_chemical_formula_structural   ErSi
_chemical_formula_sum   'Er2 Si2'
_cell_volume   84.13955767
_cell_formula_units_Z   2
loop_
 _symmetry_equiv_pos_site_id
 _symmetry_equiv_pos_as_xyz
  1  'x, y, z'
loop_
 _atom_site_type_symbol
 _atom_site_label
 _atom_site_symmetry_multiplicity
 _atom_site_fract_x
 _atom_site_fract_y
 _atom_site_fract_z
 _atom_site_occupancy
  Si  Si0  1  0.25000000  0.57732430  0.15464860  1
  Si  Si1  1  0.75000000  0.42267570  0.84535140  1
  Er  Er2  1  0.25000000  0.85979273  0.71958546  1
  Er  Er3  1  0.75000000  0.14020727  0.28041454  1
