# generated using pymatgen
data_CaTi4O9
_symmetry_space_group_name_H-M   'P 1'
_cell_length_a   5.23117814
_cell_length_b   8.52109904
_cell_length_c   8.52109904
_cell_angle_alpha   90.00000000
_cell_angle_beta   90.00000000
_cell_angle_gamma   90.00000000
_symmetry_Int_Tables_number   1
_chemical_formula_structural   CaTi4O9
_chemical_formula_sum   'Ca2 Ti8 O18'
_cell_volume   379.83128760
_cell_formula_units_Z   2
loop_
 _symmetry_equiv_pos_site_id
 _symmetry_equiv_pos_as_xyz
  1  'x, y, z'
loop_
 _atom_site_type_symbol
 _atom_site_label
 _atom_site_symmetry_multiplicity
 _atom_site_fract_x
 _atom_site_fract_y
 _atom_site_fract_z
 _atom_site_occupancy
  Ca  Ca0  1  0.13345440  0.25000000  0.25000000  1
  Ca  Ca1  1  0.86654660  0.75000000  0.74999900  1
  Ti  Ti2  1  0.61982376  0.53287538  0.33988516  1
  Ti  Ti3  1  0.38017724  0.83988416  0.46712562  1
  Ti  Ti4  1  0.61982376  0.33988416  0.96712562  1
  Ti  Ti5  1  0.38017724  0.03287438  0.83988416  1
  Ti  Ti6  1  0.61982376  0.96712562  0.16011484  1
  Ti  Ti7  1  0.61982376  0.16011584  0.53287538  1
  Ti  Ti8  1  0.38017724  0.46712562  0.66011484  1
  Ti  Ti9  1  0.38017724  0.66011484  0.03287438  1
  O  O10  1  0.49999900  0.75000000  0.25000000  1
  O  O11  1  0.49999900  0.25000100  0.75000000  1
  O  O12  1  0.06957127  0.68052915  0.99050522  1
  O  O13  1  0.06957127  0.50949578  0.68052815  1
  O  O14  1  0.06957127  0.99050522  0.81947185  1
  O  O15  1  0.06957127  0.81947185  0.50949478  1
  O  O16  1  0.93042973  0.31947185  0.00949478  1
  O  O17  1  0.93042973  0.49050422  0.31947185  1
  O  O18  1  0.93042973  0.00949478  0.18052815  1
  O  O19  1  0.93042973  0.18052815  0.49050422  1
  O  O20  1  0.46354592  0.04391117  0.35611299  1
  O  O21  1  0.46354592  0.14388601  0.04391217  1
  O  O22  1  0.46354592  0.35611299  0.45608883  1
  O  O23  1  0.46354592  0.45608883  0.14388701  1
  O  O24  1  0.53645308  0.54391117  0.85611299  1
  O  O25  1  0.53645308  0.85611299  0.95608883  1
  O  O26  1  0.53645308  0.64388701  0.54391117  1
  O  O27  1  0.53645308  0.95608783  0.64388701  1
