# generated using pymatgen
data_Sm4S3N2
_symmetry_space_group_name_H-M   'P 1'
_cell_length_a   3.93708710
_cell_length_b   6.92942861
_cell_length_c   8.17654652
_cell_angle_alpha   84.14046631
_cell_angle_beta   76.06890117
_cell_angle_gamma   73.49586500
_symmetry_Int_Tables_number   1
_chemical_formula_structural   Sm4S3N2
_chemical_formula_sum   'Sm4 S3 N2'
_cell_volume   207.45273464
_cell_formula_units_Z   1
loop_
 _symmetry_equiv_pos_site_id
 _symmetry_equiv_pos_as_xyz
  1  'x, y, z'
loop_
 _atom_site_type_symbol
 _atom_site_label
 _atom_site_symmetry_multiplicity
 _atom_site_fract_x
 _atom_site_fract_y
 _atom_site_fract_z
 _atom_site_occupancy
  N  N0  1  0.35416642  0.93111145  0.36055572  1
  N  N1  1  0.64583358  0.06888855  0.63944428  1
  S  S2  1  0.00000000  0.00000000  0.00000000  1
  S  S3  1  0.82980881  0.55851536  0.78186702  1
  S  S4  1  0.17019119  0.44148464  0.21813298  1
  Sm  Sm5  1  0.24339459  0.86542167  0.64778915  1
  Sm  Sm6  1  0.75660541  0.13457833  0.35221085  1
  Sm  Sm7  1  0.56339146  0.72902584  0.14419124  1
  Sm  Sm8  1  0.43660854  0.27097416  0.85580876  1
