# generated using pymatgen
data_Nd2Te4O11
_symmetry_space_group_name_H-M   'P 1'
_cell_length_a   5.30343853
_cell_length_b   6.91388936
_cell_length_c   16.48627396
_cell_angle_alpha   79.39420371
_cell_angle_beta   80.74410800
_cell_angle_gamma   67.44717227
_symmetry_Int_Tables_number   1
_chemical_formula_structural   Nd2Te4O11
_chemical_formula_sum   'Nd4 Te8 O22'
_cell_volume   546.02328903
_cell_formula_units_Z   2
loop_
 _symmetry_equiv_pos_site_id
 _symmetry_equiv_pos_as_xyz
  1  'x, y, z'
loop_
 _atom_site_type_symbol
 _atom_site_label
 _atom_site_symmetry_multiplicity
 _atom_site_fract_x
 _atom_site_fract_y
 _atom_site_fract_z
 _atom_site_occupancy
  O  O0  1  0.85004438  0.25000000  0.75000000  1
  O  O1  1  0.14995562  0.75000000  0.25000000  1
  O  O2  1  0.19615252  0.87505635  0.83050585  1
  O  O3  1  0.90171473  0.62494365  0.66949415  1
  O  O4  1  0.80384748  0.12494365  0.16949415  1
  O  O5  1  0.09828527  0.37505635  0.33050585  1
  O  O6  1  0.61027777  0.05162245  0.90023643  1
  O  O7  1  0.56213664  0.44837755  0.59976357  1
  O  O8  1  0.38972223  0.94837755  0.09976357  1
  O  O9  1  0.43786336  0.55162245  0.40023643  1
  O  O10  1  0.04478207  0.19003236  0.95342083  1
  O  O11  1  0.18823526  0.30996764  0.54657917  1
  O  O12  1  0.67987821  0.13373622  0.37324283  1
  O  O13  1  0.18685725  0.36626378  0.12675717  1
  O  O14  1  0.32012179  0.86626378  0.62675717  1
  O  O15  1  0.81314275  0.63373622  0.87324283  1
  O  O16  1  0.25231035  0.97093720  0.44554088  1
  O  O17  1  0.66878843  0.52906280  0.05445912  1
  O  O18  1  0.74768965  0.02906280  0.55445912  1
  O  O19  1  0.33121157  0.47093720  0.94554088  1
  O  O20  1  0.81176474  0.69003236  0.45342083  1
  O  O21  1  0.95521793  0.80996764  0.04657917  1
  Te  Te22  1  0.60377448  0.53771263  0.69891610  1
  Te  Te23  1  0.84040320  0.96228737  0.80108390  1
  Te  Te24  1  0.39622552  0.46228737  0.30108390  1
  Te  Te25  1  0.15959680  0.03771263  0.19891610  1
  Te  Te26  1  0.14844985  0.39097333  0.87478066  1
  Te  Te27  1  0.41420384  0.10902667  0.62521934  1
  Te  Te28  1  0.85155015  0.60902667  0.12521934  1
  Te  Te29  1  0.58579616  0.89097333  0.37478066  1
  Nd  Nd30  1  0.13332364  0.69826517  0.53790513  1
  Nd  Nd31  1  0.36949394  0.80173483  0.96209487  1
  Nd  Nd32  1  0.86667636  0.30173483  0.46209487  1
  Nd  Nd33  1  0.63050606  0.19826517  0.03790513  1
