# generated using pymatgen
data_Dy2Mn3Si5
_symmetry_space_group_name_H-M   'P 1'
_cell_length_a   5.42832521
_cell_length_b   10.56816065
_cell_length_c   10.56816065
_cell_angle_alpha   90.00000000
_cell_angle_beta   90.00000000
_cell_angle_gamma   90.00000000
_symmetry_Int_Tables_number   1
_chemical_formula_structural   Dy2Mn3Si5
_chemical_formula_sum   'Dy8 Mn12 Si20'
_cell_volume   606.26803539
_cell_formula_units_Z   4
loop_
 _symmetry_equiv_pos_site_id
 _symmetry_equiv_pos_as_xyz
  1  'x, y, z'
loop_
 _atom_site_type_symbol
 _atom_site_label
 _atom_site_symmetry_multiplicity
 _atom_site_fract_x
 _atom_site_fract_y
 _atom_site_fract_z
 _atom_site_occupancy
  Dy  Dy0  1  0.00000000  0.07430157  0.23695196  1
  Dy  Dy1  1  0.00000000  0.76304804  0.07430157  1
  Dy  Dy2  1  0.00000000  0.23695196  0.92569843  1
  Dy  Dy3  1  0.00000000  0.92569843  0.76304804  1
  Dy  Dy4  1  0.50000000  0.57430157  0.26304804  1
  Dy  Dy5  1  0.50000000  0.42569843  0.73695196  1
  Dy  Dy6  1  0.50000000  0.73695196  0.57430157  1
  Dy  Dy7  1  0.50000000  0.26304804  0.42569843  1
  Mn  Mn8  1  0.25000000  0.00000000  0.50000000  1
  Mn  Mn9  1  0.25000000  0.50000000  0.00000000  1
  Mn  Mn10  1  0.75000000  0.00000000  0.50000000  1
  Mn  Mn11  1  0.75000000  0.50000000  0.00000000  1
  Mn  Mn12  1  0.00000000  0.37894038  0.35548433  1
  Mn  Mn13  1  0.00000000  0.64451567  0.37894038  1
  Mn  Mn14  1  0.00000000  0.35548433  0.62105962  1
  Mn  Mn15  1  0.00000000  0.62105962  0.64451567  1
  Mn  Mn16  1  0.50000000  0.87894038  0.14451567  1
  Mn  Mn17  1  0.50000000  0.12105962  0.85548433  1
  Mn  Mn18  1  0.50000000  0.85548433  0.87894038  1
  Mn  Mn19  1  0.50000000  0.14451567  0.12105962  1
  Si  Si20  1  0.25814766  0.00000000  0.00000000  1
  Si  Si21  1  0.24185234  0.50000000  0.50000000  1
  Si  Si22  1  0.74185234  0.00000000  0.00000000  1
  Si  Si23  1  0.75814766  0.50000000  0.50000000  1
  Si  Si24  1  0.25000000  0.17554063  0.67554063  1
  Si  Si25  1  0.25000000  0.32445937  0.17554063  1
  Si  Si26  1  0.25000000  0.67554063  0.82445937  1
  Si  Si27  1  0.25000000  0.82445937  0.32445937  1
  Si  Si28  1  0.75000000  0.82445937  0.32445937  1
  Si  Si29  1  0.75000000  0.67554063  0.82445937  1
  Si  Si30  1  0.75000000  0.32445937  0.17554063  1
  Si  Si31  1  0.75000000  0.17554063  0.67554063  1
  Si  Si32  1  0.00000000  0.18483460  0.47657101  1
  Si  Si33  1  0.00000000  0.52342899  0.18483460  1
  Si  Si34  1  0.00000000  0.47657101  0.81516540  1
  Si  Si35  1  0.00000000  0.81516540  0.52342899  1
  Si  Si36  1  0.50000000  0.68483460  0.02342899  1
  Si  Si37  1  0.50000000  0.31516540  0.97657101  1
  Si  Si38  1  0.50000000  0.97657101  0.68483460  1
  Si  Si39  1  0.50000000  0.02342899  0.31516540  1
