# generated using pymatgen
data_Ag3AuSe2
_symmetry_space_group_name_H-M   'P 1'
_cell_length_a   8.78084553
_cell_length_b   8.78084554
_cell_length_c   8.78084554
_cell_angle_alpha   109.47122062
_cell_angle_beta   109.47122063
_cell_angle_gamma   109.47122063
_symmetry_Int_Tables_number   1
_chemical_formula_structural   Ag3AuSe2
_chemical_formula_sum   'Ag12 Au4 Se8'
_cell_volume   521.17925649
_cell_formula_units_Z   4
loop_
 _symmetry_equiv_pos_site_id
 _symmetry_equiv_pos_as_xyz
  1  'x, y, z'
loop_
 _atom_site_type_symbol
 _atom_site_label
 _atom_site_symmetry_multiplicity
 _atom_site_fract_x
 _atom_site_fract_y
 _atom_site_fract_z
 _atom_site_occupancy
  Se  Se0  1  0.96489010  0.96489010  0.96489010  1
  Se  Se1  1  0.53510990  0.50000000  0.00000000  1
  Se  Se2  1  0.53510990  0.53510990  0.53510990  1
  Se  Se3  1  0.00000000  0.96489010  0.50000000  1
  Se  Se4  1  0.50000000  0.00000000  0.96489010  1
  Se  Se5  1  0.96489010  0.50000000  0.00000000  1
  Se  Se6  1  0.50000000  0.00000000  0.53510990  1
  Se  Se7  1  0.00000000  0.53510990  0.50000000  1
  Ag  Ag8  1  0.12809705  0.75000000  0.87809705  1
  Ag  Ag9  1  0.62190295  0.37190295  0.25000000  1
  Ag  Ag10  1  0.75000000  0.87809705  0.12809705  1
  Ag  Ag11  1  0.25000000  0.12809705  0.87809705  1
  Ag  Ag12  1  0.25000000  0.62190295  0.37190295  1
  Ag  Ag13  1  0.75000000  0.37190295  0.62190295  1
  Ag  Ag14  1  0.37190295  0.62190295  0.75000000  1
  Ag  Ag15  1  0.12809705  0.87809705  0.25000000  1
  Ag  Ag16  1  0.87809705  0.25000000  0.12809705  1
  Ag  Ag17  1  0.62190295  0.75000000  0.37190295  1
  Ag  Ag18  1  0.37190295  0.25000000  0.62190295  1
  Ag  Ag19  1  0.87809705  0.12809705  0.75000000  1
  Au  Au20  1  0.50000000  0.00000000  0.25000000  1
  Au  Au21  1  0.00000000  0.25000000  0.50000000  1
  Au  Au22  1  0.25000000  0.50000000  0.00000000  1
  Au  Au23  1  0.25000000  0.25000000  0.25000000  1
