# generated using pymatgen
data_HoZn(FeO3)2
_symmetry_space_group_name_H-M   'P 1'
_cell_length_a   5.21053727
_cell_length_b   5.44679137
_cell_length_c   7.61979087
_cell_angle_alpha   90.00225752
_cell_angle_beta   89.99384119
_cell_angle_gamma   89.99682569
_symmetry_Int_Tables_number   1
_chemical_formula_structural   HoZn(FeO3)2
_chemical_formula_sum   'Ho2 Zn2 Fe4 O12'
_cell_volume   216.25506907
_cell_formula_units_Z   2
loop_
 _symmetry_equiv_pos_site_id
 _symmetry_equiv_pos_as_xyz
  1  'x, y, z'
loop_
 _atom_site_type_symbol
 _atom_site_label
 _atom_site_symmetry_multiplicity
 _atom_site_fract_x
 _atom_site_fract_y
 _atom_site_fract_z
 _atom_site_occupancy
  Ho  Ho0  1  0.01698108  0.93205180  0.75023935  1
  Ho  Ho1  1  0.51703122  0.56796511  0.25019179  1
  Zn  Zn2  1  0.49094191  0.46214218  0.75020271  1
  Zn  Zn3  1  0.99091876  0.03791784  0.25021458  1
  Fe  Fe4  1  0.00098603  0.48785579  0.00018171  1
  Fe  Fe5  1  0.00130392  0.48786688  0.49973048  1
  Fe  Fe6  1  0.50097037  0.01213823  0.50018899  1
  Fe  Fe7  1  0.50125881  0.01210080  0.99978590  1
  O  O8  1  0.10789131  0.44926403  0.24981053  1
  O  O9  1  0.19532381  0.19505518  0.93850200  1
  O  O10  1  0.19526852  0.19481567  0.56136023  1
  O  O11  1  0.30924945  0.68860694  0.93927794  1
  O  O12  1  0.31016007  0.68930448  0.56046415  1
  O  O13  1  0.37189691  0.96373520  0.25029938  1
  O  O14  1  0.60784151  0.05072690  0.74978806  1
  O  O15  1  0.69534101  0.30491524  0.43842705  1
  O  O16  1  0.69531376  0.30518096  0.06133192  1
  O  O17  1  0.81016355  0.81071234  0.06048192  1
  O  O18  1  0.80923951  0.81137340  0.43926099  1
  O  O19  1  0.87191548  0.53627203  0.75025832  1
