# generated using pymatgen
data_SnP7Au3
_symmetry_space_group_name_H-M   'P 1'
_cell_length_a   6.39088005
_cell_length_b   6.52046952
_cell_length_c   11.14628919
_cell_angle_alpha   90.00000000
_cell_angle_beta   90.00000000
_cell_angle_gamma   108.82590931
_symmetry_Int_Tables_number   1
_chemical_formula_structural   SnP7Au3
_chemical_formula_sum   'Sn2 P14 Au6'
_cell_volume   439.63477337
_cell_formula_units_Z   2
loop_
 _symmetry_equiv_pos_site_id
 _symmetry_equiv_pos_as_xyz
  1  'x, y, z'
loop_
 _atom_site_type_symbol
 _atom_site_label
 _atom_site_symmetry_multiplicity
 _atom_site_fract_x
 _atom_site_fract_y
 _atom_site_fract_z
 _atom_site_occupancy
  P  P0  1  0.73872626  0.28318865  0.25000000  1
  P  P1  1  0.26127374  0.71681135  0.75000000  1
  P  P2  1  0.79978412  0.71049777  0.58843075  1
  P  P3  1  0.20021588  0.28950223  0.08843075  1
  P  P4  1  0.20021588  0.28950223  0.41156925  1
  P  P5  1  0.79978412  0.71049777  0.91156925  1
  P  P6  1  0.72020636  0.80485791  0.40842200  1
  P  P7  1  0.27979364  0.19514209  0.90842200  1
  P  P8  1  0.16442124  0.83523145  0.92125467  1
  P  P9  1  0.83557876  0.16476855  0.42125467  1
  P  P10  1  0.83557876  0.16476855  0.07874533  1
  P  P11  1  0.16442124  0.83523145  0.57874533  1
  P  P12  1  0.72020636  0.80485791  0.09157800  1
  P  P13  1  0.27979364  0.19514209  0.59157800  1
  Sn  Sn14  1  0.31134826  0.04041279  0.25000000  1
  Sn  Sn15  1  0.68865174  0.95958721  0.75000000  1
  Au  Au16  1  0.68453112  0.31313925  0.59788650  1
  Au  Au17  1  0.31546888  0.68686075  0.09788650  1
  Au  Au18  1  0.31546888  0.68686075  0.40211350  1
  Au  Au19  1  0.68453112  0.31313925  0.90211350  1
  Au  Au20  1  0.92672583  0.68113812  0.25000000  1
  Au  Au21  1  0.07327417  0.31886188  0.75000000  1
