# generated using pymatgen
data_Ho(FeGe)2
_symmetry_space_group_name_H-M   'P 1'
_cell_length_a   3.93029682
_cell_length_b   3.93029682
_cell_length_c   6.04036363
_cell_angle_alpha   108.98593942
_cell_angle_beta   108.98593941
_cell_angle_gamma   90.00000002
_symmetry_Int_Tables_number   1
_chemical_formula_structural   Ho(FeGe)2
_chemical_formula_sum   'Ho1 Fe2 Ge2'
_cell_volume   82.84438562
_cell_formula_units_Z   1
loop_
 _symmetry_equiv_pos_site_id
 _symmetry_equiv_pos_as_xyz
  1  'x, y, z'
loop_
 _atom_site_type_symbol
 _atom_site_label
 _atom_site_symmetry_multiplicity
 _atom_site_fract_x
 _atom_site_fract_y
 _atom_site_fract_z
 _atom_site_occupancy
  Fe  Fe0  1  0.25000000  0.75000000  0.50000000  1
  Fe  Fe1  1  0.75000000  0.25000000  0.50000000  1
  Ge  Ge2  1  0.61701757  0.61701757  0.23403514  1
  Ge  Ge3  1  0.38298243  0.38298243  0.76596486  1
  Ho  Ho4  1  0.00000000  0.00000000  0.00000000  1
