# generated using pymatgen
data_Li3TaO4
_symmetry_space_group_name_H-M   'P 1'
_cell_length_a   6.07952854
_cell_length_b   6.07952854
_cell_length_c   9.39920043
_cell_angle_alpha   108.68022957
_cell_angle_beta   108.68022959
_cell_angle_gamma   90.07688316
_symmetry_Int_Tables_number   1
_chemical_formula_structural   Li3TaO4
_chemical_formula_sum   'Li12 Ta4 O16'
_cell_volume   309.66569940
_cell_formula_units_Z   4
loop_
 _symmetry_equiv_pos_site_id
 _symmetry_equiv_pos_as_xyz
  1  'x, y, z'
loop_
 _atom_site_type_symbol
 _atom_site_label
 _atom_site_symmetry_multiplicity
 _atom_site_fract_x
 _atom_site_fract_y
 _atom_site_fract_z
 _atom_site_occupancy
  Li  Li0  1  0.94251567  0.69453655  0.13556324  1
  Li  Li1  1  0.05748433  0.30546345  0.86443676  1
  Li  Li2  1  0.69453655  0.94251567  0.63556324  1
  Li  Li3  1  0.30546345  0.05748433  0.36443676  1
  Li  Li4  1  0.80724743  0.56764623  0.38538073  1
  Li  Li5  1  0.43235377  0.19275257  0.11461927  1
  Li  Li6  1  0.19275257  0.43235377  0.61461927  1
  Li  Li7  1  0.56764623  0.80724743  0.88538073  1
  Li  Li8  1  0.56099392  0.35513358  0.87490332  1
  Li  Li9  1  0.64486642  0.43900608  0.62509668  1
  Li  Li10  1  0.43900608  0.64486642  0.12509668  1
  Li  Li11  1  0.35513358  0.56099392  0.37490332  1
  O  O12  1  0.16701537  0.94775198  0.11164680  1
  O  O13  1  0.94775198  0.16701537  0.61164680  1
  O  O14  1  0.05224802  0.83298463  0.38835320  1
  O  O15  1  0.83298463  0.05224802  0.88835320  1
  O  O16  1  0.95832536  0.71178537  0.63841016  1
  O  O17  1  0.28821463  0.04167464  0.86158984  1
  O  O18  1  0.04167464  0.28821463  0.36158984  1
  O  O19  1  0.71178537  0.95832536  0.13841016  1
  O  O20  1  0.69863435  0.42149573  0.11754602  1
  O  O21  1  0.57850427  0.30136565  0.38245398  1
  O  O22  1  0.30136565  0.57850427  0.88245398  1
  O  O23  1  0.42149573  0.69863435  0.61754602  1
  O  O24  1  0.42813718  0.17863581  0.63246425  1
  O  O25  1  0.82136419  0.57186282  0.86753575  1
  O  O26  1  0.57186282  0.82136419  0.36753575  1
  O  O27  1  0.17863581  0.42813718  0.13246425  1
  Ta  Ta28  1  0.78017061  0.06184794  0.37521058  1
  Ta  Ta29  1  0.93815206  0.21982939  0.12478942  1
  Ta  Ta30  1  0.21982939  0.93815206  0.62478942  1
  Ta  Ta31  1  0.06184794  0.78017061  0.87521058  1
