# generated using pymatgen
data_La2Te3
_symmetry_space_group_name_H-M   'P 1'
_cell_length_a   25.15310826
_cell_length_b   9.67370737
_cell_length_c   9.67370719
_cell_angle_alpha   89.99999864
_cell_angle_beta   54.76794632
_cell_angle_gamma   54.76794706
_symmetry_Int_Tables_number   1
_chemical_formula_structural   La2Te3
_chemical_formula_sum   'La16 Te24'
_cell_volume   1361.15927471
_cell_formula_units_Z   8
loop_
 _symmetry_equiv_pos_site_id
 _symmetry_equiv_pos_as_xyz
  1  'x, y, z'
loop_
 _atom_site_type_symbol
 _atom_site_label
 _atom_site_symmetry_multiplicity
 _atom_site_fract_x
 _atom_site_fract_y
 _atom_site_fract_z
 _atom_site_occupancy
  La  La0  1  0.99805146  0.12266342  0.75865629  1
  La  La1  1  0.08130787  0.62803770  0.37803770  1
  La  La2  1  0.16666700  0.25000000  0.62992985  1
  La  La3  1  0.33528154  0.37733658  0.25281068  1
  La  La4  1  0.25202513  0.87196230  0.12196230  1
  La  La5  1  0.33528154  0.11681781  0.74134371  1
  La  La6  1  0.16666700  0.75000000  0.87007015  1
  La  La7  1  0.49805146  0.25865629  0.62266342  1
  La  La8  1  0.66666700  0.37007015  0.25000000  1
  La  La9  1  0.58130787  0.87803770  0.12803770  1
  La  La10  1  0.66666700  0.12992985  0.75000000  1
  La  La11  1  0.49805146  0.74718932  0.88318219  1
  La  La12  1  0.75202513  0.62196230  0.37196230  1
  La  La13  1  0.83528154  0.24134371  0.61681781  1
  La  La14  1  0.99805146  0.38318219  0.24718932  1
  La  La15  1  0.83528154  0.75281068  0.87733658  1
  Te  Te16  1  0.05157836  0.99984640  0.34754521  1
  Te  Te17  1  0.12066079  0.49383438  0.99651025  1
  Te  Te18  1  0.05157836  0.34541852  0.49771970  1
  Te  Te19  1  0.28175464  0.15458148  0.15245479  1
  Te  Te20  1  0.28175464  0.50015360  0.00228030  1
  Te  Te21  1  0.12066079  0.64418425  0.64150838  1
  Te  Te22  1  0.38524036  0.99841116  0.34209540  1
  Te  Te23  1  0.21267321  0.85581575  0.50348975  1
  Te  Te24  1  0.44809264  0.49781747  0.00158884  1
  Te  Te25  1  0.38524036  0.34586677  0.50218253  1
  Te  Te26  1  0.21267321  0.00616562  0.85849162  1
  Te  Te27  1  0.62066079  0.14150838  0.14418425  1
  Te  Te28  1  0.62066079  0.49651025  0.99383438  1
  Te  Te29  1  0.44809264  0.65790460  0.65413323  1
  Te  Te30  1  0.71267321  0.00348975  0.35581575  1
  Te  Te31  1  0.55157836  0.84754521  0.49984640  1
  Te  Te32  1  0.78175464  0.50228030  0.00015360  1
  Te  Te33  1  0.71267321  0.35849162  0.50616562  1
  Te  Te34  1  0.55157836  0.99771970  0.84541852  1
  Te  Te35  1  0.94809264  0.15413323  0.15790460  1
  Te  Te36  1  0.94809264  0.50158884  0.99781747  1
  Te  Te37  1  0.78175464  0.65245479  0.65458148  1
  Te  Te38  1  0.88524036  0.84209540  0.49841116  1
  Te  Te39  1  0.88524036  0.00218253  0.84586677  1
