# generated using pymatgen
data_CuSe2O5
_symmetry_space_group_name_H-M   'P 1'
_cell_length_a   5.30262994
_cell_length_b   6.77359694
_cell_length_c   8.04702292
_cell_angle_alpha   108.60796112
_cell_angle_beta   90.00000000
_cell_angle_gamma   113.04282654
_symmetry_Int_Tables_number   1
_chemical_formula_structural   CuSe2O5
_chemical_formula_sum   'Cu2 Se4 O10'
_cell_volume   249.46860487
_cell_formula_units_Z   2
loop_
 _symmetry_equiv_pos_site_id
 _symmetry_equiv_pos_as_xyz
  1  'x, y, z'
loop_
 _atom_site_type_symbol
 _atom_site_label
 _atom_site_symmetry_multiplicity
 _atom_site_fract_x
 _atom_site_fract_y
 _atom_site_fract_z
 _atom_site_occupancy
  O  O0  1  0.39930884  0.24502009  0.48767263  1
  O  O1  1  0.15428874  0.75497991  0.01232737  1
  O  O2  1  0.60069116  0.75497991  0.51232737  1
  O  O3  1  0.84571126  0.24502009  0.98767263  1
  O  O4  1  0.40689110  0.24607695  0.14875814  1
  O  O5  1  0.16081415  0.75392305  0.35124186  1
  O  O6  1  0.08557229  0.00000000  0.75000000  1
  O  O7  1  0.91442771  0.00000000  0.25000000  1
  O  O8  1  0.83918585  0.24607695  0.64875814  1
  O  O9  1  0.59310890  0.75392305  0.85124186  1
  Cu  Cu10  1  0.50000000  0.00000000  0.00000000  1
  Cu  Cu11  1  0.50000000  0.00000000  0.50000000  1
  Se  Se12  1  0.22850870  0.27452476  0.32354446  1
  Se  Se13  1  0.95398394  0.72547524  0.17645554  1
  Se  Se14  1  0.77149130  0.72547524  0.67645554  1
  Se  Se15  1  0.04601606  0.27452476  0.82354446  1
