# generated using pymatgen
data_DyCoC2
_symmetry_space_group_name_H-M   'P 1'
_cell_length_a   3.57036415
_cell_length_b   3.75150271
_cell_length_c   3.75150271
_cell_angle_alpha   106.12296531
_cell_angle_beta   90.00000000
_cell_angle_gamma   90.00000000
_symmetry_Int_Tables_number   1
_chemical_formula_structural   DyCoC2
_chemical_formula_sum   'Dy1 Co1 C2'
_cell_volume   48.27211561
_cell_formula_units_Z   1
loop_
 _symmetry_equiv_pos_site_id
 _symmetry_equiv_pos_as_xyz
  1  'x, y, z'
loop_
 _atom_site_type_symbol
 _atom_site_label
 _atom_site_symmetry_multiplicity
 _atom_site_fract_x
 _atom_site_fract_y
 _atom_site_fract_z
 _atom_site_occupancy
  C  C0  1  0.50000000  0.45839390  0.84752968  1
  C  C1  1  0.50000000  0.15247032  0.54160610  1
  Co  Co2  1  0.50000000  0.61598864  0.38401136  1
  Dy  Dy3  1  0.00000000  0.99914714  0.00085286  1
