# generated using pymatgen
data_La3RuO7
_symmetry_space_group_name_H-M   'P 1'
_cell_length_a   6.74626951
_cell_length_b   6.74626951
_cell_length_c   7.70202160
_cell_angle_alpha   90.00000000
_cell_angle_beta   90.00000000
_cell_angle_gamma   112.19003130
_symmetry_Int_Tables_number   1
_chemical_formula_structural   La3RuO7
_chemical_formula_sum   'La6 Ru2 O14'
_cell_volume   324.57362149
_cell_formula_units_Z   2
loop_
 _symmetry_equiv_pos_site_id
 _symmetry_equiv_pos_as_xyz
  1  'x, y, z'
loop_
 _atom_site_type_symbol
 _atom_site_label
 _atom_site_symmetry_multiplicity
 _atom_site_fract_x
 _atom_site_fract_y
 _atom_site_fract_z
 _atom_site_occupancy
  O  O0  1  0.57937408  0.57937408  0.75000000  1
  O  O1  1  0.42062592  0.42062592  0.25000000  1
  O  O2  1  0.10062444  0.83957868  0.75000000  1
  O  O3  1  0.89937556  0.16042132  0.25000000  1
  O  O4  1  0.83957868  0.10062444  0.75000000  1
  O  O5  1  0.16042132  0.89937556  0.25000000  1
  O  O6  1  0.19214740  0.44108155  0.96020537  1
  O  O7  1  0.80785260  0.55891845  0.46020537  1
  O  O8  1  0.44108155  0.19214740  0.96020537  1
  O  O9  1  0.55891845  0.80785260  0.46020537  1
  O  O10  1  0.19214740  0.44108155  0.53979463  1
  O  O11  1  0.80785260  0.55891845  0.03979463  1
  O  O12  1  0.55891845  0.80785260  0.03979463  1
  O  O13  1  0.44108155  0.19214740  0.53979463  1
  Ru  Ru14  1  0.50000000  0.50000000  0.50000000  1
  Ru  Ru15  1  0.50000000  0.50000000  0.00000000  1
  La  La16  1  0.90898966  0.46754696  0.75000000  1
  La  La17  1  0.09101034  0.53245304  0.25000000  1
  La  La18  1  0.46754696  0.90898966  0.75000000  1
  La  La19  1  0.53245304  0.09101034  0.25000000  1
  La  La20  1  0.00000000  0.00000000  0.50000000  1
  La  La21  1  0.00000000  0.00000000  0.00000000  1
