# generated using pymatgen
data_U2PS
_symmetry_space_group_name_H-M   'P 1'
_cell_length_a   7.79113518
_cell_length_b   10.30755384
_cell_length_c   6.74997547
_cell_angle_alpha   29.20160375
_cell_angle_beta   54.75229443
_cell_angle_gamma   40.90979697
_symmetry_Int_Tables_number   1
_chemical_formula_structural   U2PS
_chemical_formula_sum   'U4 P2 S2'
_cell_volume   167.30787854
_cell_formula_units_Z   2
loop_
 _symmetry_equiv_pos_site_id
 _symmetry_equiv_pos_as_xyz
  1  'x, y, z'
loop_
 _atom_site_type_symbol
 _atom_site_label
 _atom_site_symmetry_multiplicity
 _atom_site_fract_x
 _atom_site_fract_y
 _atom_site_fract_z
 _atom_site_occupancy
  P  P0  1  0.25000118  0.50000157  0.99999303  1
  P  P1  1  0.49999882  0.99999843  0.00000697  1
  S  S2  1  0.00000116  0.00000090  0.99999520  1
  S  S3  1  0.74999884  0.49999910  0.00000480  1
  U  U4  1  0.00000858  0.50000175  0.49997691  1
  U  U5  1  0.49998818  0.49999884  0.50002582  1
  U  U6  1  0.25001182  0.00000116  0.49997418  1
  U  U7  1  0.74999142  0.99999825  0.50002309  1
