# generated using pymatgen
data_Sm2Te4O11
_symmetry_space_group_name_H-M   'P 1'
_cell_length_a   5.25687916
_cell_length_b   6.85557518
_cell_length_c   16.37757381
_cell_angle_alpha   79.54541520
_cell_angle_beta   80.76465154
_cell_angle_gamma   67.45544473
_symmetry_Int_Tables_number   1
_chemical_formula_structural   Sm2Te4O11
_chemical_formula_sum   'Sm4 Te8 O22'
_cell_volume   533.38348684
_cell_formula_units_Z   2
loop_
 _symmetry_equiv_pos_site_id
 _symmetry_equiv_pos_as_xyz
  1  'x, y, z'
loop_
 _atom_site_type_symbol
 _atom_site_label
 _atom_site_symmetry_multiplicity
 _atom_site_fract_x
 _atom_site_fract_y
 _atom_site_fract_z
 _atom_site_occupancy
  O  O0  1  0.34993733  0.25000000  0.75000000  1
  O  O1  1  0.65006267  0.75000000  0.25000000  1
  O  O2  1  0.68377341  0.31254631  0.54596782  1
  O  O3  1  0.54228754  0.18745369  0.95403218  1
  O  O4  1  0.31622659  0.68745369  0.45403218  1
  O  O5  1  0.45771246  0.81254631  0.04596782  1
  O  O6  1  0.69831648  0.87296444  0.83160448  1
  O  O7  1  0.40288540  0.62703556  0.66839552  1
  O  O8  1  0.30168352  0.12703556  0.16839552  1
  O  O9  1  0.59711460  0.37296444  0.33160448  1
  O  O10  1  0.81858216  0.86600065  0.62650808  1
  O  O11  1  0.31109089  0.63399935  0.87349192  1
  O  O12  1  0.89386657  0.94902195  0.09845798  1
  O  O13  1  0.94134650  0.55097805  0.40154202  1
  O  O14  1  0.10613343  0.05097805  0.90154202  1
  O  O15  1  0.05865350  0.44902195  0.59845798  1
  O  O16  1  0.75062931  0.96999483  0.44670029  1
  O  O17  1  0.16732442  0.53000517  0.05329971  1
  O  O18  1  0.24937069  0.03000517  0.55329971  1
  O  O19  1  0.83267558  0.46999483  0.94670029  1
  O  O20  1  0.68890911  0.36600065  0.12650808  1
  O  O21  1  0.18141784  0.13399935  0.37349192  1
  Te  Te22  1  0.91345365  0.11160774  0.62485913  1
  Te  Te23  1  0.64992052  0.38839226  0.87514087  1
  Te  Te24  1  0.08654635  0.88839226  0.37514087  1
  Te  Te25  1  0.35007948  0.61160774  0.12485913  1
  Te  Te26  1  0.10122940  0.54013496  0.69831001  1
  Te  Te27  1  0.33967437  0.95986504  0.80168999  1
  Te  Te28  1  0.89877060  0.45986504  0.30168999  1
  Te  Te29  1  0.66032563  0.04013496  0.19831001  1
  Sm  Sm30  1  0.13131214  0.19898123  0.03762964  1
  Sm  Sm31  1  0.36792302  0.30101877  0.46237036  1
  Sm  Sm32  1  0.86868786  0.80101877  0.96237036  1
  Sm  Sm33  1  0.63207698  0.69898123  0.53762964  1
