# generated using pymatgen
data_Ce(SiPd)2
_symmetry_space_group_name_H-M   'P 1'
_cell_length_a   4.20017832
_cell_length_b   4.20017832
_cell_length_c   5.84183942
_cell_angle_alpha   111.06894471
_cell_angle_beta   111.06894473
_cell_angle_gamma   90.00000006
_symmetry_Int_Tables_number   1
_chemical_formula_structural   Ce(SiPd)2
_chemical_formula_sum   'Ce1 Si2 Pd2'
_cell_volume   88.74627172
_cell_formula_units_Z   1
loop_
 _symmetry_equiv_pos_site_id
 _symmetry_equiv_pos_as_xyz
  1  'x, y, z'
loop_
 _atom_site_type_symbol
 _atom_site_label
 _atom_site_symmetry_multiplicity
 _atom_site_fract_x
 _atom_site_fract_y
 _atom_site_fract_z
 _atom_site_occupancy
  Si  Si0  1  0.61677671  0.61677671  0.23355341  1
  Si  Si1  1  0.38322329  0.38322329  0.76644659  1
  Pd  Pd2  1  0.75000000  0.25000000  0.50000000  1
  Pd  Pd3  1  0.25000000  0.75000000  0.50000000  1
  Ce  Ce4  1  0.00000000  0.00000000  0.00000000  1
