# generated using pymatgen
data_Tm2Mn3Si5
_symmetry_space_group_name_H-M   'P 1'
_cell_length_a   5.36936182
_cell_length_b   10.52898960
_cell_length_c   10.52898960
_cell_angle_alpha   90.00000000
_cell_angle_beta   90.00000000
_cell_angle_gamma   90.00000000
_symmetry_Int_Tables_number   1
_chemical_formula_structural   Tm2Mn3Si5
_chemical_formula_sum   'Tm8 Mn12 Si20'
_cell_volume   595.24542173
_cell_formula_units_Z   4
loop_
 _symmetry_equiv_pos_site_id
 _symmetry_equiv_pos_as_xyz
  1  'x, y, z'
loop_
 _atom_site_type_symbol
 _atom_site_label
 _atom_site_symmetry_multiplicity
 _atom_site_fract_x
 _atom_site_fract_y
 _atom_site_fract_z
 _atom_site_occupancy
  Tm  Tm0  1  0.00000000  0.07606471  0.23612613  1
  Tm  Tm1  1  0.00000000  0.76387387  0.07606471  1
  Tm  Tm2  1  0.00000000  0.23612613  0.92393529  1
  Tm  Tm3  1  0.00000000  0.92393529  0.76387387  1
  Tm  Tm4  1  0.50000000  0.57606471  0.26387387  1
  Tm  Tm5  1  0.50000000  0.42393529  0.73612613  1
  Tm  Tm6  1  0.50000000  0.73612613  0.57606471  1
  Tm  Tm7  1  0.50000000  0.26387387  0.42393529  1
  Mn  Mn8  1  0.25000000  0.00000000  0.50000000  1
  Mn  Mn9  1  0.25000000  0.50000000  0.00000000  1
  Mn  Mn10  1  0.75000000  0.00000000  0.50000000  1
  Mn  Mn11  1  0.75000000  0.50000000  0.00000000  1
  Mn  Mn12  1  0.00000000  0.37857389  0.35407776  1
  Mn  Mn13  1  0.00000000  0.64592224  0.37857389  1
  Mn  Mn14  1  0.00000000  0.35407776  0.62142611  1
  Mn  Mn15  1  0.00000000  0.62142611  0.64592224  1
  Mn  Mn16  1  0.50000000  0.87857389  0.14592224  1
  Mn  Mn17  1  0.50000000  0.12142611  0.85407776  1
  Mn  Mn18  1  0.50000000  0.85407776  0.87857389  1
  Mn  Mn19  1  0.50000000  0.14592224  0.12142611  1
  Si  Si20  1  0.25540435  0.00000000  0.00000000  1
  Si  Si21  1  0.24459565  0.50000000  0.50000000  1
  Si  Si22  1  0.74459565  0.00000000  0.00000000  1
  Si  Si23  1  0.75540435  0.50000000  0.50000000  1
  Si  Si24  1  0.25000000  0.17449650  0.67449650  1
  Si  Si25  1  0.25000000  0.32550350  0.17449650  1
  Si  Si26  1  0.25000000  0.67449650  0.82550350  1
  Si  Si27  1  0.25000000  0.82550350  0.32550350  1
  Si  Si28  1  0.75000000  0.82550350  0.32550350  1
  Si  Si29  1  0.75000000  0.67449650  0.82550350  1
  Si  Si30  1  0.75000000  0.32550350  0.17449650  1
  Si  Si31  1  0.75000000  0.17449650  0.67449650  1
  Si  Si32  1  0.00000000  0.18556933  0.47452986  1
  Si  Si33  1  0.00000000  0.52547014  0.18556933  1
  Si  Si34  1  0.00000000  0.47452986  0.81443067  1
  Si  Si35  1  0.00000000  0.81443067  0.52547014  1
  Si  Si36  1  0.50000000  0.68556933  0.02547014  1
  Si  Si37  1  0.50000000  0.31443067  0.97452986  1
  Si  Si38  1  0.50000000  0.97452986  0.68556933  1
  Si  Si39  1  0.50000000  0.02547014  0.31443067  1
