# generated using pymatgen
data_AlInS3
_symmetry_space_group_name_H-M   'P 1'
_cell_length_a   6.83364577
_cell_length_b   6.83364608
_cell_length_c   18.08916613
_cell_angle_alpha   90.00000000
_cell_angle_beta   90.00000000
_cell_angle_gamma   119.99999862
_symmetry_Int_Tables_number   1
_chemical_formula_structural   AlInS3
_chemical_formula_sum   'Al6 In6 S18'
_cell_volume   731.56703958
_cell_formula_units_Z   6
loop_
 _symmetry_equiv_pos_site_id
 _symmetry_equiv_pos_as_xyz
  1  'x, y, z'
loop_
 _atom_site_type_symbol
 _atom_site_label
 _atom_site_symmetry_multiplicity
 _atom_site_fract_x
 _atom_site_fract_y
 _atom_site_fract_z
 _atom_site_occupancy
  Al  Al0  1  0.66951077  0.98723055  0.48705086  1
  Al  Al1  1  0.31771979  0.33048923  0.15371786  1
  Al  Al2  1  0.33048923  0.01276945  0.98705086  1
  Al  Al3  1  0.68228021  0.66951077  0.65371786  1
  Al  Al4  1  0.98723055  0.31771979  0.32038486  1
  Al  Al5  1  0.01276945  0.68228021  0.82038486  1
  In  In6  1  0.67184181  0.66807839  0.29195032  1
  In  In7  1  0.66807839  0.99623658  0.12528332  1
  In  In8  1  0.99623658  0.32815819  0.95861632  1
  In  In9  1  0.00376342  0.67184181  0.45861632  1
  In  In10  1  0.33192161  0.00376342  0.62528332  1
  In  In11  1  0.32815819  0.33192161  0.79195032  1
  S  S12  1  0.96129791  0.33017735  0.80969069  1
  S  S13  1  0.29465526  0.00208569  0.11382634  1
  S  S14  1  0.36661985  0.33438583  0.94018179  1
  S  S15  1  0.00208569  0.70743043  0.94715934  1
  S  S16  1  0.33017735  0.36887943  0.64302369  1
  S  S17  1  0.96776599  0.63338015  0.60684879  1
  S  S18  1  0.99791431  0.29256957  0.44715934  1
  S  S19  1  0.63338015  0.66561417  0.44018179  1
  S  S20  1  0.66982265  0.63112057  0.14302369  1
  S  S21  1  0.29256957  0.29465526  0.28049334  1
  S  S22  1  0.63112057  0.96129791  0.97635669  1
  S  S23  1  0.70743043  0.70534474  0.78049334  1
  S  S24  1  0.33438583  0.96776599  0.77351579  1
  S  S25  1  0.36887943  0.03870209  0.47635669  1
  S  S26  1  0.70534474  0.99791431  0.61382634  1
  S  S27  1  0.03870209  0.66982265  0.30969069  1
  S  S28  1  0.03223401  0.36661985  0.10684879  1
  S  S29  1  0.66561417  0.03223401  0.27351579  1
