# generated using pymatgen
data_K3AsS4
_symmetry_space_group_name_H-M   'P 1'
_cell_length_a   9.25380002
_cell_length_b   9.62351332
_cell_length_c   10.72065567
_cell_angle_alpha   90.00000000
_cell_angle_beta   90.00000000
_cell_angle_gamma   90.00000000
_symmetry_Int_Tables_number   1
_chemical_formula_structural   K3AsS4
_chemical_formula_sum   'K12 As4 S16'
_cell_volume   954.71799639
_cell_formula_units_Z   4
loop_
 _symmetry_equiv_pos_site_id
 _symmetry_equiv_pos_as_xyz
  1  'x, y, z'
loop_
 _atom_site_type_symbol
 _atom_site_label
 _atom_site_symmetry_multiplicity
 _atom_site_fract_x
 _atom_site_fract_y
 _atom_site_fract_z
 _atom_site_occupancy
  S  S0  1  0.84268545  0.03223985  0.38235029  1
  S  S1  1  0.15731455  0.96776015  0.88235029  1
  S  S2  1  0.65731455  0.53223985  0.88235029  1
  S  S3  1  0.34268545  0.46776015  0.38235029  1
  S  S4  1  0.51301757  0.09269523  0.21308929  1
  S  S5  1  0.48698243  0.90730477  0.71308929  1
  S  S6  1  0.98698243  0.59269523  0.71308929  1
  S  S7  1  0.01301757  0.40730477  0.21308929  1
  S  S8  1  0.84283305  0.03209539  0.04406948  1
  S  S9  1  0.15716695  0.96790461  0.54406948  1
  S  S10  1  0.65716695  0.53209539  0.54406948  1
  S  S11  1  0.34283305  0.46790461  0.04406948  1
  S  S12  1  0.67974542  0.75552219  0.21321084  1
  S  S13  1  0.17974542  0.74447781  0.21321084  1
  S  S14  1  0.82025458  0.25552219  0.71321084  1
  S  S15  1  0.32025458  0.24447781  0.71321084  1
  K  K16  1  0.93367353  0.70092497  0.00810521  1
  K  K17  1  0.36490826  0.57381952  0.71326678  1
  K  K18  1  0.86490826  0.92618048  0.71326678  1
  K  K19  1  0.13509174  0.07381952  0.21326678  1
  K  K20  1  0.93335765  0.70067754  0.41811085  1
  K  K21  1  0.06664235  0.29932246  0.91811085  1
  K  K22  1  0.56664235  0.20067754  0.91811085  1
  K  K23  1  0.43335765  0.79932246  0.41811085  1
  K  K24  1  0.43367353  0.79907503  0.00810521  1
  K  K25  1  0.06632647  0.29907503  0.50810521  1
  K  K26  1  0.56632647  0.20092497  0.50810521  1
  K  K27  1  0.63509174  0.42618048  0.21326678  1
  As  As28  1  0.72095367  0.98044519  0.21319726  1
  As  As29  1  0.27904633  0.01955481  0.71319726  1
  As  As30  1  0.77904633  0.48044519  0.71319726  1
  As  As31  1  0.22095367  0.51955481  0.21319726  1
