# generated using pymatgen
data_SrAl4O7
_symmetry_space_group_name_H-M   'P 1'
_cell_length_a   5.59866840
_cell_length_b   8.02078623
_cell_length_c   8.02078623
_cell_angle_alpha   69.24532778
_cell_angle_beta   76.75352012
_cell_angle_gamma   76.75352008
_symmetry_Int_Tables_number   1
_chemical_formula_structural   SrAl4O7
_chemical_formula_sum   'Sr2 Al8 O14'
_cell_volume   323.48531984
_cell_formula_units_Z   2
loop_
 _symmetry_equiv_pos_site_id
 _symmetry_equiv_pos_as_xyz
  1  'x, y, z'
loop_
 _atom_site_type_symbol
 _atom_site_label
 _atom_site_symmetry_multiplicity
 _atom_site_fract_x
 _atom_site_fract_y
 _atom_site_fract_z
 _atom_site_occupancy
  O  O0  1  0.90452738  0.74439395  0.63603930  1
  O  O1  1  0.59547262  0.36396070  0.25560605  1
  O  O2  1  0.09547262  0.25560605  0.36396070  1
  O  O3  1  0.40452738  0.63603930  0.74439395  1
  O  O4  1  0.32929501  0.86645285  0.38283512  1
  O  O5  1  0.17070499  0.61716488  0.13354715  1
  O  O6  1  0.67070499  0.13354715  0.61716488  1
  O  O7  1  0.82929501  0.38283512  0.86645285  1
  O  O8  1  0.95281466  0.08091167  0.15765324  1
  O  O9  1  0.54718534  0.84234676  0.91908833  1
  O  O10  1  0.75000000  0.52482090  0.47517910  1
  O  O11  1  0.25000000  0.47517910  0.52482090  1
  O  O12  1  0.45281466  0.15765324  0.08091167  1
  O  O13  1  0.04718534  0.91908833  0.84234676  1
  Al  Al14  1  0.23618531  0.68153342  0.56088834  1
  Al  Al15  1  0.26381469  0.43911166  0.31846658  1
  Al  Al16  1  0.76381469  0.31846658  0.43911166  1
  Al  Al17  1  0.73618531  0.56088834  0.68153342  1
  Al  Al18  1  0.20424505  0.08237623  0.25524842  1
  Al  Al19  1  0.29575495  0.74475158  0.91762377  1
  Al  Al20  1  0.79575495  0.91762377  0.74475158  1
  Al  Al21  1  0.70424505  0.25524842  0.08237623  1
  Sr  Sr22  1  0.25000000  0.18916226  0.81083774  1
  Sr  Sr23  1  0.75000000  0.81083774  0.18916226  1
