# generated using pymatgen
data_Pr2SO2
_symmetry_space_group_name_H-M   'P 1'
_cell_length_a   4.02051059
_cell_length_b   4.02051059
_cell_length_c   6.90128186
_cell_angle_alpha   90.00000000
_cell_angle_beta   90.00000000
_cell_angle_gamma   119.99999992
_symmetry_Int_Tables_number   1
_chemical_formula_structural   Pr2SO2
_chemical_formula_sum   'Pr2 S1 O2'
_cell_volume   96.61016368
_cell_formula_units_Z   1
loop_
 _symmetry_equiv_pos_site_id
 _symmetry_equiv_pos_as_xyz
  1  'x, y, z'
loop_
 _atom_site_type_symbol
 _atom_site_label
 _atom_site_symmetry_multiplicity
 _atom_site_fract_x
 _atom_site_fract_y
 _atom_site_fract_z
 _atom_site_occupancy
  O  O0  1  0.33333333  0.66666667  0.62946073  1
  O  O1  1  0.66666667  0.33333333  0.37053927  1
  S  S2  1  0.00000000  0.00000000  0.00000000  1
  Pr  Pr3  1  0.66666667  0.33333333  0.72000243  1
  Pr  Pr4  1  0.33333333  0.66666667  0.27999757  1
