# generated using pymatgen
data_Pr3MoO7
_symmetry_space_group_name_H-M   'P 1'
_cell_length_a   7.78143129
_cell_length_b   7.69390426
_cell_length_c   11.05669852
_cell_angle_alpha   90.00000000
_cell_angle_beta   90.00000000
_cell_angle_gamma   90.00000000
_symmetry_Int_Tables_number   1
_chemical_formula_structural   Pr3MoO7
_chemical_formula_sum   'Pr12 Mo4 O28'
_cell_volume   661.95997786
_cell_formula_units_Z   4
loop_
 _symmetry_equiv_pos_site_id
 _symmetry_equiv_pos_as_xyz
  1  'x, y, z'
loop_
 _atom_site_type_symbol
 _atom_site_label
 _atom_site_symmetry_multiplicity
 _atom_site_fract_x
 _atom_site_fract_y
 _atom_site_fract_z
 _atom_site_occupancy
  O  O0  1  0.51440962  0.23945511  0.11782828  1
  O  O1  1  0.01441062  0.26054489  0.88217172  1
  O  O2  1  0.48559038  0.73945511  0.38217072  1
  O  O3  1  0.98559038  0.76054489  0.61782928  1
  O  O4  1  0.69130546  0.03271463  0.87459151  1
  O  O5  1  0.19130546  0.46728437  0.12540849  1
  O  O6  1  0.30869554  0.53271563  0.62540849  1
  O  O7  1  0.80869554  0.96728437  0.37459151  1
  O  O8  1  0.93646431  0.25376254  0.25450178  1
  O  O9  1  0.43646431  0.24623746  0.74549822  1
  O  O10  1  0.06353469  0.75376254  0.24549722  1
  O  O11  1  0.56353469  0.74623746  0.75450278  1
  O  O12  1  0.70367878  0.03274031  0.62957557  1
  O  O13  1  0.20367878  0.46726069  0.37042443  1
  O  O14  1  0.29632022  0.53273931  0.87042443  1
  O  O15  1  0.79632022  0.96726069  0.12957657  1
  O  O16  1  0.17531224  0.03579971  0.37495014  1
  O  O17  1  0.67531124  0.46419929  0.62504886  1
  O  O18  1  0.82468776  0.53580071  0.12504886  1
  O  O19  1  0.32468776  0.96419929  0.87495114  1
  O  O20  1  0.14452084  0.04192094  0.10761427  1
  O  O21  1  0.64452084  0.45807906  0.89238573  1
  O  O22  1  0.52965926  0.25021713  0.38292737  1
  O  O23  1  0.35547916  0.95807806  0.60761527  1
  O  O24  1  0.97033974  0.74978187  0.88292637  1
  O  O25  1  0.47034074  0.75021813  0.11707363  1
  O  O26  1  0.02965926  0.24978287  0.61707363  1
  O  O27  1  0.85547916  0.54192194  0.39238573  1
  Mo  Mo28  1  0.49832313  0.99597830  0.74915810  1
  Mo  Mo29  1  0.99832313  0.50402170  0.25084190  1
  Mo  Mo30  1  0.50167587  0.49597730  0.75084190  1
  Mo  Mo31  1  0.00167687  0.00402170  0.24915810  1
  Pr  Pr32  1  0.54277897  0.98836392  0.25350680  1
  Pr  Pr33  1  0.29190330  0.25075040  0.97367774  1
  Pr  Pr34  1  0.20809570  0.74924960  0.47367774  1
  Pr  Pr35  1  0.70809570  0.75075040  0.52632226  1
  Pr  Pr36  1  0.79190330  0.24924860  0.02632226  1
  Pr  Pr37  1  0.04277797  0.51163608  0.74649320  1
  Pr  Pr38  1  0.45722203  0.48836392  0.24649320  1
  Pr  Pr39  1  0.95722103  0.01163508  0.75350680  1
  Pr  Pr40  1  0.70020956  0.74884120  0.97863484  1
  Pr  Pr41  1  0.20020856  0.75115880  0.02136516  1
  Pr  Pr42  1  0.29979144  0.24884120  0.52136516  1
  Pr  Pr43  1  0.79979044  0.25115980  0.47863484  1
