# generated using pymatgen
data_SmCuS2
_symmetry_space_group_name_H-M   'P 1'
_cell_length_a   6.45408389
_cell_length_b   6.83519938
_cell_length_c   7.12722180
_cell_angle_alpha   90.00000000
_cell_angle_beta   90.00000000
_cell_angle_gamma   97.45117664
_symmetry_Int_Tables_number   1
_chemical_formula_structural   SmCuS2
_chemical_formula_sum   'Sm4 Cu4 S8'
_cell_volume   311.76201160
_cell_formula_units_Z   4
loop_
 _symmetry_equiv_pos_site_id
 _symmetry_equiv_pos_as_xyz
  1  'x, y, z'
loop_
 _atom_site_type_symbol
 _atom_site_label
 _atom_site_symmetry_multiplicity
 _atom_site_fract_x
 _atom_site_fract_y
 _atom_site_fract_z
 _atom_site_occupancy
  S  S0  1  0.91941497  0.00161405  0.72621699  1
  S  S1  1  0.08058503  0.49838595  0.22621699  1
  S  S2  1  0.08058503  0.99838595  0.27378301  1
  S  S3  1  0.91941497  0.50161405  0.77378301  1
  S  S4  1  0.59057064  0.77894039  0.11390654  1
  S  S5  1  0.59057064  0.27894039  0.38609346  1
  S  S6  1  0.40942936  0.22105961  0.88609346  1
  S  S7  1  0.40942936  0.72105961  0.61390654  1
  Cu  Cu8  1  0.57717413  0.05008374  0.66230719  1
  Cu  Cu9  1  0.42282587  0.94991626  0.33769281  1
  Cu  Cu10  1  0.42282587  0.44991626  0.16230719  1
  Cu  Cu11  1  0.57717413  0.55008374  0.83769281  1
  Sm  Sm12  1  0.19194170  0.80033895  0.95072929  1
  Sm  Sm13  1  0.80805830  0.69966105  0.45072929  1
  Sm  Sm14  1  0.80805830  0.19966105  0.04927071  1
  Sm  Sm15  1  0.19194170  0.30033895  0.54927071  1
