# generated using pymatgen
data_NaMg30BO32
_symmetry_space_group_name_H-M   'P 1'
_cell_length_a   8.55554723
_cell_length_b   8.46683131
_cell_length_c   8.46683131
_cell_angle_alpha   90.00000000
_cell_angle_beta   90.00000000
_cell_angle_gamma   90.00000000
_symmetry_Int_Tables_number   1
_chemical_formula_structural   NaMg30BO32
_chemical_formula_sum   'Na1 Mg30 B1 O32'
_cell_volume   613.32350286
_cell_formula_units_Z   1
loop_
 _symmetry_equiv_pos_site_id
 _symmetry_equiv_pos_as_xyz
  1  'x, y, z'
loop_
 _atom_site_type_symbol
 _atom_site_label
 _atom_site_symmetry_multiplicity
 _atom_site_fract_x
 _atom_site_fract_y
 _atom_site_fract_z
 _atom_site_occupancy
  Na  Na0  1  -0.00000000  0.00000000  -0.00000000  1
  Mg  Mg1  1  -0.00000000  0.00000000  0.50000000  1
  Mg  Mg2  1  -0.00000000  0.50000000  -0.00000000  1
  Mg  Mg3  1  0.50000000  0.00000000  -0.00000000  1
  Mg  Mg4  1  0.50000000  0.00000000  0.50000000  1
  Mg  Mg5  1  0.50000000  0.50000000  -0.00000000  1
  Mg  Mg6  1  0.50000000  0.50000000  0.50000000  1
  Mg  Mg7  1  -0.00000000  0.25105441  0.25105441  1
  Mg  Mg8  1  -0.00000000  0.25105441  0.74894559  1
  Mg  Mg9  1  -0.00000000  0.74894559  0.25105441  1
  Mg  Mg10  1  -0.00000000  0.74894559  0.74894559  1
  Mg  Mg11  1  0.50000000  0.24936726  0.24936726  1
  Mg  Mg12  1  0.50000000  0.24936726  0.75063274  1
  Mg  Mg13  1  0.50000000  0.75063274  0.24936726  1
  Mg  Mg14  1  0.50000000  0.75063274  0.75063274  1
  Mg  Mg15  1  0.24882159  0.00000000  0.24863653  1
  Mg  Mg16  1  0.24882159  0.00000000  0.75136347  1
  Mg  Mg17  1  0.25020531  0.50000000  0.25432716  1
  Mg  Mg18  1  0.25020531  0.50000000  0.74567284  1
  Mg  Mg19  1  0.75117841  0.00000000  0.24863653  1
  Mg  Mg20  1  0.75117841  0.00000000  0.75136347  1
  Mg  Mg21  1  0.74979469  0.50000000  0.25432716  1
  Mg  Mg22  1  0.74979469  0.50000000  0.74567284  1
  Mg  Mg23  1  0.24882159  0.24863653  -0.00000000  1
  Mg  Mg24  1  0.25020531  0.25432716  0.50000000  1
  Mg  Mg25  1  0.24882159  0.75136347  -0.00000000  1
  Mg  Mg26  1  0.25020531  0.74567284  0.50000000  1
  Mg  Mg27  1  0.75117841  0.24863653  -0.00000000  1
  Mg  Mg28  1  0.74979469  0.25432716  0.50000000  1
  Mg  Mg29  1  0.75117841  0.75136347  -0.00000000  1
  Mg  Mg30  1  0.74979469  0.74567284  0.50000000  1
  B  B31  1  -0.00000000  0.50000000  0.50000000  1
  O  O32  1  0.26219412  0.00000000  -0.00000000  1
  O  O33  1  0.24545648  0.00000000  0.50000000  1
  O  O34  1  0.24545648  0.50000000  -0.00000000  1
  O  O35  1  0.25317732  0.50000000  0.50000000  1
  O  O36  1  0.73780588  0.00000000  -0.00000000  1
  O  O37  1  0.75454352  0.00000000  0.50000000  1
  O  O38  1  0.75454352  0.50000000  -0.00000000  1
  O  O39  1  0.74682268  0.50000000  0.50000000  1
  O  O40  1  0.24824040  0.25085432  0.25085432  1
  O  O41  1  0.24824040  0.25085432  0.74914568  1
  O  O42  1  0.24824040  0.74914568  0.25085432  1
  O  O43  1  0.24824040  0.74914568  0.74914568  1
  O  O44  1  0.75175960  0.25085432  0.25085432  1
  O  O45  1  0.75175960  0.25085432  0.74914568  1
  O  O46  1  0.75175960  0.74914568  0.25085432  1
  O  O47  1  0.75175960  0.74914568  0.74914568  1
  O  O48  1  -0.00000000  0.00000000  0.26737520  1
  O  O49  1  -0.00000000  0.00000000  0.73262480  1
  O  O50  1  -0.00000000  0.50000000  0.29452303  1
  O  O51  1  -0.00000000  0.50000000  0.70547697  1
  O  O52  1  0.50000000  0.00000000  0.25340578  1
  O  O53  1  0.50000000  0.00000000  0.74659422  1
  O  O54  1  0.50000000  0.50000000  0.25025872  1
  O  O55  1  0.50000000  0.50000000  0.74974128  1
  O  O56  1  -0.00000000  0.26737520  -0.00000000  1
  O  O57  1  -0.00000000  0.29452303  0.50000000  1
  O  O58  1  -0.00000000  0.73262480  -0.00000000  1
  O  O59  1  -0.00000000  0.70547697  0.50000000  1
  O  O60  1  0.50000000  0.25340578  -0.00000000  1
  O  O61  1  0.50000000  0.25025872  0.50000000  1
  O  O62  1  0.50000000  0.74659422  -0.00000000  1
  O  O63  1  0.50000000  0.74974128  0.50000000  1
