# generated using pymatgen
data_Ca3TeO6
_symmetry_space_group_name_H-M   'P 1'
_cell_length_a   5.62992189
_cell_length_b   5.86955343
_cell_length_c   8.12858133
_cell_angle_alpha   90.00000000
_cell_angle_beta   90.24522456
_cell_angle_gamma   90.00000000
_symmetry_Int_Tables_number   1
_chemical_formula_structural   Ca3TeO6
_chemical_formula_sum   'Ca6 Te2 O12'
_cell_volume   268.60754500
_cell_formula_units_Z   2
loop_
 _symmetry_equiv_pos_site_id
 _symmetry_equiv_pos_as_xyz
  1  'x, y, z'
loop_
 _atom_site_type_symbol
 _atom_site_label
 _atom_site_symmetry_multiplicity
 _atom_site_fract_x
 _atom_site_fract_y
 _atom_site_fract_z
 _atom_site_occupancy
  O  O0  1  0.67099910  0.22593101  0.42813529  1
  O  O1  1  0.82900090  0.72593101  0.07186471  1
  O  O2  1  0.32900090  0.77406899  0.57186471  1
  O  O3  1  0.17099910  0.27406899  0.92813529  1
  O  O4  1  0.21809915  0.32066765  0.54966617  1
  O  O5  1  0.28190085  0.82066765  0.95033383  1
  O  O6  1  0.78190085  0.67933235  0.45033383  1
  O  O7  1  0.71809915  0.17933235  0.04966617  1
  O  O8  1  0.11464594  0.05679573  0.22454173  1
  O  O9  1  0.38535406  0.55679573  0.27545827  1
  O  O10  1  0.88535406  0.94320427  0.77545827  1
  O  O11  1  0.61464594  0.44320427  0.72454173  1
  Ca  Ca12  1  0.01598587  0.55322350  0.74420526  1
  Ca  Ca13  1  0.48401413  0.05322350  0.75579474  1
  Ca  Ca14  1  0.98401413  0.44677650  0.25579474  1
  Ca  Ca15  1  0.51598587  0.94677650  0.24420526  1
  Ca  Ca16  1  0.50000000  0.50000000  0.00000000  1
  Ca  Ca17  1  0.00000000  0.00000000  0.50000000  1
  Te  Te18  1  0.50000000  0.50000000  0.50000000  1
  Te  Te19  1  0.00000000  0.00000000  0.00000000  1
