# generated using pymatgen
data_MgCu3P3O13
_symmetry_space_group_name_H-M   'P 1'
_cell_length_a   6.13806269
_cell_length_b   7.56695700
_cell_length_c   10.08761349
_cell_angle_alpha   100.58970238
_cell_angle_beta   90.00000000
_cell_angle_gamma   90.00000000
_symmetry_Int_Tables_number   1
_chemical_formula_structural   MgCu3P3O13
_chemical_formula_sum   'Mg2 Cu6 P6 O26'
_cell_volume   460.55401610
_cell_formula_units_Z   2
loop_
 _symmetry_equiv_pos_site_id
 _symmetry_equiv_pos_as_xyz
  1  'x, y, z'
loop_
 _atom_site_type_symbol
 _atom_site_label
 _atom_site_symmetry_multiplicity
 _atom_site_fract_x
 _atom_site_fract_y
 _atom_site_fract_z
 _atom_site_occupancy
  Mg  Mg0  1  0.75000000  0.64372388  0.17821919  1
  Mg  Mg1  1  0.25000000  0.35627612  0.82178081  1
  Cu  Cu2  1  0.25000000  0.35081651  0.20298151  1
  Cu  Cu3  1  0.75000000  0.64918349  0.79701849  1
  Cu  Cu4  1  0.25000000  0.76143122  0.43082401  1
  Cu  Cu5  1  0.50000000  -0.00000000  -0.00000000  1
  Cu  Cu6  1  0.75000000  0.23856878  0.56917599  1
  Cu  Cu7  1  -0.00000000  -0.00000000  -0.00000000  1
  P  P8  1  0.25000000  0.21038307  0.48880019  1
  P  P9  1  0.75000000  0.78961693  0.51119981  1
  P  P10  1  0.25000000  0.73757421  0.75933863  1
  P  P11  1  0.75000000  0.26242579  0.24066137  1
  P  P12  1  0.75000000  0.31992203  0.88746921  1
  P  P13  1  0.25000000  0.68007797  0.11253079  1
  O  O14  1  0.75000000  0.37964915  0.74565287  1
  O  O15  1  0.56214110  0.75101506  0.40351395  1
  O  O16  1  0.25000000  0.79997953  0.62534799  1
  O  O17  1  0.53508670  0.21416387  0.89362580  1
  O  O18  1  0.75000000  0.64395417  0.59954972  1
  O  O19  1  0.75000000  0.88088447  0.90436925  1
  O  O20  1  0.25000000  0.35604583  0.40045028  1
  O  O21  1  0.03508670  0.78583613  0.10637420  1
  O  O22  1  0.25000000  0.02501556  0.39923445  1
  O  O23  1  0.75000000  0.97498444  0.60076555  1
  O  O24  1  0.06254785  0.61166876  0.78867142  1
  O  O25  1  0.25000000  0.11911553  0.09563075  1
  O  O26  1  0.56254785  0.38833124  0.21132858  1
  O  O27  1  0.75000000  0.50502553  0.98019905  1
  O  O28  1  0.75000000  0.20002047  0.37465201  1
  O  O29  1  0.46491330  0.78583613  0.10637420  1
  O  O30  1  0.93785890  0.75101506  0.40351395  1
  O  O31  1  0.43785890  0.24898494  0.59648605  1
  O  O32  1  0.43745215  0.61166876  0.78867142  1
  O  O33  1  0.25000000  0.62035085  0.25434713  1
  O  O34  1  0.75000000  0.08772604  0.12870417  1
  O  O35  1  0.25000000  0.91227396  0.87129583  1
  O  O36  1  0.93745215  0.38833124  0.21132858  1
  O  O37  1  0.96491330  0.21416387  0.89362580  1
  O  O38  1  0.06214110  0.24898494  0.59648605  1
  O  O39  1  0.25000000  0.49497447  0.01980095  1
