# generated using pymatgen
data_Ba5Mg18Si13
_symmetry_space_group_name_H-M   'P 1'
_cell_length_a   14.55980273
_cell_length_b   14.55980273
_cell_length_c   4.50301300
_cell_angle_alpha   90.00000000
_cell_angle_beta   90.00000000
_cell_angle_gamma   119.99999998
_symmetry_Int_Tables_number   1
_chemical_formula_structural   Ba5Mg18Si13
_chemical_formula_sum   'Ba5 Mg18 Si13'
_cell_volume   826.69405420
_cell_formula_units_Z   1
loop_
 _symmetry_equiv_pos_site_id
 _symmetry_equiv_pos_as_xyz
  1  'x, y, z'
loop_
 _atom_site_type_symbol
 _atom_site_label
 _atom_site_symmetry_multiplicity
 _atom_site_fract_x
 _atom_site_fract_y
 _atom_site_fract_z
 _atom_site_occupancy
  Mg  Mg0  1  0.17731731  0.37271468  0.00000000  1
  Mg  Mg1  1  0.80460263  0.62728532  0.00000000  1
  Mg  Mg2  1  0.37271468  0.17731731  0.00000000  1
  Mg  Mg3  1  0.82268269  0.19539737  0.00000000  1
  Mg  Mg4  1  0.19539737  0.82268269  0.00000000  1
  Mg  Mg5  1  0.27763468  0.00000000  0.50000000  1
  Mg  Mg6  1  0.72236532  0.72236532  0.50000000  1
  Mg  Mg7  1  0.00000000  0.27763468  0.50000000  1
  Mg  Mg8  1  0.87808823  0.51698581  0.50000000  1
  Mg  Mg9  1  0.63889758  0.12191177  0.50000000  1
  Mg  Mg10  1  0.48301419  0.36110242  0.50000000  1
  Mg  Mg11  1  0.36110242  0.48301419  0.50000000  1
  Mg  Mg12  1  0.12191177  0.63889758  0.50000000  1
  Mg  Mg13  1  0.51698581  0.87808823  0.50000000  1
  Mg  Mg14  1  0.44188698  0.00000000  0.00000000  1
  Mg  Mg15  1  0.55811302  0.55811302  0.00000000  1
  Mg  Mg16  1  0.00000000  0.44188698  0.00000000  1
  Mg  Mg17  1  0.62728532  0.80460263  0.00000000  1
  Si  Si18  1  0.30869074  0.83355367  0.50000000  1
  Si  Si19  1  0.47513707  0.16644633  0.50000000  1
  Si  Si20  1  0.69130926  0.52486293  0.50000000  1
  Si  Si21  1  0.52486293  0.69130926  0.50000000  1
  Si  Si22  1  0.16644633  0.47513707  0.50000000  1
  Si  Si23  1  0.00000000  0.00000000  0.00000000  1
  Si  Si24  1  0.16595825  0.00000000  0.00000000  1
  Si  Si25  1  0.83404175  0.83404175  0.00000000  1
  Si  Si26  1  0.00000000  0.16595825  0.00000000  1
  Si  Si27  1  0.62953241  0.00000000  0.00000000  1
  Si  Si28  1  0.37046759  0.37046759  0.00000000  1
  Si  Si29  1  0.00000000  0.62953241  0.00000000  1
  Si  Si30  1  0.83355367  0.30869074  0.50000000  1
  Ba  Ba31  1  0.00000000  0.81991402  0.50000000  1
  Ba  Ba32  1  0.18008598  0.18008598  0.50000000  1
  Ba  Ba33  1  0.81991402  0.00000000  0.50000000  1
  Ba  Ba34  1  0.66666667  0.33333333  0.00000000  1
  Ba  Ba35  1  0.33333333  0.66666667  0.00000000  1
