# generated using pymatgen
data_SrSO4
_symmetry_space_group_name_H-M   'P 1'
_cell_length_a   5.45618356
_cell_length_b   6.96675686
_cell_length_c   8.45326529
_cell_angle_alpha   90.00000000
_cell_angle_beta   90.00000000
_cell_angle_gamma   90.00000000
_symmetry_Int_Tables_number   1
_chemical_formula_structural   SrSO4
_chemical_formula_sum   'Sr4 S4 O16'
_cell_volume   321.32471077
_cell_formula_units_Z   4
loop_
 _symmetry_equiv_pos_site_id
 _symmetry_equiv_pos_as_xyz
  1  'x, y, z'
loop_
 _atom_site_type_symbol
 _atom_site_label
 _atom_site_symmetry_multiplicity
 _atom_site_fract_x
 _atom_site_fract_y
 _atom_site_fract_z
 _atom_site_occupancy
  O  O0  1  0.47281377  0.80875601  0.07687248  1
  O  O1  1  0.97281377  0.19124399  0.92312752  1
  O  O2  1  0.52718623  0.30875601  0.42312752  1
  O  O3  1  0.02718623  0.69124399  0.57687248  1
  O  O4  1  0.52718623  0.19124399  0.92312752  1
  O  O5  1  0.02718623  0.80875601  0.07687248  1
  O  O6  1  0.47281377  0.69124399  0.57687248  1
  O  O7  1  0.97281377  0.30875601  0.42312752  1
  O  O8  1  0.75000000  0.09159898  0.59604594  1
  O  O9  1  0.25000000  0.90840102  0.40395406  1
  O  O10  1  0.25000000  0.59159898  0.90395406  1
  O  O11  1  0.75000000  0.40840102  0.09604594  1
  O  O12  1  0.75000000  0.04040427  0.30813778  1
  O  O13  1  0.25000000  0.95959573  0.69186222  1
  O  O14  1  0.25000000  0.54040427  0.19186222  1
  O  O15  1  0.75000000  0.45959573  0.80813778  1
  S  S16  1  0.75000000  0.31696747  0.93902647  1
  S  S17  1  0.25000000  0.68303253  0.06097353  1
  S  S18  1  0.25000000  0.81696747  0.56097353  1
  S  S19  1  0.75000000  0.18303253  0.43902647  1
  Sr  Sr20  1  0.25000000  0.34287822  0.68466770  1
  Sr  Sr21  1  0.75000000  0.65712178  0.31533230  1
  Sr  Sr22  1  0.75000000  0.84287822  0.81533230  1
  Sr  Sr23  1  0.25000000  0.15712178  0.18466770  1
