# generated using pymatgen
data_TlGeS2
_symmetry_space_group_name_H-M   'P 1'
_cell_length_a   6.74337642
_cell_length_b   9.26317690
_cell_length_c   14.53127431
_cell_angle_alpha   90.00000000
_cell_angle_beta   90.00000000
_cell_angle_gamma   90.00000000
_symmetry_Int_Tables_number   1
_chemical_formula_structural   TlGeS2
_chemical_formula_sum   'Tl8 Ge8 S16'
_cell_volume   907.69733843
_cell_formula_units_Z   8
loop_
 _symmetry_equiv_pos_site_id
 _symmetry_equiv_pos_as_xyz
  1  'x, y, z'
loop_
 _atom_site_type_symbol
 _atom_site_label
 _atom_site_symmetry_multiplicity
 _atom_site_fract_x
 _atom_site_fract_y
 _atom_site_fract_z
 _atom_site_occupancy
  S  S0  1  0.00492061  0.64434882  0.65442573  1
  S  S1  1  0.00492061  0.14434882  0.84557427  1
  S  S2  1  0.50492061  0.85565118  0.15442573  1
  S  S3  1  0.49507939  0.64434882  0.65442573  1
  S  S4  1  0.99507939  0.35565118  0.34557427  1
  S  S5  1  0.99507939  0.85565118  0.15442573  1
  S  S6  1  0.49507939  0.14434882  0.84557427  1
  S  S7  1  0.50492061  0.35565118  0.34557427  1
  S  S8  1  0.75000000  0.97827615  0.58679507  1
  S  S9  1  0.25000000  0.02172385  0.41320493  1
  S  S10  1  0.75000000  0.47827615  0.91320493  1
  S  S11  1  0.25000000  0.82894851  0.92573980  1
  S  S12  1  0.75000000  0.67105149  0.42573980  1
  S  S13  1  0.25000000  0.32894851  0.57426020  1
  S  S14  1  0.75000000  0.17105149  0.07426020  1
  S  S15  1  0.25000000  0.52172385  0.08679507  1
  Ge  Ge16  1  0.25000000  0.08426870  0.95716491  1
  Ge  Ge17  1  0.25000000  0.75640071  0.07318136  1
  Ge  Ge18  1  0.75000000  0.24359929  0.92681864  1
  Ge  Ge19  1  0.25000000  0.25640071  0.42681864  1
  Ge  Ge20  1  0.75000000  0.74359929  0.57318136  1
  Ge  Ge21  1  0.25000000  0.58426870  0.54283509  1
  Ge  Ge22  1  0.75000000  0.41573130  0.45716491  1
  Ge  Ge23  1  0.75000000  0.91573130  0.04283509  1
  Tl  Tl24  1  0.75000000  0.85861492  0.81828872  1
  Tl  Tl25  1  0.25000000  0.14138508  0.18171128  1
  Tl  Tl26  1  0.75000000  0.35861492  0.68171128  1
  Tl  Tl27  1  0.25000000  0.64138508  0.31828872  1
  Tl  Tl28  1  0.75000000  0.51690659  0.12271782  1
  Tl  Tl29  1  0.25000000  0.48309341  0.87728218  1
  Tl  Tl30  1  0.75000000  0.01690659  0.37728218  1
  Tl  Tl31  1  0.25000000  0.98309341  0.62271782  1
