# generated using pymatgen
data_Co2(GeSe)3
_symmetry_space_group_name_H-M   'P 1'
_cell_length_a   8.37761770
_cell_length_b   8.37761770
_cell_length_c   8.37761770
_cell_angle_alpha   89.94249200
_cell_angle_beta   89.94249200
_cell_angle_gamma   89.94249200
_symmetry_Int_Tables_number   1
_chemical_formula_structural   Co2(GeSe)3
_chemical_formula_sum   'Co8 Ge12 Se12'
_cell_volume   587.97783975
_cell_formula_units_Z   4
loop_
 _symmetry_equiv_pos_site_id
 _symmetry_equiv_pos_as_xyz
  1  'x, y, z'
loop_
 _atom_site_type_symbol
 _atom_site_label
 _atom_site_symmetry_multiplicity
 _atom_site_fract_x
 _atom_site_fract_y
 _atom_site_fract_z
 _atom_site_occupancy
  Co  Co0  1  0.25079198  0.25079198  0.25079198  1
  Co  Co1  1  0.75130957  0.75130957  0.75130957  1
  Co  Co2  1  0.25184158  0.75324340  0.25348809  1
  Co  Co3  1  0.25348809  0.25184158  0.75324340  1
  Co  Co4  1  0.75324340  0.25348809  0.25184158  1
  Co  Co5  1  0.24780308  0.74824449  0.75020245  1
  Co  Co6  1  0.75020245  0.24780308  0.74824449  1
  Co  Co7  1  0.74824449  0.75020245  0.24780308  1
  Ge  Ge8  1  0.32922777  0.99960335  0.84172762  1
  Ge  Ge9  1  0.84172762  0.32922777  0.99960335  1
  Ge  Ge10  1  0.99960335  0.84172762  0.32922777  1
  Ge  Ge11  1  0.67105636  0.00287329  0.15793695  1
  Ge  Ge12  1  0.15793695  0.67105636  0.00287329  1
  Ge  Ge13  1  0.00287329  0.15793695  0.67105636  1
  Ge  Ge14  1  0.82792652  0.49836264  0.65878375  1
  Ge  Ge15  1  0.65878375  0.82792652  0.49836264  1
  Ge  Ge16  1  0.49836264  0.65878375  0.82792652  1
  Ge  Ge17  1  0.17264469  0.50305000  0.34549278  1
  Ge  Ge18  1  0.34549278  0.17264469  0.50305000  1
  Ge  Ge19  1  0.50305000  0.34549278  0.17264469  1
  Se  Se20  1  0.65624297  0.99765662  0.85083833  1
  Se  Se21  1  0.85083833  0.65624297  0.99765662  1
  Se  Se22  1  0.99765662  0.85083833  0.65624297  1
  Se  Se23  1  0.34531180  0.00472458  0.14929245  1
  Se  Se24  1  0.14929245  0.34531180  0.00472458  1
  Se  Se25  1  0.00472458  0.14929245  0.34531180  1
  Se  Se26  1  0.15549750  0.49929707  0.65212823  1
  Se  Se27  1  0.65212823  0.15549750  0.49929707  1
  Se  Se28  1  0.49929707  0.65212823  0.15549750  1
  Se  Se29  1  0.84498683  0.50194024  0.35147302  1
  Se  Se30  1  0.35147302  0.84498683  0.50194024  1
  Se  Se31  1  0.50194024  0.35147302  0.84498683  1
