# generated using pymatgen
data_BeTl2F4
_symmetry_space_group_name_H-M   'P 1'
_cell_length_a   5.91222337
_cell_length_b   7.79969846
_cell_length_c   10.71226267
_cell_angle_alpha   90.00000000
_cell_angle_beta   90.00000000
_cell_angle_gamma   90.00000000
_symmetry_Int_Tables_number   1
_chemical_formula_structural   BeTl2F4
_chemical_formula_sum   'Be4 Tl8 F16'
_cell_volume   493.98056216
_cell_formula_units_Z   4
loop_
 _symmetry_equiv_pos_site_id
 _symmetry_equiv_pos_as_xyz
  1  'x, y, z'
loop_
 _atom_site_type_symbol
 _atom_site_label
 _atom_site_symmetry_multiplicity
 _atom_site_fract_x
 _atom_site_fract_y
 _atom_site_fract_z
 _atom_site_occupancy
  Be  Be0  1  0.25000000  0.22965255  0.42289800  1
  Be  Be1  1  0.25000000  0.72965255  0.07710200  1
  Be  Be2  1  0.75000000  0.27034745  0.92289800  1
  Be  Be3  1  0.75000000  0.77034745  0.57710200  1
  F  F4  1  0.25000000  0.52927296  0.08211242  1
  F  F5  1  0.75000000  0.47072704  0.91788758  1
  F  F6  1  0.25000000  0.02927296  0.41788758  1
  F  F7  1  0.75000000  0.97072704  0.58211242  1
  F  F8  1  0.75000000  0.70518539  0.43663969  1
  F  F9  1  0.25000000  0.79481461  0.93663969  1
  F  F10  1  0.25000000  0.29481461  0.56336031  1
  F  F11  1  0.75000000  0.20518539  0.06336031  1
  F  F12  1  0.96864126  0.69668624  0.64102897  1
  F  F13  1  0.46864126  0.30331376  0.35897103  1
  F  F14  1  0.53135874  0.19668624  0.85897103  1
  F  F15  1  0.03135874  0.80331376  0.14102897  1
  F  F16  1  0.03135874  0.30331376  0.35897103  1
  F  F17  1  0.53135874  0.69668624  0.64102897  1
  F  F18  1  0.46864126  0.80331376  0.14102897  1
  F  F19  1  0.96864126  0.19668624  0.85897103  1
  Tl  Tl20  1  0.25000000  0.49062626  0.80491415  1
  Tl  Tl21  1  0.75000000  0.50937374  0.19508585  1
  Tl  Tl22  1  0.25000000  0.99062626  0.69508585  1
  Tl  Tl23  1  0.75000000  0.00937374  0.30491415  1
  Tl  Tl24  1  0.25000000  0.66831835  0.41704654  1
  Tl  Tl25  1  0.75000000  0.33168165  0.58295346  1
  Tl  Tl26  1  0.25000000  0.16831835  0.08295346  1
  Tl  Tl27  1  0.75000000  0.83168165  0.91704654  1
