# generated using pymatgen
data_K2BeF4
_symmetry_space_group_name_H-M   'P 1'
_cell_length_a   5.78144960
_cell_length_b   7.40387823
_cell_length_c   10.06651185
_cell_angle_alpha   90.00000000
_cell_angle_beta   90.00000000
_cell_angle_gamma   90.00000000
_symmetry_Int_Tables_number   1
_chemical_formula_structural   K2BeF4
_chemical_formula_sum   'K8 Be4 F16'
_cell_volume   430.89853795
_cell_formula_units_Z   4
loop_
 _symmetry_equiv_pos_site_id
 _symmetry_equiv_pos_as_xyz
  1  'x, y, z'
loop_
 _atom_site_type_symbol
 _atom_site_label
 _atom_site_symmetry_multiplicity
 _atom_site_fract_x
 _atom_site_fract_y
 _atom_site_fract_z
 _atom_site_occupancy
  Be  Be0  1  0.25384065  0.73145799  0.08081237  1
  Be  Be1  1  0.75384065  0.26854201  0.91918763  1
  Be  Be2  1  0.75384065  0.76854201  0.58081237  1
  Be  Be3  1  0.25384065  0.23145799  0.41918763  1
  F  F4  1  0.47446748  0.80344568  0.15443519  1
  F  F5  1  0.97446748  0.19655432  0.84556481  1
  F  F6  1  0.97446748  0.69655432  0.65443519  1
  F  F7  1  0.47446748  0.30344568  0.34556481  1
  F  F8  1  0.03185862  0.30527558  0.34791874  1
  F  F9  1  0.53185862  0.69472442  0.65208126  1
  F  F10  1  0.53185862  0.19472442  0.84791874  1
  F  F11  1  0.03185862  0.80527558  0.15208126  1
  F  F12  1  0.25207765  0.02146008  0.41955445  1
  F  F13  1  0.75207765  0.97853992  0.58044555  1
  F  F14  1  0.75207765  0.47853992  0.91955445  1
  F  F15  1  0.25207765  0.52146008  0.08044555  1
  F  F16  1  0.25650329  0.31090088  0.56490429  1
  F  F17  1  0.75650329  0.68909912  0.43509571  1
  F  F18  1  0.75650329  0.18909912  0.06490429  1
  F  F19  1  0.25650329  0.81090088  0.93509571  1
  K  K20  1  0.25467438  0.49089263  0.80660857  1
  K  K21  1  0.75467438  0.50910737  0.19339143  1
  K  K22  1  0.75467438  0.00910737  0.30660857  1
  K  K23  1  0.25467438  0.99089263  0.69339143  1
  K  K24  1  0.25477793  0.66017616  0.41214377  1
  K  K25  1  0.75477793  0.33982384  0.58785623  1
  K  K26  1  0.75477793  0.83982384  0.91214377  1
  K  K27  1  0.25477793  0.16017616  0.08785623  1
