# generated using pymatgen
data_Zn2SiO4
_symmetry_space_group_name_H-M   'P 1'
_cell_length_a   8.75260173
_cell_length_b   8.75260173
_cell_length_c   8.75260173
_cell_angle_alpha   107.87354429
_cell_angle_beta   107.87354428
_cell_angle_gamma   107.87354433
_symmetry_Int_Tables_number   1
_chemical_formula_structural   Zn2SiO4
_chemical_formula_sum   'Zn12 Si6 O24'
_cell_volume   544.56079262
_cell_formula_units_Z   6
loop_
 _symmetry_equiv_pos_site_id
 _symmetry_equiv_pos_as_xyz
  1  'x, y, z'
loop_
 _atom_site_type_symbol
 _atom_site_label
 _atom_site_symmetry_multiplicity
 _atom_site_fract_x
 _atom_site_fract_y
 _atom_site_fract_z
 _atom_site_occupancy
  O  O0  1  0.35323526  0.36017018  0.03395322  1
  O  O1  1  0.36017018  0.03395322  0.35323526  1
  O  O2  1  0.03395322  0.35323526  0.36017018  1
  O  O3  1  0.64676474  0.63982982  0.96604678  1
  O  O4  1  0.63982982  0.96604678  0.64676474  1
  O  O5  1  0.96604678  0.64676474  0.63982982  1
  O  O6  1  0.68769157  0.73355740  0.40104829  1
  O  O7  1  0.73355740  0.40104829  0.68769157  1
  O  O8  1  0.40104829  0.68769157  0.73355740  1
  O  O9  1  0.31230843  0.26644260  0.59895171  1
  O  O10  1  0.26644260  0.59895171  0.31230843  1
  O  O11  1  0.59895171  0.31230843  0.26644260  1
  O  O12  1  0.97212740  0.02601146  0.69076484  1
  O  O13  1  0.02601146  0.69076484  0.97212740  1
  O  O14  1  0.69076484  0.97212740  0.02601146  1
  O  O15  1  0.02787260  0.97398854  0.30923516  1
  O  O16  1  0.97398854  0.30923516  0.02787260  1
  O  O17  1  0.30923516  0.02787260  0.97398854  1
  O  O18  1  0.57227392  0.24889700  0.93362977  1
  O  O19  1  0.93362977  0.57227392  0.24889700  1
  O  O20  1  0.24889700  0.93362977  0.57227392  1
  O  O21  1  0.42772608  0.75110300  0.06637023  1
  O  O22  1  0.06637023  0.42772608  0.75110300  1
  O  O23  1  0.75110300  0.06637023  0.42772608  1
  Si  Si24  1  0.45976993  0.23520290  0.05345155  1
  Si  Si25  1  0.05345155  0.45976993  0.23520290  1
  Si  Si26  1  0.23520290  0.05345155  0.45976993  1
  Si  Si27  1  0.54023007  0.76479710  0.94654845  1
  Si  Si28  1  0.94654845  0.54023007  0.76479710  1
  Si  Si29  1  0.76479710  0.94654845  0.54023007  1
  Zn  Zn30  1  0.43991245  0.61018398  0.20465966  1
  Zn  Zn31  1  0.61018398  0.20465966  0.43991245  1
  Zn  Zn32  1  0.20465966  0.43991245  0.61018398  1
  Zn  Zn33  1  0.56008755  0.38981602  0.79534034  1
  Zn  Zn34  1  0.38981602  0.79534034  0.56008755  1
  Zn  Zn35  1  0.79534034  0.56008755  0.38981602  1
  Zn  Zn36  1  0.12489077  0.90086824  0.72208826  1
  Zn  Zn37  1  0.72208826  0.12489077  0.90086824  1
  Zn  Zn38  1  0.90086824  0.72208826  0.12489077  1
  Zn  Zn39  1  0.87510923  0.09913176  0.27791174  1
  Zn  Zn40  1  0.27791174  0.87510923  0.09913176  1
  Zn  Zn41  1  0.09913176  0.27791174  0.87510923  1
