# generated using pymatgen
data_Tl3AsS4
_symmetry_space_group_name_H-M   'P 1'
_cell_length_a   9.27887093
_cell_length_b   9.34548956
_cell_length_c   11.13504387
_cell_angle_alpha   90.00000000
_cell_angle_beta   90.00000000
_cell_angle_gamma   90.00000000
_symmetry_Int_Tables_number   1
_chemical_formula_structural   Tl3AsS4
_chemical_formula_sum   'Tl12 As4 S16'
_cell_volume   965.58191451
_cell_formula_units_Z   4
loop_
 _symmetry_equiv_pos_site_id
 _symmetry_equiv_pos_as_xyz
  1  'x, y, z'
loop_
 _atom_site_type_symbol
 _atom_site_label
 _atom_site_symmetry_multiplicity
 _atom_site_fract_x
 _atom_site_fract_y
 _atom_site_fract_z
 _atom_site_occupancy
  S  S0  1  0.00432527  0.93038898  0.75000000  1
  S  S1  1  0.49567473  0.43038898  0.25000000  1
  S  S2  1  0.50432527  0.56961102  0.75000000  1
  S  S3  1  0.99567473  0.06961102  0.25000000  1
  S  S4  1  0.84227551  0.53308603  0.58893246  1
  S  S5  1  0.34227551  0.96691397  0.91106754  1
  S  S6  1  0.65772449  0.03308603  0.41106754  1
  S  S7  1  0.15772449  0.46691397  0.08893246  1
  S  S8  1  0.15772449  0.46691397  0.41106754  1
  S  S9  1  0.65772449  0.03308603  0.08893246  1
  S  S10  1  0.34227551  0.96691397  0.58893246  1
  S  S11  1  0.84227551  0.53308603  0.91106754  1
  S  S12  1  0.68943865  0.23849102  0.75000000  1
  S  S13  1  0.18943865  0.26150898  0.75000000  1
  S  S14  1  0.81056135  0.73849102  0.25000000  1
  S  S15  1  0.31056135  0.76150898  0.25000000  1
  As  As16  1  0.28022625  0.52601339  0.25000000  1
  As  As17  1  0.21977375  0.02601339  0.75000000  1
  As  As18  1  0.78022625  0.97398661  0.25000000  1
  As  As19  1  0.71977375  0.47398661  0.75000000  1
  Tl  Tl20  1  0.92646895  0.19455895  0.55584041  1
  Tl  Tl21  1  0.42646895  0.30544105  0.94415959  1
  Tl  Tl22  1  0.57353105  0.69455895  0.44415959  1
  Tl  Tl23  1  0.07353105  0.80544105  0.05584041  1
  Tl  Tl24  1  0.07353105  0.80544105  0.44415959  1
  Tl  Tl25  1  0.57353105  0.69455895  0.05584041  1
  Tl  Tl26  1  0.42646895  0.30544105  0.55584041  1
  Tl  Tl27  1  0.92646895  0.19455895  0.94415959  1
  Tl  Tl28  1  0.40251411  0.10560866  0.25000000  1
  Tl  Tl29  1  0.90251411  0.39439134  0.25000000  1
  Tl  Tl30  1  0.09748589  0.60560866  0.75000000  1
  Tl  Tl31  1  0.59748589  0.89439134  0.75000000  1
