# generated using pymatgen
data_Ag5GeO4
_symmetry_space_group_name_H-M   'P 1'
_cell_length_a   6.54620911
_cell_length_b   9.28214462
_cell_length_c   10.07194275
_cell_angle_alpha   90.00000000
_cell_angle_beta   90.00000000
_cell_angle_gamma   91.04838154
_symmetry_Int_Tables_number   1
_chemical_formula_structural   Ag5GeO4
_chemical_formula_sum   'Ag20 Ge4 O16'
_cell_volume   611.89759550
_cell_formula_units_Z   4
loop_
 _symmetry_equiv_pos_site_id
 _symmetry_equiv_pos_as_xyz
  1  'x, y, z'
loop_
 _atom_site_type_symbol
 _atom_site_label
 _atom_site_symmetry_multiplicity
 _atom_site_fract_x
 _atom_site_fract_y
 _atom_site_fract_z
 _atom_site_occupancy
  O  O0  1  0.50003653  0.72225813  0.56099017  1
  O  O1  1  0.99996347  0.77774187  0.06099017  1
  O  O2  1  0.49996347  0.27774187  0.43900983  1
  O  O3  1  0.00003653  0.22225813  0.93900983  1
  O  O4  1  0.48366129  0.40330702  0.70985721  1
  O  O5  1  0.01633871  0.09669298  0.20985721  1
  O  O6  1  0.51633871  0.59669298  0.29014279  1
  O  O7  1  0.98366129  0.90330702  0.79014279  1
  O  O8  1  0.71230325  0.14306093  0.65683532  1
  O  O9  1  0.75687714  0.63849110  0.86028410  1
  O  O10  1  0.78769675  0.35693907  0.15683532  1
  O  O11  1  0.21230325  0.64306093  0.84316468  1
  O  O12  1  0.25687714  0.13849110  0.63971590  1
  O  O13  1  0.24312286  0.36150890  0.13971590  1
  O  O14  1  0.74312286  0.86150890  0.36028410  1
  O  O15  1  0.28769675  0.85693907  0.34316468  1
  Ge  Ge16  1  0.48964101  0.24057927  0.61354338  1
  Ge  Ge17  1  0.01035899  0.25942073  0.11354338  1
  Ge  Ge18  1  0.51035899  0.75942073  0.38645662  1
  Ge  Ge19  1  0.98964101  0.74057927  0.88645662  1
  Ag  Ag20  1  0.83402976  0.90985025  0.58450676  1
  Ag  Ag21  1  0.66597024  0.59014975  0.08450676  1
  Ag  Ag22  1  0.16597024  0.09014975  0.41549324  1
  Ag  Ag23  1  0.33402976  0.40985025  0.91549324  1
  Ag  Ag24  1  0.27536222  0.87863181  0.64528174  1
  Ag  Ag25  1  0.22463778  0.62136819  0.14528174  1
  Ag  Ag26  1  0.72463778  0.12136819  0.35471826  1
  Ag  Ag27  1  0.77536222  0.37863181  0.85471826  1
  Ag  Ag28  1  0.97836973  0.30110022  0.59236652  1
  Ag  Ag29  1  0.52163027  0.19889978  0.09236652  1
  Ag  Ag30  1  0.02163027  0.69889978  0.40763348  1
  Ag  Ag31  1  0.47836973  0.80110022  0.90763348  1
  Ag  Ag32  1  0.77412267  0.57568419  0.62267505  1
  Ag  Ag33  1  0.72587733  0.92431581  0.12267505  1
  Ag  Ag34  1  0.22587733  0.42431581  0.37732495  1
  Ag  Ag35  1  0.27412267  0.07568419  0.87732495  1
  Ag  Ag36  1  0.20989587  0.55719591  0.62482767  1
  Ag  Ag37  1  0.29010413  0.94280409  0.12482767  1
  Ag  Ag38  1  0.79010413  0.44280409  0.37517233  1
  Ag  Ag39  1  0.70989587  0.05719591  0.87517233  1
