# generated using pymatgen
data_Yb3Ga5O12
_symmetry_space_group_name_H-M   'P 1'
_cell_length_a   10.73512601
_cell_length_b   10.73512609
_cell_length_c   10.73512638
_cell_angle_alpha   109.47121919
_cell_angle_beta   109.47121929
_cell_angle_gamma   109.47122182
_symmetry_Int_Tables_number   1
_chemical_formula_structural   Yb3Ga5O12
_chemical_formula_sum   'Yb12 Ga20 O48'
_cell_volume   952.35655604
_cell_formula_units_Z   4
loop_
 _symmetry_equiv_pos_site_id
 _symmetry_equiv_pos_as_xyz
  1  'x, y, z'
loop_
 _atom_site_type_symbol
 _atom_site_label
 _atom_site_symmetry_multiplicity
 _atom_site_fract_x
 _atom_site_fract_y
 _atom_site_fract_z
 _atom_site_occupancy
  Yb  Yb0  1  0.37500000  0.75000000  0.12500000  1
  Yb  Yb1  1  0.87500000  0.62500000  0.25000000  1
  Yb  Yb2  1  0.37500000  0.12500000  0.25000000  1
  Yb  Yb3  1  0.62500000  0.25000000  0.87500000  1
  Yb  Yb4  1  0.12500000  0.37500000  0.75000000  1
  Yb  Yb5  1  0.25000000  0.87500000  0.62500000  1
  Yb  Yb6  1  0.87500000  0.75000000  0.62500000  1
  Yb  Yb7  1  0.12500000  0.25000000  0.37500000  1
  Yb  Yb8  1  0.25000000  0.37500000  0.12500000  1
  Yb  Yb9  1  0.62500000  0.87500000  0.75000000  1
  Yb  Yb10  1  0.75000000  0.12500000  0.37500000  1
  Yb  Yb11  1  0.75000000  0.62500000  0.87500000  1
  Ga  Ga12  1  0.00000000  0.00000000  0.50000000  1
  Ga  Ga13  1  0.12500000  0.75000000  0.87500000  1
  Ga  Ga14  1  0.87500000  0.12500000  0.75000000  1
  Ga  Ga15  1  0.50000000  0.00000000  0.50000000  1
  Ga  Ga16  1  0.50000000  0.00000000  0.00000000  1
  Ga  Ga17  1  0.62500000  0.75000000  0.37500000  1
  Ga  Ga18  1  0.00000000  0.00000000  0.00000000  1
  Ga  Ga19  1  0.00000000  0.50000000  0.00000000  1
  Ga  Ga20  1  0.25000000  0.62500000  0.37500000  1
  Ga  Ga21  1  0.00000000  0.50000000  0.50000000  1
  Ga  Ga22  1  0.25000000  0.12500000  0.87500000  1
  Ga  Ga23  1  0.37500000  0.25000000  0.62500000  1
  Ga  Ga24  1  0.87500000  0.25000000  0.12500000  1
  Ga  Ga25  1  0.75000000  0.37500000  0.62500000  1
  Ga  Ga26  1  0.37500000  0.62500000  0.75000000  1
  Ga  Ga27  1  0.50000000  0.50000000  0.50000000  1
  Ga  Ga28  1  0.62500000  0.37500000  0.25000000  1
  Ga  Ga29  1  0.75000000  0.87500000  0.12500000  1
  Ga  Ga30  1  0.50000000  0.50000000  0.00000000  1
  Ga  Ga31  1  0.12500000  0.87500000  0.25000000  1
  O  O32  1  0.41491360  0.82180041  0.79559343  1
  O  O33  1  0.17819959  0.20440657  0.58508640  1
  O  O34  1  0.29559343  0.47379301  0.38067982  1
  O  O35  1  0.79559343  0.88067982  0.97379301  1
  O  O36  1  0.52620699  0.61932018  0.70440657  1
  O  O37  1  0.70440657  0.67819959  0.08508640  1
  O  O38  1  0.17819959  0.47379301  0.59311319  1
  O  O39  1  0.09311319  0.97379301  0.67819959  1
  O  O40  1  0.59311319  0.17819959  0.47379301  1
  O  O41  1  0.79559343  0.41491360  0.82180041  1
  O  O42  1  0.58508640  0.90688681  0.38067982  1
  O  O43  1  0.61932018  0.70440657  0.52620699  1
  O  O44  1  0.67819959  0.09311319  0.97379301  1
  O  O45  1  0.20440657  0.11932018  0.02620699  1
  O  O46  1  0.61932018  0.41491360  0.09311319  1
  O  O47  1  0.11932018  0.59311319  0.91491360  1
  O  O48  1  0.67819959  0.08508640  0.70440657  1
  O  O49  1  0.40688681  0.08508640  0.88067982  1
  O  O50  1  0.90688681  0.38067982  0.58508640  1
  O  O51  1  0.82180041  0.52620699  0.40688681  1
  O  O52  1  0.47379301  0.38067982  0.29559343  1
  O  O53  1  0.88067982  0.40688681  0.08508640  1
  O  O54  1  0.91491360  0.29559343  0.32180041  1
  O  O55  1  0.58508640  0.17819959  0.20440657  1
  O  O56  1  0.09311319  0.61932018  0.41491360  1
  O  O57  1  0.11932018  0.02620699  0.20440657  1
  O  O58  1  0.32180041  0.91491360  0.29559343  1
  O  O59  1  0.02620699  0.32180041  0.90688681  1
  O  O60  1  0.41491360  0.09311319  0.61932018  1
  O  O61  1  0.38067982  0.58508640  0.90688681  1
  O  O62  1  0.38067982  0.29559343  0.47379301  1
  O  O63  1  0.90688681  0.02620699  0.32180041  1
  O  O64  1  0.97379301  0.67819959  0.09311319  1
  O  O65  1  0.32180041  0.90688681  0.02620699  1
  O  O66  1  0.08508640  0.70440657  0.67819959  1
  O  O67  1  0.08508640  0.88067982  0.40688681  1
  O  O68  1  0.97379301  0.79559343  0.88067982  1
  O  O69  1  0.59311319  0.91491360  0.11932018  1
  O  O70  1  0.91491360  0.11932018  0.59311319  1
  O  O71  1  0.88067982  0.97379301  0.79559343  1
  O  O72  1  0.20440657  0.58508640  0.17819959  1
  O  O73  1  0.29559343  0.32180041  0.91491360  1
  O  O74  1  0.52620699  0.40688681  0.82180041  1
  O  O75  1  0.40688681  0.82180041  0.52620699  1
  O  O76  1  0.47379301  0.59311319  0.17819959  1
  O  O77  1  0.70440657  0.52620699  0.61932018  1
  O  O78  1  0.02620699  0.20440657  0.11932018  1
  O  O79  1  0.82180041  0.79559343  0.41491360  1
