# generated using pymatgen
data_Ba2ZnS3
_symmetry_space_group_name_H-M   'P 1'
_cell_length_a   4.25876491
_cell_length_b   12.17068149
_cell_length_c   12.75156397
_cell_angle_alpha   90.00000000
_cell_angle_beta   90.00000000
_cell_angle_gamma   90.00000000
_symmetry_Int_Tables_number   1
_chemical_formula_structural   Ba2ZnS3
_chemical_formula_sum   'Ba8 Zn4 S12'
_cell_volume   660.93997237
_cell_formula_units_Z   4
loop_
 _symmetry_equiv_pos_site_id
 _symmetry_equiv_pos_as_xyz
  1  'x, y, z'
loop_
 _atom_site_type_symbol
 _atom_site_label
 _atom_site_symmetry_multiplicity
 _atom_site_fract_x
 _atom_site_fract_y
 _atom_site_fract_z
 _atom_site_occupancy
  S  S0  1  0.75000000  0.93962741  0.36008900  1
  S  S1  1  0.75000000  0.43962741  0.13991100  1
  S  S2  1  0.25000000  0.06037259  0.63991100  1
  S  S3  1  0.25000000  0.56037259  0.86008900  1
  S  S4  1  0.25000000  0.22511251  0.29252496  1
  S  S5  1  0.75000000  0.77488749  0.70747504  1
  S  S6  1  0.25000000  0.72511251  0.20747504  1
  S  S7  1  0.75000000  0.27488749  0.79252496  1
  S  S8  1  0.75000000  0.63528965  0.44568033  1
  S  S9  1  0.25000000  0.36471035  0.55431967  1
  S  S10  1  0.75000000  0.13528965  0.05431967  1
  S  S11  1  0.25000000  0.86471035  0.94568033  1
  Zn  Zn12  1  0.25000000  0.74463936  0.80294957  1
  Zn  Zn13  1  0.25000000  0.24463936  0.69705043  1
  Zn  Zn14  1  0.75000000  0.25536064  0.19705043  1
  Zn  Zn15  1  0.75000000  0.75536064  0.30294957  1
  Ba  Ba16  1  0.25000000  0.49010037  0.32480864  1
  Ba  Ba17  1  0.75000000  0.50989963  0.67519136  1
  Ba  Ba18  1  0.25000000  0.99010037  0.17519136  1
  Ba  Ba19  1  0.75000000  0.00989963  0.82480864  1
  Ba  Ba20  1  0.25000000  0.82629720  0.51694342  1
  Ba  Ba21  1  0.75000000  0.17370280  0.48305658  1
  Ba  Ba22  1  0.25000000  0.32629720  0.98305658  1
  Ba  Ba23  1  0.75000000  0.67370280  0.01694342  1
