# generated using pymatgen
data_ErZrSb
_symmetry_space_group_name_H-M   'P 1'
_cell_length_a   4.26358485
_cell_length_b   4.26358485
_cell_length_c   8.79610781
_cell_angle_alpha   104.02565473
_cell_angle_beta   104.02565478
_cell_angle_gamma   90.00000007
_symmetry_Int_Tables_number   1
_chemical_formula_structural   ErZrSb
_chemical_formula_sum   'Er2 Zr2 Sb2'
_cell_volume   150.21189317
_cell_formula_units_Z   2
loop_
 _symmetry_equiv_pos_site_id
 _symmetry_equiv_pos_as_xyz
  1  'x, y, z'
loop_
 _atom_site_type_symbol
 _atom_site_label
 _atom_site_symmetry_multiplicity
 _atom_site_fract_x
 _atom_site_fract_y
 _atom_site_fract_z
 _atom_site_occupancy
  Zr  Zr0  1  0.00000000  0.50000000  0.00000000  1
  Zr  Zr1  1  0.50000000  0.00000000  0.00000000  1
  Sb  Sb2  1  0.13459145  0.13459145  0.26918291  1
  Sb  Sb3  1  0.86540855  0.86540855  0.73081709  1
  Er  Er4  1  0.67623615  0.67623615  0.35247231  1
  Er  Er5  1  0.32376385  0.32376385  0.64752769  1
