# generated using pymatgen
data_CsAsF4
_symmetry_space_group_name_H-M   'P 1'
_cell_length_a   4.90811709
_cell_length_b   6.76546781
_cell_length_c   8.77811401
_cell_angle_alpha   112.78360884
_cell_angle_beta   90.00000000
_cell_angle_gamma   90.00000000
_symmetry_Int_Tables_number   1
_chemical_formula_structural   CsAsF4
_chemical_formula_sum   'Cs2 As2 F8'
_cell_volume   268.74019363
_cell_formula_units_Z   2
loop_
 _symmetry_equiv_pos_site_id
 _symmetry_equiv_pos_as_xyz
  1  'x, y, z'
loop_
 _atom_site_type_symbol
 _atom_site_label
 _atom_site_symmetry_multiplicity
 _atom_site_fract_x
 _atom_site_fract_y
 _atom_site_fract_z
 _atom_site_occupancy
  F  F0  1  0.20026406  0.84276612  0.83264434  1
  F  F1  1  0.70026406  0.15723388  0.16735566  1
  F  F2  1  0.55802682  0.54348430  0.70646386  1
  F  F3  1  0.05802682  0.45651570  0.29353614  1
  F  F4  1  0.72018671  0.77289482  0.41413095  1
  F  F5  1  0.22018671  0.22710518  0.58586905  1
  F  F6  1  0.63361280  0.50710794  0.12152363  1
  F  F7  1  0.13361280  0.49289206  0.87847637  1
  As  As8  1  0.18987816  0.53710902  0.69159021  1
  As  As9  1  0.68987816  0.46289098  0.30840979  1
  Cs  Cs10  1  0.69523145  0.09691765  0.78371918  1
  Cs  Cs11  1  0.19523145  0.90308235  0.21628082  1
