# generated using pymatgen
data_Ca(MoO2)2
_symmetry_space_group_name_H-M   'P 1'
_cell_length_a   6.57821720
_cell_length_b   6.57120448
_cell_length_c   19.91261137
_cell_angle_alpha   59.68795974
_cell_angle_beta   59.55004619
_cell_angle_gamma   60.39290253
_symmetry_Int_Tables_number   1
_chemical_formula_structural   Ca(MoO2)2
_chemical_formula_sum   'Ca6 Mo12 O24'
_cell_volume   606.87299330
_cell_formula_units_Z   6
loop_
 _symmetry_equiv_pos_site_id
 _symmetry_equiv_pos_as_xyz
  1  'x, y, z'
loop_
 _atom_site_type_symbol
 _atom_site_label
 _atom_site_symmetry_multiplicity
 _atom_site_fract_x
 _atom_site_fract_y
 _atom_site_fract_z
 _atom_site_occupancy
  Ca  Ca0  1  0.12075813  0.12046344  0.04640001  1
  Ca  Ca1  1  0.12158134  0.12216948  0.37852299  1
  Ca  Ca2  1  0.49581920  0.49658653  0.33751396  1
  Ca  Ca3  1  0.12548577  0.12482360  0.70805009  1
  Ca  Ca4  1  0.49940029  0.49888638  0.00121022  1
  Ca  Ca5  1  0.88021054  0.88005280  0.62022009  1
  Mo  Mo6  1  0.49955548  0.49978483  0.16586456  1
  Mo  Mo7  1  0.49904905  0.00424767  0.16611266  1
  Mo  Mo8  1  0.49956849  0.49984562  0.50071216  1
  Mo  Mo9  1  0.00400993  0.49917533  0.16619263  1
  Mo  Mo10  1  0.49908208  0.00054127  0.50088277  1
  Mo  Mo11  1  0.50089534  0.50068965  0.66586291  1
  Mo  Mo12  1  0.88540748  0.88583974  0.28132494  1
  Mo  Mo13  1  0.49916562  0.49871423  0.83173780  1
  Mo  Mo14  1  0.00035749  0.49922188  0.50092970  1
  Mo  Mo15  1  0.49938581  0.00351598  0.83161361  1
  Mo  Mo16  1  0.00382289  0.49897282  0.83164870  1
  Mo  Mo17  1  0.88507755  0.88444434  0.94780905  1
  O  O18  1  0.25305966  0.25239954  0.09540740  1
  O  O19  1  0.26344172  0.26433671  0.23483158  1
  O  O20  1  0.25933537  0.70890816  0.09348713  1
  O  O21  1  0.70906237  0.25928257  0.09323802  1
  O  O22  1  0.24858498  0.24791368  0.43115223  1
  O  O23  1  0.27082165  0.74709548  0.24244483  1
  O  O24  1  0.26132216  0.26231040  0.57016991  1
  O  O25  1  0.74649469  0.27166456  0.24188103  1
  O  O26  1  0.74220445  0.74070911  0.09573641  1
  O  O27  1  0.25532516  0.71081576  0.42904046  1
  O  O28  1  0.71013883  0.25600665  0.42860509  1
  O  O29  1  0.75467162  0.75675453  0.23847399  1
  O  O30  1  0.26256164  0.26130596  0.75724851  1
  O  O31  1  0.29605286  0.72781263  0.58127309  1
  O  O32  1  0.72773945  0.29599809  0.58090565  1
  O  O33  1  0.26218947  0.26272714  0.90107763  1
  O  O34  1  0.74314086  0.74145149  0.42868104  1
  O  O35  1  0.26730208  0.70221528  0.75576462  1
  O  O36  1  0.70268422  0.26693818  0.75541750  1
  O  O37  1  0.73321025  0.73446020  0.57918637  1
  O  O38  1  0.26892276  0.74863882  0.90748051  1
  O  O39  1  0.74918114  0.26856570  0.90688255  1
  O  O40  1  0.73543325  0.73411967  0.76610040  1
  O  O41  1  0.75849088  0.75959008  0.90290419  1
