# generated using pymatgen
data_CdPtF6
_symmetry_space_group_name_H-M   'P 1'
_cell_length_a   5.79143952
_cell_length_b   5.79143952
_cell_length_c   5.79143952
_cell_angle_alpha   54.25815718
_cell_angle_beta   54.25815718
_cell_angle_gamma   54.25815719
_symmetry_Int_Tables_number   1
_chemical_formula_structural   CdPtF6
_chemical_formula_sum   'Cd1 Pt1 F6'
_cell_volume   118.95134968
_cell_formula_units_Z   1
loop_
 _symmetry_equiv_pos_site_id
 _symmetry_equiv_pos_as_xyz
  1  'x, y, z'
loop_
 _atom_site_type_symbol
 _atom_site_label
 _atom_site_symmetry_multiplicity
 _atom_site_fract_x
 _atom_site_fract_y
 _atom_site_fract_z
 _atom_site_occupancy
  F  F0  1  0.11676005  0.42555805  0.72335598  1
  F  F1  1  0.42555805  0.72335598  0.11676005  1
  F  F2  1  0.27664402  0.88323995  0.57444195  1
  F  F3  1  0.57444195  0.27664402  0.88323995  1
  F  F4  1  0.88323995  0.57444195  0.27664402  1
  F  F5  1  0.72335598  0.11676005  0.42555805  1
  Cd  Cd6  1  0.00000000  0.00000000  0.00000000  1
  Pt  Pt7  1  0.50000000  0.50000000  0.50000000  1
