# generated using pymatgen
data_BaUO4
_symmetry_space_group_name_H-M   'P 1'
_cell_length_a   5.88355466
_cell_length_b   8.21400290
_cell_length_c   8.29527653
_cell_angle_alpha   90.00000000
_cell_angle_beta   90.00000000
_cell_angle_gamma   90.00000000
_symmetry_Int_Tables_number   1
_chemical_formula_structural   BaUO4
_chemical_formula_sum   'Ba4 U4 O16'
_cell_volume   400.89026717
_cell_formula_units_Z   4
loop_
 _symmetry_equiv_pos_site_id
 _symmetry_equiv_pos_as_xyz
  1  'x, y, z'
loop_
 _atom_site_type_symbol
 _atom_site_label
 _atom_site_symmetry_multiplicity
 _atom_site_fract_x
 _atom_site_fract_y
 _atom_site_fract_z
 _atom_site_occupancy
  O  O0  1  0.11614697  0.97329949  0.75000000  1
  O  O1  1  0.11614697  0.52670051  0.25000000  1
  O  O2  1  0.88385303  0.47329949  0.75000000  1
  O  O3  1  0.88385303  0.02670051  0.25000000  1
  O  O4  1  0.14452041  0.25000000  0.50000000  1
  O  O5  1  0.85547959  0.75000000  0.00000000  1
  O  O6  1  0.85547959  0.75000000  0.50000000  1
  O  O7  1  0.14452041  0.25000000  0.00000000  1
  O  O8  1  0.29505372  0.92523500  0.06911242  1
  O  O9  1  0.29505372  0.57476500  0.93088758  1
  O  O10  1  0.70494628  0.42523500  0.43088758  1
  O  O11  1  0.70494628  0.07476500  0.56911242  1
  O  O12  1  0.70494628  0.07476500  0.93088758  1
  O  O13  1  0.70494628  0.42523500  0.06911242  1
  O  O14  1  0.29505372  0.57476500  0.56911242  1
  O  O15  1  0.29505372  0.92523500  0.43088758  1
  Ba  Ba16  1  0.48293425  0.19444870  0.25000000  1
  Ba  Ba17  1  0.48293425  0.30555130  0.75000000  1
  Ba  Ba18  1  0.51706575  0.69444870  0.25000000  1
  Ba  Ba19  1  0.51706575  0.80555130  0.75000000  1
  U  U20  1  0.00000000  0.00000000  0.00000000  1
  U  U21  1  0.00000000  0.50000000  0.00000000  1
  U  U22  1  0.00000000  0.50000000  0.50000000  1
  U  U23  1  0.00000000  0.00000000  0.50000000  1
