# generated using pymatgen
data_TbCuS2
_symmetry_space_group_name_H-M   'P 1'
_cell_length_a   6.37915896
_cell_length_b   6.76287486
_cell_length_c   7.02754840
_cell_angle_alpha   90.00000000
_cell_angle_beta   90.00000000
_cell_angle_gamma   97.25196964
_symmetry_Int_Tables_number   1
_chemical_formula_structural   TbCuS2
_chemical_formula_sum   'Tb4 Cu4 S8'
_cell_volume   300.75341019
_cell_formula_units_Z   4
loop_
 _symmetry_equiv_pos_site_id
 _symmetry_equiv_pos_as_xyz
  1  'x, y, z'
loop_
 _atom_site_type_symbol
 _atom_site_label
 _atom_site_symmetry_multiplicity
 _atom_site_fract_x
 _atom_site_fract_y
 _atom_site_fract_z
 _atom_site_occupancy
  S  S0  1  0.57492439  0.49771308  0.72656304  1
  S  S1  1  0.42507561  0.00228692  0.22656304  1
  S  S2  1  0.42507561  0.50228692  0.27343696  1
  S  S3  1  0.57492439  0.99771308  0.77343696  1
  S  S4  1  0.90816627  0.21912979  0.38659032  1
  S  S5  1  0.90816627  0.71912979  0.11340968  1
  S  S6  1  0.09183373  0.78087021  0.61340968  1
  S  S7  1  0.09183373  0.28087021  0.88659032  1
  Cu  Cu8  1  0.91962774  0.94976347  0.83859462  1
  Cu  Cu9  1  0.08037226  0.05023653  0.16140538  1
  Cu  Cu10  1  0.08037226  0.55023653  0.33859462  1
  Cu  Cu11  1  0.91962774  0.44976347  0.66140538  1
  Tb  Tb12  1  0.69322594  0.30070233  0.04804874  1
  Tb  Tb13  1  0.30677406  0.19929767  0.54804874  1
  Tb  Tb14  1  0.30677406  0.69929767  0.95195126  1
  Tb  Tb15  1  0.69322594  0.80070233  0.45195126  1
