# generated using pymatgen
data_CaCu(SiO3)2
_symmetry_space_group_name_H-M   'P 1'
_cell_length_a   5.42280746
_cell_length_b   9.71025390
_cell_length_c   19.04297598
_cell_angle_alpha   90.00000000
_cell_angle_beta   90.00000000
_cell_angle_gamma   90.00000000
_symmetry_Int_Tables_number   1
_chemical_formula_structural   CaCu(SiO3)2
_chemical_formula_sum   'Ca8 Cu8 Si16 O48'
_cell_volume   1002.74288765
_cell_formula_units_Z   8
loop_
 _symmetry_equiv_pos_site_id
 _symmetry_equiv_pos_as_xyz
  1  'x, y, z'
loop_
 _atom_site_type_symbol
 _atom_site_label
 _atom_site_symmetry_multiplicity
 _atom_site_fract_x
 _atom_site_fract_y
 _atom_site_fract_z
 _atom_site_occupancy
  Ca  Ca0  1  0.60884501  0.14640475  0.62298606  1
  Ca  Ca1  1  0.39115499  0.85359525  0.37701394  1
  Ca  Ca2  1  0.60884501  0.64640475  0.87701394  1
  Ca  Ca3  1  0.10884501  0.85359525  0.87701394  1
  Ca  Ca4  1  0.89115499  0.14640475  0.12298606  1
  Ca  Ca5  1  0.39115499  0.35359525  0.12298606  1
  Ca  Ca6  1  0.10884501  0.35359525  0.62298606  1
  Ca  Ca7  1  0.89115499  0.64640475  0.37701394  1
  Cu  Cu8  1  0.38231448  0.98696034  0.12499894  1
  Cu  Cu9  1  0.61768552  0.01303966  0.87500106  1
  Cu  Cu10  1  0.88231448  0.01303966  0.37500106  1
  Cu  Cu11  1  0.11768552  0.98696034  0.62499894  1
  Cu  Cu12  1  0.38231448  0.48696034  0.37500106  1
  Cu  Cu13  1  0.61768552  0.51303966  0.62499894  1
  Cu  Cu14  1  0.88231448  0.51303966  0.12499894  1
  Cu  Cu15  1  0.11768552  0.48696034  0.87500106  1
  Si  Si16  1  0.57344945  0.66682647  0.22322892  1
  Si  Si17  1  0.75765272  0.83328814  0.52545638  1
  Si  Si18  1  0.74234728  0.83328814  0.02545638  1
  Si  Si19  1  0.92655055  0.16682647  0.77677108  1
  Si  Si20  1  0.07344945  0.33317353  0.27677108  1
  Si  Si21  1  0.42655055  0.83317353  0.72322892  1
  Si  Si22  1  0.25765272  0.66671186  0.52545638  1
  Si  Si23  1  0.75765272  0.33328814  0.97454362  1
  Si  Si24  1  0.74234728  0.33328814  0.47454362  1
  Si  Si25  1  0.92655055  0.66682647  0.72322892  1
  Si  Si26  1  0.42655055  0.33317353  0.77677108  1
  Si  Si27  1  0.57344945  0.16682647  0.27677108  1
  Si  Si28  1  0.24234728  0.16671186  0.47454362  1
  Si  Si29  1  0.07344945  0.83317353  0.22322892  1
  Si  Si30  1  0.24234728  0.66671186  0.02545638  1
  Si  Si31  1  0.25765272  0.16671186  0.97454362  1
  O  O32  1  0.90383930  0.51779890  0.68369674  1
  O  O33  1  0.32475231  0.03073165  0.92873756  1
  O  O34  1  0.09616070  0.48220110  0.31630326  1
  O  O35  1  0.75656649  0.35202976  0.06028331  1
  O  O36  1  0.25656649  0.14797024  0.06028331  1
  O  O37  1  0.96853202  0.21373014  0.95512538  1
  O  O38  1  0.94649426  0.66020080  0.80802238  1
  O  O39  1  0.05350574  0.83979920  0.30802238  1
  O  O40  1  0.75656649  0.85202976  0.43971669  1
  O  O41  1  0.94649426  0.16020080  0.69197762  1
  O  O42  1  0.40383930  0.48220110  0.81630326  1
  O  O43  1  0.74343351  0.35202976  0.56028331  1
  O  O44  1  0.67524769  0.96926835  0.07126244  1
  O  O45  1  0.44649426  0.83979920  0.80802238  1
  O  O46  1  0.59616070  0.01779890  0.31630326  1
  O  O47  1  0.32475231  0.53073165  0.57126244  1
  O  O48  1  0.40383930  0.98220110  0.68369674  1
  O  O49  1  0.16642428  0.75816193  0.69485052  1
  O  O50  1  0.33357572  0.75816193  0.19485052  1
  O  O51  1  0.53146798  0.71373014  0.04487462  1
  O  O52  1  0.74343351  0.85202976  0.93971669  1
  O  O53  1  0.55350574  0.66020080  0.30802238  1
  O  O54  1  0.82475231  0.46926835  0.92873756  1
  O  O55  1  0.16642428  0.25816193  0.80514948  1
  O  O56  1  0.24343351  0.14797024  0.56028331  1
  O  O57  1  0.55350574  0.16020080  0.19197762  1
  O  O58  1  0.67524769  0.46926835  0.42873756  1
  O  O59  1  0.25656649  0.64797024  0.43971669  1
  O  O60  1  0.17524769  0.53073165  0.07126244  1
  O  O61  1  0.66642428  0.74183807  0.69485052  1
  O  O62  1  0.09616070  0.98220110  0.18369674  1
  O  O63  1  0.83357572  0.74183807  0.19485052  1
  O  O64  1  0.83357572  0.24183807  0.30514948  1
  O  O65  1  0.82475231  0.96926835  0.57126244  1
  O  O66  1  0.24343351  0.64797024  0.93971669  1
  O  O67  1  0.17524769  0.03073165  0.42873756  1
  O  O68  1  0.33357572  0.25816193  0.30514948  1
  O  O69  1  0.03146798  0.78626986  0.04487462  1
  O  O70  1  0.46853202  0.78626986  0.54487462  1
  O  O71  1  0.66642428  0.24183807  0.80514948  1
  O  O72  1  0.46853202  0.28626986  0.95512538  1
  O  O73  1  0.53146798  0.21373014  0.45512538  1
  O  O74  1  0.03146798  0.28626986  0.45512538  1
  O  O75  1  0.44649426  0.33979920  0.69197762  1
  O  O76  1  0.59616070  0.51779890  0.18369674  1
  O  O77  1  0.96853202  0.71373014  0.54487462  1
  O  O78  1  0.05350574  0.33979920  0.19197762  1
  O  O79  1  0.90383930  0.01779890  0.81630326  1
