# generated using pymatgen
data_Li3BS3
_symmetry_space_group_name_H-M   'P 1'
_cell_length_a   6.20235166
_cell_length_b   8.18923153
_cell_length_c   10.15187720
_cell_angle_alpha   90.00000000
_cell_angle_beta   90.00000000
_cell_angle_gamma   90.00000000
_symmetry_Int_Tables_number   1
_chemical_formula_structural   Li3BS3
_chemical_formula_sum   'Li12 B4 S12'
_cell_volume   515.63915948
_cell_formula_units_Z   4
loop_
 _symmetry_equiv_pos_site_id
 _symmetry_equiv_pos_as_xyz
  1  'x, y, z'
loop_
 _atom_site_type_symbol
 _atom_site_label
 _atom_site_symmetry_multiplicity
 _atom_site_fract_x
 _atom_site_fract_y
 _atom_site_fract_z
 _atom_site_occupancy
  Li  Li0  1  0.60621447  0.66854252  0.99067244  1
  Li  Li1  1  0.10621447  0.83145748  0.00932756  1
  Li  Li2  1  0.89378553  0.16854252  0.50932756  1
  Li  Li3  1  0.39378553  0.33145748  0.49067244  1
  Li  Li4  1  0.39378553  0.33145748  0.00932756  1
  Li  Li5  1  0.89378553  0.16854252  0.99067244  1
  Li  Li6  1  0.10621447  0.83145748  0.49067244  1
  Li  Li7  1  0.60621447  0.66854252  0.50932756  1
  Li  Li8  1  0.54690073  0.99532689  0.75000000  1
  Li  Li9  1  0.04690073  0.50467311  0.25000000  1
  Li  Li10  1  0.95309927  0.49532689  0.75000000  1
  Li  Li11  1  0.45309927  0.00467311  0.25000000  1
  B  B12  1  0.88316270  0.87960372  0.25000000  1
  B  B13  1  0.38316270  0.62039628  0.75000000  1
  B  B14  1  0.61683730  0.37960372  0.25000000  1
  B  B15  1  0.11683730  0.12039628  0.75000000  1
  S  S16  1  0.74299803  0.91998970  0.09425205  1
  S  S17  1  0.24299803  0.58001030  0.90574795  1
  S  S18  1  0.75700197  0.41998970  0.40574795  1
  S  S19  1  0.25700197  0.08001030  0.59425205  1
  S  S20  1  0.25700197  0.08001030  0.90574795  1
  S  S21  1  0.75700197  0.41998970  0.09425205  1
  S  S22  1  0.24299803  0.58001030  0.59425205  1
  S  S23  1  0.74299803  0.91998970  0.40574795  1
  S  S24  1  0.84164031  0.20251541  0.75000000  1
  S  S25  1  0.34164031  0.29748459  0.25000000  1
  S  S26  1  0.65835969  0.70251541  0.75000000  1
  S  S27  1  0.15835969  0.79748459  0.25000000  1
