# generated using pymatgen
data_NaErO2
_symmetry_space_group_name_H-M   'P 1'
_cell_length_a   5.91776910
_cell_length_b   6.05849540
_cell_length_c   7.36751443
_cell_angle_alpha   104.81328763
_cell_angle_beta   104.02952385
_cell_angle_gamma   112.77861041
_symmetry_Int_Tables_number   1
_chemical_formula_structural   NaErO2
_chemical_formula_sum   'Na4 Er4 O8'
_cell_volume   217.49472555
_cell_formula_units_Z   4
loop_
 _symmetry_equiv_pos_site_id
 _symmetry_equiv_pos_as_xyz
  1  'x, y, z'
loop_
 _atom_site_type_symbol
 _atom_site_label
 _atom_site_symmetry_multiplicity
 _atom_site_fract_x
 _atom_site_fract_y
 _atom_site_fract_z
 _atom_site_occupancy
  O  O0  1  0.06186091  0.76697513  0.62707794  1
  O  O1  1  0.56521703  0.36010282  0.62707794  1
  O  O2  1  0.93813909  0.23302487  0.37292206  1
  O  O3  1  0.43478297  0.63989718  0.37292206  1
  O  O4  1  0.83305119  0.54022621  0.12381749  1
  O  O5  1  0.70923371  0.91640872  0.87618251  1
  O  O6  1  0.16694881  0.45977379  0.87618251  1
  O  O7  1  0.29076629  0.08359128  0.12381749  1
  Na  Na8  1  0.43018020  0.18018020  0.86036039  1
  Na  Na9  1  0.19429099  0.94429099  0.38858198  1
  Na  Na10  1  0.56981980  0.81981980  0.13963961  1
  Na  Na11  1  0.80570901  0.05570901  0.61141802  1
  Er  Er12  1  0.31713944  0.56713944  0.63427888  1
  Er  Er13  1  0.68286056  0.43286056  0.36572112  1
  Er  Er14  1  0.05670728  0.30670728  0.11341457  1
  Er  Er15  1  0.94329272  0.69329272  0.88658543  1
