# generated using pymatgen
data_CeCuS2
_symmetry_space_group_name_H-M   'P 1'
_cell_length_a   6.45762987
_cell_length_b   6.89906157
_cell_length_c   7.19878894
_cell_angle_alpha   90.00000000
_cell_angle_beta   90.00000000
_cell_angle_gamma   97.80336056
_symmetry_Int_Tables_number   1
_chemical_formula_structural   CeCuS2
_chemical_formula_sum   'Ce4 Cu4 S8'
_cell_volume   317.74758258
_cell_formula_units_Z   4
loop_
 _symmetry_equiv_pos_site_id
 _symmetry_equiv_pos_as_xyz
  1  'x, y, z'
loop_
 _atom_site_type_symbol
 _atom_site_label
 _atom_site_symmetry_multiplicity
 _atom_site_fract_x
 _atom_site_fract_y
 _atom_site_fract_z
 _atom_site_occupancy
  S  S0  1  0.09050985  0.28325035  0.88358193  1
  S  S1  1  0.90949015  0.21674965  0.38358193  1
  S  S2  1  0.90949015  0.71674965  0.11641807  1
  S  S3  1  0.09050985  0.78325035  0.61641807  1
  S  S4  1  0.58775125  0.49996596  0.72659068  1
  S  S5  1  0.58775125  0.99996596  0.77340932  1
  S  S6  1  0.41224875  0.50003404  0.27340932  1
  S  S7  1  0.41224875  0.00003404  0.22659068  1
  Cu  Cu8  1  0.93076022  0.96109207  0.83369905  1
  Cu  Cu9  1  0.06923978  0.03890793  0.16630095  1
  Cu  Cu10  1  0.06923978  0.53890793  0.33369905  1
  Cu  Cu11  1  0.93076022  0.46109207  0.66630095  1
  Ce  Ce12  1  0.31100115  0.19951841  0.55191035  1
  Ce  Ce13  1  0.68899885  0.30048159  0.05191035  1
  Ce  Ce14  1  0.68899885  0.80048159  0.44808965  1
  Ce  Ce15  1  0.31100115  0.69951841  0.94808965  1
