# generated using pymatgen
data_Ca2Ti3O8
_symmetry_space_group_name_H-M   'P 1'
_cell_length_a   6.09280663
_cell_length_b   6.09280667
_cell_length_c   10.61944604
_cell_angle_alpha   90.00000000
_cell_angle_beta   90.00000000
_cell_angle_gamma   119.99999986
_symmetry_Int_Tables_number   1
_chemical_formula_structural   Ca2Ti3O8
_chemical_formula_sum   'Ca4 Ti6 O16'
_cell_volume   341.40296398
_cell_formula_units_Z   2
loop_
 _symmetry_equiv_pos_site_id
 _symmetry_equiv_pos_as_xyz
  1  'x, y, z'
loop_
 _atom_site_type_symbol
 _atom_site_label
 _atom_site_symmetry_multiplicity
 _atom_site_fract_x
 _atom_site_fract_y
 _atom_site_fract_z
 _atom_site_occupancy
  Ca  Ca0  1  0.66666700  0.33333400  0.02398971  1
  Ca  Ca1  1  0.33333300  0.66666600  0.52399071  1
  Ca  Ca2  1  0.66666700  0.33333400  0.42818337  1
  Ca  Ca3  1  0.33333300  0.66666600  0.92818437  1
  Ti  Ti4  1  0.67349056  0.83674578  0.24532351  1
  Ti  Ti5  1  0.83674678  0.16325522  0.74532351  1
  Ti  Ti6  1  0.16325522  0.32651044  0.24532351  1
  Ti  Ti7  1  0.83674478  0.67349056  0.74532351  1
  Ti  Ti8  1  0.32651044  0.16325522  0.74532351  1
  Ti  Ti9  1  0.16325522  0.83674578  0.24532351  1
  O  O10  1  0.84332195  0.15667905  0.15616498  1
  O  O11  1  0.68664290  0.84332195  0.65616398  1
  O  O12  1  0.15667905  0.31335810  0.65616398  1
  O  O13  1  0.84332095  0.68664290  0.15616498  1
  O  O14  1  0.31335710  0.15667905  0.15616498  1
  O  O15  1  0.15667905  0.84332195  0.65616398  1
  O  O16  1  0.52314280  0.47685620  0.84978682  1
  O  O17  1  0.04628561  0.52314280  0.34978682  1
  O  O18  1  0.47685720  0.95371539  0.34978682  1
  O  O19  1  0.52314280  0.04628561  0.84978682  1
  O  O20  1  0.00000000  0.00000000  0.34352559  1
  O  O21  1  0.00000000  0.00000000  0.84352559  1
  O  O22  1  0.33333300  0.66666600  0.14397742  1
  O  O23  1  0.95371339  0.47685620  0.84978682  1
  O  O24  1  0.47685620  0.52314280  0.34978682  1
  O  O25  1  0.66666700  0.33333400  0.64397742  1
