# generated using pymatgen
data_GaN5O14
_symmetry_space_group_name_H-M   'P 1'
_cell_length_a   6.16654372
_cell_length_b   7.32411425
_cell_length_c   7.45530324
_cell_angle_alpha   76.70087406
_cell_angle_beta   65.57085425
_cell_angle_gamma   65.10382023
_symmetry_Int_Tables_number   1
_chemical_formula_structural   GaN5O14
_chemical_formula_sum   'Ga1 N5 O14'
_cell_volume   277.44249232
_cell_formula_units_Z   1
loop_
 _symmetry_equiv_pos_site_id
 _symmetry_equiv_pos_as_xyz
  1  'x, y, z'
loop_
 _atom_site_type_symbol
 _atom_site_label
 _atom_site_symmetry_multiplicity
 _atom_site_fract_x
 _atom_site_fract_y
 _atom_site_fract_z
 _atom_site_occupancy
  Ga  Ga0  1  0.00608536  1.00000000  0.00000000  1
  N  N1  1  0.87245141  0.98838102  0.68383225  1
  N  N2  1  0.54466468  0.01161898  0.31616775  1
  O  O3  1  0.98674857  0.87161158  0.81240514  1
  O  O4  1  0.67076529  0.12838842  0.18759486  1
  O  O5  1  0.74728888  0.16950472  0.71077683  1
  O  O6  1  0.62757042  0.83049528  0.28922317  1
  O  O7  1  0.90285213  0.89971119  0.54804924  1
  O  O8  1  0.35061256  0.10028881  0.45195076  1
  N  N9  1  0.14328605  0.29139237  0.97630311  1
  N  N10  1  0.41098153  0.70860763  0.02369689  1
  O  O11  1  0.07635424  0.24124958  0.85062816  1
  O  O12  1  0.16823198  0.75875042  0.14937184  1
  O  O13  1  0.13367023  0.17549623  0.13243560  1
  O  O14  1  0.44160206  0.82450377  0.86756440  1
  O  O15  1  0.20564814  0.43703294  0.93507573  1
  O  O16  1  0.57775681  0.56296706  0.06492427  1
  N  N17  1  0.15391349  0.50000000  0.50000000  1
  O  O18  1  0.33898091  0.50000000  0.50000000  1
  O  O19  1  0.96873525  0.50000000  0.50000000  1
