# generated using pymatgen
data_BaGaF5
_symmetry_space_group_name_H-M   'P 1'
_cell_length_a   5.09273783
_cell_length_b   5.76035909
_cell_length_c   14.18373293
_cell_angle_alpha   90.00000000
_cell_angle_beta   90.00000000
_cell_angle_gamma   90.00000000
_symmetry_Int_Tables_number   1
_chemical_formula_structural   BaGaF5
_chemical_formula_sum   'Ba4 Ga4 F20'
_cell_volume   416.09397012
_cell_formula_units_Z   4
loop_
 _symmetry_equiv_pos_site_id
 _symmetry_equiv_pos_as_xyz
  1  'x, y, z'
loop_
 _atom_site_type_symbol
 _atom_site_label
 _atom_site_symmetry_multiplicity
 _atom_site_fract_x
 _atom_site_fract_y
 _atom_site_fract_z
 _atom_site_occupancy
  Ba  Ba0  1  0.97911529  0.90780989  0.90732654  1
  Ba  Ba1  1  0.47911529  0.09219011  0.59267346  1
  Ba  Ba2  1  0.52088471  0.40780989  0.09267346  1
  Ba  Ba3  1  0.02088471  0.59219011  0.40732654  1
  Ga  Ga4  1  0.56506910  0.39600426  0.83568255  1
  Ga  Ga5  1  0.06506910  0.60399574  0.66431745  1
  Ga  Ga6  1  0.93493090  0.89600426  0.16431745  1
  Ga  Ga7  1  0.43493090  0.10399574  0.33568255  1
  F  F8  1  0.20240501  0.85841864  0.73129985  1
  F  F9  1  0.70240501  0.14158136  0.76870015  1
  F  F10  1  0.29759499  0.35841864  0.26870015  1
  F  F11  1  0.79759499  0.64158136  0.23129985  1
  F  F12  1  0.89639479  0.81110005  0.57797396  1
  F  F13  1  0.39639479  0.18889995  0.92202604  1
  F  F14  1  0.60360521  0.31110005  0.42202604  1
  F  F15  1  0.10360521  0.68889995  0.07797396  1
  F  F16  1  0.44125353  0.65799981  0.90213745  1
  F  F17  1  0.94125353  0.34200019  0.59786255  1
  F  F18  1  0.05874647  0.15799981  0.09786255  1
  F  F19  1  0.55874647  0.84200019  0.40213745  1
  F  F20  1  0.85573538  0.39818493  0.92225267  1
  F  F21  1  0.35573538  0.60181507  0.57774733  1
  F  F22  1  0.64426462  0.89818493  0.07774733  1
  F  F23  1  0.14426462  0.10181507  0.42225267  1
  F  F24  1  0.76838296  0.60929812  0.75271094  1
  F  F25  1  0.26838296  0.39070188  0.74728906  1
  F  F26  1  0.73161704  0.10929812  0.24728906  1
  F  F27  1  0.23161704  0.89070188  0.25271094  1
