# generated using pymatgen
data_K3Co2F7
_symmetry_space_group_name_H-M   'P 1'
_cell_length_a   4.07342905
_cell_length_b   4.07342893
_cell_length_c   11.35779148
_cell_angle_alpha   100.33034137
_cell_angle_beta   100.33034104
_cell_angle_gamma   89.99999491
_symmetry_Int_Tables_number   1
_chemical_formula_structural   K3Co2F7
_chemical_formula_sum   'K3 Co2 F7'
_cell_volume   182.29692557
_cell_formula_units_Z   1
loop_
 _symmetry_equiv_pos_site_id
 _symmetry_equiv_pos_as_xyz
  1  'x, y, z'
loop_
 _atom_site_type_symbol
 _atom_site_label
 _atom_site_symmetry_multiplicity
 _atom_site_fract_x
 _atom_site_fract_y
 _atom_site_fract_z
 _atom_site_occupancy
  K  K0  1  0.68640489  0.68640489  0.37281079  1
  K  K1  1  0.50000000  0.50000000  0.00000000  1
  K  K2  1  0.31359511  0.31359511  0.62718921  1
  Co  Co3  1  0.09642476  0.09642476  0.19284953  1
  Co  Co4  1  0.90357524  0.90357524  0.80715047  1
  F  F5  1  0.59519313  0.09519313  0.19038625  1
  F  F6  1  0.80790132  0.80790132  0.61580165  1
  F  F7  1  0.90480687  0.40480687  0.80961375  1
  F  F8  1  0.40480687  0.90480687  0.80961375  1
  F  F9  1  0.00000000  0.00000000  0.00000000  1
  F  F10  1  0.19209868  0.19209868  0.38419835  1
  F  F11  1  0.09519313  0.59519313  0.19038625  1
