# generated using pymatgen
data_Ce(PO3)3
_symmetry_space_group_name_H-M   'P 1'
_cell_length_a   7.15547367
_cell_length_b   7.15547367
_cell_length_c   7.44520239
_cell_angle_alpha   90.00000000
_cell_angle_beta   90.00000000
_cell_angle_gamma   105.05044111
_symmetry_Int_Tables_number   1
_chemical_formula_structural   Ce(PO3)3
_chemical_formula_sum   'Ce2 P6 O18'
_cell_volume   368.12425651
_cell_formula_units_Z   2
loop_
 _symmetry_equiv_pos_site_id
 _symmetry_equiv_pos_as_xyz
  1  'x, y, z'
loop_
 _atom_site_type_symbol
 _atom_site_label
 _atom_site_symmetry_multiplicity
 _atom_site_fract_x
 _atom_site_fract_y
 _atom_site_fract_z
 _atom_site_occupancy
  O  O0  1  0.75170061  0.96972485  0.70983882  1
  O  O1  1  0.24829939  0.03027515  0.20983882  1
  O  O2  1  0.96972485  0.75170061  0.79016118  1
  O  O3  1  0.03027515  0.24829939  0.29016118  1
  O  O4  1  0.67303942  0.63690037  0.58263649  1
  O  O5  1  0.32696058  0.36309963  0.08263649  1
  O  O6  1  0.63690037  0.67303942  0.91736351  1
  O  O7  1  0.36309963  0.32696058  0.41736351  1
  O  O8  1  0.71950619  0.32872090  0.21272369  1
  O  O9  1  0.28049381  0.67127910  0.71272369  1
  O  O10  1  0.32872090  0.71950619  0.28727631  1
  O  O11  1  0.67127910  0.28049381  0.78727631  1
  O  O12  1  0.72129387  0.97676860  0.28551656  1
  O  O13  1  0.27870613  0.02323140  0.78551656  1
  O  O14  1  0.97676860  0.72129387  0.21448344  1
  O  O15  1  0.02323140  0.27870613  0.71448344  1
  O  O16  1  0.87276962  0.12723038  0.00000000  1
  O  O17  1  0.12723038  0.87276962  0.50000000  1
  P  P18  1  0.83181957  0.18320294  0.79717463  1
  P  P19  1  0.16818043  0.81679706  0.29717463  1
  P  P20  1  0.18320294  0.83181957  0.70282537  1
  P  P21  1  0.81679706  0.16818043  0.20282537  1
  P  P22  1  0.75132614  0.75132614  0.75000000  1
  P  P23  1  0.24867386  0.24867386  0.25000000  1
  Ce  Ce24  1  0.37119572  0.37119572  0.75000000  1
  Ce  Ce25  1  0.62880428  0.62880428  0.25000000  1
