# generated using pymatgen
data_La2Si2O7
_symmetry_space_group_name_H-M   'P 1'
_cell_length_a   5.52720238
_cell_length_b   8.85116856
_cell_length_c   13.25321756
_cell_angle_alpha   90.00000000
_cell_angle_beta   89.83819444
_cell_angle_gamma   90.00000000
_symmetry_Int_Tables_number   1
_chemical_formula_structural   La2Si2O7
_chemical_formula_sum   'La8 Si8 O28'
_cell_volume   648.37397364
_cell_formula_units_Z   4
loop_
 _symmetry_equiv_pos_site_id
 _symmetry_equiv_pos_as_xyz
  1  'x, y, z'
loop_
 _atom_site_type_symbol
 _atom_site_label
 _atom_site_symmetry_multiplicity
 _atom_site_fract_x
 _atom_site_fract_y
 _atom_site_fract_z
 _atom_site_occupancy
  O  O0  1  0.36162257  0.82977432  0.66998065  1
  O  O1  1  0.13837743  0.32977432  0.83001935  1
  O  O2  1  0.63837743  0.17022568  0.33001935  1
  O  O3  1  0.86162257  0.67022568  0.16998065  1
  O  O4  1  0.49915471  0.08762860  0.74022903  1
  O  O5  1  0.00084529  0.58762860  0.75977097  1
  O  O6  1  0.50084529  0.91237140  0.25977097  1
  O  O7  1  0.99915471  0.41237140  0.24022903  1
  O  O8  1  0.03116122  0.02348636  0.74946061  1
  O  O9  1  0.46883878  0.52348636  0.75053939  1
  O  O10  1  0.96883878  0.97651364  0.25053939  1
  O  O11  1  0.53116122  0.47651364  0.24946061  1
  O  O12  1  0.15579341  0.25798181  0.40684361  1
  O  O13  1  0.34420659  0.75798181  0.09315639  1
  O  O14  1  0.84420659  0.74201819  0.59315639  1
  O  O15  1  0.65579341  0.24201819  0.90684361  1
  O  O16  1  0.73142831  0.41951207  0.06763985  1
  O  O17  1  0.76857169  0.91951207  0.43236015  1
  O  O18  1  0.26857169  0.58048793  0.93236015  1
  O  O19  1  0.23142831  0.08048793  0.56763985  1
  O  O20  1  0.97471010  0.15325517  0.05252728  1
  O  O21  1  0.52528990  0.65325517  0.44747272  1
  O  O22  1  0.02528990  0.84674483  0.94747272  1
  O  O23  1  0.47471010  0.34674483  0.55252728  1
  O  O24  1  0.50299990  0.14465999  0.08024460  1
  O  O25  1  0.99700010  0.64465999  0.41975540  1
  O  O26  1  0.49700010  0.85534001  0.91975540  1
  O  O27  1  0.00299990  0.35534001  0.58024460  1
  Si  Si28  1  0.27679068  0.00564625  0.67911959  1
  Si  Si29  1  0.22320932  0.50564625  0.82088041  1
  Si  Si30  1  0.72320932  0.99435375  0.32088041  1
  Si  Si31  1  0.77679068  0.49435375  0.17911959  1
  Si  Si32  1  0.22380221  0.25474168  0.52640705  1
  Si  Si33  1  0.27619779  0.75474168  0.97359295  1
  Si  Si34  1  0.77619779  0.74525832  0.47359295  1
  Si  Si35  1  0.72380221  0.24525832  0.02640705  1
  La  La36  1  0.74277321  0.89204347  0.08923459  1
  La  La37  1  0.75722679  0.39204347  0.41076541  1
  La  La38  1  0.25722679  0.10795653  0.91076541  1
  La  La39  1  0.24277321  0.60795653  0.58923459  1
  La  La40  1  0.25133868  0.68846998  0.26646022  1
  La  La41  1  0.24866132  0.18846998  0.23353978  1
  La  La42  1  0.74866132  0.31153002  0.73353978  1
  La  La43  1  0.75133868  0.81153002  0.76646022  1
