# generated using pymatgen
data_Mg2B24C
_symmetry_space_group_name_H-M   'P 1'
_cell_length_a   5.08913856
_cell_length_b   8.96590611
_cell_length_c   8.96590611
_cell_angle_alpha   90.00000000
_cell_angle_beta   90.00000000
_cell_angle_gamma   90.00000000
_symmetry_Int_Tables_number   1
_chemical_formula_structural   Mg2B24C
_chemical_formula_sum   'Mg4 B48 C2'
_cell_volume   409.10298540
_cell_formula_units_Z   2
loop_
 _symmetry_equiv_pos_site_id
 _symmetry_equiv_pos_as_xyz
  1  'x, y, z'
loop_
 _atom_site_type_symbol
 _atom_site_label
 _atom_site_symmetry_multiplicity
 _atom_site_fract_x
 _atom_site_fract_y
 _atom_site_fract_z
 _atom_site_occupancy
  Mg  Mg0  1  0.00000000  0.00000000  0.00000000  1
  Mg  Mg1  1  0.50000000  0.50000000  0.50000000  1
  Mg  Mg2  1  0.75000000  0.00000000  0.50000000  1
  Mg  Mg3  1  0.25000000  0.50000000  0.00000000  1
  B  B4  1  0.08291555  0.59843051  0.19412950  1
  B  B5  1  0.91534765  0.75903892  0.92230998  1
  B  B6  1  0.87573552  0.61578367  0.62834434  1
  B  B7  1  0.91507903  0.75151885  0.26478135  1
  B  B8  1  0.41507903  0.25151885  0.23521865  1
  B  B9  1  0.08291555  0.40156949  0.80587050  1
  B  B10  1  0.08492097  0.26478135  0.24848115  1
  B  B11  1  0.58750711  0.73085468  0.59283153  1
  B  B12  1  0.08465235  0.92230998  0.24096108  1
  B  B13  1  0.59859128  0.32528048  0.07953644  1
  B  B14  1  0.91534765  0.24096108  0.07769002  1
  B  B15  1  0.91249289  0.90716847  0.76914532  1
  B  B16  1  0.08492097  0.73521865  0.75151885  1
  B  B17  1  0.87573552  0.38421633  0.37165566  1
  B  B18  1  0.08465235  0.07769002  0.75903892  1
  B  B19  1  0.58465235  0.42230998  0.25903892  1
  B  B20  1  0.58291555  0.90156949  0.69412950  1
  B  B21  1  0.58492097  0.23521865  0.74848115  1
  B  B22  1  0.37573552  0.11578367  0.87165566  1
  B  B23  1  0.91708445  0.80587050  0.59843051  1
  B  B24  1  0.12426448  0.62834434  0.38421633  1
  B  B25  1  0.08750711  0.76914532  0.09283153  1
  B  B26  1  0.41507903  0.74848115  0.76478135  1
  B  B27  1  0.41534765  0.74096108  0.42230998  1
  B  B28  1  0.91249289  0.09283153  0.23085468  1
  B  B29  1  0.41534765  0.25903892  0.57769002  1
  B  B30  1  0.41249289  0.40716847  0.73085468  1
  B  B31  1  0.91507903  0.24848115  0.73521865  1
  B  B32  1  0.37573552  0.88421633  0.12834434  1
  B  B33  1  0.90140872  0.57953644  0.82528048  1
  B  B34  1  0.90140872  0.42046356  0.17471952  1
  B  B35  1  0.41708445  0.69412950  0.09843051  1
  B  B36  1  0.58465235  0.57769002  0.74096108  1
  B  B37  1  0.62426448  0.87165566  0.88421633  1
  B  B38  1  0.41708445  0.30587050  0.90156949  1
  B  B39  1  0.41249289  0.59283153  0.26914532  1
  B  B40  1  0.40140872  0.07953644  0.67471952  1
  B  B41  1  0.12426448  0.37165566  0.61578367  1
  B  B42  1  0.40140872  0.92046356  0.32528048  1
  B  B43  1  0.58750711  0.26914532  0.40716847  1
  B  B44  1  0.58291555  0.09843051  0.30587050  1
  B  B45  1  0.91708445  0.19412950  0.40156949  1
  B  B46  1  0.58492097  0.76478135  0.25151885  1
  B  B47  1  0.08750711  0.23085468  0.90716847  1
  B  B48  1  0.09859128  0.17471952  0.57953644  1
  B  B49  1  0.62426448  0.12834434  0.11578367  1
  B  B50  1  0.09859128  0.82528048  0.42046356  1
  B  B51  1  0.59859128  0.67471952  0.92046356  1
  C  C52  1  0.50000000  0.00000000  0.00000000  1
  C  C53  1  0.00000000  0.50000000  0.50000000  1
