# generated using pymatgen
data_Hg2NO4
_symmetry_space_group_name_H-M   'P 1'
_cell_length_a   5.66904345
_cell_length_b   6.81140441
_cell_length_c   12.21003918
_cell_angle_alpha   90.00000000
_cell_angle_beta   96.62979868
_cell_angle_gamma   90.00000000
_symmetry_Int_Tables_number   1
_chemical_formula_structural   Hg2NO4
_chemical_formula_sum   'Hg8 N4 O16'
_cell_volume   468.32739726
_cell_formula_units_Z   4
loop_
 _symmetry_equiv_pos_site_id
 _symmetry_equiv_pos_as_xyz
  1  'x, y, z'
loop_
 _atom_site_type_symbol
 _atom_site_label
 _atom_site_symmetry_multiplicity
 _atom_site_fract_x
 _atom_site_fract_y
 _atom_site_fract_z
 _atom_site_occupancy
  N  N0  1  0.96105553  0.97681282  0.63977406  1
  N  N1  1  0.03894447  0.47681282  0.86022594  1
  N  N2  1  0.96105553  0.52318718  0.13977406  1
  N  N3  1  0.03894447  0.02318718  0.36022594  1
  O  O4  1  0.03037707  0.62939104  0.79809935  1
  O  O5  1  0.96962293  0.12939104  0.70190065  1
  O  O6  1  0.96962293  0.37060896  0.20190065  1
  O  O7  1  0.03037707  0.87060896  0.29809935  1
  O  O8  1  0.51390324  0.04442310  0.14962377  1
  O  O9  1  0.48609676  0.54442310  0.35037623  1
  O  O10  1  0.48609676  0.95557690  0.85037623  1
  O  O11  1  0.51390324  0.45557690  0.64962377  1
  O  O12  1  0.76110752  0.60403753  0.11125451  1
  O  O13  1  0.23889248  0.10403753  0.38874549  1
  O  O14  1  0.76110752  0.89596247  0.61125451  1
  O  O15  1  0.23889248  0.39596247  0.88874549  1
  O  O16  1  0.14887777  0.58907673  0.10797477  1
  O  O17  1  0.85112223  0.08907673  0.39202523  1
  O  O18  1  0.85112223  0.41092327  0.89202523  1
  O  O19  1  0.14887777  0.91092327  0.60797477  1
  Hg  Hg20  1  0.49592541  0.80528049  0.25852013  1
  Hg  Hg21  1  0.50407459  0.30528049  0.24147987  1
  Hg  Hg22  1  0.50407459  0.19471951  0.74147987  1
  Hg  Hg23  1  0.49592541  0.69471951  0.75852013  1
  Hg  Hg24  1  0.82337372  0.48992177  0.55811700  1
  Hg  Hg25  1  0.17662628  0.98992177  0.94188300  1
  Hg  Hg26  1  0.17662628  0.51007823  0.44188300  1
  Hg  Hg27  1  0.82337372  0.01007823  0.05811700  1
