# generated using pymatgen
data_Na3NbOF6
_symmetry_space_group_name_H-M   'P 1'
_cell_length_a   5.74480245
_cell_length_b   5.85500149
_cell_length_c   17.19606035
_cell_angle_alpha   90.00000000
_cell_angle_beta   90.00000000
_cell_angle_gamma   90.00000000
_symmetry_Int_Tables_number   1
_chemical_formula_structural   Na3NbOF6
_chemical_formula_sum   'Na12 Nb4 O4 F24'
_cell_volume   578.40370937
_cell_formula_units_Z   4
loop_
 _symmetry_equiv_pos_site_id
 _symmetry_equiv_pos_as_xyz
  1  'x, y, z'
loop_
 _atom_site_type_symbol
 _atom_site_label
 _atom_site_symmetry_multiplicity
 _atom_site_fract_x
 _atom_site_fract_y
 _atom_site_fract_z
 _atom_site_occupancy
  Na  Na0  1  0.76284634  0.48526663  0.62479211  1
  Na  Na1  1  0.76384406  0.96790275  0.24282467  1
  Na  Na2  1  0.78209432  0.99184716  0.50427117  1
  Na  Na3  1  0.73715366  0.51473337  0.12479211  1
  Na  Na4  1  0.71790568  0.00815284  0.00427117  1
  Na  Na5  1  0.23715366  0.98526663  0.87520789  1
  Na  Na6  1  0.28209432  0.50815284  0.49572883  1
  Na  Na7  1  0.23615594  0.46790275  0.25717533  1
  Na  Na8  1  0.73615594  0.03209725  0.74282467  1
  Na  Na9  1  0.21790568  0.49184716  0.99572883  1
  Na  Na10  1  0.26284634  0.01473337  0.37520789  1
  Na  Na11  1  0.26384406  0.53209725  0.75717533  1
  Nb  Nb12  1  0.74713388  0.49027165  0.37514878  1
  Nb  Nb13  1  0.75286612  0.50972835  0.87514878  1
  Nb  Nb14  1  0.25286612  0.99027165  0.12485122  1
  Nb  Nb15  1  0.24713388  0.00972835  0.62485122  1
  O  O16  1  0.98639016  0.83900462  0.11175244  1
  O  O17  1  0.48639016  0.66099538  0.88824756  1
  O  O18  1  0.01360984  0.33900462  0.38824756  1
  O  O19  1  0.51360984  0.16099538  0.61175244  1
  F  F20  1  0.58085684  0.16137423  0.13414543  1
  F  F21  1  0.65558006  0.42250623  0.76169684  1
  F  F22  1  0.91935158  0.72947735  0.80035132  1
  F  F23  1  0.87418025  0.81974933  0.37659548  1
  F  F24  1  0.27097431  0.10379445  0.01096330  1
  F  F25  1  0.08085684  0.33862577  0.86585457  1
  F  F26  1  0.34441994  0.92250623  0.73830316  1
  F  F27  1  0.08064842  0.22947735  0.69964868  1
  F  F28  1  0.15558006  0.07749377  0.23830316  1
  F  F29  1  0.91914316  0.83862577  0.63414543  1
  F  F30  1  0.72902569  0.60379445  0.48903670  1
  F  F31  1  0.94616673  0.74529501  0.93957902  1
  F  F32  1  0.84441994  0.57749377  0.26169684  1
  F  F33  1  0.41914316  0.66137423  0.36585457  1
  F  F34  1  0.77097431  0.39620555  0.98903670  1
  F  F35  1  0.05383327  0.24529501  0.56042098  1
  F  F36  1  0.58064842  0.27052265  0.30035132  1
  F  F37  1  0.44616673  0.75470499  0.06042098  1
  F  F38  1  0.12581975  0.31974933  0.12340452  1
  F  F39  1  0.55383327  0.25470499  0.43957902  1
  F  F40  1  0.37418025  0.68025067  0.62340452  1
  F  F41  1  0.41935158  0.77052265  0.19964868  1
  F  F42  1  0.62581975  0.18025067  0.87659548  1
  F  F43  1  0.22902569  0.89620555  0.51096330  1
