# generated using pymatgen
data_DyAsO4
_symmetry_space_group_name_H-M   'P 1'
_cell_length_a   5.97518081
_cell_length_b   5.97518080
_cell_length_c   5.97518080
_cell_angle_alpha   106.45872065
_cell_angle_beta   106.45872061
_cell_angle_gamma   115.68041451
_symmetry_Int_Tables_number   1
_chemical_formula_structural   DyAsO4
_chemical_formula_sum   'Dy2 As2 O8'
_cell_volume   162.76003301
_cell_formula_units_Z   2
loop_
 _symmetry_equiv_pos_site_id
 _symmetry_equiv_pos_as_xyz
  1  'x, y, z'
loop_
 _atom_site_type_symbol
 _atom_site_label
 _atom_site_symmetry_multiplicity
 _atom_site_fract_x
 _atom_site_fract_y
 _atom_site_fract_z
 _atom_site_occupancy
  O  O0  1  0.30238909  0.23380497  0.43141588  1
  O  O1  1  0.87097321  0.30238909  0.56858412  1
  O  O2  1  0.23380497  0.30238909  0.93141588  1
  O  O3  1  0.30238909  0.87097321  0.06858412  1
  O  O4  1  0.12902679  0.69761091  0.43141588  1
  O  O5  1  0.69761091  0.76619503  0.56858412  1
  O  O6  1  0.69761091  0.12902679  0.93141588  1
  O  O7  1  0.76619503  0.69761091  0.06858412  1
  As  As8  1  0.87500000  0.12500000  0.75000000  1
  As  As9  1  0.12500000  0.87500000  0.25000000  1
  Dy  Dy10  1  0.37500000  0.62500000  0.75000000  1
  Dy  Dy11  1  0.62500000  0.37500000  0.25000000  1
