# generated using pymatgen
data_TaNiP2O9
_symmetry_space_group_name_H-M   'P 1'
_cell_length_a   6.45644914
_cell_length_b   7.97633724
_cell_length_c   14.29875803
_cell_angle_alpha   90.06793557
_cell_angle_beta   90.00877478
_cell_angle_gamma   89.98522884
_symmetry_Int_Tables_number   1
_chemical_formula_structural   TaNiP2O9
_chemical_formula_sum   'Ta4 Ni4 P8 O36'
_cell_volume   736.36855476
_cell_formula_units_Z   4
loop_
 _symmetry_equiv_pos_site_id
 _symmetry_equiv_pos_as_xyz
  1  'x, y, z'
loop_
 _atom_site_type_symbol
 _atom_site_label
 _atom_site_symmetry_multiplicity
 _atom_site_fract_x
 _atom_site_fract_y
 _atom_site_fract_z
 _atom_site_occupancy
  Ta  Ta0  1  0.75002858  0.34460105  0.88019022  1
  Ta  Ta1  1  0.24996757  0.65538926  0.11980395  1
  Ta  Ta2  1  0.25017290  0.84492531  0.61980386  1
  Ta  Ta3  1  0.74984575  0.15508843  0.38019321  1
  Ni  Ni4  1  0.49999694  0.99991875  0.99996149  1
  Ni  Ni5  1  0.50004712  0.49995337  0.49997428  1
  Ni  Ni6  1  0.99993209  0.49994125  0.49998550  1
  Ni  Ni7  1  0.00000985  0.99990748  0.99996147  1
  P  P8  1  0.25006057  0.34360699  0.94319555  1
  P  P9  1  0.74992972  0.65636708  0.05680497  1
  P  P10  1  0.74994950  0.84368898  0.55672707  1
  P  P11  1  0.25006461  0.15630717  0.44329124  1
  P  P12  1  0.74973279  0.39304095  0.68653495  1
  P  P13  1  0.25027290  0.60696865  0.31345814  1
  P  P14  1  0.25000400  0.89306561  0.81363779  1
  P  P15  1  0.74996839  0.10702885  0.18635517  1
  O  O16  1  0.05533218  0.60413638  0.37447680  1
  O  O17  1  0.55313386  0.39734203  0.62645064  1
  O  O18  1  0.94633429  0.10368728  0.12619310  1
  O  O19  1  0.44633578  0.89623790  0.87383283  1
  O  O20  1  0.94470308  0.39586868  0.62553189  1
  O  O21  1  0.44687203  0.60264889  0.37353985  1
  O  O22  1  0.05363545  0.89631629  0.87377268  1
  O  O23  1  0.55361752  0.10375872  0.12615169  1
  O  O24  1  0.25032328  0.33520772  0.48238895  1
  O  O25  1  0.74967685  0.66479740  0.51761561  1
  O  O26  1  0.74993992  0.83523061  0.01775730  1
  O  O27  1  0.25003883  0.16474366  0.98224007  1
  O  O28  1  0.75018855  0.14997271  0.94753791  1
  O  O29  1  0.24979131  0.85001499  0.05243378  1
  O  O30  1  0.25078524  0.65024278  0.55222662  1
  O  O31  1  0.74923349  0.34978189  0.44778360  1
  O  O32  1  0.74999158  0.23491654  0.75295488  1
  O  O33  1  0.25003675  0.76510728  0.24704448  1
  O  O34  1  0.25007331  0.73516953  0.74679330  1
  O  O35  1  0.74992601  0.26484569  0.25325537  1
  O  O36  1  0.44328433  0.12978499  0.38104865  1
  O  O37  1  0.94348850  0.86975362  0.61888449  1
  O  O38  1  0.55661593  0.63025759  0.11897406  1
  O  O39  1  0.05669172  0.36996824  0.88101637  1
  O  O40  1  0.55675786  0.87018767  0.61900657  1
  O  O41  1  0.05650372  0.13021408  0.38116653  1
  O  O42  1  0.44338193  0.36972492  0.88102525  1
  O  O43  1  0.94329823  0.63003181  0.11898111  1
  O  O44  1  0.75010788  0.96339633  0.26044282  1
  O  O45  1  0.24989860  0.03674860  0.73958278  1
  O  O46  1  0.25024082  0.46366674  0.23901368  1
  O  O47  1  0.74976328  0.53636103  0.76096942  1
  O  O48  1  0.74998193  0.97554684  0.47808964  1
  O  O49  1  0.25003476  0.02449006  0.52196774  1
  O  O50  1  0.25014238  0.47551291  0.02193619  1
  O  O51  1  0.74985453  0.52453143  0.97803147  1
