# generated using pymatgen
data_Ca9Cr(PO4)7
_symmetry_space_group_name_H-M   'P 1'
_cell_length_a   13.88175239
_cell_length_b   13.88175257
_cell_length_c   13.88175281
_cell_angle_alpha   44.13205068
_cell_angle_beta   44.13204990
_cell_angle_gamma   44.13205015
_symmetry_Int_Tables_number   1
_chemical_formula_structural   Ca9Cr(PO4)7
_chemical_formula_sum   'Ca18 Cr2 P14 O56'
_cell_volume   1178.36200816
_cell_formula_units_Z   2
loop_
 _symmetry_equiv_pos_site_id
 _symmetry_equiv_pos_as_xyz
  1  'x, y, z'
loop_
 _atom_site_type_symbol
 _atom_site_label
 _atom_site_symmetry_multiplicity
 _atom_site_fract_x
 _atom_site_fract_y
 _atom_site_fract_z
 _atom_site_occupancy
  Ca  Ca0  1  0.35702167  0.90738991  0.93424690  1
  Ca  Ca1  1  0.15631188  0.56565556  0.58036754  1
  Ca  Ca2  1  0.06565556  0.65631188  0.08036754  1
  Ca  Ca3  1  0.40738891  0.85702167  0.43424690  1
  Ca  Ca4  1  0.97445312  0.95526556  0.55102948  1
  Ca  Ca5  1  0.05102948  0.45526556  0.47445312  1
  Ca  Ca6  1  0.56565556  0.58036754  0.15631188  1
  Ca  Ca7  1  0.85702167  0.43424690  0.40738891  1
  Ca  Ca8  1  0.47445312  0.05102948  0.45526556  1
  Ca  Ca9  1  0.90738991  0.93424690  0.35702167  1
  Ca  Ca10  1  0.65631188  0.08036754  0.06565556  1
  Ca  Ca11  1  0.08036754  0.06565556  0.65631188  1
  Ca  Ca12  1  0.43424690  0.40738891  0.85702167  1
  Ca  Ca13  1  0.93424690  0.35702167  0.90738991  1
  Ca  Ca14  1  0.55102948  0.97445312  0.95526556  1
  Ca  Ca15  1  0.95526556  0.55102948  0.97445312  1
  Ca  Ca16  1  0.58036754  0.15631188  0.56565556  1
  Ca  Ca17  1  0.45526556  0.47445312  0.05102948  1
  Cr  Cr18  1  0.50205898  0.50205898  0.50205898  1
  Cr  Cr19  1  0.00205898  0.00205898  0.00205898  1
  P  P20  1  0.72102728  0.18955178  0.68615693  1
  P  P21  1  0.22102728  0.18615693  0.68955178  1
  P  P22  1  0.18955178  0.68615693  0.72102728  1
  P  P23  1  0.68955178  0.22102728  0.18615693  1
  P  P24  1  0.31277088  0.27887786  0.82081894  1
  P  P25  1  0.81277088  0.32081894  0.77887786  1
  P  P26  1  0.32081894  0.77887786  0.81277088  1
  P  P27  1  0.77887786  0.81277088  0.32081894  1
  P  P28  1  0.82081894  0.31277088  0.27887786  1
  P  P29  1  0.68615693  0.72102728  0.18955178  1
  P  P30  1  0.77067101  0.77067101  0.77067101  1
  P  P31  1  0.18615693  0.68955178  0.22102728  1
  P  P32  1  0.27887786  0.82081894  0.31277088  1
  P  P33  1  0.27067101  0.27067101  0.27067101  1
  O  O34  1  0.63241640  0.36889223  0.61332914  1
  O  O35  1  0.39477862  0.26724678  0.11139543  1
  O  O36  1  0.90339006  0.35931578  0.26497984  1
  O  O37  1  0.11332914  0.86889223  0.13241640  1
  O  O38  1  0.37020509  0.85845671  0.63964385  1
  O  O39  1  0.11727169  0.83563394  0.38926036  1
  O  O40  1  0.37712299  0.64020761  0.38436655  1
  O  O41  1  0.63964385  0.37020509  0.85845671  1
  O  O42  1  0.38926036  0.11727169  0.83563394  1
  O  O43  1  0.85431947  0.66483554  0.13927071  1
  O  O44  1  0.38436655  0.37712299  0.64020761  1
  O  O45  1  0.09233255  0.65002690  0.39368107  1
  O  O46  1  0.35845671  0.87020509  0.13964385  1
  O  O47  1  0.87712299  0.88436655  0.14020761  1
  O  O48  1  0.66483554  0.13927071  0.85431947  1
  O  O49  1  0.81208715  0.81208715  0.81208715  1
  O  O50  1  0.11495365  0.67650481  0.68560482  1
  O  O51  1  0.86889223  0.13241640  0.11332914  1
  O  O52  1  0.87020509  0.13964385  0.35845671  1
  O  O53  1  0.31208715  0.31208715  0.31208715  1
  O  O54  1  0.67650481  0.68560482  0.11495365  1
  O  O55  1  0.85845671  0.63964385  0.37020509  1
  O  O56  1  0.89368107  0.15002690  0.59233255  1
  O  O57  1  0.16483554  0.35431947  0.63927071  1
  O  O58  1  0.35431947  0.63927071  0.16483554  1
  O  O59  1  0.13927071  0.85431947  0.66483554  1
  O  O60  1  0.65002690  0.39368107  0.09233255  1
  O  O61  1  0.76497984  0.85931578  0.40339006  1
  O  O62  1  0.61332914  0.63241640  0.36889223  1
  O  O63  1  0.26497984  0.90339006  0.35931578  1
  O  O64  1  0.59233255  0.89368107  0.15002690  1
  O  O65  1  0.83563394  0.38926036  0.11727169  1
  O  O66  1  0.85931578  0.40339006  0.76497984  1
  O  O67  1  0.13964385  0.35845671  0.87020509  1
  O  O68  1  0.89477862  0.61139543  0.76724678  1
  O  O69  1  0.11139543  0.39477862  0.26724678  1
  O  O70  1  0.61495365  0.18560482  0.17650481  1
  O  O71  1  0.40339006  0.76497984  0.85931578  1
  O  O72  1  0.88926036  0.33563394  0.61727169  1
  O  O73  1  0.33563394  0.61727169  0.88926036  1
  O  O74  1  0.14020761  0.87712299  0.88436655  1
  O  O75  1  0.17650481  0.61495365  0.18560482  1
  O  O76  1  0.88436655  0.14020761  0.87712299  1
  O  O77  1  0.64020761  0.38436655  0.37712299  1
  O  O78  1  0.61727169  0.88926036  0.33563394  1
  O  O79  1  0.63927071  0.16483554  0.35431947  1
  O  O80  1  0.15002690  0.59233255  0.89368107  1
  O  O81  1  0.13241640  0.11332914  0.86889223  1
  O  O82  1  0.61139543  0.76724678  0.89477862  1
  O  O83  1  0.26724678  0.11139543  0.39477862  1
  O  O84  1  0.35931578  0.26497984  0.90339006  1
  O  O85  1  0.39368107  0.09233255  0.65002690  1
  O  O86  1  0.18560482  0.17650481  0.61495365  1
  O  O87  1  0.76724678  0.89477862  0.61139543  1
  O  O88  1  0.36889223  0.61332914  0.63241640  1
  O  O89  1  0.68560482  0.11495365  0.67650481  1
