# generated using pymatgen
data_Pr2Si2O7
_symmetry_space_group_name_H-M   'P 1'
_cell_length_a   5.50202137
_cell_length_b   8.78318442
_cell_length_c   13.17178125
_cell_angle_alpha   90.00000000
_cell_angle_beta   89.61587415
_cell_angle_gamma   90.00000000
_symmetry_Int_Tables_number   1
_chemical_formula_structural   Pr2Si2O7
_chemical_formula_sum   'Pr8 Si8 O28'
_cell_volume   636.51555831
_cell_formula_units_Z   4
loop_
 _symmetry_equiv_pos_site_id
 _symmetry_equiv_pos_as_xyz
  1  'x, y, z'
loop_
 _atom_site_type_symbol
 _atom_site_label
 _atom_site_symmetry_multiplicity
 _atom_site_fract_x
 _atom_site_fract_y
 _atom_site_fract_z
 _atom_site_occupancy
  O  O0  1  0.12901073  0.17325266  0.32982831  1
  O  O1  1  0.37098927  0.67325266  0.17017169  1
  O  O2  1  0.87098927  0.82674734  0.67017169  1
  O  O3  1  0.62901073  0.32674734  0.82982831  1
  O  O4  1  0.46493727  0.98121126  0.24831882  1
  O  O5  1  0.03506273  0.48121126  0.25168118  1
  O  O6  1  0.53506273  0.01878874  0.75168118  1
  O  O7  1  0.96493727  0.51878874  0.74831882  1
  O  O8  1  0.99747432  0.91249482  0.26031568  1
  O  O9  1  0.50252568  0.41249482  0.23968432  1
  O  O10  1  0.00252568  0.08750518  0.73968432  1
  O  O11  1  0.49747432  0.58750518  0.76031568  1
  O  O12  1  0.35501566  0.74479659  0.59363480  1
  O  O13  1  0.14498434  0.24479659  0.90636520  1
  O  O14  1  0.64498434  0.25520341  0.40636520  1
  O  O15  1  0.85501566  0.75520341  0.09363480  1
  O  O16  1  0.77109769  0.57816249  0.93221154  1
  O  O17  1  0.72890231  0.07816249  0.56778846  1
  O  O18  1  0.22890231  0.42183751  0.06778846  1
  O  O19  1  0.27109769  0.92183751  0.43221154  1
  O  O20  1  0.00039855  0.85614194  0.91924167  1
  O  O21  1  0.49960145  0.35614194  0.58075833  1
  O  O22  1  0.99960145  0.14385806  0.08075833  1
  O  O23  1  0.50039855  0.64385806  0.41924167  1
  O  O24  1  0.52842110  0.84676981  0.95004349  1
  O  O25  1  0.97157890  0.34676981  0.54995651  1
  O  O26  1  0.47157890  0.15323019  0.04995651  1
  O  O27  1  0.02842110  0.65323019  0.45004349  1
  Si  Si28  1  0.21958855  0.99722464  0.32066106  1
  Si  Si29  1  0.28041145  0.49722464  0.17933894  1
  Si  Si30  1  0.78041145  0.00277536  0.67933894  1
  Si  Si31  1  0.71958855  0.50277536  0.82066106  1
  Si  Si32  1  0.28045515  0.74674504  0.47433744  1
  Si  Si33  1  0.21954485  0.24674504  0.02566256  1
  Si  Si34  1  0.71954485  0.25325496  0.52566256  1
  Si  Si35  1  0.78045515  0.75325496  0.97433744  1
  Pr  Pr36  1  0.75788023  0.10568038  0.91077974  1
  Pr  Pr37  1  0.74211977  0.60568038  0.58922026  1
  Pr  Pr38  1  0.24211977  0.89431962  0.08922026  1
  Pr  Pr39  1  0.25788023  0.39431962  0.41077974  1
  Pr  Pr40  1  0.24690829  0.31209476  0.73339855  1
  Pr  Pr41  1  0.25309171  0.81209476  0.76660145  1
  Pr  Pr42  1  0.75309171  0.68790524  0.26660145  1
  Pr  Pr43  1  0.74690829  0.18790524  0.23339855  1
