# generated using pymatgen
data_K2HgO2
_symmetry_space_group_name_H-M   'P 1'
_cell_length_a   3.99505624
_cell_length_b   3.99505624
_cell_length_c   7.62396863
_cell_angle_alpha   105.18914467
_cell_angle_beta   105.18914473
_cell_angle_gamma   89.99999994
_symmetry_Int_Tables_number   1
_chemical_formula_structural   K2HgO2
_chemical_formula_sum   'K2 Hg1 O2'
_cell_volume   113.02073908
_cell_formula_units_Z   1
loop_
 _symmetry_equiv_pos_site_id
 _symmetry_equiv_pos_as_xyz
  1  'x, y, z'
loop_
 _atom_site_type_symbol
 _atom_site_label
 _atom_site_symmetry_multiplicity
 _atom_site_fract_x
 _atom_site_fract_y
 _atom_site_fract_z
 _atom_site_occupancy
  O  O0  1  0.85838947  0.85838947  0.71677895  1
  O  O1  1  0.14161053  0.14161053  0.28322105  1
  K  K2  1  0.66939086  0.66939086  0.33878173  1
  K  K3  1  0.33060914  0.33060914  0.66121827  1
  Hg  Hg4  1  0.00000000  0.00000000  0.00000000  1
