# generated using pymatgen
data_Cr2HgSe4
_symmetry_space_group_name_H-M   'P 1'
_cell_length_a   7.71211698
_cell_length_b   7.71211698
_cell_length_c   7.71211698
_cell_angle_alpha   59.99999998
_cell_angle_beta   59.99999999
_cell_angle_gamma   59.99999996
_symmetry_Int_Tables_number   1
_chemical_formula_structural   Cr2HgSe4
_chemical_formula_sum   'Cr4 Hg2 Se8'
_cell_volume   324.34396915
_cell_formula_units_Z   2
loop_
 _symmetry_equiv_pos_site_id
 _symmetry_equiv_pos_as_xyz
  1  'x, y, z'
loop_
 _atom_site_type_symbol
 _atom_site_label
 _atom_site_symmetry_multiplicity
 _atom_site_fract_x
 _atom_site_fract_y
 _atom_site_fract_z
 _atom_site_occupancy
  Cr  Cr0  1  0.50000000  0.50000000  0.50000000  1
  Cr  Cr1  1  0.50000000  0.50000000  0.00000000  1
  Cr  Cr2  1  0.00000000  0.50000000  0.50000000  1
  Cr  Cr3  1  0.50000000  0.00000000  0.50000000  1
  Se  Se4  1  0.73334677  0.73334677  0.73334677  1
  Se  Se5  1  0.73334677  0.73334677  0.29995970  1
  Se  Se6  1  0.26665323  0.26665323  0.26665323  1
  Se  Se7  1  0.73334677  0.29995970  0.73334677  1
  Se  Se8  1  0.29995970  0.73334677  0.73334677  1
  Se  Se9  1  0.26665323  0.70004030  0.26665323  1
  Se  Se10  1  0.70004030  0.26665323  0.26665323  1
  Se  Se11  1  0.26665323  0.26665323  0.70004030  1
  Hg  Hg12  1  0.87500000  0.87500000  0.87500000  1
  Hg  Hg13  1  0.12500000  0.12500000  0.12500000  1
