# generated using pymatgen
data_Na3ErV2O8
_symmetry_space_group_name_H-M   'P 1'
_cell_length_a   5.57486928
_cell_length_b   7.28508778
_cell_length_c   9.84849085
_cell_angle_alpha   90.00000000
_cell_angle_beta   90.00000000
_cell_angle_gamma   93.19715559
_symmetry_Int_Tables_number   1
_chemical_formula_structural   Na3ErV2O8
_chemical_formula_sum   'Na6 Er2 V4 O16'
_cell_volume   399.35826078
_cell_formula_units_Z   2
loop_
 _symmetry_equiv_pos_site_id
 _symmetry_equiv_pos_as_xyz
  1  'x, y, z'
loop_
 _atom_site_type_symbol
 _atom_site_label
 _atom_site_symmetry_multiplicity
 _atom_site_fract_x
 _atom_site_fract_y
 _atom_site_fract_z
 _atom_site_occupancy
  Na  Na0  1  0.99036506  0.29188467  0.85709098  1
  Na  Na1  1  0.00000000  0.00000000  0.50000000  1
  Na  Na2  1  0.50963494  0.20811533  0.35709098  1
  Na  Na3  1  0.00963494  0.70811533  0.14290902  1
  Na  Na4  1  0.49036506  0.79188467  0.64290902  1
  Na  Na5  1  0.50000000  0.50000000  0.00000000  1
  Er  Er6  1  0.50000000  0.00000000  0.00000000  1
  Er  Er7  1  0.00000000  0.50000000  0.50000000  1
  V  V8  1  0.51714570  0.72300728  0.31773202  1
  V  V9  1  0.98285430  0.77699272  0.81773202  1
  V  V10  1  0.48285430  0.27699272  0.68226798  1
  V  V11  1  0.01714570  0.22300728  0.18226798  1
  O  O12  1  0.67182151  0.53183203  0.36911499  1
  O  O13  1  0.32817849  0.46816797  0.63088501  1
  O  O14  1  0.35997742  0.09184591  0.59826121  1
  O  O15  1  0.82817849  0.96816797  0.86911499  1
  O  O16  1  0.71085741  0.19599091  0.13635896  1
  O  O17  1  0.06077289  0.25942472  0.35893387  1
  O  O18  1  0.17182151  0.03183203  0.13088501  1
  O  O19  1  0.14002258  0.40815409  0.09826121  1
  O  O20  1  0.64002258  0.90815409  0.40173879  1
  O  O21  1  0.43922711  0.24057528  0.85893387  1
  O  O22  1  0.85997742  0.59184591  0.90173879  1
  O  O23  1  0.21085741  0.69599091  0.36364104  1
  O  O24  1  0.28914259  0.80400909  0.86364104  1
  O  O25  1  0.78914259  0.30400909  0.63635896  1
  O  O26  1  0.93922711  0.74057528  0.64106613  1
  O  O27  1  0.56077289  0.75942472  0.14106613  1
