# generated using pymatgen
data_CaFeClO2
_symmetry_space_group_name_H-M   'P 1'
_cell_length_a   3.87917040
_cell_length_b   5.45015630
_cell_length_c   8.83219114
_cell_angle_alpha   103.26211438
_cell_angle_beta   90.00119764
_cell_angle_gamma   110.84511052
_symmetry_Int_Tables_number   1
_chemical_formula_structural   CaFeClO2
_chemical_formula_sum   'Ca2 Fe2 Cl2 O4'
_cell_volume   169.16887462
_cell_formula_units_Z   2
loop_
 _symmetry_equiv_pos_site_id
 _symmetry_equiv_pos_as_xyz
  1  'x, y, z'
loop_
 _atom_site_type_symbol
 _atom_site_label
 _atom_site_symmetry_multiplicity
 _atom_site_fract_x
 _atom_site_fract_y
 _atom_site_fract_z
 _atom_site_occupancy
  Ca  Ca0  1  0.60758119  0.21508434  0.29199764  1
  Ca  Ca1  1  0.39240686  0.78489333  0.70799527  1
  Fe  Fe2  1  0.13922881  0.27840538  0.00196836  1
  Fe  Fe3  1  0.86078039  0.72161417  0.99802428  1
  Cl  Cl4  1  0.33455302  0.66909913  0.37699349  1
  Cl  Cl5  1  0.66542956  0.33086118  0.62302105  1
  O  O6  1  0.68524797  0.37044743  0.05769058  1
  O  O7  1  0.02421746  0.04829228  0.16178460  1
  O  O8  1  0.97578964  0.95172279  0.83820929  1
  O  O9  1  0.31476511  0.62957996  0.94231342  1
