# generated using pymatgen
data_ZnCo4(CuO4)3
_symmetry_space_group_name_H-M   'P 1'
_cell_length_a   6.24929342
_cell_length_b   6.25040976
_cell_length_c   6.24800055
_cell_angle_alpha   109.53473070
_cell_angle_beta   109.44398983
_cell_angle_gamma   109.43616631
_symmetry_Int_Tables_number   1
_chemical_formula_structural   ZnCo4(CuO4)3
_chemical_formula_sum   'Zn1 Co4 Cu3 O12'
_cell_volume   187.86752351
_cell_formula_units_Z   1
loop_
 _symmetry_equiv_pos_site_id
 _symmetry_equiv_pos_as_xyz
  1  'x, y, z'
loop_
 _atom_site_type_symbol
 _atom_site_label
 _atom_site_symmetry_multiplicity
 _atom_site_fract_x
 _atom_site_fract_y
 _atom_site_fract_z
 _atom_site_occupancy
  Zn  Zn0  1  0.00000187  0.00000313  0.00000284  1
  Co  Co1  1  -0.00000266  0.99999761  0.49999928  1
  Co  Co2  1  -0.00000220  0.49999938  0.00000199  1
  Co  Co3  1  0.50000008  0.50000159  0.50000252  1
  Co  Co4  1  0.50000055  0.99999896  -0.00000009  1
  Cu  Cu5  1  0.49999741  0.49999885  0.00000134  1
  Cu  Cu6  1  -0.00000430  0.49999663  0.49999914  1
  Cu  Cu7  1  0.49999736  -0.00000053  0.49999778  1
  O  O8  1  0.82665102  0.30506778  0.13181675  1
  O  O9  1  0.17334982  0.69493085  0.86818635  1
  O  O10  1  0.82698814  0.69505950  0.52205811  1
  O  O11  1  0.30563576  0.47929647  0.17357587  1
  O  O12  1  0.47857538  0.17331186  0.30526358  1
  O  O13  1  0.13196791  0.82671240  0.30533834  1
  O  O14  1  0.69448775  0.86790523  0.17328103  1
  O  O15  1  0.52144119  0.82669929  0.69474188  1
  O  O16  1  0.17300977  0.30493896  0.47794172  1
  O  O17  1  0.69435738  0.52069214  0.82642153  1
  O  O18  1  0.86803511  0.17329734  0.69465592  1
  O  O19  1  0.30551466  0.13209256  0.82671513  1
