# generated using pymatgen
data_NbPO5
_symmetry_space_group_name_H-M   'P 1'
_cell_length_a   5.44111663
_cell_length_b   6.81240125
_cell_length_c   11.47289539
_cell_angle_alpha   90.00000000
_cell_angle_beta   90.00000000
_cell_angle_gamma   90.00000000
_symmetry_Int_Tables_number   1
_chemical_formula_structural   NbPO5
_chemical_formula_sum   'Nb4 P4 O20'
_cell_volume   425.26661344
_cell_formula_units_Z   4
loop_
 _symmetry_equiv_pos_site_id
 _symmetry_equiv_pos_as_xyz
  1  'x, y, z'
loop_
 _atom_site_type_symbol
 _atom_site_label
 _atom_site_symmetry_multiplicity
 _atom_site_fract_x
 _atom_site_fract_y
 _atom_site_fract_z
 _atom_site_occupancy
  O  O0  1  0.25000000  0.03030226  0.78426171  1
  O  O1  1  0.75000000  0.96969774  0.21573829  1
  O  O2  1  0.75000000  0.53030226  0.71573829  1
  O  O3  1  0.25000000  0.46969774  0.28426171  1
  O  O4  1  0.51691159  0.14604181  0.37181354  1
  O  O5  1  0.01691159  0.85395819  0.62818646  1
  O  O6  1  0.48308841  0.64604181  0.12818646  1
  O  O7  1  0.98308841  0.35395819  0.87181354  1
  O  O8  1  0.00000000  0.00000000  0.00000000  1
  O  O9  1  0.50000000  0.00000000  0.00000000  1
  O  O10  1  0.00000000  0.50000000  0.50000000  1
  O  O11  1  0.50000000  0.50000000  0.50000000  1
  O  O12  1  0.25000000  0.33613757  0.08136714  1
  O  O13  1  0.75000000  0.66386243  0.91863286  1
  O  O14  1  0.75000000  0.83613757  0.41863286  1
  O  O15  1  0.25000000  0.16386243  0.58136714  1
  O  O16  1  0.01691159  0.64604181  0.12818646  1
  O  O17  1  0.51691159  0.35395819  0.87181354  1
  O  O18  1  0.98308841  0.14604181  0.37181354  1
  O  O19  1  0.48308841  0.85395819  0.62818646  1
  P  P20  1  0.25000000  0.97239769  0.65378447  1
  P  P21  1  0.75000000  0.02760231  0.34621553  1
  P  P22  1  0.75000000  0.47239769  0.84621553  1
  P  P23  1  0.25000000  0.52760231  0.15378447  1
  Nb  Nb24  1  0.25000000  0.16887092  0.93706973  1
  Nb  Nb25  1  0.75000000  0.83112908  0.06293027  1
  Nb  Nb26  1  0.75000000  0.66887092  0.56293027  1
  Nb  Nb27  1  0.25000000  0.33112908  0.43706973  1
