# generated using pymatgen
data_K(RuO2)4
_symmetry_space_group_name_H-M   'P 1'
_cell_length_a   3.18430120
_cell_length_b   7.23774860
_cell_length_c   7.23774860
_cell_angle_alpha   87.22633771
_cell_angle_beta   77.29221742
_cell_angle_gamma   77.29221748
_symmetry_Int_Tables_number   1
_chemical_formula_structural   K(RuO2)4
_chemical_formula_sum   'K1 Ru4 O8'
_cell_volume   158.73760986
_cell_formula_units_Z   1
loop_
 _symmetry_equiv_pos_site_id
 _symmetry_equiv_pos_as_xyz
  1  'x, y, z'
loop_
 _atom_site_type_symbol
 _atom_site_label
 _atom_site_symmetry_multiplicity
 _atom_site_fract_x
 _atom_site_fract_y
 _atom_site_fract_z
 _atom_site_occupancy
  O  O0  1  0.45339066  0.39047841  0.70274026  1
  O  O1  1  0.15613093  0.29725974  0.39047841  1
  O  O2  1  0.84386907  0.70274026  0.60952159  1
  O  O3  1  0.54660934  0.60952159  0.29725974  1
  O  O4  1  0.84953034  0.95020569  0.35073363  1
  O  O5  1  0.15046966  0.04979431  0.64926637  1
  O  O6  1  0.79973603  0.35073363  0.04979431  1
  O  O7  1  0.20026397  0.64926637  0.95020569  1
  K  K8  1  0.50000000  0.00000000  0.00000000  1
  Ru  Ru9  1  0.16669970  0.48134664  0.18525396  1
  Ru  Ru10  1  0.83330030  0.51865336  0.81474604  1
  Ru  Ru11  1  0.35195366  0.81474604  0.48134664  1
  Ru  Ru12  1  0.64804634  0.18525396  0.51865336  1
