# generated using pymatgen
data_Zn2GeO4
_symmetry_space_group_name_H-M   'P 1'
_cell_length_a   8.95509623
_cell_length_b   8.95509624
_cell_length_c   8.95509623
_cell_angle_alpha   107.81594613
_cell_angle_beta   107.81594608
_cell_angle_gamma   107.81594612
_symmetry_Int_Tables_number   1
_chemical_formula_structural   Zn2GeO4
_chemical_formula_sum   'Zn12 Ge6 O24'
_cell_volume   584.25314025
_cell_formula_units_Z   6
loop_
 _symmetry_equiv_pos_site_id
 _symmetry_equiv_pos_as_xyz
  1  'x, y, z'
loop_
 _atom_site_type_symbol
 _atom_site_label
 _atom_site_symmetry_multiplicity
 _atom_site_fract_x
 _atom_site_fract_y
 _atom_site_fract_z
 _atom_site_occupancy
  O  O0  1  0.75074613  0.07333041  0.42152969  1
  O  O1  1  0.07333041  0.42152969  0.75074613  1
  O  O2  1  0.42152969  0.75074613  0.07333041  1
  O  O3  1  0.24925387  0.92666959  0.57847031  1
  O  O4  1  0.92666959  0.57847031  0.24925387  1
  O  O5  1  0.57847031  0.24925387  0.92666959  1
  O  O6  1  0.35000466  0.36335854  0.03517072  1
  O  O7  1  0.36335854  0.03517072  0.35000466  1
  O  O8  1  0.03517072  0.35000466  0.36335854  1
  O  O9  1  0.64999534  0.63664146  0.96482928  1
  O  O10  1  0.63664146  0.96482928  0.64999534  1
  O  O11  1  0.96482928  0.64999534  0.63664146  1
  O  O12  1  0.68386264  0.72144478  0.38930699  1
  O  O13  1  0.72144478  0.38930699  0.68386264  1
  O  O14  1  0.38930699  0.68386264  0.72144478  1
  O  O15  1  0.31613736  0.27855522  0.61069301  1
  O  O16  1  0.27855522  0.61069301  0.31613736  1
  O  O17  1  0.61069301  0.31613736  0.27855522  1
  O  O18  1  0.30425923  0.01399918  0.97065903  1
  O  O19  1  0.97065903  0.30425923  0.01399918  1
  O  O20  1  0.01399918  0.97065903  0.30425923  1
  O  O21  1  0.69574077  0.98600082  0.02934097  1
  O  O22  1  0.02934097  0.69574077  0.98600082  1
  O  O23  1  0.98600082  0.02934097  0.69574077  1
  Zn  Zn24  1  0.10334317  0.27571228  0.87350858  1
  Zn  Zn25  1  0.27571228  0.87350858  0.10334317  1
  Zn  Zn26  1  0.87350858  0.10334317  0.27571228  1
  Zn  Zn27  1  0.89665683  0.72428772  0.12649142  1
  Zn  Zn28  1  0.72428772  0.12649142  0.89665683  1
  Zn  Zn29  1  0.12649142  0.89665683  0.72428772  1
  Zn  Zn30  1  0.44051188  0.60826427  0.20287591  1
  Zn  Zn31  1  0.60826427  0.20287591  0.44051188  1
  Zn  Zn32  1  0.20287591  0.44051188  0.60826427  1
  Zn  Zn33  1  0.55948812  0.39173573  0.79712409  1
  Zn  Zn34  1  0.39173573  0.79712409  0.55948812  1
  Zn  Zn35  1  0.79712409  0.55948812  0.39173573  1
  Ge  Ge36  1  0.76793548  0.94505992  0.53705134  1
  Ge  Ge37  1  0.94505992  0.53705134  0.76793548  1
  Ge  Ge38  1  0.53705134  0.76793548  0.94505992  1
  Ge  Ge39  1  0.23206452  0.05494008  0.46294866  1
  Ge  Ge40  1  0.05494008  0.46294866  0.23206452  1
  Ge  Ge41  1  0.46294866  0.23206452  0.05494008  1
