# generated using pymatgen
data_SnAs2O7
_symmetry_space_group_name_H-M   'P 1'
_cell_length_a   7.27874933
_cell_length_b   9.32139190
_cell_length_c   9.74738758
_cell_angle_alpha   90.00000000
_cell_angle_beta   106.35077348
_cell_angle_gamma   90.00000000
_symmetry_Int_Tables_number   1
_chemical_formula_structural   SnAs2O7
_chemical_formula_sum   'Sn4 As8 O28'
_cell_volume   634.59432074
_cell_formula_units_Z   4
loop_
 _symmetry_equiv_pos_site_id
 _symmetry_equiv_pos_as_xyz
  1  'x, y, z'
loop_
 _atom_site_type_symbol
 _atom_site_label
 _atom_site_symmetry_multiplicity
 _atom_site_fract_x
 _atom_site_fract_y
 _atom_site_fract_z
 _atom_site_occupancy
  Sn  Sn0  1  0.81112023  0.07073442  0.71295686  1
  Sn  Sn1  1  0.18887977  0.57073442  0.78704314  1
  Sn  Sn2  1  0.18887977  0.92926558  0.28704314  1
  Sn  Sn3  1  0.81112023  0.42926558  0.21295686  1
  As  As4  1  0.41368057  0.24979836  0.75367485  1
  As  As5  1  0.58631943  0.74979836  0.74632515  1
  As  As6  1  0.58631943  0.75020164  0.24632515  1
  As  As7  1  0.41368057  0.25020164  0.25367485  1
  As  As8  1  0.03618246  0.29290094  0.96710612  1
  As  As9  1  0.96381754  0.79290094  0.53289388  1
  As  As10  1  0.96381754  0.70709906  0.03289388  1
  As  As11  1  0.03618246  0.20709906  0.46710712  1
  O  O12  1  0.85167999  0.31819869  0.04304163  1
  O  O13  1  0.14832001  0.81819869  0.45695837  1
  O  O14  1  0.14832001  0.68180131  0.95695837  1
  O  O15  1  0.85167999  0.18180131  0.54304163  1
  O  O16  1  0.37205453  0.43421309  0.73296340  1
  O  O17  1  0.62794547  0.93421309  0.76703660  1
  O  O18  1  0.62794547  0.56578691  0.26703660  1
  O  O19  1  0.37205453  0.06578691  0.23296340  1
  O  O20  1  0.38106946  0.17277205  0.89631869  1
  O  O21  1  0.61893054  0.67277205  0.60368131  1
  O  O22  1  0.61893054  0.82722795  0.10368131  1
  O  O23  1  0.38106946  0.32722795  0.39631869  1
  O  O24  1  0.25035397  0.16532432  0.59423678  1
  O  O25  1  0.74964603  0.66532432  0.90576322  1
  O  O26  1  0.74964603  0.83467568  0.40576322  1
  O  O27  1  0.25035397  0.33467568  0.09423678  1
  O  O28  1  0.01891309  0.09262970  0.32611838  1
  O  O29  1  0.98108691  0.59262970  0.17388162  1
  O  O30  1  0.98108691  0.90737030  0.67388162  1
  O  O31  1  0.01891309  0.40737030  0.82611838  1
  O  O32  1  0.62897157  0.26408081  0.21309144  1
  O  O33  1  0.37102843  0.76408081  0.28690856  1
  O  O34  1  0.37102843  0.73591919  0.78690856  1
  O  O35  1  0.62897157  0.23591919  0.71309144  1
  O  O36  1  0.00382475  0.37933571  0.40180260  1
  O  O37  1  0.99617525  0.87933571  0.09819740  1
  O  O38  1  0.99617525  0.62066429  0.59819740  1
  O  O39  1  0.00382475  0.12066429  0.90180260  1
