# generated using pymatgen
data_Sr2AlFeCu2O7
_symmetry_space_group_name_H-M   'P 1'
_cell_length_a   5.30926573
_cell_length_b   5.40747857
_cell_length_c   12.19937661
_cell_angle_alpha   102.85810327
_cell_angle_beta   102.55456247
_cell_angle_gamma   89.94181322
_symmetry_Int_Tables_number   1
_chemical_formula_structural   Sr2AlFeCu2O7
_chemical_formula_sum   'Sr4 Al2 Fe2 Cu4 O14'
_cell_volume   332.88093383
_cell_formula_units_Z   2
loop_
 _symmetry_equiv_pos_site_id
 _symmetry_equiv_pos_as_xyz
  1  'x, y, z'
loop_
 _atom_site_type_symbol
 _atom_site_label
 _atom_site_symmetry_multiplicity
 _atom_site_fract_x
 _atom_site_fract_y
 _atom_site_fract_z
 _atom_site_occupancy
  Sr  Sr0  1  0.33629181  0.33779535  0.70245789  1
  Sr  Sr1  1  0.63497791  0.66218509  0.29755684  1
  Sr  Sr2  1  0.83576949  0.86674170  0.70236686  1
  Sr  Sr3  1  0.13428394  0.13425369  0.29749116  1
  Al  Al4  1  0.98471114  0.99722143  0.00065424  1
  Al  Al5  1  0.48899070  0.49316015  0.00058447  1
  Fe  Fe6  1  0.27612242  0.68397551  0.50024544  1
  Fe  Fe7  1  0.77554032  0.31591014  0.50009688  1
  Cu  Cu8  1  0.92511023  0.44215027  0.88363337  1
  Cu  Cu9  1  0.04361568  0.55373625  0.11737501  1
  Cu  Cu10  1  0.42293175  0.93743719  0.88319121  1
  Cu  Cu11  1  0.54213157  0.05504560  0.11655901  1
  O  O12  1  0.14236376  0.34948804  0.50017388  1
  O  O13  1  0.64311075  0.65107641  0.50021710  1
  O  O14  1  0.24901009  0.26621875  0.89323058  1
  O  O15  1  0.35807733  0.72750069  0.10486888  1
  O  O16  1  0.74836196  0.12751534  0.89536375  1
  O  O17  1  0.85814800  0.87112062  0.10680692  1
  O  O18  1  0.60346709  0.61935424  0.89068982  1
  O  O19  1  0.71466901  0.37510895  0.11162984  1
  O  O20  1  0.09946711  0.76761337  0.88880607  1
  O  O21  1  0.21424864  0.22631865  0.10941999  1
  O  O22  1  0.29122881  0.86032459  0.65464441  1
  O  O23  1  0.63593498  0.13927841  0.34598600  1
  O  O24  1  0.78939201  0.29415459  0.65433000  1
  O  O25  1  0.13747151  0.70521399  0.34584639  1
