# generated using pymatgen
data_KNaCu3S3O13
_symmetry_space_group_name_H-M   'P 1'
_cell_length_a   9.53704361
_cell_length_b   10.50598914
_cell_length_c   14.61258414
_cell_angle_alpha   111.48226148
_cell_angle_beta   90.00000000
_cell_angle_gamma   116.99328297
_symmetry_Int_Tables_number   1
_chemical_formula_structural   KNaCu3S3O13
_chemical_formula_sum   'K4 Na4 Cu12 S12 O52'
_cell_volume   1189.34734064
_cell_formula_units_Z   4
loop_
 _symmetry_equiv_pos_site_id
 _symmetry_equiv_pos_as_xyz
  1  'x, y, z'
loop_
 _atom_site_type_symbol
 _atom_site_label
 _atom_site_symmetry_multiplicity
 _atom_site_fract_x
 _atom_site_fract_y
 _atom_site_fract_z
 _atom_site_occupancy
  K  K0  1  0.93446940  0.38478982  0.12847869  1
  K  K1  1  0.54967958  0.61521018  0.37152131  1
  K  K2  1  0.06553060  0.61521018  0.87152131  1
  K  K3  1  0.45032042  0.38478982  0.62847869  1
  Na  Na4  1  0.09194207  0.65034279  0.45371063  1
  Na  Na5  1  0.55840072  0.65034279  0.95371063  1
  Na  Na6  1  0.90805793  0.34965721  0.54628937  1
  Na  Na7  1  0.44159928  0.34965721  0.04628937  1
  Cu  Cu8  1  0.67280821  0.83500130  0.70553848  1
  Cu  Cu9  1  0.98696782  0.03218660  0.35956975  1
  Cu  Cu10  1  0.95478122  0.96781340  0.14043025  1
  Cu  Cu11  1  0.16219310  0.83500130  0.20553848  1
  Cu  Cu12  1  0.04521878  0.03218660  0.85956975  1
  Cu  Cu13  1  0.53687742  0.03262957  0.15749021  1
  Cu  Cu14  1  0.49575215  0.03262957  0.65749021  1
  Cu  Cu15  1  0.32719179  0.16499870  0.29446152  1
  Cu  Cu16  1  0.83780690  0.16499870  0.79446152  1
  Cu  Cu17  1  0.46312258  0.96737043  0.84250979  1
  Cu  Cu18  1  0.50424785  0.96737043  0.34250979  1
  Cu  Cu19  1  0.01303218  0.96781340  0.64043025  1
  S  S20  1  0.74587846  0.99516250  0.98508453  1
  S  S21  1  0.88811659  0.69154603  0.70625789  1
  S  S22  1  0.62611133  0.31110617  0.86821396  1
  S  S23  1  0.11188341  0.30845397  0.29374211  1
  S  S24  1  0.37388867  0.68889383  0.13178604  1
  S  S25  1  0.80342944  0.69154603  0.20625789  1
  S  S26  1  0.19657056  0.30845397  0.79374211  1
  S  S27  1  0.68499483  0.31110617  0.36821396  1
  S  S28  1  0.24928404  0.99516250  0.48508453  1
  S  S29  1  0.31500517  0.68889383  0.63178604  1
  S  S30  1  0.25412154  0.00483750  0.01491547  1
  S  S31  1  0.75071596  0.00483750  0.51491547  1
  O  O32  1  0.28138361  0.33666885  0.31230067  1
  O  O33  1  0.78266523  0.76181307  0.13835103  1
  O  O34  1  0.31098984  0.91470360  0.93308018  1
  O  O35  1  0.45920372  0.80348159  0.08503754  1
  O  O36  1  0.76645609  0.88792206  0.54141921  1
  O  O37  1  0.17068550  0.54235685  0.57088712  1
  O  O38  1  0.19723924  0.09463069  0.97966640  1
  O  O39  1  0.23354391  0.11207794  0.45858079  1
  O  O40  1  0.65572213  0.19651841  0.41496246  1
  O  O41  1  0.70236603  0.24596361  0.26186720  1
  O  O42  1  0.34427787  0.80348159  0.58503754  1
  O  O43  1  0.73737316  0.12551650  0.60198266  1
  O  O44  1  0.20356703  0.66000659  0.12952921  1
  O  O45  1  0.29763397  0.75403639  0.73813280  1
  O  O46  1  0.10231589  0.00000000  0.25000000  1
  O  O47  1  0.33964350  0.45790335  0.81262719  1
  O  O48  1  0.66035650  0.54209665  0.18737281  1
  O  O49  1  0.54356044  0.33999341  0.37047079  1
  O  O50  1  0.21733477  0.23818693  0.86164897  1
  O  O51  1  0.89768411  0.00000000  0.75000000  1
  O  O52  1  0.03445607  0.19782913  0.18551070  1
  O  O53  1  0.97914784  0.76181307  0.63835103  1
  O  O54  1  0.79643297  0.33999341  0.87047079  1
  O  O55  1  0.83662694  0.80217087  0.31448930  1
  O  O56  1  0.87853403  0.11207794  0.95858079  1
  O  O57  1  0.26262684  0.87448350  0.39801734  1
  O  O58  1  0.02085216  0.23818693  0.36164897  1
  O  O59  1  0.54359757  0.24596361  0.76186720  1
  O  O60  1  0.16337306  0.19782913  0.68551070  1
  O  O61  1  0.54079628  0.19651841  0.91496246  1
  O  O62  1  0.45640243  0.75403639  0.23813280  1
  O  O63  1  0.10260855  0.90536931  0.52033360  1
  O  O64  1  0.71861639  0.66333115  0.68769933  1
  O  O65  1  0.82931450  0.45764315  0.42911288  1
  O  O66  1  0.61185666  0.87448350  0.89801734  1
  O  O67  1  0.39628624  0.08529640  0.56691982  1
  O  O68  1  0.80276076  0.90536931  0.02033360  1
  O  O69  1  0.60371376  0.91470360  0.43308018  1
  O  O70  1  0.38814334  0.12551650  0.10198266  1
  O  O71  1  0.68901016  0.08529640  0.06691982  1
  O  O72  1  0.11825985  0.45790335  0.31262719  1
  O  O73  1  0.88174015  0.54209665  0.68737281  1
  O  O74  1  0.37167135  0.54235685  0.07088712  1
  O  O75  1  0.89739145  0.09463069  0.47966640  1
  O  O76  1  0.62832865  0.45764315  0.92911288  1
  O  O77  1  0.94471476  0.66333115  0.18769933  1
  O  O78  1  0.61217178  0.00000000  0.75000000  1
  O  O79  1  0.12146597  0.88792206  0.04141921  1
  O  O80  1  0.38782822  0.00000000  0.25000000  1
  O  O81  1  0.45643956  0.66000659  0.62952921  1
  O  O82  1  0.05528524  0.33666885  0.81230067  1
  O  O83  1  0.96554393  0.80217087  0.81448930  1
