# generated using pymatgen
data_RbNaTiO3
_symmetry_space_group_name_H-M   'P 1'
_cell_length_a   5.58627164
_cell_length_b   5.95244063
_cell_length_c   6.33650377
_cell_angle_alpha   61.98553984
_cell_angle_beta   88.74028268
_cell_angle_gamma   87.31723217
_symmetry_Int_Tables_number   1
_chemical_formula_structural   RbNaTiO3
_chemical_formula_sum   'Rb2 Na2 Ti2 O6'
_cell_volume   185.80919482
_cell_formula_units_Z   2
loop_
 _symmetry_equiv_pos_site_id
 _symmetry_equiv_pos_as_xyz
  1  'x, y, z'
loop_
 _atom_site_type_symbol
 _atom_site_label
 _atom_site_symmetry_multiplicity
 _atom_site_fract_x
 _atom_site_fract_y
 _atom_site_fract_z
 _atom_site_occupancy
  Rb  Rb0  1  0.25000000  0.26745746  0.46508507  1
  Rb  Rb1  1  0.75000000  0.73254254  0.53491493  1
  Na  Na2  1  0.25000000  0.57548619  0.84902763  1
  Na  Na3  1  0.75000000  0.42451381  0.15097237  1
  Ti  Ti4  1  0.75000000  0.05164865  0.89670269  1
  Ti  Ti5  1  0.25000000  0.94835135  0.10329731  1
  O  O6  1  0.00211404  0.22261663  0.98222308  1
  O  O7  1  0.49788596  0.79516030  0.98222308  1
  O  O8  1  0.75000000  0.21036474  0.57927053  1
  O  O9  1  0.99788596  0.77738337  0.01777692  1
  O  O10  1  0.50211404  0.20483970  0.01777692  1
  O  O11  1  0.25000000  0.78963526  0.42072947  1
