# generated using pymatgen
data_Mg2BiPO6
_symmetry_space_group_name_H-M   'P 1'
_cell_length_a   5.33725904
_cell_length_b   7.90216066
_cell_length_c   12.11472287
_cell_angle_alpha   90.00000000
_cell_angle_beta   90.00000000
_cell_angle_gamma   90.00000000
_symmetry_Int_Tables_number   1
_chemical_formula_structural   Mg2BiPO6
_chemical_formula_sum   'Mg8 Bi4 P4 O24'
_cell_volume   510.94907883
_cell_formula_units_Z   4
loop_
 _symmetry_equiv_pos_site_id
 _symmetry_equiv_pos_as_xyz
  1  'x, y, z'
loop_
 _atom_site_type_symbol
 _atom_site_label
 _atom_site_symmetry_multiplicity
 _atom_site_fract_x
 _atom_site_fract_y
 _atom_site_fract_z
 _atom_site_occupancy
  Mg  Mg0  1  0.75000000  0.80580761  0.59975022  1
  Mg  Mg1  1  0.75000000  0.30160284  0.09534323  1
  Mg  Mg2  1  0.75000000  0.19839716  0.59534323  1
  Mg  Mg3  1  0.25000000  0.30580761  0.90024978  1
  Mg  Mg4  1  0.25000000  0.80160284  0.40465677  1
  Mg  Mg5  1  0.25000000  0.69839716  0.90465677  1
  Mg  Mg6  1  0.25000000  0.19419239  0.40024978  1
  Mg  Mg7  1  0.75000000  0.69419239  0.09975022  1
  Bi  Bi8  1  0.25000000  0.49349284  0.59600067  1
  Bi  Bi9  1  0.25000000  0.00650716  0.09600067  1
  Bi  Bi10  1  0.75000000  0.50650716  0.40399933  1
  Bi  Bi11  1  0.75000000  0.99349284  0.90399933  1
  P  P12  1  0.75000000  0.50954831  0.80147537  1
  P  P13  1  0.25000000  0.00954831  0.69852463  1
  P  P14  1  0.25000000  0.49045169  0.19852463  1
  P  P15  1  0.75000000  0.99045169  0.30147537  1
  O  O16  1  0.49931342  0.32707013  0.49671875  1
  O  O17  1  0.50068658  0.67292987  0.50328125  1
  O  O18  1  0.00068658  0.32707013  0.49671875  1
  O  O19  1  0.00754643  1.00198808  0.62506853  1
  O  O20  1  0.99245357  0.50198808  0.87493147  1
  O  O21  1  0.25000000  0.85845185  0.77825771  1
  O  O22  1  0.75000000  0.81980334  0.24025023  1
  O  O23  1  0.75000000  0.14154815  0.22174229  1
  O  O24  1  0.25000000  0.31980334  0.25974977  1
  O  O25  1  0.25000000  0.64154815  0.27825771  1
  O  O26  1  0.49245357  0.49801192  0.12506853  1
  O  O27  1  0.99931342  0.82707013  0.00328125  1
  O  O28  1  0.99931342  0.67292987  0.50328125  1
  O  O29  1  0.00754643  0.49801192  0.12506853  1
  O  O30  1  0.00068658  0.17292987  0.99671875  1
  O  O31  1  0.50754643  -0.00198808  0.37493147  1
  O  O32  1  0.25000000  0.18019666  0.75974977  1
  O  O33  1  0.75000000  0.68019666  0.74025023  1
  O  O34  1  0.49931342  0.17292987  0.99671875  1
  O  O35  1  0.49245357  1.00198808  0.62506853  1
  O  O36  1  0.99245357  -0.00198808  0.37493147  1
  O  O37  1  0.75000000  0.35845185  0.72174229  1
  O  O38  1  0.50754643  0.50198808  0.87493147  1
  O  O39  1  0.50068658  0.82707013  0.00328125  1
