# generated using pymatgen
data_Pr2SbO5F
_symmetry_space_group_name_H-M   'P 1'
_cell_length_a   6.69231364
_cell_length_b   7.10535031
_cell_length_c   10.23653802
_cell_angle_alpha   93.61107982
_cell_angle_beta   90.00000000
_cell_angle_gamma   90.00000000
_symmetry_Int_Tables_number   1
_chemical_formula_structural   Pr2SbO5F
_chemical_formula_sum   'Pr8 Sb4 O20 F4'
_cell_volume   485.79357305
_cell_formula_units_Z   4
loop_
 _symmetry_equiv_pos_site_id
 _symmetry_equiv_pos_as_xyz
  1  'x, y, z'
loop_
 _atom_site_type_symbol
 _atom_site_label
 _atom_site_symmetry_multiplicity
 _atom_site_fract_x
 _atom_site_fract_y
 _atom_site_fract_z
 _atom_site_occupancy
  Pr  Pr0  1  0.74948955  0.62769937  0.53500733  1
  Pr  Pr1  1  0.56897477  0.87719325  0.96544441  1
  Pr  Pr2  1  0.06897477  0.12280675  0.03455559  1
  Pr  Pr3  1  0.37859462  0.86948832  0.33862743  1
  Pr  Pr4  1  0.43902997  0.37267217  0.83916638  1
  Pr  Pr5  1  0.93902997  0.62732783  0.16083362  1
  Pr  Pr6  1  0.87859462  0.13051168  0.66137257  1
  Pr  Pr7  1  0.24948955  0.37230063  0.46499267  1
  Sb  Sb8  1  0.80957479  0.11279626  0.32257114  1
  Sb  Sb9  1  0.30957479  0.88720374  0.67742886  1
  Sb  Sb10  1  0.01284164  0.60960345  0.82157819  1
  Sb  Sb11  1  0.51284164  0.39039655  0.17842181  1
  O  O12  1  0.31160282  0.69975468  0.82502090  1
  O  O13  1  0.72929876  0.95175834  0.46439155  1
  O  O14  1  0.58713334  0.94419975  0.72758064  1
  O  O15  1  0.01025377  0.80054440  0.67639430  1
  O  O16  1  0.09114682  0.44770182  0.96389078  1
  O  O17  1  0.89370534  0.30952840  0.46144659  1
  O  O18  1  0.08713334  0.05580025  0.27241936  1
  O  O19  1  0.22929876  0.04824166  0.53560845  1
  O  O20  1  0.11584071  0.41537545  0.68799140  1
  O  O21  1  0.71706187  0.91721149  0.18640731  1
  O  O22  1  0.74217979  0.53491928  0.76701737  1
  O  O23  1  0.42392301  0.19399988  0.04161010  1
  O  O24  1  0.59114682  0.55229818  0.03610922  1
  O  O25  1  0.81160282  0.30024532  0.17497910  1
  O  O26  1  0.61584071  0.58462455  0.31200860  1
  O  O27  1  0.21706187  0.08278851  0.81359269  1
  O  O28  1  0.51025377  0.19945560  0.32360570  1
  O  O29  1  0.39370534  0.69047160  0.53855341  1
  O  O30  1  0.92392301  0.80600012  0.95838990  1
  O  O31  1  0.24217979  0.46508072  0.23298263  1
  F  F32  1  0.03792715  0.67573193  0.39217026  1
  F  F33  1  0.53792715  0.32426807  0.60782974  1
  F  F34  1  0.77692128  0.16861206  0.89307901  1
  F  F35  1  0.27692128  0.83138794  0.10692099  1
