# generated using pymatgen
data_Sr14Al8Ge3
_symmetry_space_group_name_H-M   'P 1'
_cell_length_a   15.07449193
_cell_length_b   15.07449171
_cell_length_c   15.07449138
_cell_angle_alpha   46.93146619
_cell_angle_beta   46.93146693
_cell_angle_gamma   46.93146558
_symmetry_Int_Tables_number   1
_chemical_formula_structural   Sr14Al8Ge3
_chemical_formula_sum   'Sr28 Al16 Ge6'
_cell_volume   1670.88166079
_cell_formula_units_Z   2
loop_
 _symmetry_equiv_pos_site_id
 _symmetry_equiv_pos_as_xyz
  1  'x, y, z'
loop_
 _atom_site_type_symbol
 _atom_site_label
 _atom_site_symmetry_multiplicity
 _atom_site_fract_x
 _atom_site_fract_y
 _atom_site_fract_z
 _atom_site_occupancy
  Sr  Sr0  1  0.19124853  0.69389143  0.20499919  1
  Sr  Sr1  1  0.61645925  0.92675466  0.58694855  1
  Sr  Sr2  1  0.41566292  0.79399394  0.14655227  1
  Sr  Sr3  1  0.20499919  0.19124853  0.69389143  1
  Sr  Sr4  1  0.07324534  0.41305145  0.38354075  1
  Sr  Sr5  1  0.79399394  0.14655227  0.41566292  1
  Sr  Sr6  1  0.41305145  0.38354075  0.07324534  1
  Sr  Sr7  1  0.30610857  0.79500081  0.80875147  1
  Sr  Sr8  1  0.14655227  0.41566292  0.79399394  1
  Sr  Sr9  1  0.19358782  0.50732042  0.94594135  1
  Sr  Sr10  1  0.05405865  0.80641218  0.49267958  1
  Sr  Sr11  1  0.90944635  0.90944635  0.90944635  1
  Sr  Sr12  1  0.09055365  0.09055365  0.09055365  1
  Sr  Sr13  1  0.20600606  0.85344773  0.58433708  1
  Sr  Sr14  1  0.79500081  0.80875147  0.30610857  1
  Sr  Sr15  1  0.58433708  0.20600606  0.85344773  1
  Sr  Sr16  1  0.85344773  0.58433708  0.20600606  1
  Sr  Sr17  1  0.49267958  0.05405865  0.80641218  1
  Sr  Sr18  1  0.80641218  0.49267958  0.05405865  1
  Sr  Sr19  1  0.94594135  0.19358782  0.50732042  1
  Sr  Sr20  1  0.38354075  0.07324534  0.41305145  1
  Sr  Sr21  1  0.50000000  0.50000000  0.50000000  1
  Sr  Sr22  1  0.58694855  0.61645925  0.92675466  1
  Sr  Sr23  1  0.92675466  0.58694855  0.61645925  1
  Sr  Sr24  1  0.00000000  -0.00000000  0.00000000  1
  Sr  Sr25  1  0.50732042  0.94594135  0.19358782  1
  Sr  Sr26  1  0.80875147  0.30610857  0.79500081  1
  Sr  Sr27  1  0.69389143  0.20499919  0.19124853  1
  Al  Al28  1  0.49197122  0.52873043  0.73297682  1
  Al  Al29  1  0.18298688  0.03097941  0.28937994  1
  Al  Al30  1  0.26702318  0.50802878  0.47126957  1
  Al  Al31  1  0.03097941  0.28937994  0.18298688  1
  Al  Al32  1  0.47126957  0.26702318  0.50802878  1
  Al  Al33  1  0.64044912  0.64044912  0.64044912  1
  Al  Al34  1  0.52873043  0.73297682  0.49197122  1
  Al  Al35  1  0.28937994  0.18298688  0.03097941  1
  Al  Al36  1  0.35955088  0.35955088  0.35955088  1
  Al  Al37  1  0.77655328  0.77655328  0.77655328  1
  Al  Al38  1  0.50802878  0.47126957  0.26702318  1
  Al  Al39  1  0.71062006  0.81701312  0.96902059  1
  Al  Al40  1  0.81701312  0.96902059  0.71062006  1
  Al  Al41  1  0.73297682  0.49197122  0.52873043  1
  Al  Al42  1  0.96902059  0.71062006  0.81701312  1
  Al  Al43  1  0.22344672  0.22344672  0.22344672  1
  Ge  Ge44  1  0.08232707  0.67039480  0.09580834  1
  Ge  Ge45  1  0.09580834  0.08232707  0.67039480  1
  Ge  Ge46  1  0.91767293  0.32960520  0.90419166  1
  Ge  Ge47  1  0.32960520  0.90419166  0.91767293  1
  Ge  Ge48  1  0.90419166  0.91767293  0.32960520  1
  Ge  Ge49  1  0.67039480  0.09580834  0.08232707  1
