# generated using pymatgen
data_Rb2TiO3
_symmetry_space_group_name_H-M   'P 1'
_cell_length_a   6.09130058
_cell_length_b   6.78508117
_cell_length_c   13.53612155
_cell_angle_alpha   90.00000000
_cell_angle_beta   90.00000000
_cell_angle_gamma   116.67149945
_symmetry_Int_Tables_number   1
_chemical_formula_structural   Rb2TiO3
_chemical_formula_sum   'Rb8 Ti4 O12'
_cell_volume   499.91935101
_cell_formula_units_Z   4
loop_
 _symmetry_equiv_pos_site_id
 _symmetry_equiv_pos_as_xyz
  1  'x, y, z'
loop_
 _atom_site_type_symbol
 _atom_site_label
 _atom_site_symmetry_multiplicity
 _atom_site_fract_x
 _atom_site_fract_y
 _atom_site_fract_z
 _atom_site_occupancy
  O  O0  1  0.52493520  0.54987039  0.75000000  1
  O  O1  1  0.97506480  0.45012961  0.25000000  1
  O  O2  1  0.47506480  0.45012961  0.25000000  1
  O  O3  1  0.02493520  0.54987039  0.75000000  1
  O  O4  1  0.60243659  0.20487317  0.86316114  1
  O  O5  1  0.39756341  0.79512683  0.13683886  1
  O  O6  1  0.89756341  0.79512683  0.36316114  1
  O  O7  1  0.33210890  0.66421779  0.56443472  1
  O  O8  1  0.83210890  0.66421779  0.93556528  1
  O  O9  1  0.16789110  0.33578221  0.06443472  1
  O  O10  1  0.66789110  0.33578221  0.43556528  1
  O  O11  1  0.10243659  0.20487317  0.63683886  1
  Ti  Ti12  1  0.24488576  0.48977151  0.67064213  1
  Ti  Ti13  1  0.25511424  0.51022849  0.17064213  1
  Ti  Ti14  1  0.75511424  0.51022849  0.32935787  1
  Ti  Ti15  1  0.74488576  0.48977151  0.82935787  1
  Rb  Rb16  1  0.63278531  0.26557062  0.07344003  1
  Rb  Rb17  1  0.13278531  0.26557062  0.42655997  1
  Rb  Rb18  1  0.86721469  0.73442938  0.57344003  1
  Rb  Rb19  1  0.36721469  0.73442938  0.92655997  1
  Rb  Rb20  1  0.55769654  0.11539308  0.63688089  1
  Rb  Rb21  1  0.44230346  0.88460692  0.36311911  1
  Rb  Rb22  1  0.94230346  0.88460692  0.13688089  1
  Rb  Rb23  1  0.05769654  0.11539308  0.86311911  1
