# generated using pymatgen
data_ZnCu(Si2O5)2
_symmetry_space_group_name_H-M   'P 1'
_cell_length_a   7.25721892
_cell_length_b   7.25721892
_cell_length_c   14.95452364
_cell_angle_alpha   90.00000000
_cell_angle_beta   90.00000000
_cell_angle_gamma   90.00000000
_symmetry_Int_Tables_number   1
_chemical_formula_structural   ZnCu(Si2O5)2
_chemical_formula_sum   'Zn4 Cu4 Si16 O40'
_cell_volume   787.61328304
_cell_formula_units_Z   4
loop_
 _symmetry_equiv_pos_site_id
 _symmetry_equiv_pos_as_xyz
  1  'x, y, z'
loop_
 _atom_site_type_symbol
 _atom_site_label
 _atom_site_symmetry_multiplicity
 _atom_site_fract_x
 _atom_site_fract_y
 _atom_site_fract_z
 _atom_site_occupancy
  Zn  Zn0  1  0.25000000  0.75000000  0.50000000  1
  Zn  Zn1  1  0.75000000  0.25000000  0.50000000  1
  Zn  Zn2  1  0.75000000  0.25000000  -0.00000000  1
  Zn  Zn3  1  0.25000000  0.75000000  -0.00000000  1
  Cu  Cu4  1  0.25000000  0.25000000  0.57317755  1
  Cu  Cu5  1  0.75000000  0.75000000  0.92682245  1
  Cu  Cu6  1  0.75000000  0.75000000  0.42682245  1
  Cu  Cu7  1  0.25000000  0.25000000  0.07317755  1
  Si  Si8  1  0.91584629  0.49156633  0.64466122  1
  Si  Si9  1  0.58415371  0.00843367  0.64466122  1
  Si  Si10  1  0.99156633  0.41584629  0.85533878  1
  Si  Si11  1  0.49156633  0.58415371  0.64466122  1
  Si  Si12  1  0.00843367  0.91584629  0.64466122  1
  Si  Si13  1  0.08415371  0.99156633  0.85533878  1
  Si  Si14  1  0.41584629  0.50843367  0.85533878  1
  Si  Si15  1  0.50843367  0.08415371  0.85533878  1
  Si  Si16  1  0.08415371  0.50843367  0.35533878  1
  Si  Si17  1  0.41584629  0.99156633  0.35533878  1
  Si  Si18  1  0.00843367  0.58415371  0.14466122  1
  Si  Si19  1  0.50843367  0.41584629  0.35533878  1
  Si  Si20  1  0.99156633  0.08415371  0.35533878  1
  Si  Si21  1  0.91584629  0.00843367  0.14466122  1
  Si  Si22  1  0.58415371  0.49156633  0.14466122  1
  Si  Si23  1  0.49156633  0.91584629  0.14466122  1
  O  O24  1  0.98813718  0.33391055  0.57602655  1
  O  O25  1  0.51186282  0.16608945  0.57602655  1
  O  O26  1  0.83391055  0.48813718  0.92397345  1
  O  O27  1  0.33391055  0.51186282  0.57602655  1
  O  O28  1  0.16608945  0.98813718  0.57602655  1
  O  O29  1  0.01186282  0.83391055  0.92397345  1
  O  O30  1  0.48813718  0.66608945  0.92397345  1
  O  O31  1  0.66608945  0.01186282  0.92397345  1
  O  O32  1  0.01186282  0.66608945  0.42397345  1
  O  O33  1  0.48813718  0.83391055  0.42397345  1
  O  O34  1  0.16608945  0.51186282  0.07602655  1
  O  O35  1  0.66608945  0.48813718  0.42397345  1
  O  O36  1  0.83391055  0.01186282  0.42397345  1
  O  O37  1  0.98813718  0.16608945  0.07602655  1
  O  O38  1  0.51186282  0.33391055  0.07602655  1
  O  O39  1  0.99893195  0.30496146  0.37548698  1
  O  O40  1  0.33391055  0.98813718  0.07602655  1
  O  O41  1  0.49893195  0.80496146  0.62451302  1
  O  O42  1  0.19503854  0.50106805  0.87548698  1
  O  O43  1  0.69503854  0.49893195  0.62451302  1
  O  O44  1  0.80496146  0.00106805  0.62451302  1
  O  O45  1  0.99893195  0.19503854  0.87548698  1
  O  O46  1  0.50106805  0.30496146  0.87548698  1
  O  O47  1  0.30496146  0.99893195  0.87548698  1
  O  O48  1  0.44855666  0.94855666  0.25000000  1
  O  O49  1  0.55144334  0.44855666  0.25000000  1
  O  O50  1  0.94855666  0.05144434  0.25000000  1
  O  O51  1  0.05144434  0.55144334  0.25000000  1
  O  O52  1  0.55144334  0.05144434  0.75000000  1
  O  O53  1  0.44855666  0.55144334  0.75000000  1
  O  O54  1  0.05144434  0.94855666  0.75000000  1
  O  O55  1  0.94855666  0.44855666  0.75000000  1
  O  O56  1  0.69503854  0.00106805  0.12451302  1
  O  O57  1  0.49893195  0.69503854  0.12451302  1
  O  O58  1  0.00106805  0.80496146  0.12451302  1
  O  O59  1  0.19503854  0.99893195  0.37548698  1
  O  O60  1  0.30496146  0.50106805  0.37548698  1
  O  O61  1  0.80496146  0.49893195  0.12451302  1
  O  O62  1  0.50106805  0.19503854  0.37548698  1
  O  O63  1  0.00106805  0.69503854  0.62451302  1
