# generated using pymatgen
data_CaSiO3
_symmetry_space_group_name_H-M   'P 1'
_cell_length_a   7.15140685
_cell_length_b   7.39290103
_cell_length_c   15.60862816
_cell_angle_alpha   90.00000000
_cell_angle_beta   95.71311729
_cell_angle_gamma   90.00000000
_symmetry_Int_Tables_number   1
_chemical_formula_structural   CaSiO3
_chemical_formula_sum   'Ca12 Si12 O36'
_cell_volume   821.12355874
_cell_formula_units_Z   12
loop_
 _symmetry_equiv_pos_site_id
 _symmetry_equiv_pos_as_xyz
  1  'x, y, z'
loop_
 _atom_site_type_symbol
 _atom_site_label
 _atom_site_symmetry_multiplicity
 _atom_site_fract_x
 _atom_site_fract_y
 _atom_site_fract_z
 _atom_site_occupancy
  O  O0  1  0.59313052  0.05592594  0.13460221  1
  O  O1  1  0.40686948  0.55592594  0.36539779  1
  O  O2  1  0.40686948  0.94407406  0.86539779  1
  O  O3  1  0.59313052  0.44407406  0.63460221  1
  O  O4  1  0.59404414  0.69649963  0.13480891  1
  O  O5  1  0.40595586  0.19649963  0.36519109  1
  O  O6  1  0.40595586  0.30350037  0.86519109  1
  O  O7  1  0.59404414  0.80350037  0.63480891  1
  O  O8  1  0.72884894  0.37597237  0.11067831  1
  O  O9  1  0.27115106  0.87597237  0.38932169  1
  O  O10  1  0.27115106  0.62402763  0.88932169  1
  O  O11  1  0.72884894  0.12402763  0.61067831  1
  O  O12  1  0.33142075  0.87525997  0.19965033  1
  O  O13  1  0.66857925  0.37525997  0.30034967  1
  O  O14  1  0.70180572  0.87690865  0.28444223  1
  O  O15  1  0.66857925  0.12474003  0.80034967  1
  O  O16  1  0.76194948  0.62683894  0.98981411  1
  O  O17  1  0.23805052  0.12683894  0.51018589  1
  O  O18  1  0.23805052  0.37316106  0.01018589  1
  O  O19  1  0.76194948  0.87316106  0.48981411  1
  O  O20  1  0.76829925  0.12374924  0.99087692  1
  O  O21  1  0.23170075  0.62374924  0.50912308  1
  O  O22  1  0.23170075  0.87625076  0.00912308  1
  O  O23  1  0.76829925  0.37625076  0.49087692  1
  O  O24  1  0.96560286  0.38715652  0.65214512  1
  O  O25  1  0.03439714  0.88715652  0.84785488  1
  O  O26  1  0.03439714  0.61284348  0.34785488  1
  O  O27  1  0.96560286  0.11284348  0.15214512  1
  O  O28  1  0.96601875  0.86032261  0.65023164  1
  O  O29  1  0.03398125  0.36032261  0.84976836  1
  O  O30  1  0.03398125  0.13967739  0.34976836  1
  O  O31  1  0.96601875  0.63967739  0.15023164  1
  O  O32  1  0.70180572  0.62309135  0.78444223  1
  O  O33  1  0.29819428  0.12309135  0.71555777  1
  O  O34  1  0.29819428  0.37690865  0.21555777  1
  O  O35  1  0.33142075  0.62474003  0.69965033  1
  Si  Si36  1  0.55812421  0.87657003  0.19738042  1
  Si  Si37  1  0.44187579  0.37657003  0.30261958  1
  Si  Si38  1  0.44187579  0.12342997  0.80261958  1
  Si  Si39  1  0.55812421  0.62342997  0.69738042  1
  Si  Si40  1  0.76995466  0.59234407  0.09205090  1
  Si  Si41  1  0.23004534  0.09234407  0.40794910  1
  Si  Si42  1  0.23004534  0.40765593  0.90794910  1
  Si  Si43  1  0.76995466  0.90765593  0.59205090  1
  Si  Si44  1  0.77084102  0.15896875  0.09232228  1
  Si  Si45  1  0.22915898  0.65896875  0.40767772  1
  Si  Si46  1  0.22915898  0.84103125  0.90767772  1
  Si  Si47  1  0.77084102  0.34103125  0.59232228  1
  Ca  Ca48  1  0.02986396  0.87579334  0.25210842  1
  Ca  Ca49  1  0.97013604  0.37579334  0.24789158  1
  Ca  Ca50  1  0.97013604  0.12420666  0.74789158  1
  Ca  Ca51  1  0.02986396  0.62420666  0.75210842  1
  Ca  Ca52  1  0.26321622  0.62168959  0.10236448  1
  Ca  Ca53  1  0.73678378  0.12168959  0.39763552  1
  Ca  Ca54  1  0.73678378  0.37831041  0.89763552  1
  Ca  Ca55  1  0.26321622  0.87831041  0.60236448  1
  Ca  Ca56  1  0.25954782  0.12578883  0.09881322  1
  Ca  Ca57  1  0.74045218  0.62578883  0.40118678  1
  Ca  Ca58  1  0.74045218  0.87421117  0.90118678  1
  Ca  Ca59  1  0.25954782  0.37421117  0.59881322  1
