# generated using pymatgen
data_ErNiGe2
_symmetry_space_group_name_H-M   'P 1'
_cell_length_a   4.14547691
_cell_length_b   8.50355804
_cell_length_c   9.26398398
_cell_angle_alpha   117.31834821
_cell_angle_beta   102.93530695
_cell_angle_gamma   89.99794543
_symmetry_Int_Tables_number   1
_chemical_formula_structural   ErNiGe2
_chemical_formula_sum   'Er4 Ni4 Ge8'
_cell_volume   280.78686007
_cell_formula_units_Z   4
loop_
 _symmetry_equiv_pos_site_id
 _symmetry_equiv_pos_as_xyz
  1  'x, y, z'
loop_
 _atom_site_type_symbol
 _atom_site_label
 _atom_site_symmetry_multiplicity
 _atom_site_fract_x
 _atom_site_fract_y
 _atom_site_fract_z
 _atom_site_occupancy
  Er  Er0  1  0.20402263  0.70400830  0.40799890  1
  Er  Er1  1  0.79597737  0.29599170  0.59200110  1
  Er  Er2  1  0.99999932  0.25976884  0.00000736  1
  Er  Er3  1  0.00000068  0.74023116  0.99999264  1
  Ni  Ni4  1  0.35229109  0.60129339  0.70461240  1
  Ni  Ni5  1  0.35211279  0.10337309  0.70456108  1
  Ni  Ni6  1  0.64788721  0.89662691  0.29543892  1
  Ni  Ni7  1  0.64770891  0.39870661  0.29538760  1
  Ge  Ge8  1  0.80380634  0.96136606  0.60774603  1
  Ge  Ge9  1  0.19618167  0.35364221  0.39226911  1
  Ge  Ge10  1  0.42040237  0.92041733  0.84082577  1
  Ge  Ge11  1  0.57707249  0.57701342  0.15405612  1
  Ge  Ge12  1  0.57959763  0.07958267  0.15917423  1
  Ge  Ge13  1  0.19619366  0.03863394  0.39225397  1
  Ge  Ge14  1  0.80381833  0.64635779  0.60773089  1
  Ge  Ge15  1  0.42292751  0.42298658  0.84594388  1
