# generated using pymatgen
data_Na4MoS3O14
_symmetry_space_group_name_H-M   'P 1'
_cell_length_a   8.62643229
_cell_length_b   9.47054839
_cell_length_c   15.34929853
_cell_angle_alpha   90.00000000
_cell_angle_beta   90.00000000
_cell_angle_gamma   90.00000000
_symmetry_Int_Tables_number   1
_chemical_formula_structural   Na4MoS3O14
_chemical_formula_sum   'Na16 Mo4 S12 O56'
_cell_volume   1253.99232406
_cell_formula_units_Z   4
loop_
 _symmetry_equiv_pos_site_id
 _symmetry_equiv_pos_as_xyz
  1  'x, y, z'
loop_
 _atom_site_type_symbol
 _atom_site_label
 _atom_site_symmetry_multiplicity
 _atom_site_fract_x
 _atom_site_fract_y
 _atom_site_fract_z
 _atom_site_occupancy
  Na  Na0  1  0.80567170  0.75991670  0.31737993  1
  Na  Na1  1  0.19994056  0.58037905  0.33829968  1
  Na  Na2  1  0.43214746  0.96586201  0.28775551  1
  Na  Na3  1  0.82998948  0.48603053  0.96936366  1
  Na  Na4  1  0.32998948  0.01396947  0.03063634  1
  Na  Na5  1  0.19432830  0.25991670  0.18262007  1
  Na  Na6  1  0.80005944  0.08037905  0.16170032  1
  Na  Na7  1  0.06785254  0.03413799  0.78775551  1
  Na  Na8  1  0.30567170  0.74008330  0.68262007  1
  Na  Na9  1  0.69994056  0.91962095  0.66170032  1
  Na  Na10  1  0.56785254  0.46586201  0.21224449  1
  Na  Na11  1  0.93214746  0.53413799  0.71224449  1
  Na  Na12  1  0.17001052  0.98603053  0.53063634  1
  Na  Na13  1  0.30005944  0.41962095  0.83829968  1
  Na  Na14  1  0.67001052  0.51396947  0.46936366  1
  Na  Na15  1  0.69432830  0.24008330  0.81737993  1
  Mo  Mo16  1  0.72577279  0.89153874  0.92687151  1
  Mo  Mo17  1  0.77422721  0.10846126  0.42687151  1
  Mo  Mo18  1  0.22577279  0.60846126  0.07312849  1
  Mo  Mo19  1  0.27422721  0.39153874  0.57312849  1
  S  S20  1  0.42187197  0.29705885  0.38153913  1
  S  S21  1  0.57812803  0.79705885  0.11846087  1
  S  S22  1  0.37294531  0.12324017  0.70380760  1
  S  S23  1  0.47203856  0.35653089  0.01563924  1
  S  S24  1  0.97203856  0.14346911  0.98436076  1
  S  S25  1  0.12705469  0.87675983  0.20380760  1
  S  S26  1  0.62705469  0.62324017  0.79619240  1
  S  S27  1  0.02796144  0.64346911  0.51563924  1
  S  S28  1  0.92187197  0.20294115  0.61846087  1
  S  S29  1  0.87294531  0.37675983  0.29619240  1
  S  S30  1  0.52796144  0.85653089  0.48436076  1
  S  S31  1  0.07812803  0.70294115  0.88153913  1
  O  O32  1  0.49840351  0.79676745  0.57073133  1
  O  O33  1  0.70473311  0.77848043  0.05091148  1
  O  O34  1  0.39357529  0.25712392  0.07496011  1
  O  O35  1  0.42691881  0.75872069  0.07540237  1
  O  O36  1  0.70343445  0.03044906  0.33145736  1
  O  O37  1  0.05282230  0.52075866  0.05653757  1
  O  O38  1  0.88161168  0.27886006  0.37733215  1
  O  O39  1  0.64546176  0.98065500  0.50471980  1
  O  O40  1  0.14546176  0.51934500  0.49528020  1
  O  O41  1  0.56886701  0.94715074  0.14505031  1
  O  O42  1  0.43113299  0.44715074  0.35494969  1
  O  O43  1  0.50159649  0.29676745  0.92926867  1
  O  O44  1  0.46497629  0.59454100  0.77270489  1
  O  O45  1  0.92691881  0.74127931  0.92459763  1
  O  O46  1  0.07308119  0.24127931  0.57540237  1
  O  O47  1  0.10945752  0.07961550  0.94346472  1
  O  O48  1  0.78654640  0.30188702  0.22779898  1
  O  O49  1  0.94717770  0.02075866  0.44346243  1
  O  O50  1  0.20473311  0.72151957  0.94908852  1
  O  O51  1  0.61838832  0.72113994  0.87733215  1
  O  O52  1  0.89357529  0.24287608  0.92503989  1
  O  O53  1  0.10642471  0.74287608  0.57496011  1
  O  O54  1  0.96497629  0.90545900  0.22729511  1
  O  O55  1  0.35453824  0.48065500  0.99528020  1
  O  O56  1  0.89054248  0.57961550  0.55653528  1
  O  O57  1  0.29656555  0.53044906  0.16854264  1
  O  O58  1  0.60642471  0.75712392  0.42503989  1
  O  O59  1  0.60945752  0.42038450  0.05653528  1
  O  O60  1  0.20343445  0.46955094  0.66854264  1
  O  O61  1  0.28958452  0.99457412  0.67642685  1
  O  O62  1  0.11838832  0.77886006  0.12266785  1
  O  O63  1  0.93113299  0.05284926  0.64505031  1
  O  O64  1  0.11253540  0.79398544  0.80647261  1
  O  O65  1  0.79656555  0.96955094  0.83145736  1
  O  O66  1  0.44717770  0.47924134  0.55653757  1
  O  O67  1  0.99840351  0.70323255  0.42926867  1
  O  O68  1  0.71041548  0.49457412  0.82357315  1
  O  O69  1  0.06886701  0.55284926  0.85494969  1
  O  O70  1  0.85453824  0.01934500  0.00471980  1
  O  O71  1  0.39054248  0.92038450  0.44346472  1
  O  O72  1  0.38746460  0.20601456  0.30647261  1
  O  O73  1  0.03502371  0.40545900  0.27270489  1
  O  O74  1  0.88746460  0.29398544  0.69352739  1
  O  O75  1  0.53502371  0.09454100  0.72729511  1
  O  O76  1  0.38161168  0.22113994  0.62266785  1
  O  O77  1  0.29526689  0.27848043  0.44908852  1
  O  O78  1  0.00159649  0.20323255  0.07073133  1
  O  O79  1  0.28654640  0.19811298  0.77220102  1
  O  O80  1  0.61253540  0.70601456  0.19352739  1
  O  O81  1  0.55282230  0.97924134  0.94346243  1
  O  O82  1  0.78958452  0.50542588  0.32357315  1
  O  O83  1  0.21041548  0.00542588  0.17642685  1
  O  O84  1  0.79526689  0.22151957  0.55091148  1
  O  O85  1  0.21345360  0.80188702  0.27220102  1
  O  O86  1  0.57308119  0.25872069  0.42459763  1
  O  O87  1  0.71345360  0.69811298  0.72779898  1
