# generated using pymatgen
data_Cs2Np2PO4F7
_symmetry_space_group_name_H-M   'P 1'
_cell_length_a   7.90043830
_cell_length_b   8.99859305
_cell_length_c   16.50873426
_cell_angle_alpha   90.00000000
_cell_angle_beta   90.00000000
_cell_angle_gamma   112.50481527
_symmetry_Int_Tables_number   1
_chemical_formula_structural   Cs2Np2PO4F7
_chemical_formula_sum   'Cs8 Np8 P4 O16 F28'
_cell_volume   1084.27588833
_cell_formula_units_Z   4
loop_
 _symmetry_equiv_pos_site_id
 _symmetry_equiv_pos_as_xyz
  1  'x, y, z'
loop_
 _atom_site_type_symbol
 _atom_site_label
 _atom_site_symmetry_multiplicity
 _atom_site_fract_x
 _atom_site_fract_y
 _atom_site_fract_z
 _atom_site_occupancy
  Cs  Cs0  1  0.73546325  0.35314239  0.49315483  1
  Cs  Cs1  1  0.23546325  0.35314239  0.00684517  1
  Cs  Cs2  1  0.91305191  0.02794930  0.17018616  1
  Cs  Cs3  1  0.08694809  0.97205070  0.82981384  1
  Cs  Cs4  1  0.58694809  0.97205070  0.67018616  1
  Cs  Cs5  1  0.76453675  0.64685761  0.99315483  1
  Cs  Cs6  1  0.41305191  0.02794930  0.32981384  1
  Cs  Cs7  1  0.26453675  0.64685761  0.50684517  1
  Np  Np8  1  0.00544365  0.54238145  0.23950666  1
  Np  Np9  1  0.83014185  0.85138704  0.42032076  1
  Np  Np10  1  0.33014185  0.85138704  0.07967924  1
  Np  Np11  1  0.99455635  0.45761855  0.76049334  1
  Np  Np12  1  0.66985815  0.14861296  0.92032076  1
  Np  Np13  1  0.50544365  0.54238145  0.26049334  1
  Np  Np14  1  0.49455635  0.45761855  0.73950666  1
  Np  Np15  1  0.16985815  0.14861296  0.57967924  1
  P  P16  1  0.11742421  0.27173979  0.37313765  1
  P  P17  1  0.88257579  0.72826021  0.62686235  1
  P  P18  1  0.38257579  0.72826021  0.87313765  1
  P  P19  1  0.61742421  0.27173979  0.12686235  1
  O  O20  1  0.69625775  0.67580872  0.67287913  1
  O  O21  1  0.30374225  0.32419128  0.32712087  1
  O  O22  1  0.99681640  0.09287336  0.35444065  1
  O  O23  1  0.98872899  0.62231164  0.65289461  1
  O  O24  1  0.80374225  0.32419128  0.17287913  1
  O  O25  1  0.16124309  0.29325538  0.46519173  1
  O  O26  1  0.33875691  0.70674462  0.96519173  1
  O  O27  1  0.19625775  0.67580872  0.82712087  1
  O  O28  1  0.00318360  0.90712664  0.64555935  1
  O  O29  1  0.01127101  0.37768836  0.34710539  1
  O  O30  1  0.66124309  0.29325538  0.03480827  1
  O  O31  1  0.48872899  0.62231164  0.84710539  1
  O  O32  1  0.49681640  0.09287336  0.14555935  1
  O  O33  1  0.50318360  0.90712664  0.85444065  1
  O  O34  1  0.51127101  0.37768836  0.15289461  1
  O  O35  1  0.83875691  0.70674462  0.53480827  1
  F  F36  1  0.41118354  0.39477495  0.59865157  1
  F  F37  1  0.08881646  0.60522505  0.09865157  1
  F  F38  1  0.02146351  0.28259596  0.64814637  1
  F  F39  1  0.30077057  0.65119419  0.30651646  1
  F  F40  1  0.18637143  0.82417861  0.20437624  1
  F  F41  1  0.29897972  0.56699560  0.69515458  1
  F  F42  1  0.52146351  0.28259596  0.85185363  1
  F  F43  1  0.08903773  0.90109089  0.05116623  1
  F  F44  1  0.41096227  0.09890911  0.55116623  1
  F  F45  1  0.12518200  0.95347926  0.47254875  1
  F  F46  1  0.58881646  0.60522505  0.40134843  1
  F  F47  1  0.91096227  0.09890911  0.94883377  1
  F  F48  1  0.68637143  0.82417861  0.29562376  1
  F  F49  1  0.69922943  0.34880581  0.69348354  1
  F  F50  1  0.62518200  0.95347926  0.02745125  1
  F  F51  1  0.80077057  0.65119419  0.19348354  1
  F  F52  1  0.58903773  0.90109089  0.44883377  1
  F  F53  1  0.20102028  0.43300440  0.19515458  1
  F  F54  1  0.31362857  0.17582139  0.70437624  1
  F  F55  1  0.70102028  0.43300440  0.30484542  1
  F  F56  1  0.47853649  0.71740404  0.14814637  1
  F  F57  1  0.19922943  0.34880581  0.80651646  1
  F  F58  1  0.97853649  0.71740404  0.35185363  1
  F  F59  1  0.79897972  0.56699560  0.80484542  1
  F  F60  1  0.87481800  0.04652074  0.52745125  1
  F  F61  1  0.91118354  0.39477495  0.90134843  1
  F  F62  1  0.37481800  0.04652074  0.97254875  1
  F  F63  1  0.81362857  0.17582139  0.79562376  1
