# generated using pymatgen
data_EuNiGe
_symmetry_space_group_name_H-M   'P 1'
_cell_length_a   6.11823268
_cell_length_b   6.15417781
_cell_length_c   6.96235982
_cell_angle_alpha   90.00000000
_cell_angle_beta   109.63136596
_cell_angle_gamma   90.00000000
_symmetry_Int_Tables_number   1
_chemical_formula_structural   EuNiGe
_chemical_formula_sum   'Eu4 Ni4 Ge4'
_cell_volume   246.91367927
_cell_formula_units_Z   4
loop_
 _symmetry_equiv_pos_site_id
 _symmetry_equiv_pos_as_xyz
  1  'x, y, z'
loop_
 _atom_site_type_symbol
 _atom_site_label
 _atom_site_symmetry_multiplicity
 _atom_site_fract_x
 _atom_site_fract_y
 _atom_site_fract_z
 _atom_site_occupancy
  Ni  Ni0  1  0.43720295  0.09428422  0.82374567  1
  Ni  Ni1  1  0.06279705  0.59428422  0.67625433  1
  Ni  Ni2  1  0.56279705  0.90571578  0.17625433  1
  Ni  Ni3  1  0.93720295  0.40571578  0.32374567  1
  Ge  Ge4  1  0.80512704  0.14374011  0.07209783  1
  Ge  Ge5  1  0.69487296  0.64374011  0.42790217  1
  Ge  Ge6  1  0.19487296  0.85625989  0.92790217  1
  Ge  Ge7  1  0.30512704  0.35625989  0.57209783  1
  Eu  Eu8  1  0.30516903  0.35993502  0.10602961  1
  Eu  Eu9  1  0.19483097  0.85993502  0.39397039  1
  Eu  Eu10  1  0.69483097  0.64006498  0.89397039  1
  Eu  Eu11  1  0.80516903  0.14006498  0.60602961  1
