# generated using pymatgen
data_LiTaSiO5
_symmetry_space_group_name_H-M   'P 1'
_cell_length_a   7.49724904
_cell_length_b   7.54266643
_cell_length_c   8.00416527
_cell_angle_alpha   90.00000000
_cell_angle_beta   90.00000000
_cell_angle_gamma   119.20993741
_symmetry_Int_Tables_number   1
_chemical_formula_structural   LiTaSiO5
_chemical_formula_sum   'Li4 Ta4 Si4 O20'
_cell_volume   395.07200623
_cell_formula_units_Z   4
loop_
 _symmetry_equiv_pos_site_id
 _symmetry_equiv_pos_as_xyz
  1  'x, y, z'
loop_
 _atom_site_type_symbol
 _atom_site_label
 _atom_site_symmetry_multiplicity
 _atom_site_fract_x
 _atom_site_fract_y
 _atom_site_fract_z
 _atom_site_occupancy
  Li  Li0  1  0.74909143  0.30487858  0.43224064  1
  Li  Li1  1  0.25090857  0.69512142  0.56775936  1
  Li  Li2  1  0.74909143  0.80487858  0.06775936  1
  Li  Li3  1  0.25090857  0.19512142  0.93224064  1
  Ta  Ta4  1  0.74841238  0.00850719  0.74019087  1
  Ta  Ta5  1  0.74841238  0.50850719  0.75980913  1
  Ta  Ta6  1  0.25158762  0.99149281  0.25980913  1
  Ta  Ta7  1  0.25158762  0.49149281  0.24019087  1
  Si  Si8  1  0.25073828  0.25748914  0.60759543  1
  Si  Si9  1  0.25073828  0.75748914  0.89240457  1
  Si  Si10  1  0.74926172  0.24251086  0.10759543  1
  Si  Si11  1  0.74926172  0.74251086  0.39240457  1
  O  O12  1  0.44249791  0.85528858  0.76033229  1
  O  O13  1  0.24919524  0.74721819  0.32701815  1
  O  O14  1  0.94481336  0.85581991  0.26516447  1
  O  O15  1  0.75080476  0.25278181  0.67298185  1
  O  O16  1  0.73086113  0.90855926  0.51336708  1
  O  O17  1  0.76153854  0.07069735  0.98976711  1
  O  O18  1  0.26913887  0.09144074  0.48663292  1
  O  O19  1  0.94481336  0.35581991  0.23483553  1
  O  O20  1  0.44249791  0.35528858  0.73966771  1
  O  O21  1  0.73086113  0.40855926  0.98663292  1
  O  O22  1  0.05518664  0.64418009  0.76516447  1
  O  O23  1  0.23846146  0.42930265  0.48976711  1
  O  O24  1  0.75080476  0.75278181  0.82701815  1
  O  O25  1  0.76153854  0.57069735  0.51023289  1
  O  O26  1  0.24919524  0.24721819  0.17298185  1
  O  O27  1  0.26913887  0.59144074  0.01336708  1
  O  O28  1  0.05518664  0.14418009  0.73483553  1
  O  O29  1  0.23846146  0.92930265  0.01023289  1
  O  O30  1  0.55750209  0.14471142  0.23966771  1
  O  O31  1  0.55750209  0.64471142  0.26033229  1
