# generated using pymatgen
data_NaGdH2S2O9
_symmetry_space_group_name_H-M   'P 1'
_cell_length_a   6.99002769
_cell_length_b   6.99002732
_cell_length_c   12.87657561
_cell_angle_alpha   90.00000000
_cell_angle_beta   90.00000000
_cell_angle_gamma   120.00000181
_symmetry_Int_Tables_number   1
_chemical_formula_structural   NaGdH2S2O9
_chemical_formula_sum   'Na3 Gd3 H6 S6 O27'
_cell_volume   544.86482918
_cell_formula_units_Z   3
loop_
 _symmetry_equiv_pos_site_id
 _symmetry_equiv_pos_as_xyz
  1  'x, y, z'
loop_
 _atom_site_type_symbol
 _atom_site_label
 _atom_site_symmetry_multiplicity
 _atom_site_fract_x
 _atom_site_fract_y
 _atom_site_fract_z
 _atom_site_occupancy
  Na  Na0  1  0.47040554  0.00000000  0.16666700  1
  Na  Na1  1  0.52959446  0.52959446  0.50000000  1
  Na  Na2  1  0.00000000  0.47040554  0.83333300  1
  Gd  Gd3  1  0.44069535  0.00000000  0.66666700  1
  Gd  Gd4  1  0.55930465  0.55930465  0.00000000  1
  Gd  Gd5  1  1.00000000  0.44069535  0.33333300  1
  H  H6  1  0.06196890  0.10227611  0.62925955  1
  H  H7  1  0.89772389  0.95969279  0.29592555  1
  H  H8  1  0.93803110  0.04030721  0.03740745  1
  H  H9  1  0.95969279  0.89772389  0.70407445  1
  H  H10  1  0.10227611  0.06196890  0.37074045  1
  H  H11  1  0.04030721  0.93803110  0.96259255  1
  S  S12  1  0.55563673  0.54394645  0.24175835  1
  S  S13  1  0.98830971  0.44436327  0.57509135  1
  S  S14  1  0.54394645  0.55563673  0.75824165  1
  S  S15  1  0.45605355  0.01169029  0.90842535  1
  S  S16  1  0.44436327  0.98830971  0.42490865  1
  S  S17  1  0.01169029  0.45605355  0.09157465  1
  O  O18  1  0.58731684  0.75447490  0.69747937  1
  O  O19  1  0.41268316  0.16715806  0.96918763  1
  O  O20  1  0.16715806  0.41268316  0.03081237  1
  O  O21  1  0.75447490  0.58731684  0.30252063  1
  O  O22  1  0.48588003  0.35486202  0.16857539  1
  O  O23  1  0.73940375  0.61120331  0.82601274  1
  O  O24  1  0.24552510  0.83284194  0.36414537  1
  O  O25  1  0.64513798  0.13101801  0.83524239  1
  O  O26  1  0.62108337  0.12578452  0.34983344  1
  O  O27  1  0.86898199  0.51411997  0.50190839  1
  O  O28  1  0.49529885  0.87421548  0.98349956  1
  O  O29  1  0.09376997  0.00000000  0.66666700  1
  O  O30  1  0.12820045  0.38879669  0.50732026  1
  O  O31  1  0.83284194  0.24552510  0.63585463  1
  O  O32  1  0.87179955  0.26059625  0.15934574  1
  O  O33  1  0.51411997  0.86898199  0.49809161  1
  O  O34  1  0.50470115  0.37891663  0.68316744  1
  O  O35  1  0.90623003  0.90623003  0.00000000  1
  O  O36  1  0.87421548  0.49529885  0.01650044  1
  O  O37  1  0.61120331  0.73940375  0.17398726  1
  O  O38  1  0.37891663  0.50470115  0.31683256  1
  O  O39  1  1.00000000  0.09376997  0.33333300  1
  O  O40  1  0.35486202  0.48588003  0.83142461  1
  O  O41  1  0.13101801  0.64513798  0.16475761  1
  O  O42  1  0.12578452  0.62108337  0.65016656  1
  O  O43  1  0.26059625  0.87179955  0.84065426  1
  O  O44  1  0.38879669  0.12820045  0.49267974  1
