# generated using pymatgen
data_AlSn(WO4)2
_symmetry_space_group_name_H-M   'P 1'
_cell_length_a   5.17779859
_cell_length_b   5.66425223
_cell_length_c   9.34362657
_cell_angle_alpha   89.99958791
_cell_angle_beta   91.16724682
_cell_angle_gamma   90.00146102
_symmetry_Int_Tables_number   1
_chemical_formula_structural   AlSn(WO4)2
_chemical_formula_sum   'Al2 Sn2 W4 O16'
_cell_volume   273.97635353
_cell_formula_units_Z   2
loop_
 _symmetry_equiv_pos_site_id
 _symmetry_equiv_pos_as_xyz
  1  'x, y, z'
loop_
 _atom_site_type_symbol
 _atom_site_label
 _atom_site_symmetry_multiplicity
 _atom_site_fract_x
 _atom_site_fract_y
 _atom_site_fract_z
 _atom_site_occupancy
  Al  Al0  1  0.25001711  0.66635880  0.24999647  1
  Al  Al1  1  0.74998189  0.33364020  0.75000353  1
  Sn  Sn2  1  0.75001464  0.36466867  0.25000825  1
  Sn  Sn3  1  0.24998536  0.63533033  0.74999175  1
  W  W4  1  0.25338261  0.15339824  0.49942771  1
  W  W5  1  0.24662012  0.15339874  0.00057480  1
  W  W6  1  0.74661739  0.84660176  0.50057229  1
  W  W7  1  0.75337988  0.84660126  0.99942520  1
  O  O8  1  0.39776199  0.39186775  0.13315213  1
  O  O9  1  0.10228088  0.39188727  0.36684697  1
  O  O10  1  0.60223801  0.60813125  0.86684787  1
  O  O11  1  0.89771812  0.60811173  0.63315303  1
  O  O12  1  0.40907565  0.87834837  0.61664826  1
  O  O13  1  0.09091420  0.87835611  0.88333866  1
  O  O14  1  0.59092435  0.12165163  0.38335174  1
  O  O15  1  0.90908580  0.12164389  0.11666134  1
  O  O16  1  0.93887941  0.63324969  0.14174534  1
  O  O17  1  0.56115601  0.63325606  0.35824187  1
  O  O18  1  0.06112059  0.36675131  0.85825466  1
  O  O19  1  0.43884399  0.36674494  0.64175813  1
  O  O20  1  0.41476109  0.88025078  0.11674959  1
  O  O21  1  0.58523891  0.11975022  0.88325041  1
  O  O22  1  0.08524011  0.88024713  0.38324499  1
  O  O23  1  0.91475989  0.11975387  0.61675501  1
