# generated using pymatgen
data_Ba2SiS4
_symmetry_space_group_name_H-M   'P 1'
_cell_length_a   6.82581001
_cell_length_b   8.99828107
_cell_length_c   12.40971950
_cell_angle_alpha   90.00000000
_cell_angle_beta   90.00000000
_cell_angle_gamma   90.00000000
_symmetry_Int_Tables_number   1
_chemical_formula_structural   Ba2SiS4
_chemical_formula_sum   'Ba8 Si4 S16'
_cell_volume   762.21188391
_cell_formula_units_Z   4
loop_
 _symmetry_equiv_pos_site_id
 _symmetry_equiv_pos_as_xyz
  1  'x, y, z'
loop_
 _atom_site_type_symbol
 _atom_site_label
 _atom_site_symmetry_multiplicity
 _atom_site_fract_x
 _atom_site_fract_y
 _atom_site_fract_z
 _atom_site_occupancy
  Si  Si0  1  0.25000000  0.23053066  0.42434627  1
  Si  Si1  1  0.25000000  0.73053066  0.07565373  1
  Si  Si2  1  0.75000000  0.26946934  0.92434627  1
  Si  Si3  1  0.75000000  0.76946934  0.57565373  1
  S  S4  1  0.99509824  0.82380943  0.14624023  1
  S  S5  1  0.49509824  0.17619057  0.85375977  1
  S  S6  1  0.50490176  0.32380943  0.35375977  1
  S  S7  1  0.00490176  0.67619057  0.64624023  1
  S  S8  1  0.99509824  0.32380943  0.35375977  1
  S  S9  1  0.00490176  0.17619057  0.85375977  1
  S  S10  1  0.49509824  0.67619057  0.64624023  1
  S  S11  1  0.50490176  0.82380943  0.14624023  1
  S  S12  1  0.75000000  0.00425429  0.59311406  1
  S  S13  1  0.25000000  0.99574571  0.40688594  1
  S  S14  1  0.75000000  0.50425429  0.90688594  1
  S  S15  1  0.25000000  0.49574571  0.09311406  1
  S  S16  1  0.75000000  0.69020291  0.41270932  1
  S  S17  1  0.25000000  0.30979709  0.58729068  1
  S  S18  1  0.75000000  0.19020291  0.08729068  1
  S  S19  1  0.25000000  0.80979709  0.91270932  1
  Ba  Ba20  1  0.25000000  0.48179977  0.82968126  1
  Ba  Ba21  1  0.75000000  0.51820023  0.17031874  1
  Ba  Ba22  1  0.25000000  0.98179977  0.67031874  1
  Ba  Ba23  1  0.75000000  0.01820023  0.32968126  1
  Ba  Ba24  1  0.25000000  0.13022888  0.07877448  1
  Ba  Ba25  1  0.75000000  0.86977112  0.92122552  1
  Ba  Ba26  1  0.25000000  0.63022888  0.42122552  1
  Ba  Ba27  1  0.75000000  0.36977112  0.57877448  1
