# generated using pymatgen
data_TeOF2
_symmetry_space_group_name_H-M   'P 1'
_cell_length_a   5.45577067
_cell_length_b   5.69715753
_cell_length_c   8.36548196
_cell_angle_alpha   90.00000000
_cell_angle_beta   90.00000000
_cell_angle_gamma   96.42525629
_symmetry_Int_Tables_number   1
_chemical_formula_structural   TeOF2
_chemical_formula_sum   'Te4 O4 F8'
_cell_volume   258.38586850
_cell_formula_units_Z   4
loop_
 _symmetry_equiv_pos_site_id
 _symmetry_equiv_pos_as_xyz
  1  'x, y, z'
loop_
 _atom_site_type_symbol
 _atom_site_label
 _atom_site_symmetry_multiplicity
 _atom_site_fract_x
 _atom_site_fract_y
 _atom_site_fract_z
 _atom_site_occupancy
  Te  Te0  1  0.51968937  0.34780755  0.14745270  1
  Te  Te1  1  0.12699660  0.96474975  0.91069938  1
  Te  Te2  1  0.48031063  0.65219245  0.64745270  1
  Te  Te3  1  0.87300340  0.03525025  0.41069938  1
  O  O4  1  0.69412499  0.94518827  0.60561817  1
  O  O5  1  0.39421463  0.77465363  0.85315806  1
  O  O6  1  0.30587501  0.05481173  0.10561817  1
  O  O7  1  0.60578537  0.22534637  0.35315806  1
  F  F8  1  0.65899378  0.72861369  0.33087630  1
  F  F9  1  0.34100622  0.27138631  0.83087630  1
  F  F10  1  0.99791986  0.70083773  0.04636605  1
  F  F11  1  0.76682612  0.56500979  0.76485866  1
  F  F12  1  0.00208014  0.29916227  0.54636605  1
  F  F13  1  0.19231281  0.84045554  0.56947068  1
  F  F14  1  0.23317388  0.43499021  0.26485866  1
  F  F15  1  0.80768719  0.15954446  0.06947068  1
