# generated using pymatgen
data_Li6Zr2O7
_symmetry_space_group_name_H-M   'P 1'
_cell_length_a   6.06101559
_cell_length_b   6.08728806
_cell_length_c   10.32763430
_cell_angle_alpha   98.94003082
_cell_angle_beta   90.00000000
_cell_angle_gamma   119.85733176
_symmetry_Int_Tables_number   1
_chemical_formula_structural   Li6Zr2O7
_chemical_formula_sum   'Li12 Zr4 O14'
_cell_volume   325.11498011
_cell_formula_units_Z   2
loop_
 _symmetry_equiv_pos_site_id
 _symmetry_equiv_pos_as_xyz
  1  'x, y, z'
loop_
 _atom_site_type_symbol
 _atom_site_label
 _atom_site_symmetry_multiplicity
 _atom_site_fract_x
 _atom_site_fract_y
 _atom_site_fract_z
 _atom_site_occupancy
  Li  Li0  1  0.41633352  0.12087790  0.58570501  1
  Li  Li1  1  0.29545562  0.87912210  0.91429499  1
  Li  Li2  1  0.58366648  0.87912210  0.41429499  1
  Li  Li3  1  0.83207844  0.86448518  0.89787497  1
  Li  Li4  1  0.16565126  0.58710155  0.10509786  1
  Li  Li5  1  0.57854972  0.41289845  0.39490214  1
  Li  Li6  1  0.83434874  0.41289845  0.89490214  1
  Li  Li7  1  0.42145028  0.58710155  0.60509786  1
  Li  Li8  1  0.03240673  0.86448518  0.39787497  1
  Li  Li9  1  0.16792156  0.13551482  0.10212503  1
  Li  Li10  1  0.96759327  0.13551482  0.60212503  1
  Li  Li11  1  0.70454438  0.12087790  0.08570501  1
  O  O12  1  0.86481564  0.50666214  0.25726088  1
  O  O13  1  0.35815350  0.49333786  0.24273912  1
  O  O14  1  0.13518436  0.49333786  0.74273912  1
  O  O15  1  0.64184650  0.50666214  0.75726088  1
  O  O16  1  0.84147323  0.00000000  0.25000000  1
  O  O17  1  0.15852677  0.00000000  0.75000000  1
  O  O18  1  0.76404938  0.26533871  0.50252734  1
  O  O19  1  0.49871067  0.73466129  0.99747266  1
  O  O20  1  0.23595062  0.73466129  0.49747266  1
  O  O21  1  0.50128933  0.26533871  0.00252734  1
  O  O22  1  0.00175768  0.75768305  0.02254158  1
  O  O23  1  0.24407463  0.24231695  0.47745842  1
  O  O24  1  0.99824232  0.24231695  0.97745842  1
  O  O25  1  0.75592537  0.75768305  0.52254158  1
  Zr  Zr26  1  0.30426638  0.36693391  0.86483629  1
  Zr  Zr27  1  0.93733247  0.63306609  0.63516371  1
  Zr  Zr28  1  0.69573362  0.63306609  0.13516371  1
  Zr  Zr29  1  0.06266753  0.36693391  0.36483629  1
