# generated using pymatgen
data_Cs5GeAs3
_symmetry_space_group_name_H-M   'P 1'
_cell_length_a   6.12250766
_cell_length_b   14.91493261
_cell_length_c   16.31664772
_cell_angle_alpha   90.00000000
_cell_angle_beta   90.00000000
_cell_angle_gamma   90.00000000
_symmetry_Int_Tables_number   1
_chemical_formula_structural   Cs5GeAs3
_chemical_formula_sum   'Cs20 Ge4 As12'
_cell_volume   1489.98387953
_cell_formula_units_Z   4
loop_
 _symmetry_equiv_pos_site_id
 _symmetry_equiv_pos_as_xyz
  1  'x, y, z'
loop_
 _atom_site_type_symbol
 _atom_site_label
 _atom_site_symmetry_multiplicity
 _atom_site_fract_x
 _atom_site_fract_y
 _atom_site_fract_z
 _atom_site_occupancy
  Cs  Cs0  1  0.75000000  0.64561965  0.04752315  1
  Cs  Cs1  1  0.25000000  0.27791203  0.20603473  1
  Cs  Cs2  1  0.25000000  0.55100440  0.15459198  1
  Cs  Cs3  1  0.25000000  0.56469264  0.44922410  1
  Cs  Cs4  1  0.75000000  0.44899560  0.84540802  1
  Cs  Cs5  1  0.25000000  0.11910597  0.81387390  1
  Cs  Cs6  1  0.75000000  0.93530736  0.94922410  1
  Cs  Cs7  1  0.75000000  0.14561965  0.45247685  1
  Cs  Cs8  1  0.25000000  0.06469264  0.05077590  1
  Cs  Cs9  1  0.25000000  0.85438035  0.54752315  1
  Cs  Cs10  1  0.25000000  0.05100440  0.34540802  1
  Cs  Cs11  1  0.75000000  0.72208797  0.79396527  1
  Cs  Cs12  1  0.75000000  0.38089403  0.31387390  1
  Cs  Cs13  1  0.75000000  0.94899560  0.65459198  1
  Cs  Cs14  1  0.25000000  0.35438035  0.95247685  1
  Cs  Cs15  1  0.25000000  0.77791203  0.29396527  1
  Cs  Cs16  1  0.75000000  0.88089403  0.18612610  1
  Cs  Cs17  1  0.25000000  0.61910597  0.68612610  1
  Cs  Cs18  1  0.75000000  0.43530736  0.55077590  1
  Cs  Cs19  1  0.75000000  0.22208797  0.70603473  1
  Ge  Ge20  1  0.25000000  0.26082084  0.56850593  1
  Ge  Ge21  1  0.75000000  0.73917916  0.43149407  1
  Ge  Ge22  1  0.75000000  0.23917916  0.06850593  1
  Ge  Ge23  1  0.25000000  0.76082084  0.93149407  1
  As  As24  1  0.75000000  0.89876533  0.41145859  1
  As  As25  1  0.75000000  0.13402649  0.18132650  1
  As  As26  1  0.25000000  0.10123467  0.58854141  1
  As  As27  1  0.25000000  0.60123467  0.91145859  1
  As  As28  1  0.25000000  0.31000875  0.42832630  1
  As  As29  1  0.25000000  0.36597351  0.68132650  1
  As  As30  1  0.75000000  0.68999125  0.57167370  1
  As  As31  1  0.75000000  0.39876533  0.08854141  1
  As  As32  1  0.75000000  0.63402649  0.31867350  1
  As  As33  1  0.25000000  0.81000875  0.07167370  1
  As  As34  1  0.25000000  0.86597351  0.81867350  1
  As  As35  1  0.75000000  0.18999125  0.92832630  1
