# generated using pymatgen
data_Sm2SiTeO4
_symmetry_space_group_name_H-M   'P 1'
_cell_length_a   6.28385832
_cell_length_b   7.17660374
_cell_length_c   11.21761892
_cell_angle_alpha   90.00000000
_cell_angle_beta   90.00000000
_cell_angle_gamma   90.00000000
_symmetry_Int_Tables_number   1
_chemical_formula_structural   Sm2SiTeO4
_chemical_formula_sum   'Sm8 Si4 Te4 O16'
_cell_volume   505.87828078
_cell_formula_units_Z   4
loop_
 _symmetry_equiv_pos_site_id
 _symmetry_equiv_pos_as_xyz
  1  'x, y, z'
loop_
 _atom_site_type_symbol
 _atom_site_label
 _atom_site_symmetry_multiplicity
 _atom_site_fract_x
 _atom_site_fract_y
 _atom_site_fract_z
 _atom_site_occupancy
  O  O0  1  0.27137601  0.07487561  0.46473599  1
  O  O1  1  0.27137601  0.42512439  0.53526401  1
  O  O2  1  0.72862399  0.57487561  0.03526401  1
  O  O3  1  0.72862399  0.92512439  0.96473599  1
  O  O4  1  0.72862399  0.92512439  0.53526401  1
  O  O5  1  0.72862399  0.57487561  0.46473599  1
  O  O6  1  0.27137601  0.42512439  0.96473599  1
  O  O7  1  0.27137601  0.07487561  0.03526401  1
  O  O8  1  0.04991363  0.76716192  0.38384768  1
  O  O9  1  0.04991363  0.76716192  0.11615232  1
  O  O10  1  0.95008637  0.26716192  0.11615232  1
  O  O11  1  0.95008637  0.23283808  0.88384768  1
  O  O12  1  0.95008637  0.23283808  0.61615232  1
  O  O13  1  0.95008637  0.26716192  0.38384768  1
  O  O14  1  0.04991363  0.73283808  0.88384768  1
  O  O15  1  0.04991363  0.73283808  0.61615232  1
  Si  Si16  1  0.11425328  0.25000000  0.00000000  1
  Si  Si17  1  0.88574672  0.75000000  0.00000000  1
  Si  Si18  1  0.88574672  0.75000000  0.50000000  1
  Si  Si19  1  0.11425328  0.25000000  0.50000000  1
  Te  Te20  1  0.59533603  0.58436576  0.75000000  1
  Te  Te21  1  0.59533603  0.91563424  0.25000000  1
  Te  Te22  1  0.40466397  0.08436576  0.75000000  1
  Te  Te23  1  0.40466397  0.41563424  0.25000000  1
  Sm  Sm24  1  0.38807768  0.75000000  0.50000000  1
  Sm  Sm25  1  0.38807768  0.75000000  0.00000000  1
  Sm  Sm26  1  0.61192232  0.25000000  0.50000000  1
  Sm  Sm27  1  0.61192232  0.25000000  0.00000000  1
  Sm  Sm28  1  0.88749548  0.96334486  0.75000000  1
  Sm  Sm29  1  0.88749548  0.53665514  0.25000000  1
  Sm  Sm30  1  0.11250452  0.46334486  0.75000000  1
  Sm  Sm31  1  0.11250452  0.03665514  0.25000000  1
