# generated using pymatgen
data_NaInP2O7
_symmetry_space_group_name_H-M   'P 1'
_cell_length_a   7.58999088
_cell_length_b   8.35658934
_cell_length_c   9.95063817
_cell_angle_alpha   90.00000000
_cell_angle_beta   111.97589695
_cell_angle_gamma   90.00000000
_symmetry_Int_Tables_number   1
_chemical_formula_structural   NaInP2O7
_chemical_formula_sum   'Na4 In4 P8 O28'
_cell_volume   585.27622139
_cell_formula_units_Z   4
loop_
 _symmetry_equiv_pos_site_id
 _symmetry_equiv_pos_as_xyz
  1  'x, y, z'
loop_
 _atom_site_type_symbol
 _atom_site_label
 _atom_site_symmetry_multiplicity
 _atom_site_fract_x
 _atom_site_fract_y
 _atom_site_fract_z
 _atom_site_occupancy
  O  O0  1  0.62555860  0.88805521  0.89335651  1
  O  O1  1  0.97005116  0.40915255  0.62977985  1
  O  O2  1  0.02994884  0.90915255  0.87022015  1
  O  O3  1  0.02994884  0.59084745  0.37022015  1
  O  O4  1  0.97005116  0.09084745  0.12977985  1
  O  O5  1  0.12843211  0.16551385  0.56761558  1
  O  O6  1  0.87156789  0.66551385  0.93238442  1
  O  O7  1  0.87156789  0.83448615  0.43238442  1
  O  O8  1  0.81873328  0.36760357  0.09310307  1
  O  O9  1  0.18126672  0.86760357  0.40689693  1
  O  O10  1  0.18126672  0.63239643  0.90689693  1
  O  O11  1  0.81873328  0.13239643  0.59310307  1
  O  O12  1  0.82665937  0.22060239  0.87702544  1
  O  O13  1  0.17334063  0.72060239  0.62297456  1
  O  O14  1  0.17334063  0.77939761  0.12297456  1
  O  O15  1  0.82665937  0.27939761  0.37702544  1
  O  O16  1  0.30301040  0.20781571  0.39086809  1
  O  O17  1  0.69698960  0.70781571  0.10913191  1
  O  O18  1  0.69698960  0.79218429  0.60913191  1
  O  O19  1  0.54128608  0.58987812  0.85082055  1
  O  O20  1  0.37444140  0.11194479  0.10664349  1
  O  O21  1  0.62555860  0.61194479  0.39335651  1
  O  O22  1  0.30301040  0.29218429  0.89086809  1
  O  O23  1  0.37444140  0.38805521  0.60664349  1
  O  O24  1  0.54128608  0.91012188  0.35082055  1
  O  O25  1  0.45871392  0.41012188  0.14917945  1
  O  O26  1  0.45871392  0.08987812  0.64917945  1
  O  O27  1  0.12843211  0.33448615  0.06761558  1
  Na  Na28  1  0.71596506  0.47390415  0.71546247  1
  Na  Na29  1  0.71596506  0.02609585  0.21546247  1
  Na  Na30  1  0.28403494  0.97390415  0.78453753  1
  Na  Na31  1  0.28403494  0.52609585  0.28453753  1
  P  P32  1  0.67269201  0.71506360  0.94961113  1
  P  P33  1  0.92629470  0.24668762  0.04050601  1
  P  P34  1  0.07370530  0.74668762  0.45949399  1
  P  P35  1  0.07370530  0.75331238  0.95949399  1
  P  P36  1  0.92629470  0.25331238  0.54050601  1
  P  P37  1  0.32730799  0.28493640  0.05038887  1
  P  P38  1  0.32730799  0.21506360  0.55038887  1
  P  P39  1  0.67269201  0.78493640  0.44961113  1
  In  In40  1  0.25405379  0.50423869  0.75124788  1
  In  In41  1  0.74594621  0.00423869  0.74875212  1
  In  In42  1  0.74594621  0.49576131  0.24875212  1
  In  In43  1  0.25405379  0.99576131  0.25124788  1
