# generated using pymatgen
data_B6As
_symmetry_space_group_name_H-M   'P 1'
_cell_length_a   5.33423288
_cell_length_b   5.33423288
_cell_length_c   5.33423288
_cell_angle_alpha   70.55465693
_cell_angle_beta   70.55465692
_cell_angle_gamma   70.55465690
_symmetry_Int_Tables_number   1
_chemical_formula_structural   B6As
_chemical_formula_sum   'B12 As2'
_cell_volume   130.68187788
_cell_formula_units_Z   2
loop_
 _symmetry_equiv_pos_site_id
 _symmetry_equiv_pos_as_xyz
  1  'x, y, z'
loop_
 _atom_site_type_symbol
 _atom_site_label
 _atom_site_symmetry_multiplicity
 _atom_site_fract_x
 _atom_site_fract_y
 _atom_site_fract_z
 _atom_site_occupancy
  B  B0  1  0.01538610  0.01538610  0.32473611  1
  B  B1  1  0.01538610  0.32473611  0.01538610  1
  B  B2  1  0.82226026  0.27174580  0.82226026  1
  B  B3  1  0.82226026  0.82226026  0.27174580  1
  B  B4  1  0.27174580  0.82226026  0.82226026  1
  B  B5  1  0.72825420  0.17773974  0.17773974  1
  B  B6  1  0.17773974  0.72825420  0.17773974  1
  B  B7  1  0.17773974  0.17773974  0.72825420  1
  B  B8  1  0.98461390  0.67526389  0.98461390  1
  B  B9  1  0.98461390  0.98461390  0.67526389  1
  B  B10  1  0.67526389  0.98461390  0.98461390  1
  B  B11  1  0.32473611  0.01538610  0.01538610  1
  As  As12  1  0.60103013  0.60103013  0.60103013  1
  As  As13  1  0.39896987  0.39896987  0.39896987  1
