# generated using pymatgen
data_Mn3AgAs3(HO6)2
_symmetry_space_group_name_H-M   'P 1'
_cell_length_a   7.02847358
_cell_length_b   9.00381632
_cell_length_c   9.00381623
_cell_angle_alpha   91.02243518
_cell_angle_beta   106.37636343
_cell_angle_gamma   106.37636348
_symmetry_Int_Tables_number   1
_chemical_formula_structural   Mn3AgAs3(HO6)2
_chemical_formula_sum   'Mn6 Ag2 As6 H4 O24'
_cell_volume   521.55420849
_cell_formula_units_Z   2
loop_
 _symmetry_equiv_pos_site_id
 _symmetry_equiv_pos_as_xyz
  1  'x, y, z'
loop_
 _atom_site_type_symbol
 _atom_site_label
 _atom_site_symmetry_multiplicity
 _atom_site_fract_x
 _atom_site_fract_y
 _atom_site_fract_z
 _atom_site_occupancy
  Ag  Ag0  1  0.25000000  0.99363837  0.00636163  1
  Ag  Ag1  1  0.75000000  0.00636163  0.99363837  1
  Mn  Mn2  1  0.75000000  0.71256195  0.28743805  1
  Mn  Mn3  1  0.25000000  0.28743805  0.71256195  1
  Mn  Mn4  1  0.61268390  0.04238270  0.36037666  1
  Mn  Mn5  1  0.88731610  0.63962334  0.95761730  1
  Mn  Mn6  1  0.38731610  0.95761730  0.63962334  1
  Mn  Mn7  1  0.11268390  0.36037666  0.04238270  1
  As  As8  1  0.75000000  0.31832538  0.68167462  1
  As  As9  1  0.25000000  0.68167462  0.31832538  1
  As  As10  1  0.88596135  0.89567119  0.66159788  1
  As  As11  1  0.61403865  0.33840212  0.10432881  1
  As  As12  1  0.11403865  0.10432881  0.33840212  1
  As  As13  1  0.38596135  0.66159788  0.89567119  1
  O  O14  1  0.47087651  0.78858815  0.28085466  1
  O  O15  1  0.02912349  0.71914534  0.21141185  1
  O  O16  1  0.52912349  0.21141185  0.71914534  1
  O  O17  1  0.97087651  0.28085466  0.78858815  1
  O  O18  1  0.73259382  0.28580045  0.48501414  1
  O  O19  1  0.76740618  0.51498586  0.71419955  1
  O  O20  1  0.26740618  0.71419955  0.51498586  1
  O  O21  1  0.23259382  0.48501414  0.28580045  1
  H  H22  1  0.70413860  0.37134725  0.40141248  1
  H  H23  1  0.79586140  0.59858752  0.62865275  1
  H  H24  1  0.29586140  0.62865275  0.59858752  1
  H  H25  1  0.20413860  0.40141248  0.37134725  1
  O  O26  1  0.87709258  0.97479501  0.33207162  1
  O  O27  1  0.62290742  0.66792838  0.02520499  1
  O  O28  1  0.12290742  0.02520499  0.66792838  1
  O  O29  1  0.37709258  0.33207162  0.97479501  1
  O  O30  1  0.66767466  0.45477519  0.27642627  1
  O  O31  1  0.83232534  0.72357373  0.54522481  1
  O  O32  1  0.33232534  0.54522481  0.72357373  1
  O  O33  1  0.16767466  0.27642627  0.45477519  1
  O  O34  1  0.68794641  0.97789630  0.59884700  1
  O  O35  1  0.81205359  0.40115300  0.02210370  1
  O  O36  1  0.31205359  0.02210370  0.40115300  1
  O  O37  1  0.18794641  0.59884700  0.97789630  1
  O  O38  1  0.59557188  0.14908128  0.14847842  1
  O  O39  1  0.90442812  0.85152158  0.85091872  1
  O  O40  1  0.40442812  0.85091872  0.85152158  1
  O  O41  1  0.09557188  0.14847842  0.14908128  1
