# generated using pymatgen
data_Ce2P3Au
_symmetry_space_group_name_H-M   'P 1'
_cell_length_a   4.16452164
_cell_length_b   7.65491669
_cell_length_c   16.05135398
_cell_angle_alpha   90.00000000
_cell_angle_beta   90.00000000
_cell_angle_gamma   90.00000000
_symmetry_Int_Tables_number   1
_chemical_formula_structural   Ce2P3Au
_chemical_formula_sum   'Ce8 P12 Au4'
_cell_volume   511.70217625
_cell_formula_units_Z   4
loop_
 _symmetry_equiv_pos_site_id
 _symmetry_equiv_pos_as_xyz
  1  'x, y, z'
loop_
 _atom_site_type_symbol
 _atom_site_label
 _atom_site_symmetry_multiplicity
 _atom_site_fract_x
 _atom_site_fract_y
 _atom_site_fract_z
 _atom_site_occupancy
  Ce  Ce0  1  0.25000000  0.73948751  0.97539047  1
  Ce  Ce1  1  0.75000000  0.40143913  0.29532291  1
  Ce  Ce2  1  0.75000000  0.76051249  0.47539047  1
  Ce  Ce3  1  0.75000000  0.90143913  0.20467709  1
  Ce  Ce4  1  0.25000000  0.09856087  0.79532291  1
  Ce  Ce5  1  0.25000000  0.59856087  0.70467709  1
  Ce  Ce6  1  0.75000000  0.26051249  0.02460953  1
  Ce  Ce7  1  0.25000000  0.23948751  0.52460953  1
  P  P8  1  0.25000000  0.88224435  0.58761213  1
  P  P9  1  0.25000000  0.20187999  0.20229161  1
  P  P10  1  0.75000000  0.61775565  0.08761213  1
  P  P11  1  0.75000000  0.79812001  0.79770839  1
  P  P12  1  0.75000000  0.29812001  0.70229161  1
  P  P13  1  0.25000000  0.38224435  0.91238787  1
  P  P14  1  0.25000000  0.03057906  0.09221009  1
  P  P15  1  0.75000000  0.11775565  0.41238787  1
  P  P16  1  0.75000000  0.46942094  0.59221009  1
  P  P17  1  0.25000000  0.70187999  0.29770839  1
  P  P18  1  0.75000000  0.96942094  0.90778991  1
  P  P19  1  0.25000000  0.53057906  0.40778991  1
  Au  Au20  1  0.25000000  0.51026431  0.14950869  1
  Au  Au21  1  0.75000000  0.48973569  0.85049131  1
  Au  Au22  1  0.25000000  0.01026431  0.35049131  1
  Au  Au23  1  0.75000000  0.98973569  0.64950869  1
