# generated using pymatgen
data_NaEuP2O7
_symmetry_space_group_name_H-M   'P 1'
_cell_length_a   5.35532217
_cell_length_b   8.61665371
_cell_length_c   12.75289532
_cell_angle_alpha   90.00000000
_cell_angle_beta   91.37136358
_cell_angle_gamma   90.00000000
_symmetry_Int_Tables_number   1
_chemical_formula_structural   NaEuP2O7
_chemical_formula_sum   'Na4 Eu4 P8 O28'
_cell_volume   588.31324692
_cell_formula_units_Z   4
loop_
 _symmetry_equiv_pos_site_id
 _symmetry_equiv_pos_as_xyz
  1  'x, y, z'
loop_
 _atom_site_type_symbol
 _atom_site_label
 _atom_site_symmetry_multiplicity
 _atom_site_fract_x
 _atom_site_fract_y
 _atom_site_fract_z
 _atom_site_occupancy
  O  O0  1  0.24714181  0.42561897  0.93561391  1
  O  O1  1  0.25285819  0.92561897  0.56438609  1
  O  O2  1  0.75285819  0.57438103  0.06438609  1
  O  O3  1  0.74714181  0.07438103  0.43561391  1
  O  O4  1  0.48939093  0.92272046  0.74086579  1
  O  O5  1  0.01060907  0.42272046  0.75913421  1
  O  O6  1  0.51060907  0.07727954  0.25913421  1
  O  O7  1  0.98939093  0.57727954  0.24086579  1
  O  O8  1  0.19269453  0.66793547  0.82548040  1
  O  O9  1  0.30730547  0.16793547  0.67451960  1
  O  O10  1  0.80730547  0.33206453  0.17451960  1
  O  O11  1  0.69269453  0.83206453  0.32548040  1
  O  O12  1  0.49136421  0.45743546  0.76841001  1
  O  O13  1  0.00863579  0.95743546  0.73158999  1
  O  O14  1  0.50863579  0.54256454  0.23158999  1
  O  O15  1  0.99136421  0.04256454  0.26841001  1
  O  O16  1  0.54460623  0.84007010  0.08549689  1
  O  O17  1  0.95539377  0.34007010  0.41450311  1
  O  O18  1  0.45539377  0.15992990  0.91450311  1
  O  O19  1  0.04460623  0.65992990  0.58549689  1
  O  O20  1  0.22548159  0.73983177  0.41403207  1
  O  O21  1  0.27451841  0.23983177  0.08596793  1
  O  O22  1  0.77451841  0.26016823  0.58596793  1
  O  O23  1  0.72548159  0.76016823  0.91403207  1
  O  O24  1  0.01414834  0.82327701  0.07073941  1
  O  O25  1  0.48585166  0.32327701  0.42926059  1
  O  O26  1  0.98585166  0.17672299  0.92926059  1
  O  O27  1  0.51414834  0.67672299  0.57073941  1
  Na  Na28  1  0.28084371  0.88454220  0.92169138  1
  Na  Na29  1  0.21915629  0.38454220  0.57830862  1
  Na  Na30  1  0.71915629  0.11545780  0.07830862  1
  Na  Na31  1  0.78084371  0.61545780  0.42169138  1
  P  P32  1  0.23800510  0.49401271  0.81757605  1
  P  P33  1  0.26199490  0.99401271  0.68242395  1
  P  P34  1  0.76199490  0.50598729  0.18242395  1
  P  P35  1  0.73800510  0.00598729  0.31757605  1
  P  P36  1  0.23742800  0.24287744  0.96740438  1
  P  P37  1  0.26257200  0.74287744  0.53259562  1
  P  P38  1  0.76257200  0.75712256  0.03259562  1
  P  P39  1  0.73742800  0.25712256  0.46740438  1
  Eu  Eu40  1  0.77131674  0.69484951  0.73320589  1
  Eu  Eu41  1  0.72868326  0.19484951  0.76679411  1
  Eu  Eu42  1  0.22868326  0.30515049  0.26679411  1
  Eu  Eu43  1  0.27131674  0.80515049  0.23320589  1
