# generated using pymatgen
data_Gd3(CuGe)4
_symmetry_space_group_name_H-M   'P 1'
_cell_length_a   4.26344489
_cell_length_b   6.69460838
_cell_length_c   8.09473018
_cell_angle_alpha   114.42592733
_cell_angle_beta   105.26874980
_cell_angle_gamma   90.00000013
_symmetry_Int_Tables_number   1
_chemical_formula_structural   Gd3(CuGe)4
_chemical_formula_sum   'Gd3 Cu4 Ge4'
_cell_volume   201.37042965
_cell_formula_units_Z   1
loop_
 _symmetry_equiv_pos_site_id
 _symmetry_equiv_pos_as_xyz
  1  'x, y, z'
loop_
 _atom_site_type_symbol
 _atom_site_label
 _atom_site_symmetry_multiplicity
 _atom_site_fract_x
 _atom_site_fract_y
 _atom_site_fract_z
 _atom_site_occupancy
  Gd  Gd0  1  0.13092242  0.13092242  0.26184483  1
  Gd  Gd1  1  0.00000000  0.50000000  0.00000000  1
  Gd  Gd2  1  0.86907758  0.86907758  0.73815517  1
  Cu  Cu3  1  0.33117560  0.14241001  0.66235120  1
  Cu  Cu4  1  0.66882440  0.85758999  0.33764880  1
  Cu  Cu5  1  0.66882440  0.48005881  0.33764880  1
  Cu  Cu6  1  0.33117560  0.51994119  0.66235120  1
  Ge  Ge7  1  0.50000000  0.80943746  0.00000000  1
  Ge  Ge8  1  0.78360220  0.28360220  0.56720440  1
  Ge  Ge9  1  0.21639780  0.71639780  0.43279560  1
  Ge  Ge10  1  0.50000000  0.19056254  0.00000000  1
