# generated using pymatgen
data_PrMgV2O6
_symmetry_space_group_name_H-M   'P 1'
_cell_length_a   5.34546656
_cell_length_b   5.49287642
_cell_length_c   7.70990670
_cell_angle_alpha   90.00327107
_cell_angle_beta   89.76081646
_cell_angle_gamma   89.99862469
_symmetry_Int_Tables_number   1
_chemical_formula_structural   PrMgV2O6
_chemical_formula_sum   'Pr2 Mg2 V4 O12'
_cell_volume   226.37620889
_cell_formula_units_Z   2
loop_
 _symmetry_equiv_pos_site_id
 _symmetry_equiv_pos_as_xyz
  1  'x, y, z'
loop_
 _atom_site_type_symbol
 _atom_site_label
 _atom_site_symmetry_multiplicity
 _atom_site_fract_x
 _atom_site_fract_y
 _atom_site_fract_z
 _atom_site_occupancy
  Pr  Pr0  1  0.00897275  0.95167979  0.75017074  1
  Pr  Pr1  1  0.50904542  0.54835851  0.25012882  1
  Mg  Mg2  1  0.47963665  0.44866682  0.75199613  1
  Mg  Mg3  1  0.97959619  0.05126618  0.25198392  1
  V  V4  1  0.99668365  0.49154271  0.99878672  1
  V  V5  1  0.99821451  0.49735474  0.50018631  1
  V  V6  1  0.49661195  0.00844981  0.49885250  1
  V  V7  1  0.49811915  0.00266242  0.00025668  1
  O  O8  1  0.08485633  0.44632481  0.24950715  1
  O  O9  1  0.20577429  0.23141312  0.94474190  1
  O  O10  1  0.21837769  0.22089063  0.55696993  1
  O  O11  1  0.32650195  0.70758158  0.55731384  1
  O  O12  1  0.31231674  0.69457140  0.93897120  1
  O  O13  1  0.36872651  0.97455759  0.25134688  1
  O  O14  1  0.58483225  0.05367938  0.74951492  1
  O  O15  1  0.71841201  0.27913994  0.05689269  1
  O  O16  1  0.70572565  0.26856129  0.44459950  1
  O  O17  1  0.82648584  0.79242991  0.05736386  1
  O  O18  1  0.81236187  0.80541930  0.43904618  1
  O  O19  1  0.86874462  0.52545109  0.75137113  1
