# generated using pymatgen
data_Sm3Si2Ni
_symmetry_space_group_name_H-M   'P 1'
_cell_length_a   4.13178031
_cell_length_b   11.33005088
_cell_length_c   11.39442195
_cell_angle_alpha   89.99976114
_cell_angle_beta   90.00028412
_cell_angle_gamma   89.99971237
_symmetry_Int_Tables_number   1
_chemical_formula_structural   Sm3Si2Ni
_chemical_formula_sum   'Sm12 Si8 Ni4'
_cell_volume   533.41027813
_cell_formula_units_Z   4
loop_
 _symmetry_equiv_pos_site_id
 _symmetry_equiv_pos_as_xyz
  1  'x, y, z'
loop_
 _atom_site_type_symbol
 _atom_site_label
 _atom_site_symmetry_multiplicity
 _atom_site_fract_x
 _atom_site_fract_y
 _atom_site_fract_z
 _atom_site_occupancy
  Sm  Sm0  1  0.25000008  0.37585798  0.05817396  1
  Sm  Sm1  1  0.74999855  0.55927985  0.61725177  1
  Sm  Sm2  1  0.74999834  0.19672971  0.28603438  1
  Sm  Sm3  1  0.24999801  0.69672772  0.21396852  1
  Sm  Sm4  1  0.74999976  0.62414742  0.94181730  1
  Sm  Sm5  1  0.74999773  0.87585366  0.44182307  1
  Sm  Sm6  1  0.25000058  0.80327282  0.71397983  1
  Sm  Sm7  1  0.24999748  0.44071663  0.38275626  1
  Sm  Sm8  1  0.75000040  0.30327092  0.78602538  1
  Sm  Sm9  1  0.25000034  0.12414821  0.55818556  1
  Sm  Sm10  1  0.74999857  0.94071069  0.11724327  1
  Sm  Sm11  1  0.25000088  0.05928029  0.88274651  1
  Si  Si12  1  0.25000048  0.49336706  0.80123074  1
  Si  Si13  1  0.25000132  0.81384664  0.97224074  1
  Si  Si14  1  0.24999892  0.68615053  0.47224624  1
  Si  Si15  1  0.74999841  0.99336940  0.69877572  1
  Si  Si16  1  0.75000043  0.50663058  0.19876696  1
  Si  Si17  1  0.25000070  0.00662706  0.30123073  1
  Si  Si18  1  0.74999941  0.18615269  0.02775030  1
  Si  Si19  1  0.75000139  0.31384917  0.52776087  1
  Ni  Ni20  1  0.25000344  0.13378928  0.12901821  1
  Ni  Ni21  1  0.75000067  0.86621841  0.87095750  1
  Ni  Ni22  1  0.25000072  0.36621566  0.62903825  1
  Ni  Ni23  1  0.75000341  0.63378764  0.37097793  1
