# generated using pymatgen
data_Hf2Co3Si4
_symmetry_space_group_name_H-M   'P 1'
_cell_length_a   5.20855335
_cell_length_b   6.74466156
_cell_length_c   13.67376331
_cell_angle_alpha   90.00000000
_cell_angle_beta   90.00000000
_cell_angle_gamma   90.00000000
_symmetry_Int_Tables_number   1
_chemical_formula_structural   Hf2Co3Si4
_chemical_formula_sum   'Hf8 Co12 Si16'
_cell_volume   480.35834194
_cell_formula_units_Z   4
loop_
 _symmetry_equiv_pos_site_id
 _symmetry_equiv_pos_as_xyz
  1  'x, y, z'
loop_
 _atom_site_type_symbol
 _atom_site_label
 _atom_site_symmetry_multiplicity
 _atom_site_fract_x
 _atom_site_fract_y
 _atom_site_fract_z
 _atom_site_occupancy
  Hf  Hf0  1  0.27015102  0.90046768  0.14506964  1
  Hf  Hf1  1  0.77015102  0.59953232  0.14506964  1
  Hf  Hf2  1  0.22984898  0.59953232  0.64506964  1
  Hf  Hf3  1  0.72984898  0.90046768  0.64506964  1
  Hf  Hf4  1  0.27015102  0.09953232  0.35493036  1
  Hf  Hf5  1  0.77015102  0.40046768  0.35493036  1
  Hf  Hf6  1  0.22984898  0.40046768  0.85493036  1
  Hf  Hf7  1  0.72984898  0.09953232  0.85493036  1
  Co  Co8  1  0.50614379  0.77683179  0.98064877  1
  Co  Co9  1  0.99385621  0.72316821  0.48064877  1
  Co  Co10  1  0.72324492  0.50000000  0.75000000  1
  Co  Co11  1  0.00614379  0.72316821  0.98064877  1
  Co  Co12  1  0.77675508  0.00000000  0.25000000  1
  Co  Co13  1  0.00614379  0.27683179  0.51935123  1
  Co  Co14  1  0.49385621  0.77683179  0.48064877  1
  Co  Co15  1  0.49385621  0.22316821  0.01935123  1
  Co  Co16  1  0.27675508  0.50000000  0.25000000  1
  Co  Co17  1  0.22324492  0.00000000  0.75000000  1
  Co  Co18  1  0.99385621  0.27683179  0.01935123  1
  Co  Co19  1  0.50614379  0.22316821  0.51935123  1
  Si  Si20  1  0.28418390  0.51974222  0.06860371  1
  Si  Si21  1  0.78418390  0.01974222  0.43139629  1
  Si  Si22  1  0.71581610  0.51974222  0.56860371  1
  Si  Si23  1  0.02115392  0.25380360  0.18805971  1
  Si  Si24  1  0.47884608  0.75380360  0.81194029  1
  Si  Si25  1  0.97884608  0.74619640  0.81194029  1
  Si  Si26  1  0.28418390  0.48025778  0.43139629  1
  Si  Si27  1  0.21581610  0.01974222  0.93139629  1
  Si  Si28  1  0.52115392  0.24619640  0.18805971  1
  Si  Si29  1  0.78418390  0.98025778  0.06860371  1
  Si  Si30  1  0.21581610  0.98025778  0.56860371  1
  Si  Si31  1  0.02115392  0.74619640  0.31194029  1
  Si  Si32  1  0.47884608  0.24619640  0.68805971  1
  Si  Si33  1  0.71581610  0.48025778  0.93139629  1
  Si  Si34  1  0.97884608  0.25380360  0.68805971  1
  Si  Si35  1  0.52115392  0.75380360  0.31194029  1
