# generated using pymatgen
data_K4UC3O11
_symmetry_space_group_name_H-M   'P 1'
_cell_length_a   7.02041533
_cell_length_b   7.02041534
_cell_length_c   12.45348188
_cell_angle_alpha   86.62786694
_cell_angle_beta   86.62786694
_cell_angle_gamma   83.54087109
_symmetry_Int_Tables_number   1
_chemical_formula_structural   K4UC3O11
_chemical_formula_sum   'K8 U2 C6 O22'
_cell_volume   607.98936699
_cell_formula_units_Z   2
loop_
 _symmetry_equiv_pos_site_id
 _symmetry_equiv_pos_as_xyz
  1  'x, y, z'
loop_
 _atom_site_type_symbol
 _atom_site_label
 _atom_site_symmetry_multiplicity
 _atom_site_fract_x
 _atom_site_fract_y
 _atom_site_fract_z
 _atom_site_occupancy
  C  C0  1  0.48993085  0.51006915  0.25000000  1
  C  C1  1  0.51006915  0.48993085  0.75000000  1
  C  C2  1  0.08098093  0.16822097  0.41363017  1
  C  C3  1  0.83177903  0.91901907  0.08636983  1
  C  C4  1  0.91901907  0.83177903  0.58636983  1
  C  C5  1  0.16822097  0.08098093  0.91363017  1
  O  O6  1  0.95933506  0.36395329  0.17911892  1
  O  O7  1  0.63604671  0.04066494  0.32088108  1
  O  O8  1  0.04066494  0.63604671  0.82088108  1
  O  O9  1  0.36395329  0.95933506  0.67911892  1
  O  O10  1  0.47611296  0.60850816  0.82889402  1
  O  O11  1  0.39149184  0.52388704  0.67110598  1
  O  O12  1  0.52388704  0.39149184  0.17110598  1
  O  O13  1  0.60850816  0.47611296  0.32889402  1
  O  O14  1  0.28727859  0.92086435  0.91995373  1
  O  O15  1  0.07913565  0.71272141  0.58004627  1
  O  O16  1  0.71272141  0.07913565  0.08004627  1
  O  O17  1  0.92086435  0.28727859  0.41995373  1
  O  O18  1  0.04497586  0.08434126  0.83746158  1
  O  O19  1  0.91565874  0.95502414  0.66253842  1
  O  O20  1  0.95502414  0.91565874  0.16253842  1
  O  O21  1  0.08434126  0.04497586  0.33746158  1
  O  O22  1  0.64560233  0.35439767  0.75000000  1
  O  O23  1  0.35439767  0.64560233  0.25000000  1
  O  O24  1  0.17370529  0.21784615  0.97390332  1
  O  O25  1  0.78215385  0.82629471  0.52609668  1
  O  O26  1  0.82629471  0.78215385  0.02609668  1
  O  O27  1  0.21784615  0.17370529  0.47390332  1
  K  K28  1  0.78748099  0.42540642  0.95709649  1
  K  K29  1  0.57459358  0.21251901  0.54290351  1
  K  K30  1  0.21251901  0.57459358  0.04290351  1
  K  K31  1  0.42540642  0.78748099  0.45709649  1
  K  K32  1  0.33390966  0.03337668  0.15656271  1
  K  K33  1  0.96662332  0.66609034  0.34343729  1
  K  K34  1  0.66609034  0.96662332  0.84343729  1
  K  K35  1  0.03337668  0.33390966  0.65656271  1
  U  U36  1  0.79992575  0.20007425  0.25000000  1
  U  U37  1  0.20007425  0.79992575  0.75000000  1
