# generated using pymatgen
data_Gd6CoBr10
_symmetry_space_group_name_H-M   'P 1'
_cell_length_a   7.41021549
_cell_length_b   9.16433429
_cell_length_c   9.25712971
_cell_angle_alpha   108.98048098
_cell_angle_beta   97.38554716
_cell_angle_gamma   106.10606542
_symmetry_Int_Tables_number   1
_chemical_formula_structural   Gd6CoBr10
_chemical_formula_sum   'Gd6 Co1 Br10'
_cell_volume   554.32937199
_cell_formula_units_Z   1
loop_
 _symmetry_equiv_pos_site_id
 _symmetry_equiv_pos_as_xyz
  1  'x, y, z'
loop_
 _atom_site_type_symbol
 _atom_site_label
 _atom_site_symmetry_multiplicity
 _atom_site_fract_x
 _atom_site_fract_y
 _atom_site_fract_z
 _atom_site_occupancy
  Gd  Gd0  1  0.86455585  0.13906540  0.68137659  1
  Gd  Gd1  1  0.52512785  0.70358199  0.40636564  1
  Gd  Gd2  1  0.47487215  0.29641801  0.59363436  1
  Gd  Gd3  1  0.13544415  0.86093460  0.31862341  1
  Gd  Gd4  1  0.62336174  0.04434961  0.25126461  1
  Gd  Gd5  1  0.37663826  0.95565039  0.74873539  1
  Co  Co6  1  0.50000000  0.00000000  0.50000000  1
  Br  Br7  1  0.41066231  0.62911418  0.67829174  1
  Br  Br8  1  0.76624749  0.08863413  0.96315021  1
  Br  Br9  1  0.23375251  0.91136587  0.03684979  1
  Br  Br10  1  0.95153612  0.81973707  0.58620778  1
  Br  Br11  1  0.29598476  0.26783686  0.86007745  1
  Br  Br12  1  0.70401524  0.73216314  0.13992255  1
  Br  Br13  1  0.04846388  0.18026293  0.41379222  1
  Br  Br14  1  0.58933769  0.37088582  0.32170826  1
  Br  Br15  1  0.86952046  0.46899157  0.77943342  1
  Br  Br16  1  0.13047954  0.53100843  0.22056658  1
