# generated using pymatgen
data_Pr2Ta3(SeO4)2
_symmetry_space_group_name_H-M   'P 1'
_cell_length_a   7.68280514
_cell_length_b   10.00224790
_cell_length_c   12.01726190
_cell_angle_alpha   90.00000000
_cell_angle_beta   90.00000000
_cell_angle_gamma   90.00000000
_symmetry_Int_Tables_number   1
_chemical_formula_structural   Pr2Ta3(SeO4)2
_chemical_formula_sum   'Pr8 Ta12 Se8 O32'
_cell_volume   923.47035519
_cell_formula_units_Z   4
loop_
 _symmetry_equiv_pos_site_id
 _symmetry_equiv_pos_as_xyz
  1  'x, y, z'
loop_
 _atom_site_type_symbol
 _atom_site_label
 _atom_site_symmetry_multiplicity
 _atom_site_fract_x
 _atom_site_fract_y
 _atom_site_fract_z
 _atom_site_occupancy
  O  O0  1  0.50000000  0.36459034  0.05147022  1
  O  O1  1  0.50000000  0.63540966  0.94852978  1
  O  O2  1  0.00000000  0.86459034  0.44852978  1
  O  O3  1  0.00000000  0.13540966  0.55147022  1
  O  O4  1  0.50000000  0.15027440  0.54891518  1
  O  O5  1  0.50000000  0.84972560  0.45108482  1
  O  O6  1  0.00000000  0.65027440  0.95108482  1
  O  O7  1  0.00000000  0.34972560  0.04891518  1
  O  O8  1  0.75179470  0.78757839  0.27600590  1
  O  O9  1  0.75179470  0.21242161  0.72399410  1
  O  O10  1  0.74820530  0.28757839  0.22399410  1
  O  O11  1  0.74820530  0.71242161  0.77600590  1
  O  O12  1  0.24820530  0.21242161  0.72399410  1
  O  O13  1  0.24820530  0.78757839  0.27600590  1
  O  O14  1  0.26481964  0.19715135  0.97537253  1
  O  O15  1  0.25179470  0.71242161  0.77600590  1
  O  O16  1  0.75419501  0.55613814  0.10290443  1
  O  O17  1  0.75419501  0.44386186  0.89709557  1
  O  O18  1  0.74580499  0.05613814  0.39709557  1
  O  O19  1  0.74580499  0.94386186  0.60290443  1
  O  O20  1  0.24580499  0.44386186  0.89709557  1
  O  O21  1  0.24580499  0.55613814  0.10290443  1
  O  O22  1  0.25419501  0.94386186  0.60290443  1
  O  O23  1  0.25419501  0.05613814  0.39709557  1
  O  O24  1  0.73518036  0.80284865  0.02462747  1
  O  O25  1  0.73518036  0.19715135  0.97537253  1
  O  O26  1  0.76481964  0.30284865  0.47537253  1
  O  O27  1  0.76481964  0.69715135  0.52462747  1
  O  O28  1  0.23518036  0.30284865  0.47537253  1
  O  O29  1  0.23518036  0.69715135  0.52462747  1
  O  O30  1  0.26481964  0.80284865  0.02462747  1
  O  O31  1  0.25179470  0.28757839  0.22399410  1
  Se  Se32  1  0.50000000  0.98023906  0.83672265  1
  Se  Se33  1  0.50000000  0.01976094  0.16327735  1
  Se  Se34  1  0.00000000  0.48023906  0.66327735  1
  Se  Se35  1  0.00000000  0.51976094  0.33672265  1
  Se  Se36  1  0.50000000  0.47665614  0.63830077  1
  Se  Se37  1  0.50000000  0.52334386  0.36169923  1
  Se  Se38  1  0.00000000  0.97665614  0.86169923  1
  Se  Se39  1  0.00000000  0.02334386  0.13830077  1
  Pr  Pr40  1  0.00000000  0.78983708  0.65684274  1
  Pr  Pr41  1  0.50000000  0.71016292  0.15684274  1
  Pr  Pr42  1  0.50000000  0.28983708  0.84315726  1
  Pr  Pr43  1  0.00000000  0.72732682  0.14899826  1
  Pr  Pr44  1  0.00000000  0.27267318  0.85100174  1
  Pr  Pr45  1  0.50000000  0.22732682  0.35100174  1
  Pr  Pr46  1  0.00000000  0.21016292  0.34315726  1
  Pr  Pr47  1  0.50000000  0.77267318  0.64899826  1
  Ta  Ta48  1  0.24974711  0.13590406  0.58342611  1
  Ta  Ta49  1  0.24974711  0.86409594  0.41657389  1
  Ta  Ta50  1  0.25025289  0.63590406  0.91657389  1
  Ta  Ta51  1  0.25025289  0.36409594  0.08342611  1
  Ta  Ta52  1  0.74974711  0.63590406  0.91657389  1
  Ta  Ta53  1  0.75025289  0.13590406  0.58342611  1
  Ta  Ta54  1  0.75025289  0.86409594  0.41657389  1
  Ta  Ta55  1  0.28549694  0.00000000  0.00000000  1
  Ta  Ta56  1  0.21450306  0.50000000  0.50000000  1
  Ta  Ta57  1  0.71450306  0.00000000  0.00000000  1
  Ta  Ta58  1  0.78549694  0.50000000  0.50000000  1
  Ta  Ta59  1  0.74974711  0.36409594  0.08342611  1
