# generated using pymatgen
data_NaNpCO5
_symmetry_space_group_name_H-M   'P 1'
_cell_length_a   4.39335044
_cell_length_b   4.92678450
_cell_length_c   11.03618908
_cell_angle_alpha   90.00020519
_cell_angle_beta   90.00774577
_cell_angle_gamma   90.00003492
_symmetry_Int_Tables_number   1
_chemical_formula_structural   NaNpCO5
_chemical_formula_sum   'Na2 Np2 C2 O10'
_cell_volume   238.87931300
_cell_formula_units_Z   2
loop_
 _symmetry_equiv_pos_site_id
 _symmetry_equiv_pos_as_xyz
  1  'x, y, z'
loop_
 _atom_site_type_symbol
 _atom_site_label
 _atom_site_symmetry_multiplicity
 _atom_site_fract_x
 _atom_site_fract_y
 _atom_site_fract_z
 _atom_site_occupancy
  Na  Na0  1  0.73951627  0.50000022  0.24807724  1
  Na  Na1  1  0.26038199  0.00000278  0.74808492  1
  Np  Np2  1  0.22000869  0.50000286  0.50264741  1
  Np  Np3  1  0.78012076  0.99999653  0.00295289  1
  C  C4  1  0.40007840  0.49999660  0.99813416  1
  C  C5  1  0.59998057  0.00000306  0.49810563  1
  O  O6  1  0.27237987  0.26640804  0.98828921  1
  O  O7  1  0.72765302  0.23359339  0.48828278  1
  O  O8  1  0.78016692  0.99999761  0.17042520  1
  O  O9  1  0.21982744  0.50000273  0.67059565  1
  O  O10  1  0.22828781  0.50000089  0.33408215  1
  O  O11  1  0.30519275  0.00000296  0.51985064  1
  O  O12  1  0.72765342  0.76641259  0.48828309  1
  O  O13  1  0.69483625  0.49999664  0.01985641  1
  O  O14  1  0.77153507  0.99999664  0.83404304  1
  O  O15  1  0.27238077  0.73358646  0.98828959  1
