# generated using pymatgen
data_LuNiBC
_symmetry_space_group_name_H-M   'P 1'
_cell_length_a   3.49945877
_cell_length_b   3.49945877
_cell_length_c   7.54107960
_cell_angle_alpha   90.00000000
_cell_angle_beta   90.00000000
_cell_angle_gamma   90.00000000
_symmetry_Int_Tables_number   1
_chemical_formula_structural   LuNiBC
_chemical_formula_sum   'Lu2 Ni2 B2 C2'
_cell_volume   92.34965710
_cell_formula_units_Z   2
loop_
 _symmetry_equiv_pos_site_id
 _symmetry_equiv_pos_as_xyz
  1  'x, y, z'
loop_
 _atom_site_type_symbol
 _atom_site_label
 _atom_site_symmetry_multiplicity
 _atom_site_fract_x
 _atom_site_fract_y
 _atom_site_fract_z
 _atom_site_occupancy
  B  B0  1  0.25000000  0.25000000  0.65133454  1
  B  B1  1  0.75000000  0.75000000  0.34866546  1
  C  C2  1  0.75000000  0.75000000  0.15066462  1
  C  C3  1  0.25000000  0.25000000  0.84933538  1
  Ni  Ni4  1  0.75000000  0.25000000  0.50000000  1
  Ni  Ni5  1  0.25000000  0.75000000  0.50000000  1
  Lu  Lu6  1  0.75000000  0.75000000  0.83858627  1
  Lu  Lu7  1  0.25000000  0.25000000  0.16141373  1
