# generated using pymatgen
data_Y5Bi3
_symmetry_space_group_name_H-M   'P 1'
_cell_length_a   8.28991658
_cell_length_b   9.55044313
_cell_length_c   12.11123423
_cell_angle_alpha   90.00000000
_cell_angle_beta   90.00000000
_cell_angle_gamma   90.00000000
_symmetry_Int_Tables_number   1
_chemical_formula_structural   Y5Bi3
_chemical_formula_sum   'Y20 Bi12'
_cell_volume   958.87520057
_cell_formula_units_Z   4
loop_
 _symmetry_equiv_pos_site_id
 _symmetry_equiv_pos_as_xyz
  1  'x, y, z'
loop_
 _atom_site_type_symbol
 _atom_site_label
 _atom_site_symmetry_multiplicity
 _atom_site_fract_x
 _atom_site_fract_y
 _atom_site_fract_z
 _atom_site_occupancy
  Y  Y0  1  0.03001236  0.75000000  0.98856869  1
  Y  Y1  1  0.53001236  0.75000000  0.51143131  1
  Y  Y2  1  0.96998764  0.25000000  0.01143131  1
  Y  Y3  1  0.46998764  0.25000000  0.48856869  1
  Y  Y4  1  0.18706883  0.75000000  0.71910038  1
  Y  Y5  1  0.68706883  0.75000000  0.78089962  1
  Y  Y6  1  0.81293117  0.25000000  0.28089962  1
  Y  Y7  1  0.31293117  0.25000000  0.21910038  1
  Y  Y8  1  0.30566436  0.43711106  0.93855422  1
  Y  Y9  1  0.80566436  0.06288894  0.56144578  1
  Y  Y10  1  0.69433564  0.93711106  0.06144578  1
  Y  Y11  1  0.19433564  0.56288894  0.43855422  1
  Y  Y12  1  0.69433564  0.56288894  0.06144578  1
  Y  Y13  1  0.19433564  0.93711106  0.43855422  1
  Y  Y14  1  0.30566436  0.06288894  0.93855422  1
  Y  Y15  1  0.80566436  0.43711106  0.56144578  1
  Y  Y16  1  0.35649648  0.75000000  0.21540112  1
  Y  Y17  1  0.85649648  0.75000000  0.28459888  1
  Y  Y18  1  0.64350352  0.25000000  0.78459888  1
  Y  Y19  1  0.14350352  0.25000000  0.71540112  1
  Bi  Bi20  1  0.43330543  0.00370182  0.67389885  1
  Bi  Bi21  1  0.93330543  0.49629818  0.82610115  1
  Bi  Bi22  1  0.56669457  0.50370182  0.32610115  1
  Bi  Bi23  1  0.06669457  0.99629818  0.17389885  1
  Bi  Bi24  1  0.56669457  0.99629818  0.32610115  1
  Bi  Bi25  1  0.06669457  0.50370182  0.17389885  1
  Bi  Bi26  1  0.43330543  0.49629818  0.67389885  1
  Bi  Bi27  1  0.93330543  0.00370182  0.82610115  1
  Bi  Bi28  1  0.41143759  0.75000000  0.95831198  1
  Bi  Bi29  1  0.91143759  0.75000000  0.54168802  1
  Bi  Bi30  1  0.58856241  0.25000000  0.04168802  1
  Bi  Bi31  1  0.08856241  0.25000000  0.45831198  1
