# generated using pymatgen
data_Cs2Cu3(P2O7)2
_symmetry_space_group_name_H-M   'P 1'
_cell_length_a   7.89249182
_cell_length_b   8.01528458
_cell_length_c   11.04683985
_cell_angle_alpha   90.00000000
_cell_angle_beta   90.00000000
_cell_angle_gamma   104.06331123
_symmetry_Int_Tables_number   1
_chemical_formula_structural   Cs2Cu3(P2O7)2
_chemical_formula_sum   'Cs4 Cu6 P8 O28'
_cell_volume   677.88391877
_cell_formula_units_Z   2
loop_
 _symmetry_equiv_pos_site_id
 _symmetry_equiv_pos_as_xyz
  1  'x, y, z'
loop_
 _atom_site_type_symbol
 _atom_site_label
 _atom_site_symmetry_multiplicity
 _atom_site_fract_x
 _atom_site_fract_y
 _atom_site_fract_z
 _atom_site_occupancy
  Cs  Cs0  1  0.53991820  0.74482177  0.31435302  1
  Cs  Cs1  1  0.03991820  0.74482177  0.18564698  1
  Cs  Cs2  1  0.46008180  0.25517823  0.68564698  1
  Cs  Cs3  1  0.96008180  0.25517823  0.81435302  1
  Cu  Cu4  1  0.27181486  0.28269353  0.10834709  1
  Cu  Cu5  1  0.00000000  0.00000000  0.50000000  1
  Cu  Cu6  1  0.22818514  0.71730647  0.60834709  1
  Cu  Cu7  1  0.77181486  0.28269353  0.39165291  1
  Cu  Cu8  1  0.50000000  0.00000000  0.00000000  1
  Cu  Cu9  1  0.72818514  0.71730647  0.89165291  1
  P  P10  1  0.66262394  0.38091176  0.04895840  1
  P  P11  1  0.65348722  0.86814983  0.65793865  1
  P  P12  1  0.33737606  0.61908824  0.95104160  1
  P  P13  1  0.83737606  0.61908824  0.54895840  1
  P  P14  1  0.84651278  0.13185017  0.15793865  1
  P  P15  1  0.15348722  0.86814983  0.84206135  1
  P  P16  1  0.16262394  0.38091176  0.45104160  1
  P  P17  1  0.34651278  0.13185017  0.34206135  1
  O  O18  1  0.28747383  0.00972713  0.90871620  1
  O  O19  1  0.52637154  0.15249434  0.39845401  1
  O  O20  1  0.28681069  0.31324917  0.35373286  1
  O  O21  1  0.48523174  0.57732152  0.87572388  1
  O  O22  1  0.34040686  0.09975109  0.20384004  1
  O  O23  1  0.39655083  0.76150545  0.04599561  1
  O  O24  1  0.97362846  0.84750566  0.89845401  1
  O  O25  1  0.78747383  0.00972713  0.59128380  1
  O  O26  1  0.84040686  0.09975109  0.29615996  1
  O  O27  1  0.89655083  0.76150545  0.45400439  1
  O  O28  1  0.71318931  0.68675083  0.64626714  1
  O  O29  1  0.15959314  0.90024891  0.70384004  1
  O  O30  1  0.65959314  0.90024891  0.79615996  1
  O  O31  1  0.28688995  0.54121224  0.50505200  1
  O  O32  1  0.98523174  0.57732152  0.62427612  1
  O  O33  1  0.21311005  0.45878776  0.00505200  1
  O  O34  1  0.01476826  0.42267848  0.37572388  1
  O  O35  1  0.71252617  0.99027287  0.09128380  1
  O  O36  1  0.78681069  0.31324917  0.14626714  1
  O  O37  1  0.60344917  0.23849455  0.95400439  1
  O  O38  1  0.47362846  0.84750566  0.60154599  1
  O  O39  1  0.02637154  0.15249434  0.10154599  1
  O  O40  1  0.10344917  0.23849455  0.54599561  1
  O  O41  1  0.21318931  0.68675083  0.85373286  1
  O  O42  1  0.71311005  0.45878776  0.49494800  1
  O  O43  1  0.78688995  0.54121224  0.99494800  1
  O  O44  1  0.51476826  0.42267848  0.12427612  1
  O  O45  1  0.21252617  0.99027287  0.40871620  1
