# generated using pymatgen
data_Ca4LaB3O10
_symmetry_space_group_name_H-M   'P 1'
_cell_length_a   3.65555450
_cell_length_b   8.21075554
_cell_length_c   9.09432753
_cell_angle_alpha   63.16505766
_cell_angle_beta   84.87774238
_cell_angle_gamma   78.59295788
_symmetry_Int_Tables_number   1
_chemical_formula_structural   Ca4LaB3O10
_chemical_formula_sum   'Ca4 La1 B3 O10'
_cell_volume   238.75833012
_cell_formula_units_Z   1
loop_
 _symmetry_equiv_pos_site_id
 _symmetry_equiv_pos_as_xyz
  1  'x, y, z'
loop_
 _atom_site_type_symbol
 _atom_site_label
 _atom_site_symmetry_multiplicity
 _atom_site_fract_x
 _atom_site_fract_y
 _atom_site_fract_z
 _atom_site_occupancy
  B  B0  1  0.08889028  0.23477022  0.60768761  1
  B  B1  1  0.08889028  0.84245784  0.39231239  1
  B  B2  1  0.70978500  0.61008260  0.00000000  1
  O  O3  1  0.27300432  0.29988063  0.45763499  1
  O  O4  1  0.09616219  0.74848037  0.29648623  1
  O  O5  1  0.27300432  0.75751563  0.54236501  1
  O  O6  1  0.89150720  0.02245795  0.33884591  1
  O  O7  1  0.89150720  0.36130386  0.66115409  1
  O  O8  1  0.41788794  0.17368587  0.00000000  1
  O  O9  1  0.75709312  0.45086077  0.14896815  1
  O  O10  1  0.75709312  0.59982893  0.85103185  1
  O  O11  1  0.61446710  0.78316581  0.00000000  1
  O  O12  1  0.09616219  0.04496660  0.70351377  1
  Ca  Ca13  1  0.67073524  0.54097256  0.36215606  1
  Ca  Ca14  1  0.67073524  0.90312862  0.63784394  1
  Ca  Ca15  1  0.33382056  0.46398555  0.77157353  1
  Ca  Ca16  1  0.33382056  0.23555908  0.22842647  1
  La  La17  1  0.00103413  0.99559712  0.00000000  1
