# generated using pymatgen
data_NaTaGeO5
_symmetry_space_group_name_H-M   'P 1'
_cell_length_a   5.70294184
_cell_length_b   5.70294184
_cell_length_c   7.51781754
_cell_angle_alpha   105.27831670
_cell_angle_beta   105.27831671
_cell_angle_gamma   104.05274790
_symmetry_Int_Tables_number   1
_chemical_formula_structural   NaTaGeO5
_chemical_formula_sum   'Na2 Ta2 Ge2 O10'
_cell_volume   214.33680797
_cell_formula_units_Z   2
loop_
 _symmetry_equiv_pos_site_id
 _symmetry_equiv_pos_as_xyz
  1  'x, y, z'
loop_
 _atom_site_type_symbol
 _atom_site_label
 _atom_site_symmetry_multiplicity
 _atom_site_fract_x
 _atom_site_fract_y
 _atom_site_fract_z
 _atom_site_occupancy
  O  O0  1  0.06343364  0.93656636  0.75000000  1
  O  O1  1  0.93656636  0.06343364  0.25000000  1
  O  O2  1  0.11902151  0.70258677  0.39356470  1
  O  O3  1  0.29741323  0.88097849  0.10643530  1
  O  O4  1  0.88097849  0.29741323  0.60643530  1
  O  O5  1  0.70258677  0.11902151  0.89356470  1
  O  O6  1  0.35985516  0.24539799  0.59502412  1
  O  O7  1  0.75460201  0.64014484  0.90497588  1
  O  O8  1  0.64014484  0.75460201  0.40497588  1
  O  O9  1  0.24539799  0.35985516  0.09502412  1
  Na  Na10  1  0.67590367  0.32409633  0.25000000  1
  Na  Na11  1  0.32409633  0.67590367  0.75000000  1
  Ge  Ge12  1  0.68005985  0.31994015  0.75000000  1
  Ge  Ge13  1  0.31994015  0.68005985  0.25000000  1
  Ta  Ta14  1  0.00000000  0.00000000  0.50000000  1
  Ta  Ta15  1  0.00000000  0.00000000  0.00000000  1
