# generated using pymatgen
data_Sr2TbRuO6
_symmetry_space_group_name_H-M   'P 1'
_cell_length_a   5.82291124
_cell_length_b   5.89708095
_cell_length_c   8.26700474
_cell_angle_alpha   90.00000000
_cell_angle_beta   90.42341133
_cell_angle_gamma   90.00000000
_symmetry_Int_Tables_number   1
_chemical_formula_structural   Sr2TbRuO6
_chemical_formula_sum   'Sr4 Tb2 Ru2 O12'
_cell_volume   283.86613702
_cell_formula_units_Z   2
loop_
 _symmetry_equiv_pos_site_id
 _symmetry_equiv_pos_as_xyz
  1  'x, y, z'
loop_
 _atom_site_type_symbol
 _atom_site_label
 _atom_site_symmetry_multiplicity
 _atom_site_fract_x
 _atom_site_fract_y
 _atom_site_fract_z
 _atom_site_occupancy
  O  O0  1  0.72924629  0.19778841  0.96025650  1
  O  O1  1  0.77075371  0.69778841  0.53974350  1
  O  O2  1  0.27075371  0.80221159  0.03974350  1
  O  O3  1  0.22924629  0.30221159  0.46025650  1
  O  O4  1  0.80533733  0.72801651  0.95754935  1
  O  O5  1  0.69466267  0.22801651  0.54245065  1
  O  O6  1  0.19466267  0.27198349  0.04245065  1
  O  O7  1  0.30533733  0.77198349  0.45754935  1
  O  O8  1  0.42281482  0.52128845  0.73320337  1
  O  O9  1  0.07718518  0.02128845  0.76679663  1
  O  O10  1  0.57718518  0.47871155  0.26679663  1
  O  O11  1  0.92281482  0.97871155  0.23320337  1
  Sr  Sr12  1  0.99085687  0.46166735  0.75060596  1
  Sr  Sr13  1  0.50914313  0.96166735  0.74939404  1
  Sr  Sr14  1  0.49085687  0.03833265  0.25060596  1
  Sr  Sr15  1  0.00914313  0.53833265  0.24939404  1
  Ru  Ru16  1  0.00000000  0.00000000  0.00000000  1
  Ru  Ru17  1  0.50000000  0.50000000  0.50000000  1
  Tb  Tb18  1  0.50000000  0.50000000  0.00000000  1
  Tb  Tb19  1  0.00000000  0.00000000  0.50000000  1
