# generated using pymatgen
data_Sr2YNbO6
_symmetry_space_group_name_H-M   'P 1'
_cell_length_a   5.85843663
_cell_length_b   5.96317966
_cell_length_c   8.33669543
_cell_angle_alpha   90.00000000
_cell_angle_beta   90.20236398
_cell_angle_gamma   90.00000000
_symmetry_Int_Tables_number   1
_chemical_formula_structural   Sr2YNbO6
_chemical_formula_sum   'Sr4 Y2 Nb2 O12'
_cell_volume   291.23988901
_cell_formula_units_Z   2
loop_
 _symmetry_equiv_pos_site_id
 _symmetry_equiv_pos_as_xyz
  1  'x, y, z'
loop_
 _atom_site_type_symbol
 _atom_site_label
 _atom_site_symmetry_multiplicity
 _atom_site_fract_x
 _atom_site_fract_y
 _atom_site_fract_z
 _atom_site_occupancy
  O  O0  1  0.72365142  0.19612224  0.45748272  1
  O  O1  1  0.77634858  0.69612224  0.04251728  1
  O  O2  1  0.27634858  0.80387776  0.54251728  1
  O  O3  1  0.22365142  0.30387776  0.95748272  1
  O  O4  1  0.80647589  0.72356361  0.45288195  1
  O  O5  1  0.69352411  0.22356361  0.04711805  1
  O  O6  1  0.19352411  0.27643639  0.54711805  1
  O  O7  1  0.30647589  0.77643639  0.95288195  1
  O  O8  1  0.08430137  0.02681916  0.26473654  1
  O  O9  1  0.41569863  0.52681916  0.23526346  1
  O  O10  1  0.91569863  0.97318084  0.73526346  1
  O  O11  1  0.58430137  0.47318084  0.76473654  1
  Sr  Sr12  1  0.99070655  0.46043064  0.24933786  1
  Sr  Sr13  1  0.50929345  0.96043064  0.25066214  1
  Sr  Sr14  1  0.49070655  0.03956936  0.74933786  1
  Sr  Sr15  1  0.00929345  0.53956936  0.75066214  1
  Y  Y16  1  0.50000000  0.50000000  0.50000000  1
  Y  Y17  1  0.00000000  0.00000000  0.00000000  1
  Nb  Nb18  1  0.00000000  0.00000000  0.50000000  1
  Nb  Nb19  1  0.50000000  0.50000000  0.00000000  1
