# generated using pymatgen
data_PrNi2B2C
_symmetry_space_group_name_H-M   'P 1'
_cell_length_a   3.72571003
_cell_length_b   3.72571004
_cell_length_c   5.63293214
_cell_angle_alpha   109.31174615
_cell_angle_beta   109.31174618
_cell_angle_gamma   90.00000002
_symmetry_Int_Tables_number   1
_chemical_formula_structural   PrNi2B2C
_chemical_formula_sum   'Pr1 Ni2 B2 C1'
_cell_volume   69.11171922
_cell_formula_units_Z   1
loop_
 _symmetry_equiv_pos_site_id
 _symmetry_equiv_pos_as_xyz
  1  'x, y, z'
loop_
 _atom_site_type_symbol
 _atom_site_label
 _atom_site_symmetry_multiplicity
 _atom_site_fract_x
 _atom_site_fract_y
 _atom_site_fract_z
 _atom_site_occupancy
  B  B0  1  0.65036614  0.65036614  0.30073228  1
  B  B1  1  0.34963386  0.34963386  0.69926772  1
  C  C2  1  0.50000000  0.50000000  0.00000000  1
  Ni  Ni3  1  0.25000000  0.75000000  0.50000000  1
  Ni  Ni4  1  0.75000000  0.25000000  0.50000000  1
  Pr  Pr5  1  0.00000000  0.00000000  0.00000000  1
