# generated using pymatgen
data_CaTaTi(PO4)3
_symmetry_space_group_name_H-M   'P 1'
_cell_length_a   8.94645243
_cell_length_b   8.94645288
_cell_length_c   8.94645289
_cell_angle_alpha   59.03985361
_cell_angle_beta   59.03985464
_cell_angle_gamma   59.03985600
_symmetry_Int_Tables_number   1
_chemical_formula_structural   CaTaTi(PO4)3
_chemical_formula_sum   'Ca2 Ta2 Ti2 P6 O24'
_cell_volume   495.24777896
_cell_formula_units_Z   2
loop_
 _symmetry_equiv_pos_site_id
 _symmetry_equiv_pos_as_xyz
  1  'x, y, z'
loop_
 _atom_site_type_symbol
 _atom_site_label
 _atom_site_symmetry_multiplicity
 _atom_site_fract_x
 _atom_site_fract_y
 _atom_site_fract_z
 _atom_site_occupancy
  Ca  Ca0  1  0.00268095  0.00268095  0.00268095  1
  Ca  Ca1  1  0.50268095  0.50268095  0.50268095  1
  Ta  Ta2  1  0.35481315  0.35481315  0.35481315  1
  Ta  Ta3  1  0.85481315  0.85481315  0.85481315  1
  Ti  Ti4  1  0.14598312  0.14598312  0.14598312  1
  Ti  Ti5  1  0.64598312  0.64598312  0.64598312  1
  P  P6  1  0.03807338  0.45663800  0.75215206  1
  P  P7  1  0.45663800  0.75215206  0.03807338  1
  P  P8  1  0.75215206  0.03807338  0.45663800  1
  P  P9  1  0.25215206  0.95663800  0.53807338  1
  P  P10  1  0.53807338  0.25215206  0.95663800  1
  P  P11  1  0.95663800  0.53807338  0.25215206  1
  O  O12  1  0.11928015  0.50880490  0.29573297  1
  O  O13  1  0.29573297  0.11928015  0.50880490  1
  O  O14  1  0.06066694  0.27312300  0.91620476  1
  O  O15  1  0.50880490  0.29573297  0.11928015  1
  O  O16  1  0.00880490  0.61928015  0.79573297  1
  O  O17  1  0.22619669  0.43804673  0.58493998  1
  O  O18  1  0.27312300  0.91620476  0.06066694  1
  O  O19  1  0.43804673  0.58493998  0.22619669  1
  O  O20  1  0.20274821  0.99414966  0.37976235  1
  O  O21  1  0.58493998  0.22619669  0.43804673  1
  O  O22  1  0.08493998  0.93804673  0.72619669  1
  O  O23  1  0.37976235  0.20274821  0.99414966  1
  O  O24  1  0.61928015  0.79573297  0.00880490  1
  O  O25  1  0.91620476  0.06066694  0.27312300  1
  O  O26  1  0.41620476  0.77312300  0.56066694  1
  O  O27  1  0.79573297  0.00880490  0.61928015  1
  O  O28  1  0.56066694  0.41620476  0.77312300  1
  O  O29  1  0.72619669  0.08493998  0.93804673  1
  O  O30  1  0.77312300  0.56066694  0.41620476  1
  O  O31  1  0.99414966  0.37976235  0.20274821  1
  O  O32  1  0.49414966  0.70274821  0.87976235  1
  O  O33  1  0.93804673  0.72619669  0.08493998  1
  O  O34  1  0.70274821  0.87976235  0.49414966  1
  O  O35  1  0.87976235  0.49414966  0.70274821  1
