# generated using pymatgen
data_NaAsS2
_symmetry_space_group_name_H-M   'P 1'
_cell_length_a   5.65593517
_cell_length_b   5.97274297
_cell_length_c   11.69652601
_cell_angle_alpha   90.00000000
_cell_angle_beta   90.00000000
_cell_angle_gamma   89.51988382
_symmetry_Int_Tables_number   1
_chemical_formula_structural   NaAsS2
_chemical_formula_sum   'Na4 As4 S8'
_cell_volume   395.11170131
_cell_formula_units_Z   4
loop_
 _symmetry_equiv_pos_site_id
 _symmetry_equiv_pos_as_xyz
  1  'x, y, z'
loop_
 _atom_site_type_symbol
 _atom_site_label
 _atom_site_symmetry_multiplicity
 _atom_site_fract_x
 _atom_site_fract_y
 _atom_site_fract_z
 _atom_site_occupancy
  Na  Na0  1  0.76160421  0.49192659  0.37466218  1
  Na  Na1  1  0.23839579  0.50807341  0.62533782  1
  Na  Na2  1  0.26160421  0.49192659  0.12533782  1
  Na  Na3  1  0.73839579  0.50807341  0.87466218  1
  S  S4  1  0.67323514  0.00209002  0.83956389  1
  S  S5  1  0.17323514  0.00209002  0.66043611  1
  S  S6  1  0.82676486  0.99790998  0.33956389  1
  S  S7  1  0.32676486  0.99790998  0.16043611  1
  S  S8  1  0.23860760  0.43114519  0.87412193  1
  S  S9  1  0.26139240  0.56885481  0.37412193  1
  S  S10  1  0.76139240  0.56885481  0.12587807  1
  S  S11  1  0.73860760  0.43114519  0.62587807  1
  As  As12  1  0.76069898  0.06521424  0.64541813  1
  As  As13  1  0.73930102  0.93478576  0.14541813  1
  As  As14  1  0.23930102  0.93478576  0.35458187  1
  As  As15  1  0.26069898  0.06521424  0.85458187  1
