# generated using pymatgen
data_Gd2S3
_symmetry_space_group_name_H-M   'P 1'
_cell_length_a   3.92356888
_cell_length_b   10.55937388
_cell_length_c   10.76914874
_cell_angle_alpha   89.99689207
_cell_angle_beta   90.00042642
_cell_angle_gamma   90.00038973
_symmetry_Int_Tables_number   1
_chemical_formula_structural   Gd2S3
_chemical_formula_sum   'Gd8 S12'
_cell_volume   446.17047075
_cell_formula_units_Z   4
loop_
 _symmetry_equiv_pos_site_id
 _symmetry_equiv_pos_as_xyz
  1  'x, y, z'
loop_
 _atom_site_type_symbol
 _atom_site_label
 _atom_site_symmetry_multiplicity
 _atom_site_fract_x
 _atom_site_fract_y
 _atom_site_fract_z
 _atom_site_occupancy
  Gd  Gd0  1  0.25001204  0.31398061  0.99085597  1
  Gd  Gd1  1  0.25001976  0.50495316  0.30900468  1
  Gd  Gd2  1  0.74999360  0.81399213  0.50914392  1
  Gd  Gd3  1  0.25001268  0.99506355  0.80900101  1
  Gd  Gd4  1  0.75000122  0.68601447  0.00915444  1
  Gd  Gd5  1  0.75000514  0.49506435  0.69099940  1
  Gd  Gd6  1  0.74999312  0.00494996  0.19099185  1
  Gd  Gd7  1  0.25000461  0.18601792  0.49085455  1
  S  S8  1  0.75000869  0.80285449  0.77237676  1
  S  S9  1  0.24999384  0.30285154  0.72763382  1
  S  S10  1  0.24999406  0.62730528  0.54656527  1
  S  S11  1  0.74998622  0.12729903  0.95343263  1
  S  S12  1  0.74998829  0.05576263  0.62011121  1
  S  S13  1  0.24998818  0.55576443  0.87989179  1
  S  S14  1  0.75000250  0.69713532  0.27237749  1
  S  S15  1  0.25000450  0.87269726  0.04657392  1
  S  S16  1  0.74999435  0.44422623  0.12011523  1
  S  S17  1  0.25000313  0.94422799  0.37987973  1
  S  S18  1  0.74999723  0.37269886  0.45341891  1
  S  S19  1  0.24999686  0.19714078  0.22761743  1
