# generated using pymatgen
data_SrCrP2O7
_symmetry_space_group_name_H-M   'P 1'
_cell_length_a   5.49118554
_cell_length_b   8.45151521
_cell_length_c   12.78053702
_cell_angle_alpha   90.00000000
_cell_angle_beta   90.54209381
_cell_angle_gamma   90.00000000
_symmetry_Int_Tables_number   1
_chemical_formula_structural   SrCrP2O7
_chemical_formula_sum   'Sr4 Cr4 P8 O28'
_cell_volume   593.10332677
_cell_formula_units_Z   4
loop_
 _symmetry_equiv_pos_site_id
 _symmetry_equiv_pos_as_xyz
  1  'x, y, z'
loop_
 _atom_site_type_symbol
 _atom_site_label
 _atom_site_symmetry_multiplicity
 _atom_site_fract_x
 _atom_site_fract_y
 _atom_site_fract_z
 _atom_site_occupancy
  O  O0  1  0.71975785  0.30927063  0.59480861  1
  O  O1  1  0.78024215  0.80927063  0.90519139  1
  O  O2  1  0.28024215  0.69072937  0.40519139  1
  O  O3  1  0.21975785  0.19072937  0.09480861  1
  O  O4  1  0.58612189  0.16744143  0.97015040  1
  O  O5  1  0.91387811  0.66744143  0.52984960  1
  O  O6  1  0.41387811  0.83255857  0.02984960  1
  O  O7  1  0.08612189  0.33255857  0.47015040  1
  O  O8  1  0.98846267  0.44063694  0.79354696  1
  O  O9  1  0.51153733  0.94063694  0.70645304  1
  O  O10  1  0.01153733  0.55936306  0.20645304  1
  O  O11  1  0.48846267  0.05936306  0.29354696  1
  O  O12  1  0.26607941  0.38432092  0.94961606  1
  O  O13  1  0.23392059  0.88432092  0.55038394  1
  O  O14  1  0.73392059  0.61567908  0.05038394  1
  O  O15  1  0.76607941  0.11567908  0.44961606  1
  O  O16  1  0.67564182  0.36479647  0.15149190  1
  O  O17  1  0.82435818  0.86479647  0.34850810  1
  O  O18  1  0.32435818  0.63520353  0.84850810  1
  O  O19  1  0.17564182  0.13520353  0.65149190  1
  O  O20  1  0.65848955  0.40005154  0.40551055  1
  O  O21  1  0.84151045  0.90005154  0.09448945  1
  O  O22  1  0.34151045  0.59994846  0.59448945  1
  O  O23  1  0.15848955  0.09994846  0.90551055  1
  O  O24  1  0.93758354  0.11972837  0.26419558  1
  O  O25  1  0.56241646  0.61972837  0.23580442  1
  O  O26  1  0.06241646  0.88027163  0.73580442  1
  O  O27  1  0.43758354  0.38027163  0.76419558  1
  P  P28  1  0.81115003  0.29917415  0.48312402  1
  P  P29  1  0.68884997  0.79917415  0.01687598  1
  P  P30  1  0.18884997  0.70082585  0.51687598  1
  P  P31  1  0.31115003  0.20082585  0.98312402  1
  P  P32  1  0.25207961  0.96287519  0.66517030  1
  P  P33  1  0.24792039  0.46287519  0.83482970  1
  P  P34  1  0.74792039  0.03712481  0.33482970  1
  P  P35  1  0.75207961  0.53712481  0.16517030  1
  Cr  Cr36  1  0.29100407  0.35531609  0.60896254  1
  Cr  Cr37  1  0.20899593  0.85531609  0.89103746  1
  Cr  Cr38  1  0.70899593  0.64468391  0.39103746  1
  Cr  Cr39  1  0.79100407  0.14468391  0.10896254  1
  Sr  Sr40  1  0.78672876  0.16358744  0.77667029  1
  Sr  Sr41  1  0.71327124  0.66358744  0.72332971  1
  Sr  Sr42  1  0.21327124  0.83641256  0.22332971  1
  Sr  Sr43  1  0.28672876  0.33641256  0.27667029  1
