# generated using pymatgen
data_MgCu2P2O9
_symmetry_space_group_name_H-M   'P 1'
_cell_length_a   6.23485356
_cell_length_b   7.14181703
_cell_length_c   14.29443874
_cell_angle_alpha   90.14855280
_cell_angle_beta   89.88022907
_cell_angle_gamma   90.00702708
_symmetry_Int_Tables_number   1
_chemical_formula_structural   MgCu2P2O9
_chemical_formula_sum   'Mg4 Cu8 P8 O36'
_cell_volume   636.50185415
_cell_formula_units_Z   4
loop_
 _symmetry_equiv_pos_site_id
 _symmetry_equiv_pos_as_xyz
  1  'x, y, z'
loop_
 _atom_site_type_symbol
 _atom_site_label
 _atom_site_symmetry_multiplicity
 _atom_site_fract_x
 _atom_site_fract_y
 _atom_site_fract_z
 _atom_site_occupancy
  Mg  Mg0  1  0.75005201  0.89605197  0.77663383  1
  Mg  Mg1  1  0.75008123  0.60340815  0.27653833  1
  Mg  Mg2  1  0.24992238  0.39637743  0.72350112  1
  Mg  Mg3  1  0.24995431  0.10404748  0.22340219  1
  Cu  Cu4  1  0.74951003  0.35256479  0.87944372  1
  Cu  Cu5  1  0.25047669  0.64739954  0.12054115  1
  Cu  Cu6  1  0.25034536  0.85294297  0.62054093  1
  Cu  Cu7  1  0.74965270  0.14724725  0.37947487  1
  Cu  Cu8  1  0.50000178  0.00002359  0.00001126  1
  Cu  Cu9  1  0.50000348  0.49990555  0.50001115  1
  Cu  Cu10  1  0.00001174  0.49989694  0.50000518  1
  Cu  Cu11  1  -0.00000039  0.00001977  0.00001841  1
  P  P12  1  0.24976279  0.36650692  0.92942425  1
  P  P13  1  0.75022757  0.63348161  0.07061625  1
  P  P14  1  0.75002225  0.86667247  0.57061712  1
  P  P15  1  0.24997775  0.13327111  0.42934179  1
  P  P16  1  0.75002676  0.38628333  0.69769177  1
  P  P17  1  0.74975479  0.11369146  0.19778526  1
  P  P18  1  0.25024863  0.88637182  0.80219429  1
  P  P19  1  0.24997516  0.61363212  0.30225987  1
  O  O20  1  0.03855649  0.61090374  0.35987431  1
  O  O21  1  0.53843344  0.38885366  0.64063092  1
  O  O22  1  0.96152302  0.11073227  0.14021141  1
  O  O23  1  0.46138434  0.88897237  0.85913958  1
  O  O24  1  0.96146932  0.38906446  0.64007967  1
  O  O25  1  0.46154427  0.61111745  0.35932191  1
  O  O26  1  0.03848813  0.88923971  0.85975773  1
  O  O27  1  0.53857769  0.11095808  0.14084400  1
  O  O28  1  0.25015890  0.32901977  0.47973042  1
  O  O29  1  0.74985364  0.67081038  0.52027165  1
  O  O30  1  0.75019252  0.82875408  0.02027409  1
  O  O31  1  0.24980752  0.17127271  0.97977245  1
  O  O32  1  0.74918640  0.12522378  0.94911452  1
  O  O33  1  0.25081042  0.87485731  0.05093346  1
  O  O34  1  0.25092075  0.62568181  0.55063463  1
  O  O35  1  0.74908015  0.37441176  0.44931741  1
  O  O36  1  0.75050187  0.20281303  0.75865935  1
  O  O37  1  0.24948893  0.79717660  0.24133077  1
  O  O38  1  0.24946571  0.70257467  0.74100670  1
  O  O39  1  0.75057490  0.29763809  0.25887464  1
  O  O40  1  0.43632997  0.12838958  0.35748318  1
  O  O41  1  0.93635569  0.87138749  0.64222786  1
  O  O42  1  0.56376925  0.62889346  0.14261865  1
  O  O43  1  0.06337709  0.37144407  0.85774731  1
  O  O44  1  0.56369755  0.87151925  0.64256090  1
  O  O45  1  0.06361503  0.12852866  0.35781933  1
  O  O46  1  0.43626706  0.37121372  0.85742205  1
  O  O47  1  0.93655741  0.62865555  0.14229523  1
  O  O48  1  0.75000132  0.47752324  0.00044275  1
  O  O49  1  0.24955958  0.04901936  0.72925171  1
  O  O50  1  0.24981458  0.45099927  0.22880597  1
  O  O51  1  0.75018120  0.54899213  0.77115253  1
  O  O52  1  0.74997470  0.02218933  0.50046230  1
  O  O53  1  0.25004927  0.97766419  0.49949886  1
  O  O54  1  0.24999950  0.52246638  0.99962389  1
  O  O55  1  0.75044137  0.95123732  0.27075610  1
