# generated using pymatgen
data_MgCr2(PO5)2
_symmetry_space_group_name_H-M   'P 1'
_cell_length_a   6.68997594
_cell_length_b   6.68997501
_cell_length_c   8.69065635
_cell_angle_alpha   102.69962946
_cell_angle_beta   102.69962945
_cell_angle_gamma   115.39340647
_symmetry_Int_Tables_number   1
_chemical_formula_structural   MgCr2(PO5)2
_chemical_formula_sum   'Mg2 Cr4 P4 O20'
_cell_volume   320.26879000
_cell_formula_units_Z   2
loop_
 _symmetry_equiv_pos_site_id
 _symmetry_equiv_pos_as_xyz
  1  'x, y, z'
loop_
 _atom_site_type_symbol
 _atom_site_label
 _atom_site_symmetry_multiplicity
 _atom_site_fract_x
 _atom_site_fract_y
 _atom_site_fract_z
 _atom_site_occupancy
  Mg  Mg0  1  0.49347473  0.99347473  0.50000000  1
  Mg  Mg1  1  0.24347473  0.24347473  1.00000000  1
  Cr  Cr2  1  0.87120922  0.61983669  0.25043839  1
  Cr  Cr3  1  0.36939830  0.62076983  0.74956161  1
  Cr  Cr4  1  0.87076983  0.11939830  0.24956161  1
  Cr  Cr5  1  0.86983669  0.62120922  0.75043839  1
  P  P6  1  0.03675523  0.03765450  0.58450051  1
  P  P7  1  0.70225472  0.20315398  0.91549949  1
  P  P8  1  0.45315398  0.45225472  0.41549949  1
  P  P9  1  0.28765450  0.78675523  0.08450051  1
  O  O10  1  0.57837536  0.55358175  0.29955828  1
  O  O11  1  0.66439482  0.66625387  0.83968227  1
  O  O12  1  0.31012044  0.58811341  0.96963225  1
  O  O13  1  0.80358175  0.32837536  0.79955828  1
  O  O14  1  0.21329367  0.23541608  0.29605650  1
  O  O15  1  0.42722975  0.64922862  0.52927094  1
  O  O16  1  0.07471255  0.57657160  0.66031773  1
  O  O17  1  0.82657160  0.82471255  0.16031773  1
  O  O18  1  0.91625387  0.41439482  0.33968227  1
  O  O19  1  0.16723717  0.68935958  0.20394350  1
  O  O20  1  0.25402447  0.27881808  0.70044172  1
  O  O21  1  0.48541608  0.96329367  0.79605650  1
  O  O22  1  0.93935958  0.91723717  0.70394350  1
  O  O23  1  0.14795981  0.86995868  0.97072906  1
  O  O24  1  0.11995868  0.89795981  0.47072906  1
  O  O25  1  0.89922862  0.17722975  0.02927094  1
  O  O26  1  0.83811341  0.06012044  0.46963225  1
  O  O27  1  0.61848016  0.34048820  0.03036775  1
  O  O28  1  0.52881808  0.00402446  0.20044172  1
  O  O29  1  0.59048820  0.36848016  0.53036775  1
