# generated using pymatgen
data_ZrTe5
_symmetry_space_group_name_H-M   'P 1'
_cell_length_a   4.05266302
_cell_length_b   8.18496794
_cell_length_c   13.83963156
_cell_angle_alpha   90.00000000
_cell_angle_beta   90.00000000
_cell_angle_gamma   104.33361202
_symmetry_Int_Tables_number   1
_chemical_formula_structural   ZrTe5
_chemical_formula_sum   'Zr2 Te10'
_cell_volume   444.78262265
_cell_formula_units_Z   2
loop_
 _symmetry_equiv_pos_site_id
 _symmetry_equiv_pos_as_xyz
  1  'x, y, z'
loop_
 _atom_site_type_symbol
 _atom_site_label
 _atom_site_symmetry_multiplicity
 _atom_site_fract_x
 _atom_site_fract_y
 _atom_site_fract_z
 _atom_site_occupancy
  Zr  Zr0  1  0.31351303  0.62702605  0.75000000  1
  Zr  Zr1  1  0.68648697  0.37297395  0.25000000  1
  Te  Te2  1  0.67247582  0.34495164  0.75000000  1
  Te  Te3  1  0.32752418  0.65504836  0.25000000  1
  Te  Te4  1  0.91955764  0.83911529  0.85029936  1
  Te  Te5  1  0.08044236  0.16088471  0.14970064  1
  Te  Te6  1  0.08044236  0.16088471  0.35029936  1
  Te  Te7  1  0.91955764  0.83911529  0.64970064  1
  Te  Te8  1  0.21382408  0.42764817  0.56591884  1
  Te  Te9  1  0.78617592  0.57235183  0.43408116  1
  Te  Te10  1  0.78617592  0.57235183  0.06591884  1
  Te  Te11  1  0.21382408  0.42764817  0.93408116  1
