# generated using pymatgen
data_LiScSiO4
_symmetry_space_group_name_H-M   'P 1'
_cell_length_a   4.86424643
_cell_length_b   6.03278793
_cell_length_c   10.52991464
_cell_angle_alpha   90.00000000
_cell_angle_beta   90.00000000
_cell_angle_gamma   90.00000000
_symmetry_Int_Tables_number   1
_chemical_formula_structural   LiScSiO4
_chemical_formula_sum   'Li4 Sc4 Si4 O16'
_cell_volume   308.99999922
_cell_formula_units_Z   4
loop_
 _symmetry_equiv_pos_site_id
 _symmetry_equiv_pos_as_xyz
  1  'x, y, z'
loop_
 _atom_site_type_symbol
 _atom_site_label
 _atom_site_symmetry_multiplicity
 _atom_site_fract_x
 _atom_site_fract_y
 _atom_site_fract_z
 _atom_site_occupancy
  Li  Li0  1  0.00000000  0.00000000  0.00000000  1
  Li  Li1  1  0.50000000  0.00000000  0.50000000  1
  Li  Li2  1  0.00000000  0.50000000  0.00000000  1
  Li  Li3  1  0.50000000  0.50000000  0.50000000  1
  O  O4  1  0.78438736  0.53958274  0.33122338  1
  O  O5  1  0.21561264  0.46041726  0.66877662  1
  O  O6  1  0.71561264  0.53958274  0.83122338  1
  O  O7  1  0.78438736  0.96041726  0.33122338  1
  O  O8  1  0.28438736  0.03958274  0.16877662  1
  O  O9  1  0.76644832  0.25000000  0.10084809  1
  O  O10  1  0.28438736  0.46041726  0.16877662  1
  O  O11  1  0.21561264  0.03958274  0.66877662  1
  O  O12  1  0.23355168  0.75000000  0.89915191  1
  O  O13  1  0.73355168  0.25000000  0.60084809  1
  O  O14  1  0.80448112  0.75000000  0.55190287  1
  O  O15  1  0.26644832  0.75000000  0.39915191  1
  O  O16  1  0.69551888  0.75000000  0.05190287  1
  O  O17  1  0.30448112  0.25000000  0.94809713  1
  O  O18  1  0.19551888  0.25000000  0.44809713  1
  O  O19  1  0.71561264  0.96041726  0.83122338  1
  Si  Si20  1  0.56625734  0.75000000  0.90845764  1
  Si  Si21  1  0.43374266  0.25000000  0.09154236  1
  Si  Si22  1  0.93374266  0.75000000  0.40845764  1
  Si  Si23  1  0.06625734  0.25000000  0.59154236  1
  Sc  Sc24  1  0.50543489  0.25000000  0.77468761  1
  Sc  Sc25  1  0.99456511  0.25000000  0.27468761  1
  Sc  Sc26  1  0.49456511  0.75000000  0.22531239  1
  Sc  Sc27  1  0.00543489  0.75000000  0.72531239  1
