# generated using pymatgen
data_Cd2Os2O7
_symmetry_space_group_name_H-M   'P 1'
_cell_length_a   7.28944733
_cell_length_b   7.28944734
_cell_length_c   7.28944733
_cell_angle_alpha   60.00000000
_cell_angle_beta   59.99999998
_cell_angle_gamma   60.00000001
_symmetry_Int_Tables_number   1
_chemical_formula_structural   Cd2Os2O7
_chemical_formula_sum   'Cd4 Os4 O14'
_cell_volume   273.88535454
_cell_formula_units_Z   2
loop_
 _symmetry_equiv_pos_site_id
 _symmetry_equiv_pos_as_xyz
  1  'x, y, z'
loop_
 _atom_site_type_symbol
 _atom_site_label
 _atom_site_symmetry_multiplicity
 _atom_site_fract_x
 _atom_site_fract_y
 _atom_site_fract_z
 _atom_site_occupancy
  O  O0  1  0.62500000  0.62500000  0.62500000  1
  O  O1  1  0.37500000  0.37500000  0.37500000  1
  O  O2  1  0.31736030  0.93263970  0.93263970  1
  O  O3  1  0.06736030  0.68263970  0.68263970  1
  O  O4  1  0.93263970  0.31736030  0.93263970  1
  O  O5  1  0.93263970  0.93263970  0.31736030  1
  O  O6  1  0.31736030  0.31736030  0.93263970  1
  O  O7  1  0.31736030  0.93263970  0.31736030  1
  O  O8  1  0.93263970  0.31736030  0.31736030  1
  O  O9  1  0.68263970  0.68263970  0.06736030  1
  O  O10  1  0.06736030  0.06736030  0.68263970  1
  O  O11  1  0.68263970  0.06736030  0.06736030  1
  O  O12  1  0.68263970  0.06736030  0.68263970  1
  O  O13  1  0.06736030  0.68263970  0.06736030  1
  Cd  Cd14  1  0.50000000  0.50000000  0.50000000  1
  Cd  Cd15  1  0.50000000  0.50000000  0.00000000  1
  Cd  Cd16  1  0.00000000  0.50000000  0.50000000  1
  Cd  Cd17  1  0.50000000  0.00000000  0.50000000  1
  Os  Os18  1  0.00000000  0.00000000  0.00000000  1
  Os  Os19  1  0.00000000  0.00000000  0.50000000  1
  Os  Os20  1  0.50000000  0.00000000  0.00000000  1
  Os  Os21  1  0.00000000  0.50000000  0.00000000  1
