# generated using pymatgen
data_Rb2Cr2As2O9
_symmetry_space_group_name_H-M   'P 1'
_cell_length_a   5.79671876
_cell_length_b   8.72752020
_cell_length_c   18.77150147
_cell_angle_alpha   90.00000000
_cell_angle_beta   90.00000000
_cell_angle_gamma   90.00000000
_symmetry_Int_Tables_number   1
_chemical_formula_structural   Rb2Cr2As2O9
_chemical_formula_sum   'Rb8 Cr8 As8 O36'
_cell_volume   949.66865678
_cell_formula_units_Z   4
loop_
 _symmetry_equiv_pos_site_id
 _symmetry_equiv_pos_as_xyz
  1  'x, y, z'
loop_
 _atom_site_type_symbol
 _atom_site_label
 _atom_site_symmetry_multiplicity
 _atom_site_fract_x
 _atom_site_fract_y
 _atom_site_fract_z
 _atom_site_occupancy
  Rb  Rb0  1  0.75000000  0.96104018  0.26814401  1
  Rb  Rb1  1  0.25000000  0.03895982  0.73185599  1
  Rb  Rb2  1  0.25000000  0.53895982  0.76814401  1
  Rb  Rb3  1  0.75000000  0.89399056  0.86159160  1
  Rb  Rb4  1  0.25000000  0.60600944  0.36159160  1
  Rb  Rb5  1  0.75000000  0.39399056  0.63840840  1
  Rb  Rb6  1  0.25000000  0.10600944  0.13840840  1
  Rb  Rb7  1  0.75000000  0.46104018  0.23185599  1
  Cr  Cr8  1  0.50000000  0.00000000  0.50000000  1
  Cr  Cr9  1  0.75000000  0.27746370  0.44117723  1
  Cr  Cr10  1  0.25000000  0.72253630  0.55882277  1
  Cr  Cr11  1  0.25000000  0.22253630  0.94117723  1
  Cr  Cr12  1  0.00000000  0.00000000  0.50000000  1
  Cr  Cr13  1  0.75000000  0.77746370  0.05882277  1
  Cr  Cr14  1  0.50000000  0.50000000  0.00000000  1
  Cr  Cr15  1  0.00000000  0.50000000  0.00000000  1
  As  As16  1  0.75000000  0.67584480  0.44644509  1
  As  As17  1  0.25000000  0.82415520  0.94644509  1
  As  As18  1  0.25000000  0.18052023  0.35994236  1
  As  As19  1  0.25000000  0.32415520  0.55355491  1
  As  As20  1  0.75000000  0.81947977  0.64005764  1
  As  As21  1  0.75000000  0.17584480  0.05355491  1
  As  As22  1  0.75000000  0.31947977  0.85994236  1
  As  As23  1  0.25000000  0.68052023  0.14005764  1
  O  O24  1  0.99230138  0.70308713  0.63160632  1
  O  O25  1  0.25000000  0.44708905  0.93400282  1
  O  O26  1  0.25000000  0.03553285  0.42658761  1
  O  O27  1  0.75000000  0.05291095  0.43400282  1
  O  O28  1  0.25000000  0.53553285  0.07341239  1
  O  O29  1  0.25000000  0.58702463  0.21823975  1
  O  O30  1  0.75000000  0.99419585  0.02203143  1
  O  O31  1  0.25000000  0.08702463  0.28176025  1
  O  O32  1  0.25000000  0.94708905  0.56599718  1
  O  O33  1  0.25000000  0.81096066  0.85682988  1
  O  O34  1  0.00769862  0.79691287  0.13160632  1
  O  O35  1  0.49683528  0.72974849  0.98009515  1
  O  O36  1  0.25000000  0.50580415  0.52203143  1
  O  O37  1  0.50769862  0.70308713  0.63160632  1
  O  O38  1  0.25000000  0.31096066  0.64317012  1
  O  O39  1  0.75000000  0.46446715  0.92658761  1
  O  O40  1  0.49230138  0.29691287  0.36839368  1
  O  O41  1  0.49683528  0.22974849  0.51990485  1
  O  O42  1  0.50316472  0.27025151  0.01990485  1
  O  O43  1  0.75000000  0.18903934  0.14317012  1
  O  O44  1  0.75000000  0.49419585  0.47796857  1
  O  O45  1  0.00769862  0.29691287  0.36839368  1
  O  O46  1  0.49230138  0.79691287  0.13160632  1
  O  O47  1  0.50769862  0.20308713  0.86839368  1
  O  O48  1  0.99683528  0.27025151  0.01990485  1
  O  O49  1  0.75000000  0.55291095  0.06599718  1
  O  O50  1  0.25000000  0.00580415  0.97796857  1
  O  O51  1  0.50316472  0.77025151  0.48009515  1
  O  O52  1  0.75000000  0.91297537  0.71823975  1
  O  O53  1  0.00316472  0.72974849  0.98009515  1
  O  O54  1  0.00316472  0.22974849  0.51990485  1
  O  O55  1  0.99230138  0.20308713  0.86839368  1
  O  O56  1  0.75000000  0.41297537  0.78176025  1
  O  O57  1  0.99683528  0.77025151  0.48009515  1
  O  O58  1  0.75000000  0.96446715  0.57341239  1
  O  O59  1  0.75000000  0.68903934  0.35682988  1
