# generated using pymatgen
data_Cs2SiSe4
_symmetry_space_group_name_H-M   'P 1'
_cell_length_a   7.84289219
_cell_length_b   8.67849096
_cell_length_c   9.92331363
_cell_angle_alpha   67.26467787
_cell_angle_beta   66.72310846
_cell_angle_gamma   63.13704526
_symmetry_Int_Tables_number   1
_chemical_formula_structural   Cs2SiSe4
_chemical_formula_sum   'Cs4 Si2 Se8'
_cell_volume   535.38611194
_cell_formula_units_Z   2
loop_
 _symmetry_equiv_pos_site_id
 _symmetry_equiv_pos_as_xyz
  1  'x, y, z'
loop_
 _atom_site_type_symbol
 _atom_site_label
 _atom_site_symmetry_multiplicity
 _atom_site_fract_x
 _atom_site_fract_y
 _atom_site_fract_z
 _atom_site_occupancy
  Cs  Cs0  1  0.59086018  0.67419766  0.14408199  1
  Cs  Cs1  1  0.15881997  0.96502084  0.71733922  1
  Cs  Cs2  1  0.40913982  0.32580234  0.85591801  1
  Cs  Cs3  1  0.84118003  0.03497916  0.28266078  1
  Si  Si4  1  0.84543268  0.60986782  0.69926681  1
  Si  Si5  1  0.15456732  0.39013218  0.30073319  1
  Se  Se6  1  0.30925621  0.11091087  0.27057672  1
  Se  Se7  1  0.67259663  0.63794999  0.53922948  1
  Se  Se8  1  0.69074379  0.88908913  0.72942328  1
  Se  Se9  1  0.84977610  0.36205001  0.46077052  1
  Se  Se10  1  0.87412448  0.36420110  0.88754995  1
  Se  Se11  1  0.12587552  0.63579890  0.11245005  1
  Se  Se12  1  0.32740337  0.36205001  0.46077052  1
  Se  Se13  1  0.15022390  0.63794999  0.53922948  1
