# generated using pymatgen
data_Na2Cu(CO3)2
_symmetry_space_group_name_H-M   'P 1'
_cell_length_a   5.76299643
_cell_length_b   6.30704236
_cell_length_c   8.14997782
_cell_angle_alpha   90.00000000
_cell_angle_beta   90.00000000
_cell_angle_gamma   115.50775316
_symmetry_Int_Tables_number   1
_chemical_formula_structural   Na2Cu(CO3)2
_chemical_formula_sum   'Na4 Cu2 C4 O12'
_cell_volume   267.35649458
_cell_formula_units_Z   2
loop_
 _symmetry_equiv_pos_site_id
 _symmetry_equiv_pos_as_xyz
  1  'x, y, z'
loop_
 _atom_site_type_symbol
 _atom_site_label
 _atom_site_symmetry_multiplicity
 _atom_site_fract_x
 _atom_site_fract_y
 _atom_site_fract_z
 _atom_site_occupancy
  C  C0  1  0.19446700  0.87005627  0.73184824  1
  C  C1  1  0.80553300  0.62994373  0.23184824  1
  C  C2  1  0.80553300  0.12994373  0.26815176  1
  C  C3  1  0.19446700  0.37005627  0.76815176  1
  O  O4  1  0.37805993  0.90604911  0.83122808  1
  O  O5  1  0.62194007  0.59395089  0.33122808  1
  O  O6  1  0.21418200  0.32510603  0.92469589  1
  O  O7  1  0.78581800  0.17489397  0.42469589  1
  O  O8  1  0.78581800  0.67489397  0.07530411  1
  O  O9  1  0.21418200  0.82510603  0.57530411  1
  O  O10  1  0.98212846  0.38099237  0.72330077  1
  O  O11  1  0.01787154  0.11900763  0.22330077  1
  O  O12  1  0.01787154  0.61900763  0.27669923  1
  O  O13  1  0.98212846  0.88099237  0.77669923  1
  O  O14  1  0.37805993  0.40604911  0.66877192  1
  O  O15  1  0.62194007  0.09395089  0.16877192  1
  Na  Na16  1  0.36321671  0.18480324  0.40733141  1
  Na  Na17  1  0.63678329  0.31519676  0.90733141  1
  Na  Na18  1  0.63678329  0.81519676  0.59266859  1
  Na  Na19  1  0.36321671  0.68480324  0.09266859  1
  Cu  Cu20  1  0.00000000  0.50000000  0.50000000  1
  Cu  Cu21  1  0.00000000  0.00000000  0.00000000  1
