# generated using pymatgen
data_CaMnBiO5
_symmetry_space_group_name_H-M   'P 1'
_cell_length_a   5.85472765
_cell_length_b   8.29307607
_cell_length_c   11.74578772
_cell_angle_alpha   90.00000000
_cell_angle_beta   90.00000000
_cell_angle_gamma   111.37593066
_symmetry_Int_Tables_number   1
_chemical_formula_structural   CaMnBiO5
_chemical_formula_sum   'Ca4 Mn4 Bi4 O20'
_cell_volume   531.06987376
_cell_formula_units_Z   4
loop_
 _symmetry_equiv_pos_site_id
 _symmetry_equiv_pos_as_xyz
  1  'x, y, z'
loop_
 _atom_site_type_symbol
 _atom_site_label
 _atom_site_symmetry_multiplicity
 _atom_site_fract_x
 _atom_site_fract_y
 _atom_site_fract_z
 _atom_site_occupancy
  Ca  Ca0  1  0.63913137  0.19161121  0.91317624  1
  Ca  Ca1  1  0.36086863  0.80838879  0.08682376  1
  Ca  Ca2  1  0.86086863  0.30838879  0.41317624  1
  Ca  Ca3  1  0.13913137  0.69161121  0.58682376  1
  Mn  Mn4  1  0.79832129  0.97240170  0.64671247  1
  Mn  Mn5  1  0.20167871  0.02759830  0.35328753  1
  Mn  Mn6  1  0.70167871  0.52759830  0.14671247  1
  Mn  Mn7  1  0.29832129  0.47240170  0.85328753  1
  Bi  Bi8  1  0.13204614  0.16383130  0.09707918  1
  Bi  Bi9  1  0.86795386  0.83616870  0.90292082  1
  Bi  Bi10  1  0.63204614  0.66383130  0.40292082  1
  Bi  Bi11  1  0.36795386  0.33616870  0.59707918  1
  O  O12  1  0.56282553  0.33303348  0.07936926  1
  O  O13  1  0.07084929  0.33256496  0.93627264  1
  O  O14  1  0.49292968  0.61767412  0.18558524  1
  O  O15  1  0.74130635  0.51137703  0.52595190  1
  O  O16  1  0.80449754  0.50310700  0.28177503  1
  O  O17  1  0.30449754  0.00310700  0.21822497  1
  O  O18  1  0.57084929  0.83256496  0.56372736  1
  O  O19  1  0.42915071  0.16743504  0.43627264  1
  O  O20  1  0.25869365  0.48862297  0.47404810  1
  O  O21  1  0.93717447  0.16696652  0.57936926  1
  O  O22  1  0.19550246  0.49689300  0.71822497  1
  O  O23  1  0.43717447  0.66696652  0.92063074  1
  O  O24  1  0.06282553  0.83303348  0.42063074  1
  O  O25  1  0.69550246  0.99689300  0.78177503  1
  O  O26  1  0.75869365  0.98862297  0.02595190  1
  O  O27  1  0.24130635  0.01137703  0.97404810  1
  O  O28  1  0.50707032  0.38232588  0.81441476  1
  O  O29  1  0.92915071  0.66743504  0.06372736  1
  O  O30  1  0.00707032  0.88232588  0.68558524  1
  O  O31  1  0.99292968  0.11767412  0.31441476  1
