# generated using pymatgen
data_Ba2Li(BO2)5
_symmetry_space_group_name_H-M   'P 1'
_cell_length_a   4.46781365
_cell_length_b   6.77672028
_cell_length_c   14.87434295
_cell_angle_alpha   90.00000000
_cell_angle_beta   90.00000000
_cell_angle_gamma   104.22459686
_symmetry_Int_Tables_number   1
_chemical_formula_structural   Ba2Li(BO2)5
_chemical_formula_sum   'Ba4 Li2 B10 O20'
_cell_volume   436.54449265
_cell_formula_units_Z   2
loop_
 _symmetry_equiv_pos_site_id
 _symmetry_equiv_pos_as_xyz
  1  'x, y, z'
loop_
 _atom_site_type_symbol
 _atom_site_label
 _atom_site_symmetry_multiplicity
 _atom_site_fract_x
 _atom_site_fract_y
 _atom_site_fract_z
 _atom_site_occupancy
  Li  Li0  1  0.00903918  0.52100594  0.75000000  1
  Li  Li1  1  0.99096082  0.47899406  0.25000000  1
  B  B2  1  0.56207345  0.68022333  0.16461796  1
  B  B3  1  0.43792655  0.31977667  0.66461796  1
  B  B4  1  0.43792655  0.31977667  0.83538204  1
  B  B5  1  0.56207345  0.68022333  0.33538204  1
  B  B6  1  0.22840578  0.99488863  0.75000000  1
  B  B7  1  0.77159422  0.00511137  0.25000000  1
  B  B8  1  0.94958258  0.31968202  0.91915147  1
  B  B9  1  0.05041742  0.68031798  0.41915147  1
  B  B10  1  0.05041742  0.68031798  0.08084853  1
  B  B11  1  0.94958258  0.31968202  0.58084853  1
  O  O12  1  0.27468821  0.39369292  0.91093601  1
  O  O13  1  0.72531179  0.60630708  0.41093601  1
  O  O14  1  0.72531179  0.60630708  0.08906399  1
  O  O15  1  0.27468821  0.39369292  0.58906399  1
  O  O16  1  0.37742452  0.41248337  0.75000000  1
  O  O17  1  0.62257548  0.58751663  0.25000000  1
  O  O18  1  0.03917329  0.80609546  0.75000000  1
  O  O19  1  0.96082671  0.19390454  0.25000000  1
  O  O20  1  0.82999293  0.19103297  0.51384399  1
  O  O21  1  0.17000707  0.80896703  0.01384399  1
  O  O22  1  0.17000707  0.80896703  0.48615601  1
  O  O23  1  0.82999293  0.19103297  0.98615601  1
  O  O24  1  0.77632641  0.39117759  0.64555246  1
  O  O25  1  0.22367359  0.60882241  0.14555246  1
  O  O26  1  0.22367359  0.60882241  0.35444754  1
  O  O27  1  0.77632641  0.39117759  0.85444754  1
  O  O28  1  0.33176403  0.09347665  0.66876342  1
  O  O29  1  0.66823597  0.90652335  0.16876342  1
  O  O30  1  0.66823597  0.90652335  0.33123658  1
  O  O31  1  0.33176403  0.09347665  0.83123658  1
  Ba  Ba32  1  0.66612163  0.80184864  0.91302335  1
  Ba  Ba33  1  0.33387837  0.19815136  0.41302335  1
  Ba  Ba34  1  0.33387837  0.19815136  0.08697665  1
  Ba  Ba35  1  0.66612163  0.80184864  0.58697665  1
