# generated using pymatgen
data_BaZn2(PO4)2
_symmetry_space_group_name_H-M   'P 1'
_cell_length_a   8.70714066
_cell_length_b   9.28517935
_cell_length_c   9.90729203
_cell_angle_alpha   90.00000000
_cell_angle_beta   90.00000000
_cell_angle_gamma   91.49192772
_symmetry_Int_Tables_number   1
_chemical_formula_structural   BaZn2(PO4)2
_chemical_formula_sum   'Ba4 Zn8 P8 O32'
_cell_volume   800.70690235
_cell_formula_units_Z   4
loop_
 _symmetry_equiv_pos_site_id
 _symmetry_equiv_pos_as_xyz
  1  'x, y, z'
loop_
 _atom_site_type_symbol
 _atom_site_label
 _atom_site_symmetry_multiplicity
 _atom_site_fract_x
 _atom_site_fract_y
 _atom_site_fract_z
 _atom_site_occupancy
  O  O0  1  0.27443717  0.19536206  0.41983318  1
  O  O1  1  0.72556283  0.30463794  0.91983318  1
  O  O2  1  0.72556283  0.80463794  0.58016682  1
  O  O3  1  0.27443717  0.69536206  0.08016682  1
  O  O4  1  0.20353205  0.48907434  0.65478621  1
  O  O5  1  0.79646795  0.01092566  0.15478621  1
  O  O6  1  0.79646795  0.51092566  0.34521379  1
  O  O7  1  0.20353205  0.98907434  0.84521379  1
  O  O8  1  0.55388214  0.61552463  0.69099638  1
  O  O9  1  0.44611786  0.88447537  0.19099638  1
  O  O10  1  0.44611786  0.38447537  0.30900362  1
  O  O11  1  0.55388214  0.11552463  0.80900362  1
  O  O12  1  0.92428816  0.54481879  0.69713610  1
  O  O13  1  0.07571184  0.95518121  0.19713610  1
  O  O14  1  0.07571184  0.45518121  0.30286390  1
  O  O15  1  0.92428816  0.04481879  0.80286390  1
  O  O16  1  0.45538507  0.36869860  0.86719737  1
  O  O17  1  0.54461493  0.13130140  0.36719737  1
  O  O18  1  0.54461493  0.63130140  0.13280263  1
  O  O19  1  0.45538507  0.86869860  0.63280263  1
  O  O20  1  0.99308824  0.79927221  0.89014631  1
  O  O21  1  0.00691176  0.70072779  0.39014631  1
  O  O22  1  0.00691176  0.20072779  0.10985369  1
  O  O23  1  0.99308824  0.29927221  0.60985369  1
  O  O24  1  0.50558157  0.80646531  0.94915176  1
  O  O25  1  0.49441843  0.69353469  0.44915176  1
  O  O26  1  0.49441843  0.19353469  0.05084824  1
  O  O27  1  0.50558157  0.30646531  0.55084824  1
  O  O28  1  0.05586801  0.87360398  0.64693442  1
  O  O29  1  0.94413199  0.62639602  0.14693442  1
  O  O30  1  0.94413199  0.12639602  0.35306558  1
  O  O31  1  0.05586801  0.37360398  0.85306558  1
  P  P32  1  0.55838281  0.74156703  0.58883604  1
  P  P33  1  0.44161719  0.75843297  0.08883604  1
  P  P34  1  0.55838281  0.24156703  0.91116396  1
  P  P35  1  0.44161719  0.25843297  0.41116396  1
  P  P36  1  0.04784607  0.42626643  0.70368433  1
  P  P37  1  0.95215393  0.07373357  0.20368433  1
  P  P38  1  0.95215393  0.57373357  0.29631567  1
  P  P39  1  0.04784607  0.92626643  0.79631567  1
  Zn  Zn40  1  0.41594477  0.44067850  0.68145841  1
  Zn  Zn41  1  0.58405523  0.55932150  0.31854159  1
  Zn  Zn42  1  0.92608326  0.70828247  0.57511207  1
  Zn  Zn43  1  0.58405523  0.05932150  0.18145841  1
  Zn  Zn44  1  0.07391674  0.29171753  0.42488793  1
  Zn  Zn45  1  0.92608326  0.20828247  0.92488793  1
  Zn  Zn46  1  0.07391674  0.79171753  0.07511207  1
  Zn  Zn47  1  0.41594477  0.94067850  0.81854159  1
  Ba  Ba48  1  0.74672108  0.60468195  0.91685689  1
  Ba  Ba49  1  0.25327892  0.89531805  0.41685689  1
  Ba  Ba50  1  0.25327892  0.39531805  0.08314311  1
  Ba  Ba51  1  0.74672108  0.10468195  0.58314311  1
