# generated using pymatgen
data_Na2Cd3Si3O10
_symmetry_space_group_name_H-M   'P 1'
_cell_length_a   5.18983004
_cell_length_b   8.79803465
_cell_length_c   11.15593747
_cell_angle_alpha   94.19745338
_cell_angle_beta   90.00000000
_cell_angle_gamma   107.15409412
_symmetry_Int_Tables_number   1
_chemical_formula_structural   Na2Cd3Si3O10
_chemical_formula_sum   'Na4 Cd6 Si6 O20'
_cell_volume   485.29347031
_cell_formula_units_Z   2
loop_
 _symmetry_equiv_pos_site_id
 _symmetry_equiv_pos_as_xyz
  1  'x, y, z'
loop_
 _atom_site_type_symbol
 _atom_site_label
 _atom_site_symmetry_multiplicity
 _atom_site_fract_x
 _atom_site_fract_y
 _atom_site_fract_z
 _atom_site_occupancy
  O  O0  1  0.16349848  0.31522040  0.39595470  1
  O  O1  1  0.84827808  0.68477960  0.10404530  1
  O  O2  1  0.83650152  0.68477960  0.60404530  1
  O  O3  1  0.15172192  0.31522040  0.89595470  1
  O  O4  1  0.75340326  0.43854381  0.32876896  1
  O  O5  1  0.31485945  0.56145619  0.17123104  1
  O  O6  1  0.24659674  0.56145619  0.67123104  1
  O  O7  1  0.68514055  0.43854381  0.82876896  1
  O  O8  1  0.67549027  0.12418363  0.32668744  1
  O  O9  1  0.55130665  0.87581637  0.17331256  1
  O  O10  1  0.32450973  0.87581637  0.67331256  1
  O  O11  1  0.44869335  0.12418363  0.82668744  1
  O  O12  1  0.94042602  0.90873969  0.34773543  1
  O  O13  1  0.03168634  0.09126031  0.15226457  1
  O  O14  1  0.05957398  0.09126031  0.65226457  1
  O  O15  1  0.96831366  0.90873969  0.84773543  1
  O  O16  1  0.41250944  0.70363619  0.96785562  1
  O  O17  1  0.70887325  0.29636381  0.53214438  1
  O  O18  1  0.58749056  0.29636381  0.03214438  1
  O  O19  1  0.29112675  0.70363619  0.46785562  1
  Na  Na20  1  0.28462505  0.09584854  0.46781715  1
  Na  Na21  1  0.18877652  0.90415146  0.03218285  1
  Na  Na22  1  0.71537495  0.90415146  0.53218285  1
  Na  Na23  1  0.81122348  0.09584854  0.96781715  1
  Si  Si24  1  0.84265349  0.30110197  0.39844473  1
  Si  Si25  1  0.54155152  0.69889803  0.10155527  1
  Si  Si26  1  0.15734651  0.69889803  0.60155527  1
  Si  Si27  1  0.45844848  0.30110197  0.89844473  1
  Si  Si28  1  0.81942564  0.00000000  0.25000000  1
  Si  Si29  1  0.18057436  0.00000000  0.75000000  1
  Cd  Cd30  1  0.05358990  0.68303096  0.29488518  1
  Cd  Cd31  1  0.37055893  0.31696904  0.20511482  1
  Cd  Cd32  1  0.94641010  0.31696904  0.70511482  1
  Cd  Cd33  1  0.62944107  0.68303096  0.79488518  1
  Cd  Cd34  1  0.50000000  0.50000000  0.50000000  1
  Cd  Cd35  1  0.00000000  0.50000000  0.00000000  1
