# generated using pymatgen
data_CsCSN
_symmetry_space_group_name_H-M   'P 1'
_cell_length_a   6.43957755
_cell_length_b   8.12940671
_cell_length_c   8.50980261
_cell_angle_alpha   90.00000000
_cell_angle_beta   90.00000000
_cell_angle_gamma   90.00000000
_symmetry_Int_Tables_number   1
_chemical_formula_structural   CsCSN
_chemical_formula_sum   'Cs4 C4 S4 N4'
_cell_volume   445.48769812
_cell_formula_units_Z   4
loop_
 _symmetry_equiv_pos_site_id
 _symmetry_equiv_pos_as_xyz
  1  'x, y, z'
loop_
 _atom_site_type_symbol
 _atom_site_label
 _atom_site_symmetry_multiplicity
 _atom_site_fract_x
 _atom_site_fract_y
 _atom_site_fract_z
 _atom_site_occupancy
  Cs  Cs0  1  0.25000000  0.68052624  0.39523753  1
  Cs  Cs1  1  0.25000000  0.18052624  0.10476247  1
  Cs  Cs2  1  0.75000000  0.31947376  0.60476247  1
  Cs  Cs3  1  0.75000000  0.81947376  0.89523753  1
  C  C4  1  0.25000000  0.67349016  0.94112044  1
  C  C5  1  0.75000000  0.82650984  0.44112044  1
  C  C6  1  0.25000000  0.17349016  0.55887956  1
  C  C7  1  0.75000000  0.32650984  0.05887956  1
  S  S8  1  0.75000000  0.97590915  0.31255640  1
  S  S9  1  0.25000000  0.52409085  0.81255640  1
  S  S10  1  0.25000000  0.02409085  0.68744360  1
  S  S11  1  0.75000000  0.47590915  0.18744360  1
  N  N12  1  0.25000000  0.28495737  0.46781913  1
  N  N13  1  0.75000000  0.71504263  0.53218087  1
  N  N14  1  0.25000000  0.78495737  0.03218087  1
  N  N15  1  0.75000000  0.21504263  0.96781913  1
