# generated using pymatgen
data_Eu3(AsPd)4
_symmetry_space_group_name_H-M   'P 1'
_cell_length_a   4.17886311
_cell_length_b   4.36141273
_cell_length_c   12.91248916
_cell_angle_alpha   90.00221583
_cell_angle_beta   89.90704041
_cell_angle_gamma   90.01370368
_symmetry_Int_Tables_number   1
_chemical_formula_structural   Eu3(AsPd)4
_chemical_formula_sum   'Eu3 As4 Pd4'
_cell_volume   235.33944077
_cell_formula_units_Z   1
loop_
 _symmetry_equiv_pos_site_id
 _symmetry_equiv_pos_as_xyz
  1  'x, y, z'
loop_
 _atom_site_type_symbol
 _atom_site_label
 _atom_site_symmetry_multiplicity
 _atom_site_fract_x
 _atom_site_fract_y
 _atom_site_fract_z
 _atom_site_occupancy
  Eu  Eu0  1  0.99969011  0.99992311  0.79895355  1
  Eu  Eu1  1  0.00033844  -0.00000649  0.20103995  1
  Eu  Eu2  1  0.00000119  0.49999381  0.49991453  1
  As  As3  1  0.49900819  0.49998422  0.88229767  1
  As  As4  1  0.49954677  0.99988989  0.60012405  1
  As  As5  1  0.50098629  0.50000973  0.11771945  1
  As  As6  1  0.50044442  0.00008965  0.39981141  1
  Pd  Pd7  1  0.49992871  0.50015257  0.31074273  1
  Pd  Pd8  1  0.50007867  0.49990776  0.68928204  1
  Pd  Pd9  1  -0.00000406  0.50001809  0.00004880  1
  Pd  Pd10  1  0.49998126  0.00003766  0.00006583  1
