# generated using pymatgen
data_K5Nb4O12F
_symmetry_space_group_name_H-M   'P 1'
_cell_length_a   5.17842723
_cell_length_b   12.05450305
_cell_length_c   12.09631151
_cell_angle_alpha   90.00000000
_cell_angle_beta   92.57632561
_cell_angle_gamma   90.00000000
_symmetry_Int_Tables_number   1
_chemical_formula_structural   K5Nb4O12F
_chemical_formula_sum   'K10 Nb8 O24 F2'
_cell_volume   754.32926413
_cell_formula_units_Z   2
loop_
 _symmetry_equiv_pos_site_id
 _symmetry_equiv_pos_as_xyz
  1  'x, y, z'
loop_
 _atom_site_type_symbol
 _atom_site_label
 _atom_site_symmetry_multiplicity
 _atom_site_fract_x
 _atom_site_fract_y
 _atom_site_fract_z
 _atom_site_occupancy
  O  O0  1  0.26578496  0.37263568  0.11569167  1
  O  O1  1  0.73421504  0.62736432  0.88430833  1
  O  O2  1  0.09906957  0.02153893  0.78229703  1
  O  O3  1  0.40093043  0.52153893  0.71770297  1
  O  O4  1  0.90093043  0.97846107  0.21770297  1
  O  O5  1  0.59906957  0.47846107  0.28229703  1
  O  O6  1  0.92052121  0.21854822  0.99908305  1
  O  O7  1  0.57947879  0.71854822  0.50091695  1
  O  O8  1  0.07947879  0.78145178  0.00091695  1
  O  O9  1  0.42052121  0.28145178  0.49908305  1
  O  O10  1  0.32744092  0.10289658  0.33091038  1
  O  O11  1  0.17255908  0.60289658  0.16908962  1
  O  O12  1  0.23421504  0.87263568  0.38430833  1
  O  O13  1  0.82744092  0.39710342  0.83091038  1
  O  O14  1  0.82925226  0.16100311  0.38022360  1
  O  O15  1  0.67074774  0.66100311  0.11977640  1
  O  O16  1  0.17074774  0.83899689  0.61977640  1
  O  O17  1  0.32925226  0.33899689  0.88022360  1
  O  O18  1  0.75555390  0.45874185  0.03868784  1
  O  O19  1  0.74444610  0.95874185  0.46131216  1
  O  O20  1  0.24444610  0.54125815  0.96131216  1
  O  O21  1  0.25555390  0.04125815  0.53868784  1
  O  O22  1  0.67255908  0.89710342  0.66908962  1
  O  O23  1  0.76578496  0.12736432  0.61569167  1
  F  F24  1  0.00000000  0.50000000  0.50000000  1
  F  F25  1  0.50000000  0.00000000  0.00000000  1
  K  K26  1  0.94195608  0.66968555  0.35018748  1
  K  K27  1  0.50000000  0.50000000  0.50000000  1
  K  K28  1  0.55804392  0.16968555  0.14981252  1
  K  K29  1  0.00000000  0.00000000  0.00000000  1
  K  K30  1  0.44195608  0.83031445  0.85018748  1
  K  K31  1  0.05804392  0.33031445  0.64981252  1
  K  K32  1  0.55291662  0.14607491  0.82983252  1
  K  K33  1  0.94708338  0.64607491  0.67016748  1
  K  K34  1  0.05291662  0.35392509  0.32983252  1
  K  K35  1  0.44708338  0.85392509  0.17016748  1
  Nb  Nb36  1  0.02726996  0.01280521  0.35542672  1
  Nb  Nb37  1  0.47273004  0.51280521  0.14457328  1
  Nb  Nb38  1  0.97273004  0.98719479  0.64457328  1
  Nb  Nb39  1  0.52726996  0.48719479  0.85542672  1
  Nb  Nb40  1  0.54231012  0.14280281  0.47688002  1
  Nb  Nb41  1  0.95768988  0.64280281  0.02311998  1
  Nb  Nb42  1  0.45768988  0.85719719  0.52311998  1
  Nb  Nb43  1  0.04231012  0.35719719  0.97688002  1
