# generated using pymatgen
data_LiGd(PO3)4
_symmetry_space_group_name_H-M   'P 1'
_cell_length_a   7.15567216
_cell_length_b   9.02419158
_cell_length_c   9.01708766
_cell_angle_alpha   65.74718199
_cell_angle_beta   66.62271615
_cell_angle_gamma   66.64221157
_symmetry_Int_Tables_number   1
_chemical_formula_structural   LiGd(PO3)4
_chemical_formula_sum   'Li2 Gd2 P8 O24'
_cell_volume   467.95281791
_cell_formula_units_Z   2
loop_
 _symmetry_equiv_pos_site_id
 _symmetry_equiv_pos_as_xyz
  1  'x, y, z'
loop_
 _atom_site_type_symbol
 _atom_site_label
 _atom_site_symmetry_multiplicity
 _atom_site_fract_x
 _atom_site_fract_y
 _atom_site_fract_z
 _atom_site_occupancy
  Li  Li0  1  0.79498942  0.25000000  0.75000000  1
  Li  Li1  1  0.20501058  0.75000000  0.25000000  1
  O  O2  1  0.25805517  0.52706047  0.72487037  1
  O  O3  1  0.50998602  0.97293953  0.77512963  1
  O  O4  1  0.74194483  0.47293953  0.27512963  1
  O  O5  1  0.49001398  0.02706047  0.22487037  1
  O  O6  1  0.33888324  0.72879396  0.41742409  1
  O  O7  1  0.48510129  0.77120604  0.08257591  1
  O  O8  1  0.66111676  0.27120604  0.58257591  1
  O  O9  1  0.51489871  0.22879396  0.91742409  1
  O  O10  1  0.89922789  0.81707310  0.95824163  1
  O  O11  1  0.67454262  0.68292690  0.54175837  1
  O  O12  1  0.10077211  0.18292690  0.04175837  1
  O  O13  1  0.32545738  0.31707310  0.45824163  1
  O  O14  1  0.71870209  0.23174146  0.08207814  1
  O  O15  1  0.03252169  0.26825854  0.41792186  1
  O  O16  1  0.28129791  0.76825854  0.91792186  1
  O  O17  1  0.96747831  0.73174146  0.58207814  1
  O  O18  1  0.16292657  0.84918338  0.66076353  1
  O  O19  1  0.67287349  0.65081662  0.83923647  1
  O  O20  1  0.83707343  0.15081662  0.33923647  1
  O  O21  1  0.32712651  0.34918338  0.16076353  1
  O  O22  1  0.93875956  0.92955644  0.20440189  1
  O  O23  1  0.07271788  0.57044356  0.29559811  1
  O  O24  1  0.06124044  0.07044356  0.79559811  1
  O  O25  1  0.92728212  0.42955644  0.70440189  1
  P  P26  1  0.20068250  0.69538915  0.59724827  1
  P  P27  1  0.49331992  0.80461085  0.90275173  1
  P  P28  1  0.79931750  0.30461085  0.40275173  1
  P  P29  1  0.50668008  0.19538915  0.09724827  1
  P  P30  1  0.19066542  0.38450870  0.34025922  1
  P  P31  1  0.91543334  0.11549130  0.15974078  1
  P  P32  1  0.80933458  0.61549130  0.65974078  1
  P  P33  1  0.08456666  0.88450870  0.84025922  1
  Gd  Gd34  1  0.29735304  0.25000000  0.75000000  1
  Gd  Gd35  1  0.70264696  0.75000000  0.25000000  1
