# generated using pymatgen
data_Cs3V4Te2ClO14
_symmetry_space_group_name_H-M   'P 1'
_cell_length_a   5.57968636
_cell_length_b   6.94085648
_cell_length_c   24.44350453
_cell_angle_alpha   89.99991893
_cell_angle_beta   89.99999600
_cell_angle_gamma   90.00001036
_symmetry_Int_Tables_number   1
_chemical_formula_structural   Cs3V4Te2ClO14
_chemical_formula_sum   'Cs6 V8 Te4 Cl2 O28'
_cell_volume   946.64320920
_cell_formula_units_Z   2
loop_
 _symmetry_equiv_pos_site_id
 _symmetry_equiv_pos_as_xyz
  1  'x, y, z'
loop_
 _atom_site_type_symbol
 _atom_site_label
 _atom_site_symmetry_multiplicity
 _atom_site_fract_x
 _atom_site_fract_y
 _atom_site_fract_z
 _atom_site_occupancy
  Cs  Cs0  1  -0.00000019  -0.00000020  0.49999941  1
  Cs  Cs1  1  0.49999994  0.65297436  0.77065072  1
  Cs  Cs2  1  0.00000012  0.15297019  0.72934758  1
  Cs  Cs3  1  0.00000006  0.84702607  0.27065130  1
  Cs  Cs4  1  0.49999994  0.34702781  0.22934794  1
  Cs  Cs5  1  0.49999997  0.50000008  0.00000002  1
  V  V6  1  -0.00000010  0.63055541  0.63717261  1
  V  V7  1  0.50000006  0.86945267  0.13716776  1
  V  V8  1  -0.00000012  0.56348484  0.11596430  1
  V  V9  1  0.50000009  0.93650662  0.61596060  1
  V  V10  1  0.00000002  0.36944861  0.36282455  1
  V  V11  1  0.50000009  0.13054775  0.86283213  1
  V  V12  1  0.50000001  0.06348849  0.38403538  1
  V  V13  1  0.00000028  0.43651403  0.88403575  1
  Te  Te14  1  0.50000008  0.57245293  0.41594630  1
  Te  Te15  1  0.49999990  0.42754357  0.58405347  1
  Te  Te16  1  0.00000015  0.07245297  0.08405374  1
  Te  Te17  1  -0.00000003  0.92754708  0.91594631  1
  Cl  Cl18  1  0.00000016  0.49999966  0.50000002  1
  Cl  Cl19  1  0.49999997  -0.00000053  -0.00000004  1
  O  O20  1  0.25156194  0.29440005  0.89843130  1
  O  O21  1  0.00000013  0.35060712  0.06950715  1
  O  O22  1  0.00000003  0.64939170  0.93049231  1
  O  O23  1  0.24842450  0.79439030  0.60156804  1
  O  O24  1  0.25156259  0.70560034  0.10156828  1
  O  O25  1  0.50000016  0.00222209  0.31890281  1
  O  O26  1  0.75156546  0.20560137  0.39843134  1
  O  O27  1  0.24381401  0.58120235  0.36536832  1
  O  O28  1  0.75157537  0.79439023  0.60156807  1
  O  O29  1  0.00000003  0.29906641  0.29819284  1
  O  O30  1  0.74843739  0.70560028  0.10156829  1
  O  O31  1  0.75618424  0.41879810  0.63462993  1
  O  O32  1  0.74381533  0.91879703  0.86536888  1
  O  O33  1  0.49999986  0.99778568  0.68110615  1
  O  O34  1  0.50000001  0.85060618  0.43049295  1
  O  O35  1  0.74381560  0.08120248  0.13463046  1
  O  O36  1  0.24843436  0.20560139  0.39843134  1
  O  O37  1  0.50000016  0.20093862  0.79818879  1
  O  O38  1  0.25618417  0.08120218  0.13463050  1
  O  O39  1  -0.00000007  0.70094424  0.70181592  1
  O  O40  1  0.25618456  0.91879693  0.86536884  1
  O  O41  1  -0.00000002  0.49777880  0.81890122  1
  O  O42  1  0.74843802  0.29440000  0.89843128  1
  O  O43  1  0.75618595  0.58120262  0.36536835  1
  O  O44  1  0.49999978  0.79906051  0.20181201  1
  O  O45  1  0.00000010  0.50222053  0.18109852  1
  O  O46  1  0.24381574  0.41879800  0.63462992  1
  O  O47  1  0.50000016  0.14940208  0.56950633  1
