# generated using pymatgen
data_Gd2InGe2
_symmetry_space_group_name_H-M   'P 1'
_cell_length_a   4.28097235
_cell_length_b   7.47264243
_cell_length_c   7.47264243
_cell_angle_alpha   90.00000000
_cell_angle_beta   90.00000000
_cell_angle_gamma   90.00000000
_symmetry_Int_Tables_number   1
_chemical_formula_structural   Gd2InGe2
_chemical_formula_sum   'Gd4 In2 Ge4'
_cell_volume   239.05114371
_cell_formula_units_Z   2
loop_
 _symmetry_equiv_pos_site_id
 _symmetry_equiv_pos_as_xyz
  1  'x, y, z'
loop_
 _atom_site_type_symbol
 _atom_site_label
 _atom_site_symmetry_multiplicity
 _atom_site_fract_x
 _atom_site_fract_y
 _atom_site_fract_z
 _atom_site_occupancy
  Gd  Gd0  1  0.50000000  0.32178513  0.17821487  1
  Gd  Gd1  1  0.50000000  0.17821487  0.67821487  1
  Gd  Gd2  1  0.50000000  0.67821487  0.82178513  1
  Gd  Gd3  1  0.50000000  0.82178513  0.32178513  1
  In  In4  1  0.00000000  0.50000000  0.50000000  1
  In  In5  1  0.00000000  0.00000000  0.00000000  1
  Ge  Ge6  1  0.00000000  0.62182068  0.12182068  1
  Ge  Ge7  1  0.00000000  0.12182068  0.37817932  1
  Ge  Ge8  1  0.00000000  0.87817932  0.62182068  1
  Ge  Ge9  1  0.00000000  0.37817932  0.87817932  1
