# generated using pymatgen
data_Pr3RuCl3
_symmetry_space_group_name_H-M   'P 1'
_cell_length_a   4.10733776
_cell_length_b   12.45886777
_cell_length_c   14.51643318
_cell_angle_alpha   90.00000000
_cell_angle_beta   90.00000000
_cell_angle_gamma   90.00000000
_symmetry_Int_Tables_number   1
_chemical_formula_structural   Pr3RuCl3
_chemical_formula_sum   'Pr12 Ru4 Cl12'
_cell_volume   742.84621303
_cell_formula_units_Z   4
loop_
 _symmetry_equiv_pos_site_id
 _symmetry_equiv_pos_as_xyz
  1  'x, y, z'
loop_
 _atom_site_type_symbol
 _atom_site_label
 _atom_site_symmetry_multiplicity
 _atom_site_fract_x
 _atom_site_fract_y
 _atom_site_fract_z
 _atom_site_occupancy
  Pr  Pr0  1  0.25000000  0.83695859  0.08951012  1
  Pr  Pr1  1  0.25000000  0.41592411  0.85479876  1
  Pr  Pr2  1  0.25000000  0.08407589  0.35479876  1
  Pr  Pr3  1  0.75000000  0.91592411  0.64520124  1
  Pr  Pr4  1  0.75000000  0.16304141  0.91048988  1
  Pr  Pr5  1  0.75000000  0.82932985  0.40053327  1
  Pr  Pr6  1  0.75000000  0.58407589  0.14520124  1
  Pr  Pr7  1  0.25000000  0.66304141  0.58951012  1
  Pr  Pr8  1  0.25000000  0.17067015  0.59946673  1
  Pr  Pr9  1  0.75000000  0.33695859  0.41048988  1
  Pr  Pr10  1  0.75000000  0.67067015  0.90053327  1
  Pr  Pr11  1  0.25000000  0.32932985  0.09946673  1
  Ru  Ru12  1  0.25000000  0.90383199  0.51565645  1
  Ru  Ru13  1  0.75000000  0.40383199  0.98434355  1
  Ru  Ru14  1  0.25000000  0.59616801  0.01565645  1
  Ru  Ru15  1  0.75000000  0.09616801  0.48434355  1
  Cl  Cl16  1  0.75000000  0.89869895  0.95577740  1
  Cl  Cl17  1  0.25000000  0.10130105  0.04422260  1
  Cl  Cl18  1  0.25000000  0.39869895  0.54422260  1
  Cl  Cl19  1  0.75000000  0.94252387  0.21326886  1
  Cl  Cl20  1  0.75000000  0.60130105  0.45577740  1
  Cl  Cl21  1  0.75000000  0.22317695  0.23527571  1
  Cl  Cl22  1  0.25000000  0.05747613  0.78673114  1
  Cl  Cl23  1  0.25000000  0.72317695  0.26472429  1
  Cl  Cl24  1  0.75000000  0.27682305  0.73527571  1
  Cl  Cl25  1  0.75000000  0.55747613  0.71326886  1
  Cl  Cl26  1  0.25000000  0.44252387  0.28673114  1
  Cl  Cl27  1  0.25000000  0.77682305  0.76472429  1
