# generated using pymatgen
data_GdSi
_symmetry_space_group_name_H-M   'P 1'
_cell_length_a   3.87559172
_cell_length_b   5.76563873
_cell_length_c   8.01437004
_cell_angle_alpha   90.00507452
_cell_angle_beta   89.99920033
_cell_angle_gamma   90.01678767
_symmetry_Int_Tables_number   1
_chemical_formula_structural   GdSi
_chemical_formula_sum   'Gd4 Si4'
_cell_volume   179.08318764
_cell_formula_units_Z   4
loop_
 _symmetry_equiv_pos_site_id
 _symmetry_equiv_pos_as_xyz
  1  'x, y, z'
loop_
 _atom_site_type_symbol
 _atom_site_label
 _atom_site_symmetry_multiplicity
 _atom_site_fract_x
 _atom_site_fract_y
 _atom_site_fract_z
 _atom_site_occupancy
  Gd  Gd0  1  0.74994963  0.61441953  0.67940940  1
  Gd  Gd1  1  0.24995453  0.11459578  0.82057324  1
  Gd  Gd2  1  0.25002280  0.38577164  0.32088355  1
  Gd  Gd3  1  0.75005215  0.88544877  0.17925850  1
  Si  Si4  1  0.75002674  0.12550836  0.53663096  1
  Si  Si5  1  0.74996475  0.37396740  0.03682623  1
  Si  Si6  1  0.24995535  0.87403989  0.46314851  1
  Si  Si7  1  0.25007407  0.62624863  0.96326963  1
