# generated using pymatgen
data_Li2Y5In9
_symmetry_space_group_name_H-M   'P 1'
_cell_length_a   10.31266580
_cell_length_b   10.31266580
_cell_length_c   15.42166738
_cell_angle_alpha   90.00000000
_cell_angle_beta   90.00000000
_cell_angle_gamma   90.00000000
_symmetry_Int_Tables_number   1
_chemical_formula_structural   Li2Y5In9
_chemical_formula_sum   'Li8 Y20 In36'
_cell_volume   1640.11091807
_cell_formula_units_Z   4
loop_
 _symmetry_equiv_pos_site_id
 _symmetry_equiv_pos_as_xyz
  1  'x, y, z'
loop_
 _atom_site_type_symbol
 _atom_site_label
 _atom_site_symmetry_multiplicity
 _atom_site_fract_x
 _atom_site_fract_y
 _atom_site_fract_z
 _atom_site_occupancy
  Li  Li0  1  0.25000000  0.75000000  0.89951578  1
  Li  Li1  1  0.75000000  0.25000000  0.40902535  1
  Li  Li2  1  0.25000000  0.75000000  0.40902535  1
  Li  Li3  1  0.75000000  0.25000000  0.59097465  1
  Li  Li4  1  0.25000000  0.75000000  0.59097465  1
  Li  Li5  1  0.75000000  0.25000000  0.89951578  1
  Li  Li6  1  0.75000000  0.25000000  0.10048422  1
  Li  Li7  1  0.25000000  0.75000000  0.10048422  1
  Y  Y8  1  0.53003147  0.53003147  0.62664106  1
  Y  Y9  1  0.53252925  0.53252925  0.12768337  1
  Y  Y10  1  0.03003147  0.46996853  0.37335894  1
  Y  Y11  1  0.46747075  0.46747075  0.87231663  1
  Y  Y12  1  0.75000000  0.75000000  0.30573809  1
  Y  Y13  1  0.53252925  0.96747075  0.12768337  1
  Y  Y14  1  0.46996853  0.03003147  0.37335894  1
  Y  Y15  1  0.25000000  0.25000000  0.16783296  1
  Y  Y16  1  0.03252925  0.03252925  0.87231663  1
  Y  Y17  1  0.46996853  0.46996853  0.37335894  1
  Y  Y18  1  0.03252925  0.46747075  0.87231663  1
  Y  Y19  1  0.53003147  0.96996853  0.62664106  1
  Y  Y20  1  0.96747075  0.53252925  0.12768337  1
  Y  Y21  1  0.96996853  0.96996853  0.62664106  1
  Y  Y22  1  0.03003147  0.03003147  0.37335894  1
  Y  Y23  1  0.46747075  0.03252925  0.87231663  1
  Y  Y24  1  0.96996853  0.53003147  0.62664106  1
  Y  Y25  1  0.96747075  0.96747075  0.12768337  1
  Y  Y26  1  0.25000000  0.25000000  0.69426191  1
  Y  Y27  1  0.75000000  0.75000000  0.83216704  1
  In  In28  1  0.52176368  0.75000000  0.47251405  1
  In  In29  1  0.05001072  0.75000000  0.26865374  1
  In  In30  1  0.25000000  0.25000000  0.38056857  1
  In  In31  1  0.75000000  0.75000000  0.09443404  1
  In  In32  1  0.95840522  0.25000000  0.23150458  1
  In  In33  1  0.25000000  0.02176368  0.52748595  1
  In  In34  1  0.25000000  0.49965832  0.02462384  1
  In  In35  1  0.75000000  0.99965832  0.97537616  1
  In  In36  1  0.94998928  0.25000000  0.73134626  1
  In  In37  1  0.25000000  0.54159478  0.23150458  1
  In  In38  1  0.75000000  0.04159478  0.76849542  1
  In  In39  1  0.75000000  0.44998928  0.26865374  1
  In  In40  1  0.55001072  0.25000000  0.73134626  1
  In  In41  1  0.75000000  0.75000000  0.61943143  1
  In  In42  1  0.54159478  0.25000000  0.23150458  1
  In  In43  1  0.25000000  0.00034168  0.02462384  1
  In  In44  1  0.75000000  0.97823632  0.47251405  1
  In  In45  1  0.75000000  0.50034168  0.97537616  1
  In  In46  1  0.25000000  0.55001072  0.73134626  1
  In  In47  1  0.25000000  0.25000000  0.90556596  1
  In  In48  1  0.99965832  0.75000000  0.97537616  1
  In  In49  1  0.04159478  0.75000000  0.76849542  1
  In  In50  1  0.25000000  0.47823632  0.52748595  1
  In  In51  1  0.75000000  0.05001072  0.26865374  1
  In  In52  1  0.47823632  0.25000000  0.52748595  1
  In  In53  1  0.02176368  0.25000000  0.52748595  1
  In  In54  1  0.75000000  0.45840522  0.76849542  1
  In  In55  1  0.45840522  0.75000000  0.76849542  1
  In  In56  1  0.44998928  0.75000000  0.26865374  1
  In  In57  1  0.25000000  0.95840522  0.23150458  1
  In  In58  1  0.50034168  0.75000000  0.97537616  1
  In  In59  1  0.49965832  0.25000000  0.02462384  1
  In  In60  1  0.00034168  0.25000000  0.02462384  1
  In  In61  1  0.25000000  0.94998928  0.73134626  1
  In  In62  1  0.97823632  0.75000000  0.47251405  1
  In  In63  1  0.75000000  0.52176368  0.47251405  1
