# generated using pymatgen
data_Zr9(In2Co)7
_symmetry_space_group_name_H-M   'P 1'
_cell_length_a   9.46241237
_cell_length_b   9.45995220
_cell_length_c   9.45897867
_cell_angle_alpha   59.98026981
_cell_angle_beta   59.99333262
_cell_angle_gamma   60.00710685
_symmetry_Int_Tables_number   1
_chemical_formula_structural   Zr9(In2Co)7
_chemical_formula_sum   'Zr9 In14 Co7'
_cell_volume   598.62753728
_cell_formula_units_Z   1
loop_
 _symmetry_equiv_pos_site_id
 _symmetry_equiv_pos_as_xyz
  1  'x, y, z'
loop_
 _atom_site_type_symbol
 _atom_site_label
 _atom_site_symmetry_multiplicity
 _atom_site_fract_x
 _atom_site_fract_y
 _atom_site_fract_z
 _atom_site_occupancy
  Zr  Zr0  1  0.37899318  0.37874414  0.37878901  1
  Zr  Zr1  1  0.13680725  0.62098003  0.62105339  1
  Zr  Zr2  1  0.62084103  0.13680206  0.62103521  1
  Zr  Zr3  1  0.86353722  0.37898718  0.37878167  1
  Zr  Zr4  1  0.99991292  0.00019304  0.00008217  1
  Zr  Zr5  1  0.62089953  0.62111899  0.13669792  1
  Zr  Zr6  1  0.37906635  0.86304916  0.37895525  1
  Zr  Zr7  1  0.62096111  0.62124858  0.62128570  1
  Zr  Zr8  1  0.37890574  0.37901172  0.86314893  1
  In  In9  1  0.00014821  0.99997030  0.34217440  1
  In  In10  1  0.00008902  0.34261127  0.00006618  1
  In  In11  1  -0.00001051  0.65829989  0.99981866  1
  In  In12  1  0.99992550  0.34215674  0.65775582  1
  In  In13  1  0.34222592  0.65762848  0.00010855  1
  In  In14  1  0.65750215  0.00008934  0.00009966  1
  In  In15  1  0.34223423  0.99984275  0.00013924  1
  In  In16  1  0.99994209  0.99985587  0.65775192  1
  In  In17  1  0.34226813  0.99987455  0.65781183  1
  In  In18  1  0.00004344  0.65775572  0.34240221  1
  In  In19  1  0.65768198  0.34229695  0.99996983  1
  In  In20  1  0.65769911  0.00000261  0.34234103  1
  In  In21  1  0.25015570  0.25008998  0.24991518  1
  In  In22  1  0.74989851  0.75008587  0.74986091  1
  Co  Co23  1  0.72042849  0.27952947  0.27941925  1
  Co  Co24  1  0.50004043  0.49999141  0.49990397  1
  Co  Co25  1  0.27984240  0.72004390  0.27986676  1
  Co  Co26  1  0.27939095  0.27954759  0.72051042  1
  Co  Co27  1  0.27972949  0.72026219  0.72043201  1
  Co  Co28  1  0.72029968  0.27967495  0.72023841  1
  Co  Co29  1  0.72054075  0.72025527  0.27958449  1
