# generated using pymatgen
data_K23Na8(CdIn4)12
_symmetry_space_group_name_H-M   'P 1'
_cell_length_a   17.58469252
_cell_length_b   17.58293914
_cell_length_c   10.69192518
_cell_angle_alpha   90.01986204
_cell_angle_beta   89.99873756
_cell_angle_gamma   119.99234887
_symmetry_Int_Tables_number   1
_chemical_formula_structural   K23Na8(CdIn4)12
_chemical_formula_sum   'K23 Na8 Cd12 In48'
_cell_volume   2863.16409924
_cell_formula_units_Z   1
loop_
 _symmetry_equiv_pos_site_id
 _symmetry_equiv_pos_as_xyz
  1  'x, y, z'
loop_
 _atom_site_type_symbol
 _atom_site_label
 _atom_site_symmetry_multiplicity
 _atom_site_fract_x
 _atom_site_fract_y
 _atom_site_fract_z
 _atom_site_occupancy
  K  K0  1  0.79129196  0.20859283  0.69561239  1
  K  K1  1  0.00007050  0.36967703  0.49999542  1
  K  K2  1  0.58270820  0.79147149  0.69573113  1
  K  K3  1  0.79130948  0.58266046  0.69571435  1
  K  K4  1  0.63036673  0.99994781  0.49994093  1
  K  K5  1  0.66658258  0.33326175  0.19887195  1
  K  K6  1  0.20870035  0.79135034  0.30443452  1
  K  K7  1  0.63038851  0.63046666  0.49987994  1
  K  K8  1  0.33334613  0.66666910  0.80111182  1
  K  K9  1  0.20858519  0.41742274  0.69574485  1
  K  K10  1  0.79142520  0.58269178  0.30430927  1
  K  K11  1  0.20870932  0.79131608  0.69548962  1
  K  K12  1  0.36962907  0.36960346  0.49995977  1
  K  K13  1  0.66679051  0.33338481  0.80114721  1
  K  K14  1  0.41727100  0.20860394  0.69559682  1
  K  K15  1  0.33339585  0.66659781  0.19874071  1
  K  K16  1  0.58263134  0.79134668  0.30421692  1
  K  K17  1  0.79129534  0.20867969  0.30450462  1
  K  K18  1  0.36952428  0.99984799  0.49995481  1
  K  K19  1  0.00009107  0.63039686  0.49994582  1
  K  K20  1  0.20860679  0.41736328  0.30422259  1
  K  K21  1  0.99992841  0.99987138  0.00000994  1
  K  K22  1  0.41749770  0.20876309  0.30421083  1
  Na  Na23  1  0.86137143  0.72288034  0.00007020  1
  Na  Na24  1  -0.00002511  0.00003122  0.65362073  1
  Na  Na25  1  0.13851730  0.27713662  0.00001683  1
  Na  Na26  1  0.86145038  0.13856090  -0.00003155  1
  Na  Na27  1  0.72289121  0.86146838  0.99994491  1
  Na  Na28  1  0.99988673  0.99988649  0.34624796  1
  Na  Na29  1  0.13851853  0.86137152  0.00005020  1
  Na  Na30  1  0.27720487  0.13866059  -0.00006262  1
  Cd  Cd31  1  0.81283219  0.00004411  0.25401351  1
  Cd  Cd32  1  0.18727426  -0.00003228  0.74593272  1
  Cd  Cd33  1  0.81273517  0.99999316  0.74598672  1
  Cd  Cd34  1  0.81275714  0.81270350  0.25410159  1
  Cd  Cd35  1  0.18733003  0.99996296  0.25406279  1
  Cd  Cd36  1  0.00006549  0.18721538  0.25408555  1
  Cd  Cd37  1  0.18726829  0.18728875  0.25406266  1
  Cd  Cd38  1  0.00005586  0.81289376  0.74595870  1
  Cd  Cd39  1  0.00005162  0.18730911  0.74586105  1
  Cd  Cd40  1  0.18726319  0.18728489  0.74579580  1
  Cd  Cd41  1  0.81279638  0.81272277  0.74587403  1
  Cd  Cd42  1  0.99997404  0.81273833  0.25397713  1
  In  In43  1  0.00006046  0.35212690  0.85192681  1
  In  In44  1  0.33321539  0.49334809  0.00012618  1
  In  In45  1  0.64784187  0.99994201  0.85166145  1
  In  In46  1  0.44944044  0.55032765  0.25053831  1
  In  In47  1  0.84000328  0.33289278  0.00001086  1
  In  In48  1  0.10067596  0.55025789  0.25054886  1
  In  In49  1  0.55042324  0.10080064  0.25046609  1
  In  In50  1  0.89925297  0.44961726  0.25036614  1
  In  In51  1  0.89919576  0.44956027  0.74954635  1
  In  In52  1  0.35222131  0.00008005  0.14830260  1
  In  In53  1  0.49304269  0.33298789  -0.00003890  1
  In  In54  1  0.00000342  0.64790085  0.14830664  1
  In  In55  1  0.66691522  0.16008508  0.99981770  1
  In  In56  1  0.49306009  0.16000124  0.00019342  1
  In  In57  1  0.44964879  0.89920021  0.74941325  1
  In  In58  1  0.21239385  0.60634334  0.50008167  1
  In  In59  1  0.89326573  0.78699273  0.49995583  1
  In  In60  1  0.44957577  0.55058029  0.74951049  1
  In  In61  1  0.64782177  0.64794056  0.85173661  1
  In  In62  1  0.00006503  0.35229055  0.14835377  1
  In  In63  1  0.35210840  0.35206237  0.85183798  1
  In  In64  1  0.64793303  0.00014108  0.14832376  1
  In  In65  1  0.33296705  0.83980786  0.00004449  1
  In  In66  1  0.78692760  0.89342081  0.50000971  1
  In  In67  1  0.64787067  0.64786974  0.14805113  1
  In  In68  1  0.10659412  0.21319446  0.49991044  1
  In  In69  1  0.60613313  0.39370992  0.50005041  1
  In  In70  1  0.00002835  0.64786382  0.85182974  1
  In  In71  1  0.21301820  0.10651485  0.49985383  1
  In  In72  1  0.50680749  0.66684832  -0.00002901  1
  In  In73  1  0.55031065  0.44961385  0.25033382  1
  In  In74  1  0.15991956  0.66690415  0.99986467  1
  In  In75  1  0.35224599  -0.00003783  0.85196963  1
  In  In76  1  0.44958576  0.89918827  0.25054004  1
  In  In77  1  0.89332966  0.10640558  0.49990094  1
  In  In78  1  0.50695467  0.83998129  0.99996032  1
  In  In79  1  0.83997383  0.50678766  0.00000632  1
  In  In80  1  0.55041084  0.10074815  0.74963388  1
  In  In81  1  0.39380988  0.60613719  0.50011827  1
  In  In82  1  0.66683185  0.50685404  0.00000252  1
  In  In83  1  0.10088473  0.55055626  0.74958881  1
  In  In84  1  0.15992815  0.49300535  0.00004111  1
  In  In85  1  0.60608444  0.21225692  0.50023007  1
  In  In86  1  0.35223225  0.35217786  0.14846948  1
  In  In87  1  0.10665322  0.89344680  0.50005668  1
  In  In88  1  0.55041786  0.44971673  0.74939719  1
  In  In89  1  0.78774422  0.39380863  0.50005218  1
  In  In90  1  0.39380688  0.78763202  0.50021227  1
