# generated using pymatgen
data_Y2Si4CN6
_symmetry_space_group_name_H-M   'P 1'
_cell_length_a   5.96069820
_cell_length_b   9.99955125
_cell_length_c   10.39374545
_cell_angle_alpha   90.00000000
_cell_angle_beta   89.72151589
_cell_angle_gamma   90.00000000
_symmetry_Int_Tables_number   1
_chemical_formula_structural   Y2Si4CN6
_chemical_formula_sum   'Y8 Si16 C4 N24'
_cell_volume   619.50467881
_cell_formula_units_Z   4
loop_
 _symmetry_equiv_pos_site_id
 _symmetry_equiv_pos_as_xyz
  1  'x, y, z'
loop_
 _atom_site_type_symbol
 _atom_site_label
 _atom_site_symmetry_multiplicity
 _atom_site_fract_x
 _atom_site_fract_y
 _atom_site_fract_z
 _atom_site_occupancy
  C  C0  1  0.27040440  0.20805188  0.75291106  1
  C  C1  1  0.22959560  0.70805188  0.74708894  1
  C  C2  1  0.72959560  0.79194812  0.24708894  1
  C  C3  1  0.77040440  0.29194812  0.25291106  1
  N  N4  1  0.06549124  0.44616637  0.63696212  1
  N  N5  1  0.43450876  0.94616637  0.86303788  1
  N  N6  1  0.93450876  0.55383363  0.36303788  1
  N  N7  1  0.56549124  0.05383363  0.13696212  1
  N  N8  1  0.77315655  0.23740661  0.74524895  1
  N  N9  1  0.72684345  0.73740661  0.75475105  1
  N  N10  1  0.22684345  0.76259339  0.25475105  1
  N  N11  1  0.27315655  0.26259339  0.24524895  1
  N  N12  1  0.00280564  0.21102986  0.50113913  1
  N  N13  1  0.49719436  0.71102986  0.99886087  1
  N  N14  1  0.99719436  0.78897014  0.49886087  1
  N  N15  1  0.50280564  0.28897014  0.00113913  1
  N  N16  1  0.51952135  0.46351763  0.72204012  1
  N  N17  1  0.98047865  0.96351763  0.77795988  1
  N  N18  1  0.48047865  0.53648237  0.27795988  1
  N  N19  1  0.01952135  0.03648237  0.22204012  1
  N  N20  1  0.16134204  0.45524338  0.89887994  1
  N  N21  1  0.33865796  0.95524338  0.60112006  1
  N  N22  1  0.83865796  0.54475662  0.10112006  1
  N  N23  1  0.66134204  0.04475662  0.39887994  1
  N  N24  1  0.02874826  0.21456005  0.00954578  1
  N  N25  1  0.47125174  0.71456005  0.49045422  1
  N  N26  1  0.97125174  0.78543995  0.99045422  1
  N  N27  1  0.52874826  0.28543995  0.50954578  1
  Si  Si28  1  0.01863701  0.27274493  0.65887109  1
  Si  Si29  1  0.48136299  0.77274493  0.84112891  1
  Si  Si30  1  0.98136299  0.72725507  0.34112891  1
  Si  Si31  1  0.51863701  0.22725507  0.15887109  1
  Si  Si32  1  0.52443992  0.29392673  0.67613629  1
  Si  Si33  1  0.97556008  0.79392673  0.82386371  1
  Si  Si34  1  0.47556008  0.70607327  0.32386371  1
  Si  Si35  1  0.02443992  0.20607327  0.17613629  1
  Si  Si36  1  0.24341078  0.28747920  0.92046901  1
  Si  Si37  1  0.25658922  0.78747920  0.57953099  1
  Si  Si38  1  0.75658922  0.71252080  0.07953099  1
  Si  Si39  1  0.74341078  0.21252080  0.42046901  1
  Si  Si40  1  0.25406845  0.02013504  0.74993634  1
  Si  Si41  1  0.24593155  0.52013504  0.75006366  1
  Si  Si42  1  0.74593155  0.97986496  0.25006366  1
  Si  Si43  1  0.75406845  0.47986496  0.24993634  1
  Y  Y44  1  0.73779246  0.08712867  0.91805766  1
  Y  Y45  1  0.76220754  0.58712867  0.58194234  1
  Y  Y46  1  0.26220754  0.91287133  0.08194234  1
  Y  Y47  1  0.23779246  0.41287133  0.41805766  1
  Y  Y48  1  0.73485900  0.93260069  0.59432748  1
  Y  Y49  1  0.76514100  0.43260069  0.90567252  1
  Y  Y50  1  0.26514100  0.06739931  0.40567252  1
  Y  Y51  1  0.23485900  0.56739931  0.09432748  1
