# generated using pymatgen
data_ThNi
_symmetry_space_group_name_H-M   'P 1'
_cell_length_a   4.28034297
_cell_length_b   5.70344236
_cell_length_c   14.11868522
_cell_angle_alpha   90.00000000
_cell_angle_beta   90.00000000
_cell_angle_gamma   90.00000000
_symmetry_Int_Tables_number   1
_chemical_formula_structural   ThNi
_chemical_formula_sum   'Th8 Ni8'
_cell_volume   344.67507716
_cell_formula_units_Z   8
loop_
 _symmetry_equiv_pos_site_id
 _symmetry_equiv_pos_as_xyz
  1  'x, y, z'
loop_
 _atom_site_type_symbol
 _atom_site_label
 _atom_site_symmetry_multiplicity
 _atom_site_fract_x
 _atom_site_fract_y
 _atom_site_fract_z
 _atom_site_occupancy
  Th  Th0  1  0.25000000  0.53674208  0.28472229  1
  Th  Th1  1  0.75000000  0.46325792  0.71527771  1
  Th  Th2  1  0.25000000  0.96325792  0.78472229  1
  Th  Th3  1  0.25000000  0.75215007  0.53456054  1
  Th  Th4  1  0.25000000  0.74784993  0.03456054  1
  Th  Th5  1  0.75000000  0.25215007  0.96543946  1
  Th  Th6  1  0.75000000  0.03674208  0.21527771  1
  Th  Th7  1  0.75000000  0.24784993  0.46543946  1
  Ni  Ni8  1  0.25000000  0.03105167  0.35442767  1
  Ni  Ni9  1  0.75000000  0.53105167  0.14557233  1
  Ni  Ni10  1  0.75000000  0.75607145  0.39508957  1
  Ni  Ni11  1  0.25000000  0.46894833  0.85442767  1
  Ni  Ni12  1  0.75000000  0.96894833  0.64557233  1
  Ni  Ni13  1  0.75000000  0.74392855  0.89508957  1
  Ni  Ni14  1  0.25000000  0.25607145  0.10491043  1
  Ni  Ni15  1  0.25000000  0.24392855  0.60491043  1
