# generated using pymatgen
data_Sr6B(PO4)5
_symmetry_space_group_name_H-M   'P 1'
_cell_length_a   9.89425672
_cell_length_b   9.89425672
_cell_length_c   11.89450270
_cell_angle_alpha   114.57709071
_cell_angle_beta   114.57709074
_cell_angle_gamma   90.00000003
_symmetry_Int_Tables_number   1
_chemical_formula_structural   Sr6B(PO4)5
_chemical_formula_sum   'Sr12 B2 P10 O40'
_cell_volume   941.69456235
_cell_formula_units_Z   2
loop_
 _symmetry_equiv_pos_site_id
 _symmetry_equiv_pos_as_xyz
  1  'x, y, z'
loop_
 _atom_site_type_symbol
 _atom_site_label
 _atom_site_symmetry_multiplicity
 _atom_site_fract_x
 _atom_site_fract_y
 _atom_site_fract_z
 _atom_site_occupancy
  B  B0  1  0.75000000  0.25000000  0.50000000  1
  B  B1  1  0.25000000  0.75000000  0.50000000  1
  O  O2  1  0.97152153  0.81584308  0.61390601  1
  O  O3  1  0.53022152  0.78544483  0.77119936  1
  O  O4  1  0.24097783  0.98575453  0.77119936  1
  O  O5  1  0.03022152  0.48575453  0.77119936  1
  O  O6  1  0.74097783  0.28544483  0.77119936  1
  O  O7  1  0.71455517  0.96977848  0.22880064  1
  O  O8  1  0.95837893  0.83025061  0.21187467  1
  O  O9  1  0.25349574  0.38162406  0.21187467  1
  O  O10  1  0.75349574  0.33025061  0.21187467  1
  O  O11  1  0.61837594  0.04162107  0.78812533  1
  O  O12  1  0.16974939  0.74650426  0.78812533  1
  O  O13  1  0.11837594  0.24650426  0.78812533  1
  O  O14  1  0.66974939  0.54162107  0.78812533  1
  O  O15  1  0.47152153  0.29806293  0.61390601  1
  O  O16  1  0.20193707  0.02847847  0.38609399  1
  O  O17  1  0.18415692  0.35761552  0.38609399  1
  O  O18  1  0.68415692  0.52847847  0.38609399  1
  O  O19  1  0.64238448  0.79806293  0.61390601  1
  O  O20  1  0.51424547  0.25902217  0.22880064  1
  O  O21  1  0.14238448  0.31584308  0.61390601  1
  O  O22  1  0.21455517  0.75902217  0.22880064  1
  O  O23  1  0.01424547  0.46977848  0.22880064  1
  O  O24  1  0.63169865  0.11067255  0.41833798  1
  O  O25  1  0.69233457  0.36830135  0.58166202  1
  O  O26  1  0.88932745  0.21336067  0.58166202  1
  O  O27  1  0.19233457  0.71336067  0.58166202  1
  O  O28  1  0.38932745  0.86830135  0.58166202  1
  O  O29  1  0.78663933  0.30766543  0.41833798  1
  O  O30  1  0.28663933  0.61067255  0.41833798  1
  O  O31  1  0.13169865  0.80766543  0.41833798  1
  O  O32  1  0.98329632  0.08557728  0.91187311  1
  O  O33  1  0.17370417  0.01670368  0.08812689  1
  O  O34  1  0.91442272  0.07142322  0.08812689  1
  O  O35  1  0.67370417  0.57142322  0.08812689  1
  O  O36  1  0.41442272  0.51670368  0.08812689  1
  O  O37  1  0.92857678  0.82629583  0.91187311  1
  O  O38  1  0.42857678  0.58557728  0.91187311  1
  O  O39  1  0.48329632  0.32629583  0.91187311  1
  O  O40  1  0.70193707  0.85761552  0.38609399  1
  O  O41  1  0.45837893  0.88162406  0.21187467  1
  P  P42  1  0.12868078  0.85564064  0.30216393  1
  P  P43  1  0.17348315  0.44652330  0.30216393  1
  P  P44  1  0.67348315  0.35564064  0.30216393  1
  P  P45  1  0.55347670  0.87131922  0.69783607  1
  P  P46  1  0.14435936  0.82651685  0.69783607  1
  P  P47  1  0.05347670  0.32651685  0.69783607  1
  P  P48  1  0.64435936  0.37131922  0.69783607  1
  P  P49  1  0.62868078  0.94652330  0.30216393  1
  P  P50  1  0.50000000  0.50000000  0.00000000  1
  P  P51  1  0.00000000  0.00000000  0.00000000  1
  Sr  Sr52  1  0.72281125  0.77718875  0.00000000  1
  Sr  Sr53  1  0.22281125  0.72281125  0.00000000  1
  Sr  Sr54  1  0.27718875  0.22281125  0.00000000  1
  Sr  Sr55  1  0.77718875  0.27718875  0.00000000  1
  Sr  Sr56  1  0.33086726  0.13581452  0.67105016  1
  Sr  Sr57  1  0.34018290  0.53523564  0.67105016  1
  Sr  Sr58  1  0.84018290  0.63581452  0.67105016  1
  Sr  Sr59  1  0.46476436  0.66913274  0.32894984  1
  Sr  Sr60  1  0.86418548  0.65981710  0.32894984  1
  Sr  Sr61  1  0.96476436  0.15981710  0.32894984  1
  Sr  Sr62  1  0.36418548  0.16913274  0.32894984  1
  Sr  Sr63  1  0.83086726  0.03523564  0.67105016  1
