# generated using pymatgen
data_CaMoO3
_symmetry_space_group_name_H-M   'P 1'
_cell_length_a   5.53290882
_cell_length_b   5.74760518
_cell_length_c   7.90780227
_cell_angle_alpha   90.59568999
_cell_angle_beta   90.02385069
_cell_angle_gamma   89.96632794
_symmetry_Int_Tables_number   1
_chemical_formula_structural   CaMoO3
_chemical_formula_sum   'Ca4 Mo4 O12'
_cell_volume   251.46216924
_cell_formula_units_Z   4
loop_
 _symmetry_equiv_pos_site_id
 _symmetry_equiv_pos_as_xyz
  1  'x, y, z'
loop_
 _atom_site_type_symbol
 _atom_site_label
 _atom_site_symmetry_multiplicity
 _atom_site_fract_x
 _atom_site_fract_y
 _atom_site_fract_z
 _atom_site_occupancy
  O  O0  1  0.69739931  0.30980369  0.45136647  1
  O  O1  1  0.19728436  0.19025381  0.54868528  1
  O  O2  1  0.80498232  0.79359128  0.05583290  1
  O  O3  1  0.30549280  0.70649124  0.94397889  1
  O  O4  1  0.30260069  0.69019632  0.54863352  1
  O  O5  1  0.80271566  0.80974621  0.45131472  1
  O  O6  1  0.19501768  0.20640871  0.94416711  1
  O  O7  1  0.69450720  0.29350875  0.05602111  1
  O  O8  1  0.09874936  0.45765647  0.25061682  1
  O  O9  1  0.59949866  0.04292764  0.74905574  1
  O  O10  1  0.40050134  0.95707236  0.25094426  1
  O  O11  1  0.90125065  0.54234353  0.74938318  1
  Ca  Ca12  1  0.98881388  0.05035287  0.25358798  1
  Ca  Ca13  1  0.48900622  0.44958615  0.74651984  1
  Ca  Ca14  1  0.51099377  0.55041383  0.25348015  1
  Ca  Ca15  1  0.01118611  0.94964713  0.74641201  1
  Mo  Mo16  1  0.50000000  0.00000000  -0.00000001  1
  Mo  Mo17  1  1.00000000  0.50000000  -0.00000001  1
  Mo  Mo18  1  1.00000000  0.50000000  0.50000001  1
  Mo  Mo19  1  0.50000000  1.00000001  0.50000001  1
