# generated using pymatgen
data_Ba5(InSb3)2
_symmetry_space_group_name_H-M   'P 1'
_cell_length_a   4.86987103
_cell_length_b   13.56141647
_cell_length_c   15.60496263
_cell_angle_alpha   90.00004631
_cell_angle_beta   89.99986907
_cell_angle_gamma   90.00001013
_symmetry_Int_Tables_number   1
_chemical_formula_structural   Ba5(InSb3)2
_chemical_formula_sum   'Ba10 In4 Sb12'
_cell_volume   1030.58839115
_cell_formula_units_Z   2
loop_
 _symmetry_equiv_pos_site_id
 _symmetry_equiv_pos_as_xyz
  1  'x, y, z'
loop_
 _atom_site_type_symbol
 _atom_site_label
 _atom_site_symmetry_multiplicity
 _atom_site_fract_x
 _atom_site_fract_y
 _atom_site_fract_z
 _atom_site_occupancy
  Ba  Ba0  1  0.50000058  0.32755537  0.51753735  1
  Ba  Ba1  1  0.49999810  0.17244534  0.01753835  1
  Ba  Ba2  1  0.49999900  0.58733598  0.74800505  1
  Ba  Ba3  1  0.50000175  0.08733764  0.75199518  1
  Ba  Ba4  1  0.49999775  0.67244338  0.48246342  1
  Ba  Ba5  1  0.50000037  0.82755579  0.98246215  1
  Ba  Ba6  1  0.50000036  0.41266334  0.25199585  1
  Ba  Ba7  1  0.49999828  0.50000026  -0.00000016  1
  Ba  Ba8  1  0.50000139  0.00000000  0.49999956  1
  Ba  Ba9  1  0.50000107  0.91266246  0.24800511  1
  In  In10  1  0.99999965  0.67388928  0.28845322  1
  In  In11  1  0.00000088  0.32611089  0.71154702  1
  In  In12  1  0.00000102  0.82611040  0.78845299  1
  In  In13  1  0.00000080  0.17388954  0.21154690  1
  Sb  Sb14  1  0.00000020  0.15657775  0.59677072  1
  Sb  Sb15  1  0.50000009  0.83718990  0.68264978  1
  Sb  Sb16  1  0.50000018  0.33718947  0.81735010  1
  Sb  Sb17  1  0.49999980  0.16281023  0.31734987  1
  Sb  Sb18  1  0.49999940  0.66281042  0.18264979  1
  Sb  Sb19  1  -0.00000035  0.84342214  0.40322908  1
  Sb  Sb20  1  0.00000004  0.48605646  0.40805679  1
  Sb  Sb21  1  0.00000054  0.01394332  0.90805701  1
  Sb  Sb22  1  0.99999993  0.51394375  0.59194265  1
  Sb  Sb23  1  0.00000059  0.65657784  0.90322892  1
  Sb  Sb24  1  -0.00000051  0.98605673  0.09194275  1
  Sb  Sb25  1  0.99999909  0.34342232  0.09677054  1
