# generated using pymatgen
data_Tb4InIr
_symmetry_space_group_name_H-M   'P 1'
_cell_length_a   9.71201571
_cell_length_b   9.71207986
_cell_length_c   9.71206585
_cell_angle_alpha   60.00029893
_cell_angle_beta   60.00019540
_cell_angle_gamma   60.00096828
_symmetry_Int_Tables_number   1
_chemical_formula_structural   Tb4InIr
_chemical_formula_sum   'Tb16 In4 Ir4'
_cell_volume   647.77329823
_cell_formula_units_Z   4
loop_
 _symmetry_equiv_pos_site_id
 _symmetry_equiv_pos_as_xyz
  1  'x, y, z'
loop_
 _atom_site_type_symbol
 _atom_site_label
 _atom_site_symmetry_multiplicity
 _atom_site_fract_x
 _atom_site_fract_y
 _atom_site_fract_z
 _atom_site_occupancy
  Tb  Tb0  1  0.95297187  0.34900870  0.34901046  1
  Tb  Tb1  1  0.19143161  0.80856908  0.19142875  1
  Tb  Tb2  1  0.80857245  0.19143024  0.19142861  1
  Tb  Tb3  1  0.93980417  0.56019758  0.56019539  1
  Tb  Tb4  1  0.80856786  0.80857139  0.19142997  1
  Tb  Tb5  1  0.56019417  0.93980420  0.56019696  1
  Tb  Tb6  1  0.34900749  0.34900938  0.34900986  1
  Tb  Tb7  1  0.80856845  0.19143244  0.80857000  1
  Tb  Tb8  1  0.34900913  0.95297202  0.34900869  1
  Tb  Tb9  1  0.56019656  0.93980503  0.93980195  1
  Tb  Tb10  1  0.93980296  0.56019749  0.93980451  1
  Tb  Tb11  1  0.56019651  0.56019505  0.93980452  1
  Tb  Tb12  1  0.93980377  0.93980252  0.56019673  1
  Tb  Tb13  1  0.19143137  0.80856820  0.80857012  1
  Tb  Tb14  1  0.34900837  0.34900948  0.95297311  1
  Tb  Tb15  1  0.19143006  0.19143143  0.80857040  1
  In  In16  1  0.58257664  0.58257457  0.58257670  1
  In  In17  1  0.58257750  0.58257565  0.25227176  1
  In  In18  1  0.25226939  0.58257663  0.58257583  1
  In  In19  1  0.58257990  0.25226927  0.58257539  1
  Ir  Ir20  1  0.14125177  0.14125171  0.14125126  1
  Ir  Ir21  1  0.14125148  0.57624606  0.14125148  1
  Ir  Ir22  1  0.14125030  0.14125137  0.57624648  1
  Ir  Ir23  1  0.57624620  0.14125050  0.14125105  1
