# generated using pymatgen
data_CsGdSiS4
_symmetry_space_group_name_H-M   'P 1'
_cell_length_a   6.42047361
_cell_length_b   6.76743074
_cell_length_c   17.88563592
_cell_angle_alpha   90.00000000
_cell_angle_beta   90.00000000
_cell_angle_gamma   90.00000000
_symmetry_Int_Tables_number   1
_chemical_formula_structural   CsGdSiS4
_chemical_formula_sum   'Cs4 Gd4 Si4 S16'
_cell_volume   777.13285662
_cell_formula_units_Z   4
loop_
 _symmetry_equiv_pos_site_id
 _symmetry_equiv_pos_as_xyz
  1  'x, y, z'
loop_
 _atom_site_type_symbol
 _atom_site_label
 _atom_site_symmetry_multiplicity
 _atom_site_fract_x
 _atom_site_fract_y
 _atom_site_fract_z
 _atom_site_occupancy
  Cs  Cs0  1  0.50106866  0.49229639  0.96756616  1
  Cs  Cs1  1  0.99893134  0.50770361  0.46756616  1
  Cs  Cs2  1  0.00106866  0.00770361  0.03243384  1
  Cs  Cs3  1  0.49893134  0.99229639  0.53243384  1
  Gd  Gd4  1  0.79154415  0.01968939  0.77206537  1
  Gd  Gd5  1  0.20845585  0.51968939  0.72793463  1
  Gd  Gd6  1  0.29154415  0.48031061  0.22793463  1
  Gd  Gd7  1  0.70845585  0.98031061  0.27206537  1
  Si  Si8  1  0.71104344  0.48321289  0.66641666  1
  Si  Si9  1  0.21104344  0.01678711  0.33358334  1
  Si  Si10  1  0.28895656  0.98321289  0.83358334  1
  Si  Si11  1  0.78895656  0.51678711  0.16641666  1
  S  S12  1  0.39493076  0.75483404  0.34539490  1
  S  S13  1  0.57022684  0.74824344  0.14623795  1
  S  S14  1  0.38795891  0.93169155  0.72140233  1
  S  S15  1  0.05207240  0.51239484  0.09594100  1
  S  S16  1  0.61204109  0.43169155  0.77859767  1
  S  S17  1  0.11204109  0.06830845  0.22140233  1
  S  S18  1  0.10506924  0.24516596  0.84539490  1
  S  S19  1  0.89493076  0.74516596  0.65460510  1
  S  S20  1  0.07022684  0.75175656  0.85376205  1
  S  S21  1  0.94792760  0.01239484  0.40405900  1
  S  S22  1  0.42977316  0.24824344  0.35376205  1
  S  S23  1  0.92977316  0.25175656  0.64623795  1
  S  S24  1  0.88795891  0.56830845  0.27859767  1
  S  S25  1  0.55207240  0.98760516  0.90405900  1
  S  S26  1  0.60506924  0.25483404  0.15460510  1
  S  S27  1  0.44792760  0.48760516  0.59594100  1
