# generated using pymatgen
data_Cs2Mn3Te4
_symmetry_space_group_name_H-M   'P 1'
_cell_length_a   6.66508997
_cell_length_b   10.71570150
_cell_length_c   10.71570150
_cell_angle_alpha   75.33804145
_cell_angle_beta   71.88070936
_cell_angle_gamma   71.88070937
_symmetry_Int_Tables_number   1
_chemical_formula_structural   Cs2Mn3Te4
_chemical_formula_sum   'Cs4 Mn6 Te8'
_cell_volume   680.86480404
_cell_formula_units_Z   2
loop_
 _symmetry_equiv_pos_site_id
 _symmetry_equiv_pos_as_xyz
  1  'x, y, z'
loop_
 _atom_site_type_symbol
 _atom_site_label
 _atom_site_symmetry_multiplicity
 _atom_site_fract_x
 _atom_site_fract_y
 _atom_site_fract_z
 _atom_site_occupancy
  Mn  Mn0  1  0.25000000  0.51367323  0.98632677  1
  Mn  Mn1  1  0.25000000  0.98632677  0.51367323  1
  Mn  Mn2  1  0.75000000  0.48632677  0.01367323  1
  Mn  Mn3  1  0.75000000  0.75000000  0.75000000  1
  Mn  Mn4  1  0.25000000  0.25000000  0.25000000  1
  Mn  Mn5  1  0.75000000  0.01367323  0.48632677  1
  Te  Te6  1  0.37797322  0.21969550  0.48102191  1
  Te  Te7  1  0.57869063  0.28030450  0.01897809  1
  Te  Te8  1  0.12202678  0.01897809  0.28030450  1
  Te  Te9  1  0.92130937  0.48102191  0.21969550  1
  Te  Te10  1  0.62202678  0.78030450  0.51897809  1
  Te  Te11  1  0.42130937  0.71969550  0.98102191  1
  Te  Te12  1  0.87797322  0.98102191  0.71969550  1
  Te  Te13  1  0.07869063  0.51897809  0.78030450  1
  Cs  Cs14  1  0.23586582  0.12318281  0.87681719  1
  Cs  Cs15  1  0.73586582  0.37681719  0.62318281  1
  Cs  Cs16  1  0.26413418  0.62318281  0.37681719  1
  Cs  Cs17  1  0.76413418  0.87681719  0.12318281  1
