# generated using pymatgen
data_Gd6C3Cl5
_symmetry_space_group_name_H-M   'P 1'
_cell_length_a   3.72119218
_cell_length_b   8.44515690
_cell_length_c   10.30518778
_cell_angle_alpha   85.70357532
_cell_angle_beta   79.59823394
_cell_angle_gamma   77.27245374
_symmetry_Int_Tables_number   1
_chemical_formula_structural   Gd6C3Cl5
_chemical_formula_sum   'Gd6 C3 Cl5'
_cell_volume   310.49403173
_cell_formula_units_Z   1
loop_
 _symmetry_equiv_pos_site_id
 _symmetry_equiv_pos_as_xyz
  1  'x, y, z'
loop_
 _atom_site_type_symbol
 _atom_site_label
 _atom_site_symmetry_multiplicity
 _atom_site_fract_x
 _atom_site_fract_y
 _atom_site_fract_z
 _atom_site_occupancy
  Gd  Gd0  1  0.57002544  0.07708220  0.78286692  1
  Gd  Gd1  1  0.95492622  0.43101739  0.65913016  1
  Gd  Gd2  1  0.68296287  0.17901398  0.45506028  1
  Gd  Gd3  1  0.04507378  0.56898261  0.34086984  1
  Gd  Gd4  1  0.31703713  0.82098602  0.54493972  1
  Gd  Gd5  1  0.42997456  0.92291780  0.21713308  1
  C  C6  1  0.12414753  0.12428305  0.62742189  1
  C  C7  1  0.87585247  0.87571695  0.37257811  1
  C  C8  1  0.50000000  0.50000000  0.50000000  1
  Cl  Cl9  1  0.74643394  0.74824328  0.75888885  1
  Cl  Cl10  1  0.37393191  0.38073835  0.87139782  1
  Cl  Cl11  1  0.25356606  0.25175672  0.24111115  1
  Cl  Cl12  1  0.62606809  0.61926165  0.12860218  1
  Cl  Cl13  1  0.00000000  0.00000000  -0.00000000  1
