# generated using pymatgen
data_GdAl2Ni
_symmetry_space_group_name_H-M   'P 1'
_cell_length_a   4.11439322
_cell_length_b   5.47991408
_cell_length_c   6.85642894
_cell_angle_alpha   89.69759089
_cell_angle_beta   89.98816440
_cell_angle_gamma   111.95985583
_symmetry_Int_Tables_number   1
_chemical_formula_structural   GdAl2Ni
_chemical_formula_sum   'Gd2 Al4 Ni2'
_cell_volume   143.37021993
_cell_formula_units_Z   2
loop_
 _symmetry_equiv_pos_site_id
 _symmetry_equiv_pos_as_xyz
  1  'x, y, z'
loop_
 _atom_site_type_symbol
 _atom_site_label
 _atom_site_symmetry_multiplicity
 _atom_site_fract_x
 _atom_site_fract_y
 _atom_site_fract_z
 _atom_site_occupancy
  Gd  Gd0  1  0.06670642  0.13109798  0.74814650  1
  Gd  Gd1  1  0.94149558  0.87848194  0.24898393  1
  Al  Al2  1  0.65896216  0.31609343  0.44296947  1
  Al  Al3  1  0.34696398  0.69120357  0.94318691  1
  Al  Al4  1  0.34765667  0.69413458  0.55392077  1
  Al  Al5  1  0.66184332  0.32057551  0.05450164  1
  Ni  Ni6  1  0.79100397  0.57816587  0.74703206  1
  Ni  Ni7  1  0.21771588  0.43257313  0.24914573  1
