# generated using pymatgen
data_Dy5(In2Ni)2
_symmetry_space_group_name_H-M   'P 1'
_cell_length_a   3.61525034
_cell_length_b   7.95206071
_cell_length_c   17.93309195
_cell_angle_alpha   89.99732363
_cell_angle_beta   89.99784159
_cell_angle_gamma   90.00282493
_symmetry_Int_Tables_number   1
_chemical_formula_structural   Dy5(In2Ni)2
_chemical_formula_sum   'Dy10 In8 Ni4'
_cell_volume   515.55290347
_cell_formula_units_Z   2
loop_
 _symmetry_equiv_pos_site_id
 _symmetry_equiv_pos_as_xyz
  1  'x, y, z'
loop_
 _atom_site_type_symbol
 _atom_site_label
 _atom_site_symmetry_multiplicity
 _atom_site_fract_x
 _atom_site_fract_y
 _atom_site_fract_z
 _atom_site_occupancy
  Dy  Dy0  1  0.99987853  0.88312199  0.58650467  1
  Dy  Dy1  1  0.99995665  0.38313490  0.91347946  1
  Dy  Dy2  1  0.00012333  0.61687341  0.08653924  1
  Dy  Dy3  1  0.00005419  0.25482046  0.72094834  1
  Dy  Dy4  1  0.00003140  0.75481844  0.77903479  1
  Dy  Dy5  1  0.99999186  0.00001176  0.00002501  1
  Dy  Dy6  1  0.00000252  0.24519523  0.22097584  1
  Dy  Dy7  1  0.99997197  0.74517702  0.27903793  1
  Dy  Dy8  1  0.00003010  0.49997886  0.49998540  1
  Dy  Dy9  1  0.99996272  0.11687318  0.41348802  1
  In  In10  1  0.49997797  0.29293692  0.06960152  1
  In  In11  1  0.50002714  0.42627537  0.34758387  1
  In  In12  1  0.49997057  0.57370121  0.65240903  1
  In  In13  1  0.50002062  0.07371437  0.84757659  1
  In  In14  1  0.50001607  0.20709619  0.56958530  1
  In  In15  1  0.50001081  0.70709409  0.93040358  1
  In  In16  1  0.49997014  0.79291555  0.43040176  1
  In  In17  1  0.50001404  0.92627899  0.15242628  1
  Ni  Ni18  1  0.49998925  0.47433012  0.80433680  1
  Ni  Ni19  1  0.50000285  0.02565737  0.30432844  1
  Ni  Ni20  1  0.49998941  0.97435325  0.69565351  1
  Ni  Ni21  1  0.50000785  0.52564134  0.19567461  1
