# generated using pymatgen
data_CsUTiTe5
_symmetry_space_group_name_H-M   'P 1'
_cell_length_a   6.19136432
_cell_length_b   8.56208494
_cell_length_c   10.34225449
_cell_angle_alpha   90.00000000
_cell_angle_beta   90.00000000
_cell_angle_gamma   90.00000000
_symmetry_Int_Tables_number   1
_chemical_formula_structural   CsUTiTe5
_chemical_formula_sum   'Cs2 U2 Ti2 Te10'
_cell_volume   548.25312041
_cell_formula_units_Z   2
loop_
 _symmetry_equiv_pos_site_id
 _symmetry_equiv_pos_as_xyz
  1  'x, y, z'
loop_
 _atom_site_type_symbol
 _atom_site_label
 _atom_site_symmetry_multiplicity
 _atom_site_fract_x
 _atom_site_fract_y
 _atom_site_fract_z
 _atom_site_occupancy
  Cs  Cs0  1  0.75000000  0.50000000  0.21393732  1
  Cs  Cs1  1  0.25000000  0.50000000  0.78606268  1
  U  U2  1  0.75000000  0.00000000  0.66991107  1
  U  U3  1  0.25000000  0.00000000  0.33008893  1
  Ti  Ti4  1  0.00000000  0.00000000  0.00000000  1
  Ti  Ti5  1  0.50000000  0.00000000  0.00000000  1
  Te  Te6  1  0.00000000  0.75676618  0.50000000  1
  Te  Te7  1  0.75000000  0.23955018  0.88966728  1
  Te  Te8  1  0.75000000  0.76044982  0.88966728  1
  Te  Te9  1  0.00000000  0.24323382  0.50000000  1
  Te  Te10  1  0.25000000  0.00000000  0.77384042  1
  Te  Te11  1  0.75000000  0.00000000  0.22615958  1
  Te  Te12  1  0.50000000  0.75676618  0.50000000  1
  Te  Te13  1  0.25000000  0.76044982  0.11033272  1
  Te  Te14  1  0.25000000  0.23955018  0.11033272  1
  Te  Te15  1  0.50000000  0.24323382  0.50000000  1
