# generated using pymatgen
data_La(SiRh)2
_symmetry_space_group_name_H-M   'P 1'
_cell_length_a   4.14531267
_cell_length_b   4.14531267
_cell_length_c   5.94914172
_cell_angle_alpha   110.38922997
_cell_angle_beta   110.38922998
_cell_angle_gamma   90.00000003
_symmetry_Int_Tables_number   1
_chemical_formula_structural   La(SiRh)2
_chemical_formula_sum   'La1 Si2 Rh2'
_cell_volume   88.95817446
_cell_formula_units_Z   1
loop_
 _symmetry_equiv_pos_site_id
 _symmetry_equiv_pos_as_xyz
  1  'x, y, z'
loop_
 _atom_site_type_symbol
 _atom_site_label
 _atom_site_symmetry_multiplicity
 _atom_site_fract_x
 _atom_site_fract_y
 _atom_site_fract_z
 _atom_site_occupancy
  Si  Si0  1  0.62753450  0.62753450  0.25506901  1
  Si  Si1  1  0.37246550  0.37246550  0.74493099  1
  Rh  Rh2  1  0.25000000  0.75000000  0.50000000  1
  Rh  Rh3  1  0.75000000  0.25000000  0.50000000  1
  La  La4  1  0.00000000  0.00000000  0.00000000  1
