# generated using pymatgen
data_Zn(BiO3)2
_symmetry_space_group_name_H-M   'P 1'
_cell_length_a   5.56166433
_cell_length_b   5.61918258
_cell_length_c   8.03215210
_cell_angle_alpha   89.95731427
_cell_angle_beta   90.00513974
_cell_angle_gamma   90.01165605
_symmetry_Int_Tables_number   1
_chemical_formula_structural   Zn(BiO3)2
_chemical_formula_sum   'Zn2 Bi4 O12'
_cell_volume   251.02080056
_cell_formula_units_Z   2
loop_
 _symmetry_equiv_pos_site_id
 _symmetry_equiv_pos_as_xyz
  1  'x, y, z'
loop_
 _atom_site_type_symbol
 _atom_site_label
 _atom_site_symmetry_multiplicity
 _atom_site_fract_x
 _atom_site_fract_y
 _atom_site_fract_z
 _atom_site_occupancy
  Zn  Zn0  1  0.50727794  0.55380301  0.24993718  1
  Zn  Zn1  1  0.00727039  0.94624964  0.74996314  1
  Bi  Bi2  1  0.50208322  0.00342897  0.99955763  1
  Bi  Bi3  1  0.00204295  0.49659998  0.00041039  1
  Bi  Bi4  1  0.00230208  0.49673980  0.49951094  1
  Bi  Bi5  1  0.50236825  0.00338902  0.50039708  1
  O  O6  1  0.65863456  0.33748834  0.42794652  1
  O  O7  1  0.15862425  0.16249254  0.57207866  1
  O  O8  1  0.81501038  0.80610100  0.07254212  1
  O  O9  1  0.31507804  0.69383459  0.92759257  1
  O  O10  1  0.31634212  0.69253680  0.57166861  1
  O  O11  1  0.81633361  0.80742070  0.42838713  1
  O  O12  1  0.15793813  0.16242846  0.92826854  1
  O  O13  1  0.65798718  0.33752416  0.07167524  1
  O  O14  1  0.15460757  0.44325084  0.24996225  1
  O  O15  1  0.65453983  0.05672290  0.75002932  1
  O  O16  1  0.39683337  0.90457780  0.25003556  1
  O  O17  1  0.89690412  0.59547045  0.74992813  1
