# generated using pymatgen
data_LaCuSO
_symmetry_space_group_name_H-M   'P 1'
_cell_length_a   3.98942936
_cell_length_b   3.98942936
_cell_length_c   8.53520443
_cell_angle_alpha   90.00000000
_cell_angle_beta   90.00000000
_cell_angle_gamma   90.00000000
_symmetry_Int_Tables_number   1
_chemical_formula_structural   LaCuSO
_chemical_formula_sum   'La2 Cu2 S2 O2'
_cell_volume   135.84244400
_cell_formula_units_Z   2
loop_
 _symmetry_equiv_pos_site_id
 _symmetry_equiv_pos_as_xyz
  1  'x, y, z'
loop_
 _atom_site_type_symbol
 _atom_site_label
 _atom_site_symmetry_multiplicity
 _atom_site_fract_x
 _atom_site_fract_y
 _atom_site_fract_z
 _atom_site_occupancy
  O  O0  1  0.75000000  0.25000000  0.00000000  1
  O  O1  1  0.25000000  0.75000000  0.00000000  1
  S  S2  1  0.25000000  0.25000000  0.66011917  1
  S  S3  1  0.75000000  0.75000000  0.33988083  1
  Cu  Cu4  1  0.25000000  0.75000000  0.50000000  1
  Cu  Cu5  1  0.75000000  0.25000000  0.50000000  1
  La  La6  1  0.75000000  0.75000000  0.85152000  1
  La  La7  1  0.25000000  0.25000000  0.14848000  1
