# generated using pymatgen
data_Cs5SiAs3
_symmetry_space_group_name_H-M   'P 1'
_cell_length_a   6.12894438
_cell_length_b   14.75455530
_cell_length_c   16.20690762
_cell_angle_alpha   90.00000000
_cell_angle_beta   90.00000000
_cell_angle_gamma   90.00000000
_symmetry_Int_Tables_number   1
_chemical_formula_structural   Cs5SiAs3
_chemical_formula_sum   'Cs20 Si4 As12'
_cell_volume   1465.58820535
_cell_formula_units_Z   4
loop_
 _symmetry_equiv_pos_site_id
 _symmetry_equiv_pos_as_xyz
  1  'x, y, z'
loop_
 _atom_site_type_symbol
 _atom_site_label
 _atom_site_symmetry_multiplicity
 _atom_site_fract_x
 _atom_site_fract_y
 _atom_site_fract_z
 _atom_site_occupancy
  Cs  Cs0  1  0.75000000  0.14471510  0.45223085  1
  Cs  Cs1  1  0.25000000  0.27745232  0.20467243  1
  Cs  Cs2  1  0.75000000  0.43536288  0.54870804  1
  Cs  Cs3  1  0.75000000  0.44951874  0.84594155  1
  Cs  Cs4  1  0.25000000  0.85528490  0.54776915  1
  Cs  Cs5  1  0.25000000  0.35528490  0.95223085  1
  Cs  Cs6  1  0.75000000  0.64471510  0.04776915  1
  Cs  Cs7  1  0.75000000  0.93536288  0.95129196  1
  Cs  Cs8  1  0.25000000  0.55048126  0.15405845  1
  Cs  Cs9  1  0.25000000  0.77745232  0.29532757  1
  Cs  Cs10  1  0.75000000  0.88049072  0.18654201  1
  Cs  Cs11  1  0.25000000  0.06463712  0.04870804  1
  Cs  Cs12  1  0.75000000  0.72254768  0.79532757  1
  Cs  Cs13  1  0.75000000  0.22254768  0.70467243  1
  Cs  Cs14  1  0.75000000  0.94951874  0.65405845  1
  Cs  Cs15  1  0.25000000  0.56463712  0.45129196  1
  Cs  Cs16  1  0.25000000  0.11950928  0.81345799  1
  Cs  Cs17  1  0.75000000  0.38049072  0.31345799  1
  Cs  Cs18  1  0.25000000  0.05048126  0.34594155  1
  Cs  Cs19  1  0.25000000  0.61950928  0.68654201  1
  Si  Si20  1  0.75000000  0.23984728  0.06605988  1
  Si  Si21  1  0.75000000  0.73984728  0.43394012  1
  Si  Si22  1  0.25000000  0.76015272  0.93394012  1
  Si  Si23  1  0.25000000  0.26015272  0.56605988  1
  As  As24  1  0.75000000  0.89552662  0.41177459  1
  As  As25  1  0.25000000  0.36374989  0.67419166  1
  As  As26  1  0.75000000  0.13625011  0.17419166  1
  As  As27  1  0.75000000  0.19261628  0.92954363  1
  As  As28  1  0.75000000  0.39552662  0.08822541  1
  As  As29  1  0.25000000  0.10447338  0.58822541  1
  As  As30  1  0.25000000  0.30738372  0.42954363  1
  As  As31  1  0.25000000  0.80738372  0.07045637  1
  As  As32  1  0.75000000  0.63625011  0.32580834  1
  As  As33  1  0.25000000  0.60447338  0.91177459  1
  As  As34  1  0.25000000  0.86374989  0.82580834  1
  As  As35  1  0.75000000  0.69261628  0.57045637  1
