# generated using pymatgen
data_BaAl2(SiO4)2
_symmetry_space_group_name_H-M   'P 1'
_cell_length_a   8.67280575
_cell_length_b   9.20844981
_cell_length_c   9.71528743
_cell_angle_alpha   90.00000000
_cell_angle_beta   90.00000000
_cell_angle_gamma   90.16208423
_symmetry_Int_Tables_number   1
_chemical_formula_structural   BaAl2(SiO4)2
_chemical_formula_sum   'Ba4 Al8 Si8 O32'
_cell_volume   775.88983249
_cell_formula_units_Z   4
loop_
 _symmetry_equiv_pos_site_id
 _symmetry_equiv_pos_as_xyz
  1  'x, y, z'
loop_
 _atom_site_type_symbol
 _atom_site_label
 _atom_site_symmetry_multiplicity
 _atom_site_fract_x
 _atom_site_fract_y
 _atom_site_fract_z
 _atom_site_occupancy
  O  O0  1  0.74080109  0.79147355  0.58902938  1
  O  O1  1  0.25919891  0.70852645  0.08902938  1
  O  O2  1  0.25919891  0.20852645  0.41097062  1
  O  O3  1  0.74080109  0.29147355  0.91097062  1
  O  O4  1  0.76461458  0.52206654  0.33346492  1
  O  O5  1  0.23538542  0.97793346  0.83346492  1
  O  O6  1  0.23538542  0.47793346  0.66653508  1
  O  O7  1  0.76461458  0.02206654  0.16653508  1
  O  O8  1  0.45041821  0.41057016  0.31360347  1
  O  O9  1  0.54958179  0.08942984  0.81360347  1
  O  O10  1  0.54958179  0.58942984  0.68639653  1
  O  O11  1  0.45041821  0.91057016  0.18639653  1
  O  O12  1  0.05856969  0.43079570  0.31342445  1
  O  O13  1  0.94143031  0.06920430  0.81342445  1
  O  O14  1  0.94143031  0.56920430  0.68657555  1
  O  O15  1  0.05856969  0.93079570  0.18657555  1
  O  O16  1  0.54489986  0.63347853  0.13730625  1
  O  O17  1  0.45510014  0.86652147  0.63730625  1
  O  O18  1  0.45510014  0.36652147  0.86269375  1
  O  O19  1  0.54489986  0.13347853  0.36269375  1
  O  O20  1  0.99991376  0.19479243  0.08854927  1
  O  O21  1  0.00008624  0.30520757  0.58854927  1
  O  O22  1  0.00008624  0.80520757  0.91145073  1
  O  O23  1  0.99991376  0.69479243  0.41145073  1
  O  O24  1  0.50272352  0.19302437  0.07114641  1
  O  O25  1  0.49727648  0.30697563  0.57114641  1
  O  O26  1  0.49727648  0.80697563  0.92885359  1
  O  O27  1  0.50272352  0.69302437  0.42885359  1
  O  O28  1  0.95678000  0.13027290  0.35854931  1
  O  O29  1  0.04322000  0.36972710  0.85854931  1
  O  O30  1  0.04322000  0.86972710  0.64145069  1
  O  O31  1  0.95678000  0.63027290  0.14145069  1
  Al  Al32  1  0.93046269  0.72226803  0.57977139  1
  Al  Al33  1  0.06953731  0.77773197  0.07977139  1
  Al  Al34  1  0.06953731  0.27773197  0.42022861  1
  Al  Al35  1  0.93046269  0.22226803  0.92022861  1
  Al  Al36  1  0.57191283  0.56515443  0.30692696  1
  Al  Al37  1  0.42808717  0.93484557  0.80692696  1
  Al  Al38  1  0.42808717  0.43484557  0.69307304  1
  Al  Al39  1  0.57191283  0.06515443  0.19307304  1
  Si  Si40  1  0.56265036  0.73006901  0.58456334  1
  Si  Si41  1  0.43734964  0.76993099  0.08456334  1
  Si  Si42  1  0.43734964  0.26993099  0.41543666  1
  Si  Si43  1  0.56265036  0.23006901  0.91543666  1
  Si  Si44  1  0.94083157  0.56971778  0.30115230  1
  Si  Si45  1  0.05916843  0.93028222  0.80115230  1
  Si  Si46  1  0.05916843  0.43028222  0.69884770  1
  Si  Si47  1  0.94083157  0.06971778  0.19884770  1
  Ba  Ba48  1  0.25069596  0.39854466  0.08709028  1
  Ba  Ba49  1  0.74930404  0.10145534  0.58709028  1
  Ba  Ba50  1  0.74930404  0.60145534  0.91290972  1
  Ba  Ba51  1  0.25069596  0.89854466  0.41290972  1
