# generated using pymatgen
data_CuAsPbS3
_symmetry_space_group_name_H-M   'P 1'
_cell_length_a   7.70415663
_cell_length_b   8.16913363
_cell_length_c   8.90744022
_cell_angle_alpha   89.99975021
_cell_angle_beta   89.99926078
_cell_angle_gamma   90.00024771
_symmetry_Int_Tables_number   1
_chemical_formula_structural   CuAsPbS3
_chemical_formula_sum   'Cu4 As4 Pb4 S12'
_cell_volume   560.60119643
_cell_formula_units_Z   4
loop_
 _symmetry_equiv_pos_site_id
 _symmetry_equiv_pos_as_xyz
  1  'x, y, z'
loop_
 _atom_site_type_symbol
 _atom_site_label
 _atom_site_symmetry_multiplicity
 _atom_site_fract_x
 _atom_site_fract_y
 _atom_site_fract_z
 _atom_site_occupancy
  Cu  Cu0  1  0.23846253  0.27718390  0.43026687  1
  Cu  Cu1  1  0.73858239  0.72281487  0.93026604  1
  Cu  Cu2  1  0.26139016  0.72281163  0.93025187  1
  Cu  Cu3  1  0.76154045  0.27719366  0.43024704  1
  As  As4  1  0.00000266  0.93357791  0.58007559  1
  As  As5  1  0.50000740  0.50246416  0.65855850  1
  As  As6  1  -0.00000139  0.49753027  0.15856587  1
  As  As7  1  0.49999868  0.06642034  0.08006854  1
  Pb  Pb8  1  0.99999678  0.07759901  0.00321629  1
  Pb  Pb9  1  0.50000634  0.92241738  0.50320746  1
  Pb  Pb10  1  0.50000319  0.55650690  0.19308034  1
  Pb  Pb11  1  0.99999550  0.44345746  0.69305568  1
  S  S12  1  -0.00000142  0.25134688  0.28176585  1
  S  S13  1  0.72449624  0.55404333  0.49499124  1
  S  S14  1  0.22449429  0.44594159  0.99499646  1
  S  S15  1  0.27551032  0.55405153  0.49499577  1
  S  S16  1  0.27285762  0.89335598  0.13899221  1
  S  S17  1  0.72713955  0.89335514  0.13899319  1
  S  S18  1  0.77286696  0.10666497  0.63896223  1
  S  S19  1  0.77551475  0.44595355  0.99499650  1
  S  S20  1  0.50001868  0.74864681  0.78177235  1
  S  S21  1  0.99999037  0.77986081  0.79995880  1
  S  S22  1  0.49999255  0.22013619  0.29995494  1
  S  S23  1  0.22713540  0.10666574  0.63896039  1
