# generated using pymatgen
data_KTiPO5
_symmetry_space_group_name_H-M   'P 1'
_cell_length_a   6.49255465
_cell_length_b   10.70371545
_cell_length_c   12.98499387
_cell_angle_alpha   90.00000000
_cell_angle_beta   90.00000000
_cell_angle_gamma   90.00000000
_symmetry_Int_Tables_number   1
_chemical_formula_structural   KTiPO5
_chemical_formula_sum   'K8 Ti8 P8 O40'
_cell_volume   902.38510486
_cell_formula_units_Z   8
loop_
 _symmetry_equiv_pos_site_id
 _symmetry_equiv_pos_as_xyz
  1  'x, y, z'
loop_
 _atom_site_type_symbol
 _atom_site_label
 _atom_site_symmetry_multiplicity
 _atom_site_fract_x
 _atom_site_fract_y
 _atom_site_fract_z
 _atom_site_occupancy
  O  O0  1  0.96322612  0.89892579  0.75200156  1
  O  O1  1  0.03677388  0.39892579  0.24799844  1
  O  O2  1  0.53677388  0.89892579  0.25200156  1
  O  O3  1  0.46322612  0.39892579  0.74799844  1
  O  O4  1  0.03951193  0.12815766  0.75194263  1
  O  O5  1  0.96048807  0.62815766  0.24805737  1
  O  O6  1  0.46048807  0.12815766  0.25194263  1
  O  O7  1  0.53951193  0.62815766  0.74805737  1
  O  O8  1  0.19410052  0.98665519  0.61255765  1
  O  O9  1  0.80589948  0.48665519  0.38744235  1
  O  O10  1  0.30589948  0.98665519  0.11255765  1
  O  O11  1  0.69410052  0.48665519  0.88744235  1
  O  O12  1  0.81369658  0.04114946  0.61212442  1
  O  O13  1  0.18630342  0.54114946  0.38787558  1
  O  O14  1  0.68630342  0.04114946  0.11212442  1
  O  O15  1  0.69885510  0.74020115  0.09429086  1
  O  O16  1  0.31369658  0.54114946  0.88787558  1
  O  O17  1  0.45234638  0.38931422  0.27600632  1
  O  O18  1  0.95234638  0.88931422  0.22399368  1
  O  O19  1  0.04765362  0.38931422  0.77600632  1
  O  O20  1  0.46315992  0.14197033  0.72355545  1
  O  O21  1  0.53684008  0.64197033  0.27644455  1
  O  O22  1  0.03684008  0.14197033  0.22355545  1
  O  O23  1  0.96315992  0.64197033  0.77644455  1
  O  O24  1  0.48930050  0.15179168  0.51453804  1
  O  O25  1  0.51069950  0.65179168  0.48546196  1
  O  O26  1  0.01069950  0.15179168  0.01453804  1
  O  O27  1  0.98930050  0.65179168  0.98546196  1
  O  O28  1  0.46707582  0.38469518  0.48890512  1
  O  O29  1  0.53292418  0.88469518  0.51109488  1
  O  O30  1  0.03292418  0.38469518  0.98890512  1
  O  O31  1  0.96707582  0.88469518  0.01109488  1
  O  O32  1  0.20116556  0.28125418  0.59839887  1
  O  O33  1  0.79883444  0.78125418  0.40160113  1
  O  O34  1  0.29883444  0.28125418  0.09839887  1
  O  O35  1  0.70116556  0.78125418  0.90160113  1
  O  O36  1  0.19885510  0.24020115  0.40570914  1
  O  O37  1  0.80114490  0.74020115  0.59429086  1
  O  O38  1  0.30114490  0.24020115  0.90570914  1
  O  O39  1  0.54765362  0.88931422  0.72399368  1
  P  P40  1  0.83953993  0.76191590  0.99830576  1
  P  P41  1  0.33953993  0.26191590  0.50169424  1
  P  P42  1  0.66046007  0.76191590  0.49830576  1
  P  P43  1  0.16046007  0.26191590  0.00169424  1
  P  P44  1  0.50339140  0.51269097  0.81955796  1
  P  P45  1  0.49660860  0.01269097  0.18044204  1
  P  P46  1  0.99660860  0.51269097  0.31955796  1
  P  P47  1  0.00339140  0.01269097  0.68044204  1
  K  K48  1  0.20088140  0.56563189  0.60605792  1
  K  K49  1  0.21995164  0.81058036  0.37561960  1
  K  K50  1  0.71995164  0.31058036  0.12438040  1
  K  K51  1  0.28004836  0.81058036  0.87561960  1
  K  K52  1  0.78004836  0.31058036  0.62438040  1
  K  K53  1  0.70088140  0.06563189  0.89394208  1
  K  K54  1  0.29911860  0.56563189  0.10605792  1
  K  K55  1  0.79911860  0.06563189  0.39394208  1
  Ti  Ti56  1  0.76434277  0.75458323  0.74564892  1
  Ti  Ti57  1  0.23565723  0.25458323  0.25435108  1
  Ti  Ti58  1  0.73565723  0.75458323  0.24564892  1
  Ti  Ti59  1  0.26434277  0.25458323  0.75435108  1
  Ti  Ti60  1  0.99951891  0.50422281  0.87122602  1
  Ti  Ti61  1  0.00048109  0.00422281  0.12877398  1
  Ti  Ti62  1  0.50048109  0.50422281  0.37122602  1
  Ti  Ti63  1  0.49951891  0.00422281  0.62877398  1
