# generated using pymatgen
data_Ba11In6O3
_symmetry_space_group_name_H-M   'P 1'
_cell_length_a   11.26577350
_cell_length_b   12.41888512
_cell_length_c   12.41894197
_cell_angle_alpha   78.14313106
_cell_angle_beta   63.03505940
_cell_angle_gamma   63.03443591
_symmetry_Int_Tables_number   1
_chemical_formula_structural   Ba11In6O3
_chemical_formula_sum   'Ba22 In12 O6'
_cell_volume   1380.25135626
_cell_formula_units_Z   2
loop_
 _symmetry_equiv_pos_site_id
 _symmetry_equiv_pos_as_xyz
  1  'x, y, z'
loop_
 _atom_site_type_symbol
 _atom_site_label
 _atom_site_symmetry_multiplicity
 _atom_site_fract_x
 _atom_site_fract_y
 _atom_site_fract_z
 _atom_site_occupancy
  Ba  Ba0  1  0.17315823  0.50000913  0.74973923  1
  Ba  Ba1  1  0.42288885  0.49998735  0.25025997  1
  Ba  Ba2  1  0.77012490  0.49999260  0.95975749  1
  Ba  Ba3  1  0.22987426  0.50000379  0.04024043  1
  Ba  Ba4  1  0.12359943  -0.00000428  0.25281872  1
  Ba  Ba5  1  0.37640273  0.74718321  0.00000634  1
  Ba  Ba6  1  0.62359558  0.25281726  -0.00000496  1
  Ba  Ba7  1  0.32684718  0.25025693  0.49999121  1
  Ba  Ba8  1  0.72987615  0.04024006  0.50000400  1
  Ba  Ba9  1  0.87639915  0.00000603  0.74718506  1
  Ba  Ba10  1  0.27012509  0.95976005  0.49999386  1
  Ba  Ba11  1  0.67315090  0.74974154  0.50001127  1
  Ba  Ba12  1  0.12358883  0.25282310  -0.00001121  1
  Ba  Ba13  1  0.62358441  -0.00000284  0.25282287  1
  Ba  Ba14  1  0.82684793  0.49999163  0.25025792  1
  Ba  Ba15  1  0.49999992  0.00000109  -0.00000012  1
  Ba  Ba16  1  0.37641112  0.00000052  0.74717920  1
  Ba  Ba17  1  0.92289044  0.25026099  0.49998454  1
  Ba  Ba18  1  0.57711492  0.50001394  0.74973886  1
  Ba  Ba19  1  0.00000055  0.99999837  0.00000235  1
  Ba  Ba20  1  0.87641140  0.74717764  0.00000614  1
  Ba  Ba21  1  0.07710801  0.74974130  0.50001604  1
  In  In22  1  0.24277003  0.75831800  0.75628501  1
  In  In23  1  0.50086008  0.24189190  0.75639782  1
  In  In24  1  0.56568858  0.36858421  0.50006968  1
  In  In25  1  0.93431238  0.49993158  0.63141672  1
  In  In26  1  0.74276947  0.75628689  0.75831803  1
  In  In27  1  0.25723063  0.24371330  0.24168063  1
  In  In28  1  0.43431219  0.63141552  0.49993061  1
  In  In29  1  0.99913811  0.24360541  0.75810709  1
  In  In30  1  0.00086045  0.75639508  0.24189268  1
  In  In31  1  0.75723087  0.24168221  0.24371444  1
  In  In32  1  0.49913824  0.75810859  0.24360390  1
  In  In33  1  0.06568811  0.50006858  0.36858405  1
  O  O34  1  0.49999986  0.50000049  -0.00000007  1
  O  O35  1  0.25000604  0.00000109  -0.00000003  1
  O  O36  1  0.00000005  -0.00000018  0.50000059  1
  O  O37  1  0.74999547  0.99999870  0.99999975  1
  O  O38  1  -0.00000016  0.49999991  0.99999986  1
  O  O39  1  0.49999963  0.99999933  0.50000003  1
