# generated using pymatgen
data_LaMgTiFeO6
_symmetry_space_group_name_H-M   'P 1'
_cell_length_a   5.53006921
_cell_length_b   5.36596408
_cell_length_c   7.71255114
_cell_angle_alpha   90.04103417
_cell_angle_beta   90.00000000
_cell_angle_gamma   90.00000000
_symmetry_Int_Tables_number   1
_chemical_formula_structural   LaMgTiFeO6
_chemical_formula_sum   'La2 Mg2 Ti2 Fe2 O12'
_cell_volume   228.86336195
_cell_formula_units_Z   2
loop_
 _symmetry_equiv_pos_site_id
 _symmetry_equiv_pos_as_xyz
  1  'x, y, z'
loop_
 _atom_site_type_symbol
 _atom_site_label
 _atom_site_symmetry_multiplicity
 _atom_site_fract_x
 _atom_site_fract_y
 _atom_site_fract_z
 _atom_site_occupancy
  La  La0  1  0.03580591  0.99261244  0.25076353  1
  La  La1  1  0.46419409  0.49261244  0.75076353  1
  Mg  Mg2  1  0.55063412  0.52595921  0.25228678  1
  Mg  Mg3  1  0.94936588  0.02595921  0.75228678  1
  Ti  Ti4  1  0.50579589  0.00144041  0.49864703  1
  Ti  Ti5  1  0.99420411  0.50144041  0.99864703  1
  Fe  Fe6  1  0.49770839  0.00064574  0.00145793  1
  Fe  Fe7  1  0.00229161  0.50064574  0.50145793  1
  O  O8  1  0.02064333  0.63167113  0.75494222  1
  O  O9  1  0.19362236  0.19635688  0.94222387  1
  O  O10  1  0.20145871  0.18657556  0.55965078  1
  O  O11  1  0.29854129  0.68657556  0.05965078  1
  O  O12  1  0.30637764  0.69635688  0.44222387  1
  O  O13  1  0.47935667  0.13167113  0.25494122  1
  O  O14  1  0.54289808  0.91983155  0.74539159  1
  O  O15  1  0.72467011  0.27016216  0.55188305  1
  O  O16  1  0.73056698  0.27474393  0.94275323  1
  O  O17  1  0.76943302  0.77474393  0.44275323  1
  O  O18  1  0.77532989  0.77016216  0.05188305  1
  O  O19  1  0.95710192  0.41983155  0.24539159  1
