# generated using pymatgen
data_Na3In(PO4)2
_symmetry_space_group_name_H-M   'P 1'
_cell_length_a   5.53642593
_cell_length_b   7.13096775
_cell_length_c   8.77266075
_cell_angle_alpha   90.26025326
_cell_angle_beta   90.00000000
_cell_angle_gamma   90.00000000
_symmetry_Int_Tables_number   1
_chemical_formula_structural   Na3In(PO4)2
_chemical_formula_sum   'Na6 In2 P4 O16'
_cell_volume   346.34172947
_cell_formula_units_Z   2
loop_
 _symmetry_equiv_pos_site_id
 _symmetry_equiv_pos_as_xyz
  1  'x, y, z'
loop_
 _atom_site_type_symbol
 _atom_site_label
 _atom_site_symmetry_multiplicity
 _atom_site_fract_x
 _atom_site_fract_y
 _atom_site_fract_z
 _atom_site_occupancy
  O  O0  1  0.75000000  0.59881795  0.99987827  1
  O  O1  1  0.25000000  0.40118205  0.00012173  1
  O  O2  1  0.97908918  0.77911885  0.20296619  1
  O  O3  1  0.47908918  0.22088115  0.79703381  1
  O  O4  1  0.02091082  0.22088115  0.79703381  1
  O  O5  1  0.52091082  0.77911885  0.20296619  1
  O  O6  1  0.75000000  0.95511783  0.99423748  1
  O  O7  1  0.25000000  0.04488217  0.00576252  1
  O  O8  1  0.97913725  0.22059999  0.29690024  1
  O  O9  1  0.47913725  0.77940001  0.70309976  1
  O  O10  1  0.02086275  0.77940001  0.70309976  1
  O  O11  1  0.52086275  0.22059999  0.29690024  1
  O  O12  1  0.25000000  0.95426041  0.49380849  1
  O  O13  1  0.75000000  0.04573959  0.50619151  1
  O  O14  1  0.25000000  0.59795976  0.50077739  1
  O  O15  1  0.75000000  0.40204024  0.49922261  1
  Na  Na16  1  0.75000000  0.71609229  0.43782251  1
  Na  Na17  1  0.25000000  0.49988691  0.25039584  1
  Na  Na18  1  0.75000000  0.50011309  0.74960416  1
  Na  Na19  1  0.25000000  0.28390771  0.56217749  1
  Na  Na20  1  0.25000000  0.71499020  0.93786987  1
  Na  Na21  1  0.75000000  0.28500980  0.06213013  1
  P  P22  1  0.25000000  0.22270464  0.90446823  1
  P  P23  1  0.25000000  0.77698807  0.59572831  1
  P  P24  1  0.75000000  0.22301193  0.40427169  1
  P  P25  1  0.75000000  0.77729536  0.09553177  1
  In  In26  1  0.75000000  0.00010302  0.75016688  1
  In  In27  1  0.25000000  0.99989698  0.24983312  1
