# generated using pymatgen
data_NbNi2BO6
_symmetry_space_group_name_H-M   'P 1'
_cell_length_a   4.53939110
_cell_length_b   8.73215083
_cell_length_c   10.21697770
_cell_angle_alpha   90.00000000
_cell_angle_beta   90.00000000
_cell_angle_gamma   90.00000000
_symmetry_Int_Tables_number   1
_chemical_formula_structural   NbNi2BO6
_chemical_formula_sum   'Nb4 Ni8 B4 O24'
_cell_volume   404.98718024
_cell_formula_units_Z   4
loop_
 _symmetry_equiv_pos_site_id
 _symmetry_equiv_pos_as_xyz
  1  'x, y, z'
loop_
 _atom_site_type_symbol
 _atom_site_label
 _atom_site_symmetry_multiplicity
 _atom_site_fract_x
 _atom_site_fract_y
 _atom_site_fract_z
 _atom_site_occupancy
  B  B0  1  0.40998810  0.75000000  0.27371412  1
  B  B1  1  0.90998810  0.25000000  0.22628588  1
  B  B2  1  0.59001190  0.25000000  0.72628588  1
  B  B3  1  0.09001190  0.75000000  0.77371412  1
  O  O4  1  0.24001995  0.08321191  0.46152192  1
  O  O5  1  0.74001995  0.91678809  0.03847808  1
  O  O6  1  0.75998005  0.58321191  0.53847808  1
  O  O7  1  0.25998005  0.41678809  0.96152192  1
  O  O8  1  0.75998005  0.91678809  0.53847808  1
  O  O9  1  0.25998005  0.08321191  0.96152192  1
  O  O10  1  0.24001995  0.41678809  0.46152192  1
  O  O11  1  0.74001995  0.58321191  0.03847808  1
  O  O12  1  0.77138850  0.75000000  0.77294637  1
  O  O13  1  0.27138850  0.25000000  0.72705363  1
  O  O14  1  0.22861150  0.25000000  0.22705363  1
  O  O15  1  0.72861150  0.75000000  0.27294637  1
  O  O16  1  0.21607141  0.75000000  0.91452367  1
  O  O17  1  0.71607141  0.25000000  0.58547633  1
  O  O18  1  0.78392859  0.25000000  0.08547633  1
  O  O19  1  0.28392859  0.75000000  0.41452367  1
  O  O20  1  0.23878700  0.61600409  0.70843577  1
  O  O21  1  0.73878700  0.38399591  0.79156423  1
  O  O22  1  0.76121300  0.11600409  0.29156423  1
  O  O23  1  0.26121300  0.88399591  0.20843577  1
  O  O24  1  0.76121300  0.38399591  0.29156423  1
  O  O25  1  0.26121300  0.61600409  0.20843577  1
  O  O26  1  0.23878700  0.88399591  0.70843577  1
  O  O27  1  0.73878700  0.11600409  0.79156423  1
  Ni  Ni28  1  0.51975114  0.92993198  0.86404135  1
  Ni  Ni29  1  0.01975114  0.07006802  0.63595865  1
  Ni  Ni30  1  0.48024886  0.42993198  0.13595865  1
  Ni  Ni31  1  0.98024886  0.57006802  0.36404135  1
  Ni  Ni32  1  0.01975114  0.42993198  0.63595865  1
  Ni  Ni33  1  0.51975114  0.57006802  0.86404135  1
  Ni  Ni34  1  0.98024886  0.92993198  0.36404135  1
  Ni  Ni35  1  0.48024886  0.07006802  0.13595865  1
  Nb  Nb36  1  0.52493747  0.75000000  0.58018724  1
  Nb  Nb37  1  0.02493747  0.25000000  0.91981276  1
  Nb  Nb38  1  0.47506253  0.25000000  0.41981276  1
  Nb  Nb39  1  0.97506253  0.75000000  0.08018724  1
