# generated using pymatgen
data_MgV(Si2O5)2
_symmetry_space_group_name_H-M   'P 1'
_cell_length_a   7.33714266
_cell_length_b   7.33714266
_cell_length_c   14.97201929
_cell_angle_alpha   90.00000000
_cell_angle_beta   90.00000000
_cell_angle_gamma   90.00000000
_symmetry_Int_Tables_number   1
_chemical_formula_structural   MgV(Si2O5)2
_chemical_formula_sum   'Mg4 V4 Si16 O40'
_cell_volume   805.99863210
_cell_formula_units_Z   4
loop_
 _symmetry_equiv_pos_site_id
 _symmetry_equiv_pos_as_xyz
  1  'x, y, z'
loop_
 _atom_site_type_symbol
 _atom_site_label
 _atom_site_symmetry_multiplicity
 _atom_site_fract_x
 _atom_site_fract_y
 _atom_site_fract_z
 _atom_site_occupancy
  Mg  Mg0  1  0.25000000  0.75000000  0.50000000  1
  Mg  Mg1  1  0.75000000  0.25000000  0.50000000  1
  Mg  Mg2  1  0.75000000  0.25000000  -0.00000000  1
  Mg  Mg3  1  0.25000000  0.75000000  -0.00000000  1
  V  V4  1  0.25000000  0.25000000  0.57178841  1
  V  V5  1  0.75000000  0.75000000  0.92821159  1
  V  V6  1  0.75000000  0.75000000  0.42821159  1
  V  V7  1  0.25000000  0.25000000  0.07178841  1
  Si  Si8  1  0.90955152  0.49083170  0.64562426  1
  Si  Si9  1  0.59044848  0.00916830  0.64562426  1
  Si  Si10  1  0.99083170  0.40955152  0.85437574  1
  Si  Si11  1  0.49083170  0.59044848  0.64562426  1
  Si  Si12  1  0.00916830  0.90955152  0.64562426  1
  Si  Si13  1  0.09044848  0.99083170  0.85437574  1
  Si  Si14  1  0.40955152  0.50916830  0.85437574  1
  Si  Si15  1  0.50916830  0.09044848  0.85437574  1
  Si  Si16  1  0.09044848  0.50916830  0.35437574  1
  Si  Si17  1  0.40955152  0.99083170  0.35437574  1
  Si  Si18  1  0.00916830  0.59044848  0.14562426  1
  Si  Si19  1  0.50916830  0.40955152  0.35437574  1
  Si  Si20  1  0.99083170  0.09044848  0.35437574  1
  Si  Si21  1  0.90955152  0.00916830  0.14562426  1
  Si  Si22  1  0.59044848  0.49083170  0.14562426  1
  Si  Si23  1  0.49083170  0.90955152  0.14562426  1
  O  O24  1  0.97967177  0.33823663  0.57527112  1
  O  O25  1  0.52032823  0.16176337  0.57527112  1
  O  O26  1  0.83823663  0.47967177  0.92472888  1
  O  O27  1  0.33823663  0.52032823  0.57527112  1
  O  O28  1  0.16176337  0.97967177  0.57527112  1
  O  O29  1  0.02032823  0.83823663  0.92472888  1
  O  O30  1  0.47967177  0.66176337  0.92472888  1
  O  O31  1  0.66176337  0.02032823  0.92472888  1
  O  O32  1  0.02032823  0.66176337  0.42472888  1
  O  O33  1  0.47967177  0.83823663  0.42472888  1
  O  O34  1  0.16176337  0.52032823  0.07527112  1
  O  O35  1  0.66176337  0.47967177  0.42472888  1
  O  O36  1  0.83823663  0.02032823  0.42472888  1
  O  O37  1  0.97967177  0.16176337  0.07527112  1
  O  O38  1  0.52032823  0.33823663  0.07527112  1
  O  O39  1  0.00074845  0.30995993  0.37392982  1
  O  O40  1  0.33823663  0.97967177  0.07527112  1
  O  O41  1  0.50074845  0.80995993  0.62607018  1
  O  O42  1  0.19004007  0.49925155  0.87392982  1
  O  O43  1  0.69004007  0.50074845  0.62607018  1
  O  O44  1  0.80995993  0.99925155  0.62607018  1
  O  O45  1  0.00074845  0.19004007  0.87392982  1
  O  O46  1  0.49925155  0.30995993  0.87392982  1
  O  O47  1  0.30995993  0.00074845  0.87392982  1
  O  O48  1  0.44222951  0.94222951  0.25000000  1
  O  O49  1  0.55777049  0.44222951  0.25000000  1
  O  O50  1  0.94222951  0.05777149  0.25000000  1
  O  O51  1  0.05777149  0.55777049  0.25000000  1
  O  O52  1  0.55777049  0.05777149  0.75000000  1
  O  O53  1  0.44222951  0.55777049  0.75000000  1
  O  O54  1  0.05777149  0.94222951  0.75000000  1
  O  O55  1  0.94222951  0.44222951  0.75000000  1
  O  O56  1  0.69004007  0.99925155  0.12607018  1
  O  O57  1  0.50074845  0.69004007  0.12607018  1
  O  O58  1  0.99925155  0.80995993  0.12607018  1
  O  O59  1  0.19004007  0.00074845  0.37392982  1
  O  O60  1  0.30995993  0.49925155  0.37392982  1
  O  O61  1  0.80995993  0.50074845  0.12607018  1
  O  O62  1  0.49925155  0.19004007  0.37392982  1
  O  O63  1  0.99925155  0.69004007  0.62607018  1
