# generated using pymatgen
data_EuTl(MoO4)2
_symmetry_space_group_name_H-M   'P 1'
_cell_length_a   5.26453340
_cell_length_b   8.48482579
_cell_length_c   19.06998470
_cell_angle_alpha   90.00015760
_cell_angle_beta   90.00300400
_cell_angle_gamma   89.99004491
_symmetry_Int_Tables_number   1
_chemical_formula_structural   EuTl(MoO4)2
_chemical_formula_sum   'Eu4 Tl4 Mo8 O32'
_cell_volume   851.83043480
_cell_formula_units_Z   4
loop_
 _symmetry_equiv_pos_site_id
 _symmetry_equiv_pos_as_xyz
  1  'x, y, z'
loop_
 _atom_site_type_symbol
 _atom_site_label
 _atom_site_symmetry_multiplicity
 _atom_site_fract_x
 _atom_site_fract_y
 _atom_site_fract_z
 _atom_site_occupancy
  Eu  Eu0  1  0.99996610  0.24999095  0.00673279  1
  Eu  Eu1  1  0.00000557  0.75000550  0.99324438  1
  Eu  Eu2  1  0.49999990  0.74999108  0.49332821  1
  Eu  Eu3  1  0.50000320  0.25001591  0.50669511  1
  Tl  Tl4  1  0.00000292  0.24999799  0.76955727  1
  Tl  Tl5  1  0.99999804  0.74999702  0.23045917  1
  Tl  Tl6  1  0.49999801  0.75000287  0.73008314  1
  Tl  Tl7  1  0.50000347  0.25000140  0.26992596  1
  Mo  Mo8  1  0.02125170  0.51698773  0.60097150  1
  Mo  Mo9  1  0.97870533  0.48277425  0.39902271  1
  Mo  Mo10  1  0.52133513  0.98299691  0.10083566  1
  Mo  Mo11  1  0.52132050  0.48267553  0.89917770  1
  Mo  Mo12  1  0.02129109  0.01722465  0.39902059  1
  Mo  Mo13  1  0.47868120  0.01732366  0.89917848  1
  Mo  Mo14  1  0.47864418  0.51699544  0.10083598  1
  Mo  Mo15  1  0.97875329  0.98301179  0.60097144  1
  O  O16  1  0.74414905  0.49586369  0.03861778  1
  O  O17  1  0.77612937  0.15223119  0.59686551  1
  O  O18  1  0.73430874  0.81508550  0.08959643  1
  O  O19  1  0.75604930  0.99627062  0.46137283  1
  O  O20  1  0.25582863  0.00411793  0.03861024  1
  O  O21  1  0.27564829  0.34757594  0.09670059  1
  O  O22  1  0.25583474  0.50367153  0.96142528  1
  O  O23  1  0.73468874  0.31490622  0.91044617  1
  O  O24  1  0.60008234  0.52332987  0.18697397  1
  O  O25  1  0.23458347  0.18504471  0.41024475  1
  O  O26  1  0.10061804  0.97657077  0.68713069  1
  O  O27  1  0.72432799  0.15241676  0.09670685  1
  O  O28  1  0.72381895  0.65216128  0.90324816  1
  O  O29  1  0.24396302  0.00384281  0.53862854  1
  O  O30  1  0.26570273  0.68492146  0.08958698  1
  O  O31  1  0.89940099  0.52342631  0.68712918  1
  O  O32  1  0.39988450  0.47609384  0.81300954  1
  O  O33  1  0.74418590  0.99634522  0.96143287  1
  O  O34  1  0.23453561  0.68504821  0.58977498  1
  O  O35  1  0.60010101  0.02389702  0.81301274  1
  O  O36  1  0.10059141  0.47635303  0.31284766  1
  O  O37  1  0.22387713  0.34777022  0.59687074  1
  O  O38  1  0.27617177  0.84784434  0.90324332  1
  O  O39  1  0.76542622  0.31495197  0.41024005  1
  O  O40  1  0.89939772  0.02364915  0.31284663  1
  O  O41  1  0.26536862  0.18511635  0.91044817  1
  O  O42  1  0.22379948  0.84780360  0.40310450  1
  O  O43  1  0.76546296  0.81495503  0.58977058  1
  O  O44  1  0.77620257  0.65219444  0.40309920  1
  O  O45  1  0.39990818  0.97666292  0.18697308  1
  O  O46  1  0.24396579  0.50372584  0.46137853  1
  O  O47  1  0.75602709  0.49615949  0.53862334  1
