# generated using pymatgen
data_NdOsO4
_symmetry_space_group_name_H-M   'P 1'
_cell_length_a   5.49578953
_cell_length_b   7.60315933
_cell_length_c   15.21070163
_cell_angle_alpha   89.98003105
_cell_angle_beta   90.00433882
_cell_angle_gamma   90.01434208
_symmetry_Int_Tables_number   1
_chemical_formula_structural   NdOsO4
_chemical_formula_sum   'Nd8 Os8 O32'
_cell_volume   635.58463561
_cell_formula_units_Z   8
loop_
 _symmetry_equiv_pos_site_id
 _symmetry_equiv_pos_as_xyz
  1  'x, y, z'
loop_
 _atom_site_type_symbol
 _atom_site_label
 _atom_site_symmetry_multiplicity
 _atom_site_fract_x
 _atom_site_fract_y
 _atom_site_fract_z
 _atom_site_occupancy
  Nd  Nd0  1  0.74575445  0.62195675  0.09578313  1
  Nd  Nd1  1  0.80856531  0.37641651  0.55926260  1
  Nd  Nd2  1  0.74591502  0.87784723  0.59600646  1
  Nd  Nd3  1  0.30852811  0.87639007  0.94076576  1
  Nd  Nd4  1  0.30846034  0.62371498  0.44089003  1
  Nd  Nd5  1  0.80834794  0.12378061  0.05908879  1
  Nd  Nd6  1  0.24588209  0.37790842  0.90401808  1
  Nd  Nd7  1  0.24581111  0.12209615  0.40421404  1
  Os  Os8  1  0.23631834  0.62294915  0.67004517  1
  Os  Os9  1  0.74068515  0.62379542  0.83392085  1
  Os  Os10  1  0.24046740  0.12380690  0.66614433  1
  Os  Os11  1  0.23657509  0.87689857  0.16998723  1
  Os  Os12  1  0.24035728  0.37616723  0.16620570  1
  Os  Os13  1  0.73649946  0.12314880  0.83004969  1
  Os  Os14  1  0.73657214  0.37695370  0.33007851  1
  Os  Os15  1  0.74017427  0.87619941  0.33372976  1
  O  O16  1  0.54040055  0.15760300  0.60588906  1
  O  O17  1  0.04061166  0.84245022  0.39402801  1
  O  O18  1  0.51763682  0.60273870  0.58202372  1
  O  O19  1  0.04037446  0.65760464  0.89409792  1
  O  O20  1  0.54011368  0.34500228  0.43963031  1
  O  O21  1  0.55649380  0.59958741  0.94971394  1
  O  O22  1  0.33253061  0.62625562  0.16848471  1
  O  O23  1  0.44442426  0.58077728  0.76884732  1
  O  O24  1  0.01737493  0.39738505  0.41792483  1
  O  O25  1  0.65820046  0.87443840  0.83841787  1
  O  O26  1  0.41703142  0.17848696  0.77719912  1
  O  O27  1  0.83269800  0.12630309  0.33150067  1
  O  O28  1  0.53997898  0.15510348  0.93962954  1
  O  O29  1  0.83281245  0.37392734  0.83149412  1
  O  O30  1  0.05652159  0.09955566  0.55029072  1
  O  O31  1  0.15817370  0.37454579  0.66158184  1
  O  O32  1  0.04012134  0.84501446  0.06042717  1
  O  O33  1  0.65850529  0.62537271  0.33836537  1
  O  O34  1  0.54047078  0.34251818  0.10597368  1
  O  O35  1  0.41726028  0.32131036  0.27717652  1
  O  O36  1  0.91691734  0.67856800  0.72275814  1
  O  O37  1  0.94459629  0.08085198  0.73114991  1
  O  O38  1  0.51722937  0.89742476  0.08212862  1
  O  O39  1  0.15878776  0.12541660  0.16165473  1
  O  O40  1  0.91739464  0.82145622  0.22282407  1
  O  O41  1  0.55662686  0.90048851  0.44968906  1
  O  O42  1  0.33288697  0.87390912  0.66848335  1
  O  O43  1  0.05657043  0.40044759  0.05027641  1
  O  O44  1  0.94469329  0.41893385  0.23135416  1
  O  O45  1  0.03988282  0.65515705  0.56031759  1
  O  O46  1  0.01748297  0.10270133  0.91791975  1
  O  O47  1  0.44468269  0.91863448  0.26855764  1
