# generated using pymatgen
data_Ga2I3
_symmetry_space_group_name_H-M   'P 1'
_cell_length_a   7.75510732
_cell_length_b   8.81433123
_cell_length_c   11.48856311
_cell_angle_alpha   90.00000000
_cell_angle_beta   91.37528168
_cell_angle_gamma   90.00000000
_symmetry_Int_Tables_number   1
_chemical_formula_structural   Ga2I3
_chemical_formula_sum   'Ga8 I12'
_cell_volume   785.08697262
_cell_formula_units_Z   4
loop_
 _symmetry_equiv_pos_site_id
 _symmetry_equiv_pos_as_xyz
  1  'x, y, z'
loop_
 _atom_site_type_symbol
 _atom_site_label
 _atom_site_symmetry_multiplicity
 _atom_site_fract_x
 _atom_site_fract_y
 _atom_site_fract_z
 _atom_site_occupancy
  Ga  Ga0  1  0.56915670  0.59715105  0.44232245  1
  Ga  Ga1  1  0.54647465  0.87181330  0.76853317  1
  Ga  Ga2  1  0.95352535  0.37181330  0.73146683  1
  Ga  Ga3  1  0.06915670  0.90284895  0.94232245  1
  Ga  Ga4  1  0.93084330  0.09715105  0.05767755  1
  Ga  Ga5  1  0.45352535  0.12818670  0.23146683  1
  Ga  Ga6  1  0.04647465  0.62818670  0.26853317  1
  Ga  Ga7  1  0.43084330  0.40284895  0.55767755  1
  I  I8  1  0.14645389  0.00860623  0.73486685  1
  I  I9  1  0.35354611  0.50860623  0.76513315  1
  I  I10  1  0.14543078  0.30059782  0.45600474  1
  I  I11  1  0.64543078  0.19940218  0.95600474  1
  I  I12  1  0.64645389  0.49139377  0.23486685  1
  I  I13  1  0.85477703  0.66997898  0.91911130  1
  I  I14  1  0.85354611  0.99139377  0.26513315  1
  I  I15  1  0.64522297  0.16997898  0.58088870  1
  I  I16  1  0.35477703  0.83002102  0.41911130  1
  I  I17  1  0.85456922  0.69940218  0.54399526  1
  I  I18  1  0.35456922  0.80059782  0.04399526  1
  I  I19  1  0.14522297  0.33002102  0.08088870  1
