# generated using pymatgen
data_Be3Al2(SiO3)6
_symmetry_space_group_name_H-M   'P 1'
_cell_length_a   9.30347139
_cell_length_b   9.30347139
_cell_length_c   9.27757703
_cell_angle_alpha   90.00000000
_cell_angle_beta   90.00000000
_cell_angle_gamma   120.00000002
_symmetry_Int_Tables_number   1
_chemical_formula_structural   Be3Al2(SiO3)6
_chemical_formula_sum   'Be6 Al4 Si12 O36'
_cell_volume   695.43293344
_cell_formula_units_Z   2
loop_
 _symmetry_equiv_pos_site_id
 _symmetry_equiv_pos_as_xyz
  1  'x, y, z'
loop_
 _atom_site_type_symbol
 _atom_site_label
 _atom_site_symmetry_multiplicity
 _atom_site_fract_x
 _atom_site_fract_y
 _atom_site_fract_z
 _atom_site_occupancy
  Be  Be0  1  0.50000000  0.00000000  0.25000000  1
  Be  Be1  1  0.00000000  0.50000000  0.75000000  1
  Be  Be2  1  0.50000000  0.50000000  0.75000000  1
  Be  Be3  1  0.50000000  0.00000000  0.75000000  1
  Be  Be4  1  0.00000000  0.50000000  0.25000000  1
  Be  Be5  1  0.50000000  0.50000000  0.25000000  1
  O  O6  1  0.30947658  0.07387720  0.50000000  1
  O  O7  1  0.23559939  0.30947658  0.50000000  1
  O  O8  1  0.76440061  0.69052342  0.50000000  1
  O  O9  1  0.92612280  0.23559939  0.50000000  1
  O  O10  1  0.69052342  0.76440061  0.00000000  1
  O  O11  1  0.69052342  0.92612280  0.50000000  1
  O  O12  1  0.07387720  0.76440061  0.50000000  1
  O  O13  1  0.92612280  0.69052342  0.00000000  1
  O  O14  1  0.76440061  0.07387720  0.00000000  1
  O  O15  1  0.23559939  0.92612280  0.00000000  1
  O  O16  1  0.07387720  0.30947658  0.00000000  1
  O  O17  1  0.30947658  0.23559939  0.00000000  1
  O  O18  1  0.50157787  0.64632807  0.64580803  1
  O  O19  1  0.35367193  0.85524981  0.64580803  1
  O  O20  1  0.14475019  0.49842213  0.64580803  1
  O  O21  1  0.85524981  0.50157787  0.64580803  1
  O  O22  1  0.49842213  0.14475019  0.14580803  1
  O  O23  1  0.35367193  0.49842213  0.14580803  1
  O  O24  1  0.14475019  0.64632807  0.14580803  1
  O  O25  1  0.85524981  0.35367193  0.14580803  1
  O  O26  1  0.64632807  0.50157787  0.14580803  1
  O  O27  1  0.35367193  0.85524981  0.35419197  1
  O  O28  1  0.50157787  0.64632807  0.35419197  1
  O  O29  1  0.50157787  0.85524981  0.14580803  1
  O  O30  1  0.14475019  0.49842213  0.35419197  1
  O  O31  1  0.85524981  0.50157787  0.35419197  1
  O  O32  1  0.64632807  0.14475019  0.35419197  1
  O  O33  1  0.49842213  0.35367193  0.35419197  1
  O  O34  1  0.50157787  0.85524981  0.85419197  1
  O  O35  1  0.64632807  0.50157787  0.85419197  1
  O  O36  1  0.85524981  0.35367193  0.85419197  1
  O  O37  1  0.14475019  0.64632807  0.85419197  1
  O  O38  1  0.35367193  0.49842213  0.85419197  1
  O  O39  1  0.64632807  0.14475019  0.64580803  1
  O  O40  1  0.49842213  0.35367193  0.64580803  1
  O  O41  1  0.49842213  0.14475019  0.85419197  1
  Al  Al42  1  0.66666667  0.33333333  0.25000000  1
  Al  Al43  1  0.33333333  0.66666667  0.25000000  1
  Al  Al44  1  0.33333333  0.66666667  0.75000000  1
  Al  Al45  1  0.66666667  0.33333333  0.75000000  1
  Si  Si46  1  0.61268803  0.88490201  0.00000000  1
  Si  Si47  1  0.61268803  0.72778603  0.50000000  1
  Si  Si48  1  0.27221397  0.88490201  0.50000000  1
  Si  Si49  1  0.72778603  0.61268803  0.00000000  1
  Si  Si50  1  0.88490201  0.27221397  0.00000000  1
  Si  Si51  1  0.11509799  0.72778603  0.00000000  1
  Si  Si52  1  0.27221397  0.38731197  0.00000000  1
  Si  Si53  1  0.38731197  0.11509799  0.00000000  1
  Si  Si54  1  0.11509799  0.38731197  0.50000000  1
  Si  Si55  1  0.88490201  0.61268803  0.50000000  1
  Si  Si56  1  0.72778603  0.11509799  0.50000000  1
  Si  Si57  1  0.38731197  0.27221397  0.50000000  1
