# generated using pymatgen
data_Cs3CrF7
_symmetry_space_group_name_H-M   'P 1'
_cell_length_a   6.37514585
_cell_length_b   8.51845817
_cell_length_c   8.51845817
_cell_angle_alpha   90.00000000
_cell_angle_beta   90.00000000
_cell_angle_gamma   90.00000000
_symmetry_Int_Tables_number   1
_chemical_formula_structural   Cs3CrF7
_chemical_formula_sum   'Cs6 Cr2 F14'
_cell_volume   462.60690964
_cell_formula_units_Z   2
loop_
 _symmetry_equiv_pos_site_id
 _symmetry_equiv_pos_as_xyz
  1  'x, y, z'
loop_
 _atom_site_type_symbol
 _atom_site_label
 _atom_site_symmetry_multiplicity
 _atom_site_fract_x
 _atom_site_fract_y
 _atom_site_fract_z
 _atom_site_occupancy
  Cs  Cs0  1  0.50000000  0.69333580  0.19333580  1
  Cs  Cs1  1  0.50000000  0.80666420  0.69333580  1
  Cs  Cs2  1  0.50000000  0.19333580  0.30666420  1
  Cs  Cs3  1  0.00000000  0.50000000  0.50000000  1
  Cs  Cs4  1  0.00000000  0.00000000  0.00000000  1
  Cs  Cs5  1  0.50000000  0.30666420  0.80666420  1
  Cr  Cr6  1  0.00000000  0.00000000  0.50000000  1
  Cr  Cr7  1  0.00000000  0.50000000  0.00000000  1
  F  F8  1  0.00000000  0.15380478  0.34619522  1
  F  F9  1  0.00000000  0.65380478  0.15380478  1
  F  F10  1  0.21065606  0.60871688  0.89128312  1
  F  F11  1  0.21065606  0.89128312  0.39128312  1
  F  F12  1  0.00000000  0.34619522  0.84619522  1
  F  F13  1  0.00000000  0.84619522  0.65380478  1
  F  F14  1  0.78934394  0.10871688  0.60871688  1
  F  F15  1  0.21065606  0.10871688  0.60871688  1
  F  F16  1  0.50000000  0.00000000  0.00000000  1
  F  F17  1  0.78934394  0.39128312  0.10871688  1
  F  F18  1  0.78934394  0.89128312  0.39128312  1
  F  F19  1  0.21065606  0.39128312  0.10871688  1
  F  F20  1  0.50000000  0.50000000  0.50000000  1
  F  F21  1  0.78934394  0.60871688  0.89128312  1
