# generated using pymatgen
data_Eu2BrO2
_symmetry_space_group_name_H-M   'P 1'
_cell_length_a   4.00054648
_cell_length_b   6.77587521
_cell_length_c   8.54556664
_cell_angle_alpha   77.98312661
_cell_angle_beta   76.46310372
_cell_angle_gamma   72.83016117
_symmetry_Int_Tables_number   1
_chemical_formula_structural   Eu2BrO2
_chemical_formula_sum   'Eu4 Br2 O4'
_cell_volume   212.74805407
_cell_formula_units_Z   2
loop_
 _symmetry_equiv_pos_site_id
 _symmetry_equiv_pos_as_xyz
  1  'x, y, z'
loop_
 _atom_site_type_symbol
 _atom_site_label
 _atom_site_symmetry_multiplicity
 _atom_site_fract_x
 _atom_site_fract_y
 _atom_site_fract_z
 _atom_site_occupancy
  Eu  Eu0  1  0.65913013  0.23405331  0.44768642  1
  Eu  Eu1  1  0.95655237  0.28372174  0.80317353  1
  Eu  Eu2  1  0.04344763  0.71627826  0.19682647  1
  Eu  Eu3  1  0.34086987  0.76594669  0.55231358  1
  Br  Br4  1  0.33176636  0.21210859  0.12435869  1
  Br  Br5  1  0.66823364  0.78789141  0.87564131  1
  O  O6  1  0.85295459  0.86951242  0.42457839  1
  O  O7  1  0.14704541  0.13048758  0.57542161  1
  O  O8  1  0.44928151  0.41372941  0.68770757  1
  O  O9  1  0.55071849  0.58627059  0.31229243  1
