# generated using pymatgen
data_Ba2Ta6Te2O21
_symmetry_space_group_name_H-M   'P 1'
_cell_length_a   5.74668039
_cell_length_b   8.91758164
_cell_length_c   9.74284110
_cell_angle_alpha   96.44026135
_cell_angle_beta   90.00000000
_cell_angle_gamma   108.79667130
_symmetry_Int_Tables_number   1
_chemical_formula_structural   Ba2Ta6Te2O21
_chemical_formula_sum   'Ba2 Ta6 Te2 O21'
_cell_volume   469.32891523
_cell_formula_units_Z   1
loop_
 _symmetry_equiv_pos_site_id
 _symmetry_equiv_pos_as_xyz
  1  'x, y, z'
loop_
 _atom_site_type_symbol
 _atom_site_label
 _atom_site_symmetry_multiplicity
 _atom_site_fract_x
 _atom_site_fract_y
 _atom_site_fract_z
 _atom_site_occupancy
  O  O0  1  0.58141310  0.16282620  0.27752577  1
  O  O1  1  0.41858690  0.83717380  0.72247423  1
  O  O2  1  0.79045023  0.58090047  0.15075173  1
  O  O3  1  0.20954977  0.41909953  0.84924827  1
  O  O4  1  0.00000000  0.00000000  0.00000000  1
  O  O5  1  0.30671128  0.13119689  0.77953048  1
  O  O6  1  0.17551439  0.86880311  0.22046952  1
  O  O7  1  0.69328872  0.86880311  0.22046952  1
  O  O8  1  0.82448561  0.13119689  0.77953048  1
  O  O9  1  0.60600934  0.70997173  0.94716709  1
  O  O10  1  0.27945301  0.00000000  0.50000000  1
  O  O11  1  0.72054699  0.00000000  0.50000000  1
  O  O12  1  0.35772168  0.71544336  0.39614161  1
  O  O13  1  0.64227832  0.28455664  0.60385839  1
  O  O14  1  0.97656706  0.43464476  0.32979269  1
  O  O15  1  0.54192229  0.56535524  0.67020731  1
  O  O16  1  0.02343294  0.56535524  0.67020731  1
  O  O17  1  0.45807771  0.43464476  0.32979269  1
  O  O18  1  0.10396240  0.70997173  0.94716709  1
  O  O19  1  0.39399066  0.29002827  0.05283291  1
  O  O20  1  0.89603760  0.29002827  0.05283291  1
  Te  Te21  1  0.72579966  0.45159932  0.75343606  1
  Te  Te22  1  0.27420034  0.54840068  0.24656394  1
  Ba  Ba23  1  0.86233229  0.72466457  0.47186861  1
  Ba  Ba24  1  0.13766771  0.27533543  0.52813139  1
  Ta  Ta25  1  0.09934429  0.19868857  0.91846276  1
  Ta  Ta26  1  0.90065571  0.80131143  0.08153724  1
  Ta  Ta27  1  0.52091103  0.04182206  0.66433068  1
  Ta  Ta28  1  0.47908897  0.95817794  0.33566932  1
  Ta  Ta29  1  0.32399006  0.64798012  0.82752862  1
  Ta  Ta30  1  0.67600994  0.35201988  0.17247138  1
