# generated using pymatgen
data_CsNb2PS10
_symmetry_space_group_name_H-M   'P 1'
_cell_length_a   7.76368357
_cell_length_b   13.17091741
_cell_length_c   14.45733559
_cell_angle_alpha   95.54011191
_cell_angle_beta   90.00000000
_cell_angle_gamma   90.00000000
_symmetry_Int_Tables_number   1
_chemical_formula_structural   CsNb2PS10
_chemical_formula_sum   'Cs4 Nb8 P4 S40'
_cell_volume   1471.42696060
_cell_formula_units_Z   4
loop_
 _symmetry_equiv_pos_site_id
 _symmetry_equiv_pos_as_xyz
  1  'x, y, z'
loop_
 _atom_site_type_symbol
 _atom_site_label
 _atom_site_symmetry_multiplicity
 _atom_site_fract_x
 _atom_site_fract_y
 _atom_site_fract_z
 _atom_site_occupancy
  Cs  Cs0  1  0.48188310  0.71853073  0.09773097  1
  Cs  Cs1  1  0.50043112  0.46297072  0.59868777  1
  Cs  Cs2  1  0.49956888  0.96297072  0.59868777  1
  Cs  Cs3  1  0.51811690  0.21853073  0.09773097  1
  Nb  Nb4  1  0.93124236  0.56915424  0.86841745  1
  Nb  Nb5  1  0.06078084  0.83601120  0.37150564  1
  Nb  Nb6  1  0.06529456  0.12659698  0.37425518  1
  Nb  Nb7  1  0.94337337  0.85963086  0.87068150  1
  Nb  Nb8  1  0.06875764  0.06915424  0.86841745  1
  Nb  Nb9  1  0.93921916  0.33601120  0.37150564  1
  Nb  Nb10  1  0.05662663  0.35963086  0.87068150  1
  Nb  Nb11  1  0.93470544  0.62659698  0.37425518  1
  P  P12  1  0.40023028  0.97459580  0.29994793  1
  P  P13  1  0.40002277  0.21422347  0.79822196  1
  P  P14  1  0.59976972  0.47459580  0.29994793  1
  P  P15  1  0.59997723  0.71422347  0.79822196  1
  S  S16  1  0.14415933  0.97012594  0.25058996  1
  S  S17  1  0.89268474  0.99924199  0.99703247  1
  S  S18  1  0.60147520  0.34471391  0.37003719  1
  S  S19  1  0.39648880  0.10706289  0.38919460  1
  S  S20  1  0.58599586  0.21591257  0.70371519  1
  S  S21  1  0.10731526  0.49924199  0.99703247  1
  S  S22  1  0.14318885  0.95345182  0.98976969  1
  S  S23  1  0.40406818  0.08533587  0.86949581  1
  S  S24  1  0.12089960  0.92091685  0.74249409  1
  S  S25  1  0.60351120  0.60706289  0.38919460  1
  S  S26  1  0.85681115  0.45345182  0.98976969  1
  S  S27  1  0.12627565  0.26896146  0.49689340  1
  S  S28  1  0.89094258  0.18889794  0.24583527  1
  S  S29  1  0.05069744  0.99426641  0.49423546  1
  S  S30  1  0.84630116  0.21393051  0.89888784  1
  S  S31  1  0.15369884  0.71393051  0.89888784  1
  S  S32  1  0.10905742  0.68889794  0.24583527  1
  S  S33  1  0.12316533  0.48045150  0.74770926  1
  S  S34  1  0.87910040  0.42091685  0.74249409  1
  S  S35  1  0.85584067  0.47012594  0.25058996  1
  S  S36  1  0.87568581  0.22312185  0.49704426  1
  S  S37  1  0.15335621  0.48521656  0.40284379  1
  S  S38  1  0.61056743  0.84722230  0.88656178  1
  S  S39  1  0.87372435  0.76896146  0.49689340  1
  S  S40  1  0.38943257  0.34722230  0.88656178  1
  S  S41  1  0.86477153  0.74818666  0.25137464  1
  S  S42  1  0.95050300  0.72760817  0.99090429  1
  S  S43  1  0.04949700  0.22760817  0.99090429  1
  S  S44  1  0.59593182  0.58533587  0.86949581  1
  S  S45  1  0.41400414  0.71591257  0.70371519  1
  S  S46  1  0.12431419  0.72312185  0.49704426  1
  S  S47  1  0.94930256  0.49426641  0.49423546  1
  S  S48  1  0.13522847  0.24818666  0.25137464  1
  S  S49  1  0.87683467  0.98045150  0.74770926  1
  S  S50  1  0.85480347  0.70412501  0.74727852  1
  S  S51  1  0.14519653  0.20412501  0.74727852  1
  S  S52  1  0.39852480  0.84471391  0.37003719  1
  S  S53  1  0.84664379  0.98521656  0.40284379  1
  S  S54  1  0.41466699  0.47323578  0.20465407  1
  S  S55  1  0.58533301  0.97323578  0.20465407  1
