# generated using pymatgen
data_V2N3
_symmetry_space_group_name_H-M   'P 1'
_cell_length_a   2.81876806
_cell_length_b   2.81726708
_cell_length_c   6.25706501
_cell_angle_alpha   89.99999998
_cell_angle_beta   89.94714866
_cell_angle_gamma   119.98239091
_symmetry_Int_Tables_number   1
_chemical_formula_structural   V2N3
_chemical_formula_sum   'V2 N3'
_cell_volume   43.03932471
_cell_formula_units_Z   1
loop_
 _symmetry_equiv_pos_site_id
 _symmetry_equiv_pos_as_xyz
  1  'x, y, z'
loop_
 _atom_site_type_symbol
 _atom_site_label
 _atom_site_symmetry_multiplicity
 _atom_site_fract_x
 _atom_site_fract_y
 _atom_site_fract_z
 _atom_site_occupancy
  V  V0  1  0.33418367  0.66709184  0.69837111  1
  V  V1  1  0.66581633  0.33290816  0.30162889  1
  N  N2  1  0.00000000  -0.00000000  0.50000000  1
  N  N3  1  0.99996021  0.99998010  0.89305851  1
  N  N4  1  0.00003979  0.00001990  0.10694149  1
