# generated using pymatgen
data_Tb7(CuTe4)3
_symmetry_space_group_name_H-M   'P 1'
_cell_length_a   14.36622510
_cell_length_b   43.12182165
_cell_length_c   28.42692423
_cell_angle_alpha   8.64639321
_cell_angle_beta   15.25541965
_cell_angle_gamma   17.48452534
_symmetry_Int_Tables_number   1
_chemical_formula_structural   Tb7(CuTe4)3
_chemical_formula_sum   'Tb7 Cu3 Te12'
_cell_volume   696.61094802
_cell_formula_units_Z   1
loop_
 _symmetry_equiv_pos_site_id
 _symmetry_equiv_pos_as_xyz
  1  'x, y, z'
loop_
 _atom_site_type_symbol
 _atom_site_label
 _atom_site_symmetry_multiplicity
 _atom_site_fract_x
 _atom_site_fract_y
 _atom_site_fract_z
 _atom_site_occupancy
  Tb  Tb0  1  0.58481530  0.99581857  0.58655278  1
  Tb  Tb1  1  0.99983185  0.66717542  0.99841105  1
  Tb  Tb2  1  0.40917340  0.33299738  0.42233268  1
  Tb  Tb3  1  0.58853417  0.33811130  0.57124969  1
  Tb  Tb4  1  0.42621176  0.66998123  0.40827226  1
  Tb  Tb5  1  0.57056087  0.66557077  0.58913486  1
  Tb  Tb6  1  0.41934083  0.99751080  0.42062226  1
  Cu  Cu7  1  0.18960245  0.33495170  0.19011144  1
  Cu  Cu8  1  0.81218666  0.33274726  0.80873557  1
  Cu  Cu9  1  0.80701461  0.99926332  0.81181067  1
  Te  Te10  1  0.29269733  0.00217701  0.28801784  1
  Te  Te11  1  0.12141356  0.34112400  0.11872123  1
  Te  Te12  1  0.29345610  0.33086991  0.29438959  1
  Te  Te13  1  0.70901814  0.00275366  0.70417694  1
  Te  Te14  1  0.13598475  0.66684750  0.12429105  1
  Te  Te15  1  0.87024745  0.99427161  0.88268990  1
  Te  Te16  1  0.28904182  0.66658513  0.29332429  1
  Te  Te17  1  0.70574467  0.33153886  0.71255719  1
  Te  Te18  1  0.12328601  0.99339644  0.14046921  1
  Te  Te19  1  0.88017186  0.33287706  0.86974331  1
  Te  Te20  1  0.71095771  0.66566394  0.70858263  1
  Te  Te21  1  0.87110868  0.67110012  0.86620356  1
