# generated using pymatgen
data_Cu3AsSe4
_symmetry_space_group_name_H-M   'P 1'
_cell_length_a   7.94845991
_cell_length_b   10.49620496
_cell_length_c   6.84186104
_cell_angle_alpha   29.25590267
_cell_angle_beta   54.49914435
_cell_angle_gamma   40.70364946
_symmetry_Int_Tables_number   1
_chemical_formula_structural   Cu3AsSe4
_chemical_formula_sum   'Cu3 As1 Se4'
_cell_volume   175.99732290
_cell_formula_units_Z   1
loop_
 _symmetry_equiv_pos_site_id
 _symmetry_equiv_pos_as_xyz
  1  'x, y, z'
loop_
 _atom_site_type_symbol
 _atom_site_label
 _atom_site_symmetry_multiplicity
 _atom_site_fract_x
 _atom_site_fract_y
 _atom_site_fract_z
 _atom_site_occupancy
  Cu  Cu0  1  0.99840371  0.00417068  0.99303232  1
  Cu  Cu1  1  0.49613753  0.00194324  0.99969849  1
  Cu  Cu2  1  0.74447718  0.50395001  0.99841500  1
  As  As3  1  0.24872004  0.50203524  0.99616931  1
  Se  Se4  1  0.37242726  0.50160995  0.25863700  1
  Se  Se5  1  0.11922463  0.01589027  0.22574104  1
  Se  Se6  1  0.86154768  0.50451823  0.25386970  1
  Se  Se7  1  0.63529797  0.99047338  0.24814414  1
