# generated using pymatgen
data_Ba17Yb16Zn8Pt4O57
_symmetry_space_group_name_H-M   'P 1'
_cell_length_a   5.74425619
_cell_length_b   16.51135407
_cell_length_c   16.50848716
_cell_angle_alpha   88.29056656
_cell_angle_beta   79.99171993
_cell_angle_gamma   79.96011900
_symmetry_Int_Tables_number   1
_chemical_formula_structural   Ba17Yb16Zn8Pt4O57
_chemical_formula_sum   'Ba17 Yb16 Zn8 Pt4 O57'
_cell_volume   1518.31594496
_cell_formula_units_Z   1
loop_
 _symmetry_equiv_pos_site_id
 _symmetry_equiv_pos_as_xyz
  1  'x, y, z'
loop_
 _atom_site_type_symbol
 _atom_site_label
 _atom_site_symmetry_multiplicity
 _atom_site_fract_x
 _atom_site_fract_y
 _atom_site_fract_z
 _atom_site_occupancy
  Yb  Yb0  1  0.74737944  0.75735959  0.74535962  1
  Yb  Yb1  1  0.50901237  0.89016300  0.08960585  1
  Yb  Yb2  1  0.59782436  0.91042939  0.88998529  1
  Yb  Yb3  1  0.17082152  0.77626966  0.87916365  1
  Yb  Yb4  1  0.39925695  0.08985066  0.10955959  1
  Yb  Yb5  1  0.82733031  0.22404090  0.12031258  1
  Yb  Yb6  1  0.49518957  0.25411526  0.75614908  1
  Yb  Yb7  1  0.32431104  0.62650190  0.72590845  1
  Yb  Yb8  1  0.49002237  0.10903725  0.91016206  1
  Yb  Yb9  1  0.94748397  0.87886613  0.22378611  1
  Yb  Yb10  1  0.25185867  0.24388014  0.25473325  1
  Yb  Yb11  1  0.05197701  0.12016111  0.77529632  1
  Yb  Yb12  1  0.95219611  0.72524508  0.37361957  1
  Yb  Yb13  1  0.67743655  0.37345977  0.27396146  1
  Yb  Yb14  1  0.04895137  0.27412489  0.62600542  1
  Yb  Yb15  1  0.50612323  0.74462910  0.24287902  1
  Ba  Ba16  1  0.72899746  0.16336180  0.38021742  1
  Ba  Ba17  1  0.56180889  0.37302908  0.50760737  1
  Ba  Ba18  1  0.10934007  0.61892769  0.16253909  1
  Ba  Ba19  1  0.44088920  0.62855613  0.49179026  1
  Ba  Ba20  1  0.65124091  0.99459543  0.69899104  1
  Ba  Ba21  1  0.81218342  0.92113553  0.45274474  1
  Ba  Ba22  1  0.93236511  0.50881180  0.62744181  1
  Ba  Ba23  1  0.06982518  0.49161913  0.37147984  1
  Ba  Ba24  1  0.27156586  0.83752154  0.62001461  1
  Ba  Ba25  1  0.89203192  0.38038100  0.83641745  1
  Ba  Ba26  1  0.26731231  0.54711985  0.92085952  1
  Ba  Ba27  1  0.35362951  0.29989508  0.99091913  1
  Ba  Ba28  1  0.34440883  0.00866818  0.30017856  1
  Ba  Ba29  1  0.64714874  0.69897401  0.00611258  1
  Ba  Ba30  1  0.73437833  0.45233305  0.07761790  1
  Ba  Ba31  1  -0.00123736  -0.00027775  0.00050046  1
  Ba  Ba32  1  0.18729535  0.07898459  0.54597495  1
  Zn  Zn33  1  0.07228135  0.79657414  0.05638965  1
  Zn  Zn34  1  0.21401730  0.40610215  0.16528248  1
  Zn  Zn35  1  0.38068324  0.83352263  0.40559282  1
  Zn  Zn36  1  0.61992472  0.16713449  0.59206105  1
  Zn  Zn37  1  0.12792854  0.94364361  0.79650128  1
  Zn  Zn38  1  0.78771382  0.59267102  0.83296254  1
  Zn  Zn39  1  0.86814403  0.05732268  0.20319211  1
  Zn  Zn40  1  0.92768146  0.20227725  0.94278254  1
  Pt  Pt41  1  0.41749925  0.43855733  0.72672774  1
  Pt  Pt42  1  0.58391188  0.56070870  0.27258476  1
  Pt  Pt43  1  0.14595101  0.27330466  0.43904934  1
  Pt  Pt44  1  0.85614396  0.72758964  0.56123593  1
  O  O45  1  0.82324905  0.17094858  0.67678671  1
  O  O46  1  0.40376194  0.31360949  0.36095565  1
  O  O47  1  0.60570789  0.51655996  0.76657329  1
  O  O48  1  0.27394718  0.78858234  0.14490324  1
  O  O49  1  0.11346563  0.51749456  0.76673378  1
  O  O50  1  0.07596417  0.68790785  0.64053101  1
  O  O51  1  0.29345365  0.93928013  0.46432038  1
  O  O52  1  0.83344389  0.00738487  0.31803101  1
  O  O53  1  0.17390121  0.98010834  0.15716837  1
  O  O54  1  0.89003007  0.48178260  0.23309038  1
  O  O55  1  0.50199135  0.32212060  0.17129675  1
  O  O56  1  0.68646027  0.98085333  0.15565519  1
  O  O57  1  0.79145391  0.78915562  0.14462704  1
  O  O58  1  0.30965443  0.01958578  0.84361085  1
  O  O59  1  0.49903128  0.67801425  0.82864734  1
  O  O60  1  0.69855305  0.06177461  0.53382843  1
  O  O61  1  0.67325261  0.82698055  0.32239080  1
  O  O62  1  0.06264019  0.14440763  0.21120092  1
  O  O63  1  0.76299235  0.63861723  0.31339037  1
  O  O64  1  0.59875994  0.68612844  0.63967430  1
  O  O65  1  0.39159938  0.38182774  0.83628693  1
  O  O66  1  0.49551236  -0.00040138  -0.00000362  1
  O  O67  1  0.57985203  0.14501595  0.21108330  1
  O  O68  1  0.00607512  0.32177945  0.17114712  1
  O  O69  1  0.93458395  0.85559806  0.78903630  1
  O  O70  1  0.32746780  0.17149790  0.67789288  1
  O  O71  1  0.20979442  0.20999248  0.85489491  1
  O  O72  1  0.94467452  0.62042098  0.49575974  1
  O  O73  1  0.39668035  0.48233990  0.23228610  1
  O  O74  1  0.72730784  0.20966889  0.85452376  1
  O  O75  1  0.28499280  0.63921063  0.31230111  1
  O  O76  1  0.92684155  0.31277890  0.35994982  1
  O  O77  1  0.76498894  0.53414532  0.93793359  1
  O  O78  1  0.84406585  0.84305118  0.98031025  1
  O  O79  1  0.12124697  0.76791826  0.48297421  1
  O  O80  1  0.23544759  0.36092064  0.68660473  1
  O  O81  1  0.82224295  0.01962616  0.84258171  1
  O  O82  1  0.16372855  0.99326334  0.68140812  1
  O  O83  1  0.62824666  0.76713431  0.48285824  1
  O  O84  1  0.17818644  0.82741051  0.32148242  1
  O  O85  1  0.66856299  0.15572321  0.01937253  1
  O  O86  1  0.71392957  0.36019335  0.68632691  1
  O  O87  1  0.84526034  0.31750084  0.99154993  1
  O  O88  1  0.88009581  0.23370520  0.51671443  1
  O  O89  1  0.23943896  0.46483840  0.06058353  1
  O  O90  1  0.23067553  0.16340878  0.38336579  1
  O  O91  1  0.15536186  0.15657323  0.01954505  1
  O  O92  1  0.37163521  0.23469700  0.51794815  1
  O  O93  1  0.61272647  0.61641833  0.16242157  1
  O  O94  1  0.77047061  0.83729262  0.61744650  1
  O  O95  1  0.43899376  0.50439647  0.61961252  1
  O  O96  1  0.05822300  0.38124371  0.50331908  1
  O  O97  1  0.41635683  0.85549608  0.78823502  1
  O  O98  1  0.99454709  0.67845381  0.82874876  1
  O  O99  1  0.33155650  0.84294167  0.98034668  1
  O  O100  1  0.56133201  0.49580928  0.38007552  1
  O  O101  1  0.15875922  0.68164284  0.00757133  1
