# generated using pymatgen
data_CaSn2P2O9
_symmetry_space_group_name_H-M   'P 1'
_cell_length_a   6.72819060
_cell_length_b   8.18147011
_cell_length_c   15.63062616
_cell_angle_alpha   90.00358073
_cell_angle_beta   89.99975518
_cell_angle_gamma   90.00009530
_symmetry_Int_Tables_number   1
_chemical_formula_structural   CaSn2P2O9
_chemical_formula_sum   'Ca4 Sn8 P8 O36'
_cell_volume   860.41110973
_cell_formula_units_Z   4
loop_
 _symmetry_equiv_pos_site_id
 _symmetry_equiv_pos_as_xyz
  1  'x, y, z'
loop_
 _atom_site_type_symbol
 _atom_site_label
 _atom_site_symmetry_multiplicity
 _atom_site_fract_x
 _atom_site_fract_y
 _atom_site_fract_z
 _atom_site_occupancy
  Ca  Ca0  1  0.75000178  0.95470880  0.77754855  1
  Ca  Ca1  1  0.74999651  0.54502587  0.27759973  1
  Ca  Ca2  1  0.24999252  0.45471065  0.72244628  1
  Ca  Ca3  1  0.25000185  0.04503720  0.22237306  1
  Sn  Sn4  1  0.75000083  0.36384357  0.88433610  1
  Sn  Sn5  1  0.24999616  0.63596553  0.11567480  1
  Sn  Sn6  1  0.25000020  0.86384648  0.61565628  1
  Sn  Sn7  1  0.75000081  0.13590140  0.38433938  1
  Sn  Sn8  1  0.49993167  0.99999193  0.00004816  1
  Sn  Sn9  1  0.50006626  0.49998181  0.49995347  1
  Sn  Sn10  1  0.99993412  0.49998240  0.49995253  1
  Sn  Sn11  1  0.00007519  0.00004208  0.00004047  1
  P  P12  1  0.25000105  0.38814709  0.93437453  1
  P  P13  1  0.74999901  0.61194497  0.06570048  1
  P  P14  1  0.75000131  0.88808883  0.56563078  1
  P  P15  1  0.25000110  0.11193970  0.43429992  1
  P  P16  1  0.74999951  0.39235243  0.70525384  1
  P  P17  1  0.75000481  0.10775717  0.20514185  1
  P  P18  1  0.24999884  0.89230570  0.79475294  1
  P  P19  1  0.24999518  0.60771794  0.29485015  1
  O  O20  1  0.05732034  0.59113435  0.34709234  1
  O  O21  1  0.55732100  0.40887181  0.65302967  1
  O  O22  1  0.94267706  0.09119877  0.15289648  1
  O  O23  1  0.44267612  0.90882881  0.84697449  1
  O  O24  1  0.94267203  0.40887180  0.65302819  1
  O  O25  1  0.44267152  0.59113360  0.34709387  1
  O  O26  1  0.05732593  0.90883315  0.84697655  1
  O  O27  1  0.55733830  0.09119170  0.15289293  1
  O  O28  1  0.25000126  0.27213585  0.48521986  1
  O  O29  1  0.75000189  0.72835428  0.51434625  1
  O  O30  1  0.74999619  0.77214933  0.01479117  1
  O  O31  1  0.24999883  0.22841429  0.98565278  1
  O  O32  1  0.75000715  0.13381269  0.92183861  1
  O  O33  1  0.25000500  0.86613223  0.07849299  1
  O  O34  1  0.25000041  0.63384322  0.57811880  1
  O  O35  1  0.74999896  0.36603256  0.42156528  1
  O  O36  1  0.75000089  0.22871675  0.75697686  1
  O  O37  1  0.24999900  0.77131406  0.24318224  1
  O  O38  1  0.24999390  0.72868297  0.74301481  1
  O  O39  1  0.74999922  0.27132182  0.25684033  1
  O  O40  1  0.43106076  0.09905760  0.37109447  1
  O  O41  1  0.93101927  0.90055362  0.62888365  1
  O  O42  1  0.56893544  0.59906358  0.12890585  1
  O  O43  1  0.06897715  0.40059807  0.87112230  1
  O  O44  1  0.56898087  0.90055139  0.62888308  1
  O  O45  1  0.06894059  0.09905810  0.37109397  1
  O  O46  1  0.43102706  0.40059776  0.87112420  1
  O  O47  1  0.93106194  0.59906805  0.12890603  1
  O  O48  1  0.75000613  0.46146345  0.00513557  1
  O  O49  1  0.25000073  0.02433297  0.71913319  1
  O  O50  1  0.24999750  0.47567624  0.21922371  1
  O  O51  1  0.75000247  0.52436566  0.78088217  1
  O  O52  1  0.75000155  0.03906243  0.50535624  1
  O  O53  1  0.24999996  0.96146908  0.49486168  1
  O  O54  1  0.25000163  0.53913344  0.99465001  1
  O  O55  1  0.75000121  0.97567896  0.28074610  1
