# generated using pymatgen
data_K2Mn2(MoO4)3
_symmetry_space_group_name_H-M   'P 1'
_cell_length_a   10.89456081
_cell_length_b   12.48128801
_cell_length_c   18.35197970
_cell_angle_alpha   90.00000000
_cell_angle_beta   90.00000000
_cell_angle_gamma   90.00000000
_symmetry_Int_Tables_number   1
_chemical_formula_structural   K2Mn2(MoO4)3
_chemical_formula_sum   'K16 Mn16 Mo24 O96'
_cell_volume   2495.46827069
_cell_formula_units_Z   8
loop_
 _symmetry_equiv_pos_site_id
 _symmetry_equiv_pos_as_xyz
  1  'x, y, z'
loop_
 _atom_site_type_symbol
 _atom_site_label
 _atom_site_symmetry_multiplicity
 _atom_site_fract_x
 _atom_site_fract_y
 _atom_site_fract_z
 _atom_site_occupancy
  K  K0  1  0.25000000  0.50000000  0.94395469  1
  K  K1  1  0.00000000  0.49658043  0.75000000  1
  K  K2  1  0.27456380  0.15120132  0.46205954  1
  K  K3  1  0.27456380  0.84879868  0.96205954  1
  K  K4  1  0.77456380  0.15120132  0.53794046  1
  K  K5  1  0.22543620  0.15120132  0.96205954  1
  K  K6  1  0.75000000  0.50000000  0.55604531  1
  K  K7  1  0.25000000  0.50000000  0.44395469  1
  K  K8  1  0.00000000  0.50341957  0.25000000  1
  K  K9  1  0.50000000  0.49658043  0.25000000  1
  K  K10  1  0.72543620  0.15120132  0.03794046  1
  K  K11  1  0.50000000  0.50341957  0.75000000  1
  K  K12  1  0.22543620  0.84879868  0.46205954  1
  K  K13  1  0.75000000  0.50000000  0.05604531  1
  K  K14  1  0.72543620  0.84879868  0.53794046  1
  K  K15  1  0.77456380  0.84879868  0.03794046  1
  Mn  Mn16  1  0.00000000  0.83309629  0.25000000  1
  Mn  Mn17  1  0.50000000  0.83309629  0.75000000  1
  Mn  Mn18  1  0.75000000  0.00000000  0.71424882  1
  Mn  Mn19  1  0.08448077  0.32431163  0.09703986  1
  Mn  Mn20  1  0.00000000  0.16690371  0.75000000  1
  Mn  Mn21  1  0.25000000  0.00000000  0.78575118  1
  Mn  Mn22  1  0.41551923  0.67568837  0.09703986  1
  Mn  Mn23  1  0.50000000  0.16690371  0.25000000  1
  Mn  Mn24  1  0.08448077  0.67568837  0.59703986  1
  Mn  Mn25  1  0.58448077  0.67568837  0.40296014  1
  Mn  Mn26  1  0.58448077  0.32431163  0.90296014  1
  Mn  Mn27  1  0.75000000  0.00000000  0.21424882  1
  Mn  Mn28  1  0.25000000  0.00000000  0.28575118  1
  Mn  Mn29  1  0.41551923  0.32431163  0.59703986  1
  Mn  Mn30  1  0.91551923  0.32431163  0.40296014  1
  Mn  Mn31  1  0.91551923  0.67568837  0.90296014  1
  Mo  Mo32  1  0.21978341  0.69956727  0.79522741  1
  Mo  Mo33  1  0.42405326  0.35651529  0.08711341  1
  Mo  Mo34  1  0.78021659  0.69956727  0.70477259  1
  Mo  Mo35  1  0.54709577  0.02279620  0.88408562  1
  Mo  Mo36  1  0.28021659  0.30043273  0.79522741  1
  Mo  Mo37  1  0.54709577  0.97720380  0.38408562  1
  Mo  Mo38  1  0.07594674  0.35651529  0.58711341  1
  Mo  Mo39  1  0.92405326  0.35651529  0.91288659  1
  Mo  Mo40  1  0.07594674  0.64348471  0.08711341  1
  Mo  Mo41  1  0.42405326  0.64348471  0.58711341  1
  Mo  Mo42  1  0.95290423  0.02279620  0.38408562  1
  Mo  Mo43  1  0.04709577  0.02279620  0.11591438  1
  Mo  Mo44  1  0.57594674  0.35651529  0.41288659  1
  Mo  Mo45  1  0.04709577  0.97720380  0.61591438  1
  Mo  Mo46  1  0.57594674  0.64348471  0.91288659  1
  Mo  Mo47  1  0.21978341  0.30043273  0.29522741  1
  Mo  Mo48  1  0.71978341  0.69956727  0.20477259  1
  Mo  Mo49  1  0.28021659  0.69956727  0.29522741  1
  Mo  Mo50  1  0.92405326  0.64348471  0.41288659  1
  Mo  Mo51  1  0.95290423  0.97720380  0.88408562  1
  Mo  Mo52  1  0.45290423  0.97720380  0.11591438  1
  Mo  Mo53  1  0.45290423  0.02279620  0.61591438  1
  Mo  Mo54  1  0.71978341  0.30043273  0.70477259  1
  Mo  Mo55  1  0.78021659  0.30043273  0.20477259  1
  O  O56  1  0.05925043  0.50124411  0.10152504  1
  O  O57  1  0.77270946  0.66274357  0.45023661  1
  O  O58  1  0.80339085  0.17255353  0.70231938  1
  O  O59  1  0.39225004  0.02562978  0.20307080  1
  O  O60  1  0.03625504  0.68294546  0.47942034  1
  O  O61  1  0.39272946  0.84730637  0.09464186  1
  O  O62  1  0.61802345  0.97500285  0.12615366  1
  O  O63  1  0.93877101  0.71635529  0.32837662  1
  O  O64  1  0.46374496  0.31705454  0.47942034  1
  O  O65  1  0.67588122  0.40241564  0.18045464  1
  O  O66  1  0.60670974  0.30148399  0.63316135  1
  O  O67  1  0.80339085  0.82744647  0.20231938  1
  O  O68  1  0.89272946  0.15269363  0.40535814  1
  O  O69  1  0.82411878  0.40241564  0.68045464  1
  O  O70  1  0.64877006  0.66914326  0.29072976  1
  O  O71  1  0.55925043  0.49875589  0.39847496  1
  O  O72  1  0.08886528  0.06878440  0.54682040  1
  O  O73  1  0.53625504  0.31705454  0.02057966  1
  O  O74  1  0.96374496  0.31705454  0.52057966  1
  O  O75  1  0.56122899  0.71635529  0.82837662  1
  O  O76  1  0.41113472  0.93121560  0.54682040  1
  O  O77  1  0.32411878  0.59758436  0.81954536  1
  O  O78  1  0.39329026  0.30148399  0.86683865  1
  O  O79  1  0.58886528  0.06878440  0.45317960  1
  O  O80  1  0.96374496  0.68294546  0.02057966  1
  O  O81  1  0.03625504  0.31705454  0.97942034  1
  O  O82  1  0.85122994  0.66914326  0.79072976  1
  O  O83  1  0.91113472  0.06878440  0.95317960  1
  O  O84  1  0.60727054  0.15269363  0.90535814  1
  O  O85  1  0.17588122  0.59758436  0.31954536  1
  O  O86  1  0.22729054  0.33725643  0.54976339  1
  O  O87  1  0.64877006  0.33085674  0.79072976  1
  O  O88  1  0.32411878  0.40241564  0.31954536  1
  O  O89  1  0.88197655  0.02499715  0.12615366  1
  O  O90  1  0.19660915  0.82744647  0.29768062  1
  O  O91  1  0.38197655  0.97500285  0.37384634  1
  O  O92  1  0.17588122  0.40241564  0.81954536  1
  O  O93  1  0.19660915  0.17255353  0.79768062  1
  O  O94  1  0.06122899  0.71635529  0.17162338  1
  O  O95  1  0.89329026  0.30148399  0.13316135  1
  O  O96  1  0.10774996  0.97437022  0.20307080  1
  O  O97  1  0.72729054  0.33725643  0.45023661  1
  O  O98  1  0.53625504  0.68294546  0.52057966  1
  O  O99  1  0.10670974  0.30148399  0.36683865  1
  O  O100  1  0.88197655  0.97500285  0.62615366  1
  O  O101  1  0.89329026  0.69851601  0.63316135  1
  O  O102  1  0.06122899  0.28364471  0.67162338  1
  O  O103  1  0.35122994  0.33085674  0.70927024  1
  O  O104  1  0.10727054  0.15269363  0.09464186  1
  O  O105  1  0.91113472  0.93121560  0.45317960  1
  O  O106  1  0.94074957  0.50124411  0.39847496  1
  O  O107  1  0.60727054  0.84730637  0.40535814  1
  O  O108  1  0.58886528  0.93121560  0.95317960  1
  O  O109  1  0.14877006  0.33085674  0.20927024  1
  O  O110  1  0.72729054  0.66274357  0.95023661  1
  O  O111  1  0.39329026  0.69851601  0.36683865  1
  O  O112  1  0.41113472  0.06878440  0.04682040  1
  O  O113  1  0.77270946  0.33725643  0.95023661  1
  O  O114  1  0.93877101  0.28364471  0.82837662  1
  O  O115  1  0.30339085  0.82744647  0.79768062  1
  O  O116  1  0.10727054  0.84730637  0.59464186  1
  O  O117  1  0.89225004  0.02562978  0.79692920  1
  O  O118  1  0.30339085  0.17255353  0.29768062  1
  O  O119  1  0.11802345  0.02499715  0.37384634  1
  O  O120  1  0.14877006  0.66914326  0.70927024  1
  O  O121  1  0.43877101  0.28364471  0.17162338  1
  O  O122  1  0.46374496  0.68294546  0.97942034  1
  O  O123  1  0.27270946  0.33725643  0.04976339  1
  O  O124  1  0.60774996  0.97437022  0.79692920  1
  O  O125  1  0.08886528  0.93121560  0.04682040  1
  O  O126  1  0.39225004  0.97437022  0.70307080  1
  O  O127  1  0.44074957  0.49875589  0.10152504  1
  O  O128  1  0.44074957  0.50124411  0.60152504  1
  O  O129  1  0.55925043  0.50124411  0.89847496  1
  O  O130  1  0.60670974  0.69851601  0.13316135  1
  O  O131  1  0.39272946  0.15269363  0.59464186  1
  O  O132  1  0.60774996  0.02562978  0.29692920  1
  O  O133  1  0.69660915  0.82744647  0.70231938  1
  O  O134  1  0.94074957  0.49875589  0.89847496  1
  O  O135  1  0.11802345  0.97500285  0.87384634  1
  O  O136  1  0.10670974  0.69851601  0.86683865  1
  O  O137  1  0.27270946  0.66274357  0.54976339  1
  O  O138  1  0.85122994  0.33085674  0.29072976  1
  O  O139  1  0.69660915  0.17255353  0.20231938  1
  O  O140  1  0.05925043  0.49875589  0.60152504  1
  O  O141  1  0.82411878  0.59758436  0.18045464  1
  O  O142  1  0.10774996  0.02562978  0.70307080  1
  O  O143  1  0.38197655  0.02499715  0.87384634  1
  O  O144  1  0.89272946  0.84730637  0.90535814  1
  O  O145  1  0.22729054  0.66274357  0.04976339  1
  O  O146  1  0.35122994  0.66914326  0.20927024  1
  O  O147  1  0.67588122  0.59758436  0.68045464  1
  O  O148  1  0.43877101  0.71635529  0.67162338  1
  O  O149  1  0.56122899  0.28364471  0.32837662  1
  O  O150  1  0.61802345  0.02499715  0.62615366  1
  O  O151  1  0.89225004  0.97437022  0.29692920  1
