# generated using pymatgen
data_K3Ga13
_symmetry_space_group_name_H-M   'P 1'
_cell_length_a   8.81380038
_cell_length_b   8.81380038
_cell_length_c   28.90405543
_cell_angle_alpha   90.00000000
_cell_angle_beta   90.00000000
_cell_angle_gamma   43.45303667
_symmetry_Int_Tables_number   1
_chemical_formula_structural   K3Ga13
_chemical_formula_sum   'K12 Ga52'
_cell_volume   1544.26552671
_cell_formula_units_Z   4
loop_
 _symmetry_equiv_pos_site_id
 _symmetry_equiv_pos_as_xyz
  1  'x, y, z'
loop_
 _atom_site_type_symbol
 _atom_site_label
 _atom_site_symmetry_multiplicity
 _atom_site_fract_x
 _atom_site_fract_y
 _atom_site_fract_z
 _atom_site_occupancy
  K  K0  1  0.21335954  0.21335954  0.08673102  1
  K  K1  1  0.98844649  0.98844649  0.13840842  1
  K  K2  1  0.36170485  0.36170485  0.18059043  1
  K  K3  1  0.98844649  0.98844649  0.36159158  1
  K  K4  1  0.21335954  0.21335954  0.41326898  1
  K  K5  1  0.01155351  0.01155351  0.63840842  1
  K  K6  1  0.36170485  0.36170485  0.31940957  1
  K  K7  1  0.01155351  0.01155351  0.86159158  1
  K  K8  1  0.63829515  0.63829515  0.68059043  1
  K  K9  1  0.63829515  0.63829515  0.81940957  1
  K  K10  1  0.78664046  0.78664046  0.58673102  1
  K  K11  1  0.78664046  0.78664046  0.91326898  1
  Ga  Ga12  1  0.24439616  0.85678610  0.03494354  1
  Ga  Ga13  1  0.14321390  0.75560384  0.53494354  1
  Ga  Ga14  1  0.24439616  0.85678610  0.46505646  1
  Ga  Ga15  1  0.14321390  0.75560384  0.96505646  1
  Ga  Ga16  1  0.37024011  0.96927133  0.29664560  1
  Ga  Ga17  1  0.37024011  0.96927133  0.20335440  1
  Ga  Ga18  1  0.03072867  0.62975989  0.70335440  1
  Ga  Ga19  1  0.03072867  0.62975989  0.79664560  1
  Ga  Ga20  1  0.31658673  0.74169623  0.25000000  1
  Ga  Ga21  1  0.25830377  0.68341327  0.75000000  1
  Ga  Ga22  1  0.18720400  0.59454501  0.04752597  1
  Ga  Ga23  1  0.18720400  0.59454501  0.45247403  1
  Ga  Ga24  1  0.40545499  0.81279600  0.54752597  1
  Ga  Ga25  1  0.40545499  0.81279600  0.95247403  1
  Ga  Ga26  1  0.57194202  0.57194202  0.17163122  1
  Ga  Ga27  1  0.65847517  0.65847517  0.03109540  1
  Ga  Ga28  1  0.79871576  0.79871576  0.07215713  1
  Ga  Ga29  1  0.51741754  0.51741754  0.08935390  1
  Ga  Ga30  1  0.34152483  0.34152483  0.53109540  1
  Ga  Ga31  1  0.74066678  0.74066678  0.15612879  1
  Ga  Ga32  1  0.65847517  0.65847517  0.46890460  1
  Ga  Ga33  1  0.74066678  0.74066678  0.34387121  1
  Ga  Ga34  1  0.51741754  0.51741754  0.41064610  1
  Ga  Ga35  1  0.42805798  0.42805798  0.67163122  1
  Ga  Ga36  1  0.79871576  0.79871576  0.42784287  1
  Ga  Ga37  1  0.48258246  0.48258246  0.58935390  1
  Ga  Ga38  1  0.92117813  0.92117813  0.25000000  1
  Ga  Ga39  1  0.20128424  0.20128424  0.57215713  1
  Ga  Ga40  1  0.25933322  0.25933322  0.65612879  1
  Ga  Ga41  1  0.07882187  0.07882187  0.75000000  1
  Ga  Ga42  1  0.57194202  0.57194202  0.32836878  1
  Ga  Ga43  1  0.23211746  0.23211746  0.75000000  1
  Ga  Ga44  1  0.42805798  0.42805798  0.82836878  1
  Ga  Ga45  1  0.25933322  0.25933322  0.84387121  1
  Ga  Ga46  1  0.76788254  0.76788254  0.25000000  1
  Ga  Ga47  1  0.20128424  0.20128424  0.92784287  1
  Ga  Ga48  1  0.34152483  0.34152483  0.96890460  1
  Ga  Ga49  1  0.48258246  0.48258246  0.91064610  1
  Ga  Ga50  1  0.59454501  0.18720400  0.04752597  1
  Ga  Ga51  1  0.81279600  0.40545499  0.54752597  1
  Ga  Ga52  1  0.59454501  0.18720400  0.45247403  1
  Ga  Ga53  1  0.81279600  0.40545499  0.95247403  1
  Ga  Ga54  1  0.74169623  0.31658673  0.25000000  1
  Ga  Ga55  1  0.68341327  0.25830377  0.75000000  1
  Ga  Ga56  1  0.96927133  0.37024011  0.20335440  1
  Ga  Ga57  1  0.96927133  0.37024011  0.29664560  1
  Ga  Ga58  1  0.62975989  0.03072867  0.79664560  1
  Ga  Ga59  1  0.62975989  0.03072867  0.70335440  1
  Ga  Ga60  1  0.85678610  0.24439616  0.03494354  1
  Ga  Ga61  1  0.75560384  0.14321390  0.53494354  1
  Ga  Ga62  1  0.85678610  0.24439616  0.46505646  1
  Ga  Ga63  1  0.75560384  0.14321390  0.96505646  1
