# generated using pymatgen
data_Eu2GeO5
_symmetry_space_group_name_H-M   'P 1'
_cell_length_a   7.00208028
_cell_length_b   7.27437493
_cell_length_c   9.47768682
_cell_angle_alpha   90.00000000
_cell_angle_beta   105.65522316
_cell_angle_gamma   90.00000000
_symmetry_Int_Tables_number   1
_chemical_formula_structural   Eu2GeO5
_chemical_formula_sum   'Eu8 Ge4 O20'
_cell_volume   464.84442606
_cell_formula_units_Z   4
loop_
 _symmetry_equiv_pos_site_id
 _symmetry_equiv_pos_as_xyz
  1  'x, y, z'
loop_
 _atom_site_type_symbol
 _atom_site_label
 _atom_site_symmetry_multiplicity
 _atom_site_fract_x
 _atom_site_fract_y
 _atom_site_fract_z
 _atom_site_occupancy
  Eu  Eu0  1  0.73521883  0.62888241  0.51887033  1
  Eu  Eu1  1  0.05181957  0.86480035  0.87044103  1
  Eu  Eu2  1  0.23521883  0.87111759  0.51887033  1
  Eu  Eu3  1  0.76478117  0.12888241  0.48112967  1
  Eu  Eu4  1  0.94818043  0.13519965  0.12955897  1
  Eu  Eu5  1  0.55181957  0.63519965  0.87044103  1
  Eu  Eu6  1  0.26478117  0.37111759  0.48112967  1
  Eu  Eu7  1  0.44818043  0.36480035  0.12955897  1
  Ge  Ge8  1  0.97689097  0.58922320  0.19871414  1
  Ge  Ge9  1  0.52310903  0.08922320  0.80128586  1
  Ge  Ge10  1  0.02310903  0.41077680  0.80128586  1
  Ge  Ge11  1  0.47689097  0.91077680  0.19871414  1
  O  O12  1  0.00572129  0.63464357  0.39034490  1
  O  O13  1  0.27647756  0.05465672  0.10870122  1
  O  O14  1  0.99554184  0.20710396  0.89025944  1
  O  O15  1  0.16865984  0.41718634  0.21601521  1
  O  O16  1  0.83134016  0.58281366  0.78398479  1
  O  O17  1  0.50445816  0.70710396  0.10974056  1
  O  O18  1  0.49554184  0.29289604  0.89025944  1
  O  O19  1  0.77647756  0.44534328  0.10870122  1
  O  O20  1  0.00445816  0.79289604  0.10974056  1
  O  O21  1  0.56908748  0.38335111  0.39218705  1
  O  O22  1  0.50572129  0.86535643  0.39034490  1
  O  O23  1  0.66865984  0.08281366  0.21601521  1
  O  O24  1  0.22352244  0.55465672  0.89129878  1
  O  O25  1  0.33134016  0.91718634  0.78398479  1
  O  O26  1  0.93091252  0.88335111  0.60781295  1
  O  O27  1  0.49427871  0.13464357  0.60965510  1
  O  O28  1  0.72352244  0.94534328  0.89129878  1
  O  O29  1  0.06908748  0.11664889  0.39218705  1
  O  O30  1  0.43091252  0.61664889  0.60781295  1
  O  O31  1  0.99427871  0.36535643  0.60965510  1
