# generated using pymatgen
data_NiSeO3
_symmetry_space_group_name_H-M   'P 1'
_cell_length_a   9.30712526
_cell_length_b   9.30712547
_cell_length_c   14.92818357
_cell_angle_alpha   72.67401900
_cell_angle_beta   72.67401863
_cell_angle_gamma   64.59910053
_symmetry_Int_Tables_number   1
_chemical_formula_structural   NiSeO3
_chemical_formula_sum   'Ni16 Se16 O48'
_cell_volume   1093.20864549
_cell_formula_units_Z   16
loop_
 _symmetry_equiv_pos_site_id
 _symmetry_equiv_pos_as_xyz
  1  'x, y, z'
loop_
 _atom_site_type_symbol
 _atom_site_label
 _atom_site_symmetry_multiplicity
 _atom_site_fract_x
 _atom_site_fract_y
 _atom_site_fract_z
 _atom_site_occupancy
  Ni  Ni0  1  0.95322654  0.18528548  0.46607395  1
  Ni  Ni1  1  0.41000895  0.12233531  0.41704559  1
  Ni  Ni2  1  0.31713262  0.13156950  0.75818033  1
  Ni  Ni3  1  0.37589378  0.10400319  0.08966232  1
  Ni  Ni4  1  0.68286738  0.86843050  0.24181967  1
  Ni  Ni5  1  0.10400319  0.37589378  0.58966232  1
  Ni  Ni6  1  0.13156950  0.31713262  0.25818033  1
  Ni  Ni7  1  0.87766469  0.58999105  0.08295441  1
  Ni  Ni8  1  0.81471452  0.04677346  0.03392605  1
  Ni  Ni9  1  0.58999105  0.87766469  0.58295441  1
  Ni  Ni10  1  0.89599681  0.62410622  0.41033768  1
  Ni  Ni11  1  0.04677346  0.81471452  0.53392605  1
  Ni  Ni12  1  0.62410622  0.89599681  0.91033768  1
  Ni  Ni13  1  0.86843050  0.68286738  0.74181967  1
  Ni  Ni14  1  0.12233531  0.41000895  0.91704559  1
  Ni  Ni15  1  0.18528548  0.95322654  0.96607395  1
  Se  Se16  1  0.20087455  0.96911180  0.63596284  1
  Se  Se17  1  0.70527079  0.06662607  0.64945242  1
  Se  Se18  1  0.29472921  0.93337393  0.35054758  1
  Se  Se19  1  0.75587567  0.49108174  0.60346257  1
  Se  Se20  1  0.79912545  0.03088820  0.36403716  1
  Se  Se21  1  0.03088820  0.79912545  0.86403716  1
  Se  Se22  1  0.93337393  0.29472921  0.85054758  1
  Se  Se23  1  0.52204118  0.28746247  0.18146560  1
  Se  Se24  1  0.24412433  0.50891826  0.39653743  1
  Se  Se25  1  0.71253753  0.47795882  0.31853440  1
  Se  Se26  1  0.96911180  0.20087455  0.13596284  1
  Se  Se27  1  0.06662607  0.70527079  0.14945242  1
  Se  Se28  1  0.28746247  0.52204118  0.68146560  1
  Se  Se29  1  0.49108174  0.75587567  0.10346257  1
  Se  Se30  1  0.50891826  0.24412433  0.89653743  1
  Se  Se31  1  0.47795882  0.71253753  0.81853440  1
  O  O32  1  0.06359324  0.51731268  0.15353062  1
  O  O33  1  0.71573618  0.51294912  0.19894032  1
  O  O34  1  0.80839499  0.86453963  0.61904936  1
  O  O35  1  0.32513468  0.29505300  0.97635889  1
  O  O36  1  0.29505300  0.32513468  0.47635889  1
  O  O37  1  0.12250602  0.49759457  0.33199711  1
  O  O38  1  0.36576990  0.97108487  0.54509033  1
  O  O39  1  0.60879740  0.07620514  0.98174083  1
  O  O40  1  0.86453963  0.80839499  0.11904936  1
  O  O41  1  0.39120260  0.92379486  0.01825917  1
  O  O42  1  0.67486532  0.70494700  0.02364111  1
  O  O43  1  0.50240543  0.87749398  0.16800289  1
  O  O44  1  0.85240803  0.85408773  0.82479958  1
  O  O45  1  0.02891513  0.63423010  0.95490967  1
  O  O46  1  0.63896109  0.75399657  0.82373214  1
  O  O47  1  0.95628338  0.98388115  0.42116540  1
  O  O48  1  0.07620514  0.60879740  0.48174083  1
  O  O49  1  0.09971201  0.67617179  0.66632871  1
  O  O50  1  0.97108487  0.36576990  0.04509033  1
  O  O51  1  0.48705088  0.28426382  0.30105968  1
  O  O52  1  0.51294912  0.71573618  0.69894032  1
  O  O53  1  0.87749398  0.50240543  0.66800289  1
  O  O54  1  0.63423010  0.02891513  0.45490967  1
  O  O55  1  0.90028799  0.32382821  0.33367129  1
  O  O56  1  0.04371662  0.01611885  0.57883460  1
  O  O57  1  0.28426382  0.48705088  0.80105968  1
  O  O58  1  0.36103891  0.24600343  0.17626786  1
  O  O59  1  0.48268732  0.93640676  0.34646938  1
  O  O60  1  0.27386060  0.79455270  0.45270545  1
  O  O61  1  0.67617179  0.09971201  0.16632871  1
  O  O62  1  0.92379486  0.39120260  0.51825917  1
  O  O63  1  0.20544730  0.72613940  0.04729455  1
  O  O64  1  0.32382821  0.90028799  0.83367129  1
  O  O65  1  0.14591227  0.14759197  0.67520042  1
  O  O66  1  0.24600343  0.36103891  0.67626786  1
  O  O67  1  0.85408773  0.85240803  0.32479958  1
  O  O68  1  0.14759197  0.14591227  0.17520042  1
  O  O69  1  0.75399657  0.63896109  0.32373214  1
  O  O70  1  0.51731268  0.06359324  0.65353062  1
  O  O71  1  0.19160501  0.13546037  0.38095064  1
  O  O72  1  0.01611885  0.04371662  0.07883460  1
  O  O73  1  0.49759457  0.12250602  0.83199711  1
  O  O74  1  0.13546037  0.19160501  0.88095064  1
  O  O75  1  0.79455270  0.27386060  0.95270545  1
  O  O76  1  0.70494700  0.67486532  0.52364111  1
  O  O77  1  0.98388115  0.95628338  0.92116540  1
  O  O78  1  0.93640676  0.48268732  0.84646938  1
  O  O79  1  0.72613940  0.20544730  0.54729455  1
