# generated using pymatgen
data_PrIn2Cl5
_symmetry_space_group_name_H-M   'P 1'
_cell_length_a   8.23356149
_cell_length_b   8.89603031
_cell_length_c   13.00881792
_cell_angle_alpha   90.00000000
_cell_angle_beta   90.00000000
_cell_angle_gamma   90.00000000
_symmetry_Int_Tables_number   1
_chemical_formula_structural   PrIn2Cl5
_chemical_formula_sum   'Pr4 In8 Cl20'
_cell_volume   952.84404094
_cell_formula_units_Z   4
loop_
 _symmetry_equiv_pos_site_id
 _symmetry_equiv_pos_as_xyz
  1  'x, y, z'
loop_
 _atom_site_type_symbol
 _atom_site_label
 _atom_site_symmetry_multiplicity
 _atom_site_fract_x
 _atom_site_fract_y
 _atom_site_fract_z
 _atom_site_occupancy
  Pr  Pr0  1  0.92541110  0.75000000  0.49408087  1
  Pr  Pr1  1  0.57458890  0.75000000  0.99408087  1
  Pr  Pr2  1  0.07458890  0.25000000  0.50591913  1
  Pr  Pr3  1  0.42541110  0.25000000  0.00591913  1
  In  In4  1  0.94237920  0.00872394  0.16971119  1
  In  In5  1  0.05762080  0.99127606  0.83028881  1
  In  In6  1  0.55762080  0.49127606  0.66971119  1
  In  In7  1  0.05762080  0.50872394  0.83028881  1
  In  In8  1  0.94237920  0.49127606  0.16971119  1
  In  In9  1  0.44237920  0.50872394  0.33028881  1
  In  In10  1  0.55762080  0.00872394  0.66971119  1
  In  In11  1  0.44237920  0.99127606  0.33028881  1
  Cl  Cl12  1  0.58061568  0.75000000  0.49311538  1
  Cl  Cl13  1  0.16816937  0.95586803  0.57069514  1
  Cl  Cl14  1  0.83183063  0.04413197  0.42930486  1
  Cl  Cl15  1  0.33183063  0.54413197  0.07069514  1
  Cl  Cl16  1  0.16816937  0.54413197  0.57069514  1
  Cl  Cl17  1  0.34573477  0.25000000  0.79525187  1
  Cl  Cl18  1  0.33183063  0.95586803  0.07069514  1
  Cl  Cl19  1  0.83183063  0.45586803  0.42930486  1
  Cl  Cl20  1  0.39179562  0.75000000  0.81280432  1
  Cl  Cl21  1  0.66816937  0.04413197  0.92930486  1
  Cl  Cl22  1  0.15426523  0.25000000  0.29525187  1
  Cl  Cl23  1  0.60820438  0.25000000  0.18719568  1
  Cl  Cl24  1  0.41938432  0.25000000  0.50688462  1
  Cl  Cl25  1  0.10820438  0.75000000  0.31280432  1
  Cl  Cl26  1  0.66816937  0.45586803  0.92930486  1
  Cl  Cl27  1  0.08061568  0.25000000  0.00688462  1
  Cl  Cl28  1  0.91938432  0.75000000  0.99311538  1
  Cl  Cl29  1  0.84573477  0.75000000  0.70474813  1
  Cl  Cl30  1  0.65426523  0.75000000  0.20474813  1
  Cl  Cl31  1  0.89179562  0.25000000  0.68719568  1
