# generated using pymatgen
data_Ca31Sn20
_symmetry_space_group_name_H-M   'P 1'
_cell_length_a   12.57176169
_cell_length_b   12.57176130
_cell_length_c   21.98826817
_cell_angle_alpha   106.61111653
_cell_angle_beta   106.61111603
_cell_angle_gamma   90.00000071
_symmetry_Int_Tables_number   1
_chemical_formula_structural   Ca31Sn20
_chemical_formula_sum   'Ca62 Sn40'
_cell_volume   3178.55480747
_cell_formula_units_Z   2
loop_
 _symmetry_equiv_pos_site_id
 _symmetry_equiv_pos_as_xyz
  1  'x, y, z'
loop_
 _atom_site_type_symbol
 _atom_site_label
 _atom_site_symmetry_multiplicity
 _atom_site_fract_x
 _atom_site_fract_y
 _atom_site_fract_z
 _atom_site_occupancy
  Ca  Ca0  1  0.34980581  0.05889619  0.27411361  1
  Ca  Ca1  1  0.57458192  0.70232576  0.57556142  1
  Ca  Ca2  1  0.16399974  0.66399974  0.32799948  1
  Ca  Ca3  1  0.57351504  0.07351504  0.14703007  1
  Ca  Ca4  1  0.66399974  0.16399974  0.32799948  1
  Ca  Ca5  1  0.92648496  0.42648496  0.85296993  1
  Ca  Ca6  1  0.29767424  0.99902050  0.42443858  1
  Ca  Ca7  1  0.50114974  0.65768419  0.89432181  1
  Ca  Ca8  1  0.39317207  0.23663762  0.89432181  1
  Ca  Ca9  1  0.42541808  0.29767424  0.42443858  1
  Ca  Ca10  1  0.76336238  0.49885026  0.10567819  1
  Ca  Ca11  1  0.10682793  0.84231581  0.10567819  1
  Ca  Ca12  1  0.49885026  0.34231581  0.10567819  1
  Ca  Ca13  1  0.20232576  0.07458192  0.57556142  1
  Ca  Ca14  1  0.57569220  0.44110381  0.72588639  1
  Ca  Ca15  1  0.66316382  0.16316382  0.00000000  1
  Ca  Ca16  1  0.79767424  0.92541808  0.42443858  1
  Ca  Ca17  1  0.00097950  0.87323566  0.57556142  1
  Ca  Ca18  1  0.05889619  0.92430780  0.27411361  1
  Ca  Ca19  1  0.28478259  0.57569220  0.72588639  1
  Ca  Ca20  1  0.37323566  0.50097950  0.57556142  1
  Ca  Ca21  1  0.70232576  0.00097950  0.57556142  1
  Ca  Ca22  1  0.33600026  0.83600026  0.67200052  1
  Ca  Ca23  1  0.33683618  0.83683618  1.00000000  1
  Ca  Ca24  1  0.62676434  0.49902050  0.42443858  1
  Ca  Ca25  1  0.00114974  0.73663762  0.89432181  1
  Ca  Ca26  1  0.84980581  0.71521741  0.27411361  1
  Ca  Ca27  1  0.65768419  0.39317207  0.89432181  1
  Ca  Ca28  1  0.12676434  0.42541808  0.42443858  1
  Ca  Ca29  1  0.92541808  0.62676434  0.42443858  1
  Ca  Ca30  1  0.25000000  0.75000000  0.50000000  1
  Ca  Ca31  1  0.92430780  0.21521741  0.27411361  1
  Ca  Ca32  1  0.73663762  0.89317207  0.89432181  1
  Ca  Ca33  1  0.99885026  0.26336238  0.10567819  1
  Ca  Ca34  1  0.07351504  0.57351504  0.14703007  1
  Ca  Ca35  1  0.15768419  0.00114974  0.89432181  1
  Ca  Ca36  1  0.50097950  0.20232576  0.57556142  1
  Ca  Ca37  1  0.15019419  0.28478259  0.72588639  1
  Ca  Ca38  1  0.07569220  0.78478259  0.72588639  1
  Ca  Ca39  1  0.87323566  0.57458192  0.57556142  1
  Ca  Ca40  1  0.83600026  0.33600026  0.67200052  1
  Ca  Ca41  1  0.07458192  0.37323566  0.57556142  1
  Ca  Ca42  1  0.34231581  0.60682793  0.10567819  1
  Ca  Ca43  1  0.21521741  0.34980581  0.27411361  1
  Ca  Ca44  1  0.89317207  0.15768419  0.89432181  1
  Ca  Ca45  1  0.23663762  0.50114974  0.89432181  1
  Ca  Ca46  1  0.75000000  0.25000000  0.50000000  1
  Ca  Ca47  1  0.78478259  0.65019419  0.72588639  1
  Ca  Ca48  1  0.16316382  0.33683618  0.00000000  1
  Ca  Ca49  1  0.55889619  0.84980581  0.27411361  1
  Ca  Ca50  1  0.84231581  0.99885026  0.10567819  1
  Ca  Ca51  1  0.42430780  0.55889619  0.27411361  1
  Ca  Ca52  1  0.44110381  0.15019419  0.72588639  1
  Ca  Ca53  1  0.42648496  0.92648496  0.85296993  1
  Ca  Ca54  1  0.26336238  0.10682793  0.10567819  1
  Ca  Ca55  1  0.94110381  0.07569220  0.72588639  1
  Ca  Ca56  1  0.60682793  0.76336238  0.10567819  1
  Ca  Ca57  1  0.71521741  0.42430780  0.27411361  1
  Ca  Ca58  1  0.65019419  0.94110381  0.72588639  1
  Ca  Ca59  1  0.99902050  0.12676434  0.42443858  1
  Ca  Ca60  1  0.49902050  0.79767424  0.42443858  1
  Ca  Ca61  1  0.83683618  0.66316382  1.00000000  1
  Sn  Sn62  1  0.12419400  0.22688562  0.85107962  1
  Sn  Sn63  1  0.05543208  0.86274786  0.41817994  1
  Sn  Sn64  1  0.82701707  0.82701707  0.65403414  1
  Sn  Sn65  1  0.32701707  0.32701707  0.65403414  1
  Sn  Sn66  1  0.37580600  0.87580600  0.14892038  1
  Sn  Sn67  1  0.78395281  0.96299666  0.24694947  1
  Sn  Sn68  1  0.96299666  0.46299666  0.24694947  1
  Sn  Sn69  1  0.36274786  0.55543208  0.41817994  1
  Sn  Sn70  1  0.91192333  0.41192333  0.00000000  1
  Sn  Sn71  1  0.44456792  0.94456792  0.58182006  1
  Sn  Sn72  1  0.40491182  0.40491182  0.80982365  1
  Sn  Sn73  1  0.41192333  0.08807667  0.00000000  1
  Sn  Sn74  1  0.22688562  0.72688562  0.85107962  1
  Sn  Sn75  1  0.71604719  0.21604719  0.75305053  1
  Sn  Sn76  1  0.13725214  0.63725214  0.58182006  1
  Sn  Sn77  1  0.09508818  0.09508818  0.19017635  1
  Sn  Sn78  1  0.77311438  0.27311438  0.14892038  1
  Sn  Sn79  1  0.86274786  0.36274786  0.41817994  1
  Sn  Sn80  1  0.72688562  0.62419400  0.85107962  1
  Sn  Sn81  1  0.00000000  0.00000000  0.00000000  1
  Sn  Sn82  1  0.63725214  0.44456792  0.58182006  1
  Sn  Sn83  1  0.87580600  0.77311438  0.14892038  1
  Sn  Sn84  1  0.90491182  0.90491182  0.80982365  1
  Sn  Sn85  1  0.59508818  0.59508818  0.19017635  1
  Sn  Sn86  1  0.62419400  0.12419400  0.85107962  1
  Sn  Sn87  1  0.75000000  0.75000000  0.50000000  1
  Sn  Sn88  1  0.03700334  0.53700334  0.75305053  1
  Sn  Sn89  1  0.46299666  0.28395281  0.24694947  1
  Sn  Sn90  1  0.53700334  0.71604719  0.75305053  1
  Sn  Sn91  1  0.27311438  0.37580600  0.14892038  1
  Sn  Sn92  1  0.17298293  0.17298293  0.34596586  1
  Sn  Sn93  1  0.58807667  0.91192333  0.00000000  1
  Sn  Sn94  1  0.55543208  0.05543208  0.41817994  1
  Sn  Sn95  1  0.50000000  0.50000000  0.00000000  1
  Sn  Sn96  1  0.08807667  0.58807667  0.00000000  1
  Sn  Sn97  1  0.28395281  0.78395281  0.24694947  1
  Sn  Sn98  1  0.94456792  0.13725214  0.58182006  1
  Sn  Sn99  1  0.67298293  0.67298293  0.34596586  1
  Sn  Sn100  1  0.25000000  0.25000000  0.50000000  1
  Sn  Sn101  1  0.21604719  0.03700334  0.75305053  1
