# generated using pymatgen
data_Cs4Re6Se13
_symmetry_space_group_name_H-M   'P 1'
_cell_length_a   10.47460610
_cell_length_b   10.51273084
_cell_length_c   14.52127429
_cell_angle_alpha   84.62533579
_cell_angle_beta   79.16286050
_cell_angle_gamma   60.11989564
_symmetry_Int_Tables_number   1
_chemical_formula_structural   Cs4Re6Se13
_chemical_formula_sum   'Cs8 Re12 Se26'
_cell_volume   1361.74798966
_cell_formula_units_Z   2
loop_
 _symmetry_equiv_pos_site_id
 _symmetry_equiv_pos_as_xyz
  1  'x, y, z'
loop_
 _atom_site_type_symbol
 _atom_site_label
 _atom_site_symmetry_multiplicity
 _atom_site_fract_x
 _atom_site_fract_y
 _atom_site_fract_z
 _atom_site_occupancy
  Cs  Cs0  1  0.10012997  0.23946119  0.58157042  1
  Cs  Cs1  1  0.33959116  0.76053881  0.08157042  1
  Cs  Cs2  1  0.31757021  0.96048023  0.77779135  1
  Cs  Cs3  1  0.27805044  0.03951977  0.27779135  1
  Cs  Cs4  1  0.89987003  0.76053881  0.41842958  1
  Cs  Cs5  1  0.66040884  0.23946119  0.91842958  1
  Cs  Cs6  1  0.72194956  0.96048023  0.72220865  1
  Cs  Cs7  1  0.68242979  0.03951977  0.22220865  1
  Re  Re8  1  0.00756219  0.67718818  0.97829530  1
  Re  Re9  1  0.85017201  0.56790833  0.92553810  1
  Re  Re10  1  0.99243781  0.32281182  0.02170470  1
  Re  Re11  1  0.14982799  0.43209167  0.07446190  1
  Re  Re12  1  0.41808034  0.43209167  0.42553810  1
  Re  Re13  1  0.58191966  0.56790833  0.57446190  1
  Re  Re14  1  0.68475038  0.32281182  0.47829530  1
  Re  Re15  1  0.56188759  0.58596344  0.39317097  1
  Re  Re16  1  0.31524962  0.67718818  0.52170470  1
  Re  Re17  1  0.43811241  0.41403656  0.60682903  1
  Re  Re18  1  0.14785104  0.41403656  0.89317097  1
  Re  Re19  1  0.85214896  0.58596344  0.10682903  1
  Se  Se20  1  0.70966617  0.47598613  0.05415180  1
  Se  Se21  1  0.01170882  0.68449586  0.15261495  1
  Se  Se22  1  0.99134844  0.35280580  0.19533838  1
  Se  Se23  1  0.18565231  0.52401387  0.55415180  1
  Se  Se24  1  0.36141947  0.27716105  0.75000000  1
  Se  Se25  1  0.27911551  0.18240490  0.99255320  1
  Se  Se26  1  0.00865156  0.64719420  0.80466162  1
  Se  Se27  1  0.81434769  0.47598613  0.44584820  1
  Se  Se28  1  0.69620468  0.31550414  0.65261495  1
  Se  Se29  1  0.02704891  0.92166054  0.93187814  1
  Se  Se30  1  0.36534840  0.36437163  0.16650754  1
  Se  Se31  1  0.97295109  0.07833946  0.06812186  1
  Se  Se32  1  0.53847959  0.18240490  0.50744680  1
  Se  Se33  1  0.98829118  0.31550414  0.84738505  1
  Se  Se34  1  0.29033383  0.52401387  0.94584820  1
  Se  Se35  1  0.65584577  0.35280580  0.30466162  1
  Se  Se36  1  0.72972002  0.63562837  0.66650754  1
  Se  Se37  1  0.63858053  0.72283895  0.25000000  1
  Se  Se38  1  0.34415423  0.64719420  0.69533838  1
  Se  Se39  1  0.46152041  0.81759510  0.49255320  1
  Se  Se40  1  0.72088449  0.81759510  0.00744680  1
  Se  Se41  1  0.63465160  0.63562837  0.83349246  1
  Se  Se42  1  0.94870945  0.07833946  0.43187814  1
  Se  Se43  1  0.27027998  0.36437163  0.33349246  1
  Se  Se44  1  0.05129055  0.92166054  0.56812186  1
  Se  Se45  1  0.30379532  0.68449586  0.34738505  1
