# generated using pymatgen
data_CsCrP2O7
_symmetry_space_group_name_H-M   'P 1'
_cell_length_a   7.79410437
_cell_length_b   8.46306898
_cell_length_c   10.05861084
_cell_angle_alpha   90.00000000
_cell_angle_beta   90.00000000
_cell_angle_gamma   105.07283110
_symmetry_Int_Tables_number   1
_chemical_formula_structural   CsCrP2O7
_chemical_formula_sum   'Cs4 Cr4 P8 O28'
_cell_volume   640.65996255
_cell_formula_units_Z   4
loop_
 _symmetry_equiv_pos_site_id
 _symmetry_equiv_pos_as_xyz
  1  'x, y, z'
loop_
 _atom_site_type_symbol
 _atom_site_label
 _atom_site_symmetry_multiplicity
 _atom_site_fract_x
 _atom_site_fract_y
 _atom_site_fract_z
 _atom_site_occupancy
  Cs  Cs0  1  0.19908468  0.03905282  0.20578512  1
  Cs  Cs1  1  0.80091532  0.96094718  0.79421488  1
  Cs  Cs2  1  0.19908468  0.53905282  0.29421488  1
  Cs  Cs3  1  0.80091532  0.46094718  0.70578512  1
  Cr  Cr4  1  0.75845439  0.74164871  0.39821650  1
  Cr  Cr5  1  0.24154561  0.75835129  0.89821650  1
  Cr  Cr6  1  0.24154561  0.25835129  0.60178350  1
  Cr  Cr7  1  0.75845439  0.24164871  0.10178350  1
  P  P8  1  0.12803440  0.83251984  0.59555346  1
  P  P9  1  0.12803440  0.33251984  0.90444654  1
  P  P10  1  0.57788525  0.81762533  0.12574600  1
  P  P11  1  0.87196560  0.16748016  0.40444654  1
  P  P12  1  0.57788525  0.31762533  0.37425400  1
  P  P13  1  0.42211475  0.18237467  0.87425400  1
  P  P14  1  0.42211475  0.68237467  0.62574600  1
  P  P15  1  0.87196560  0.66748016  0.09555346  1
  O  O16  1  0.60916461  0.23225688  0.93343834  1
  O  O17  1  0.68798319  0.70634734  0.04610742  1
  O  O18  1  0.43397484  0.23570963  0.72723976  1
  O  O19  1  0.60916461  0.73225688  0.56656166  1
  O  O20  1  0.67991465  0.99413628  0.10130939  1
  O  O21  1  0.15539871  0.01526374  0.58442439  1
  O  O22  1  0.32008535  0.00586372  0.89869061  1
  O  O23  1  0.32008535  0.50586372  0.60130939  1
  O  O24  1  0.01859735  0.76748163  0.00500724  1
  O  O25  1  0.43397484  0.73570963  0.77276024  1
  O  O26  1  0.09198945  0.76537757  0.73819914  1
  O  O27  1  0.84460129  0.48473626  0.08442439  1
  O  O28  1  0.90801055  0.23462243  0.26180086  1
  O  O29  1  0.39083539  0.76774312  0.06656166  1
  O  O30  1  0.67991465  0.49413628  0.39869061  1
  O  O31  1  0.31201681  0.29365266  0.95389258  1
  O  O32  1  0.68798319  0.20634734  0.45389258  1
  O  O33  1  0.98140265  0.23251837  0.99499276  1
  O  O34  1  0.98140265  0.73251837  0.50500724  1
  O  O35  1  0.56602516  0.26429037  0.22723976  1
  O  O36  1  0.31201681  0.79365266  0.54610742  1
  O  O37  1  0.39083539  0.26774312  0.43343834  1
  O  O38  1  0.90801055  0.73462243  0.23819914  1
  O  O39  1  0.01859735  0.26748163  0.49499276  1
  O  O40  1  0.84460129  0.98473626  0.41557561  1
  O  O41  1  0.15539871  0.51526374  0.91557561  1
  O  O42  1  0.09198945  0.26537757  0.76180086  1
  O  O43  1  0.56602516  0.76429037  0.27276024  1
