# generated using pymatgen
data_Nd3U2O10
_symmetry_space_group_name_H-M   'P 1'
_cell_length_a   19.40800194
_cell_length_b   10.36205433
_cell_length_c   6.85640230
_cell_angle_alpha   29.06291480
_cell_angle_beta   30.03734329
_cell_angle_gamma   18.55747201
_symmetry_Int_Tables_number   1
_chemical_formula_structural   Nd3U2O10
_chemical_formula_sum   'Nd3 U2 O10'
_cell_volume   206.95601675
_cell_formula_units_Z   1
loop_
 _symmetry_equiv_pos_site_id
 _symmetry_equiv_pos_as_xyz
  1  'x, y, z'
loop_
 _atom_site_type_symbol
 _atom_site_label
 _atom_site_symmetry_multiplicity
 _atom_site_fract_x
 _atom_site_fract_y
 _atom_site_fract_z
 _atom_site_occupancy
  Nd  Nd0  1  0.39814693  0.00409057  0.99699366  1
  Nd  Nd1  1  0.60000000  -0.00000000  -0.00000000  1
  Nd  Nd2  1  0.80185307  0.99590943  0.00300634  1
  U  U3  1  0.00655076  0.99467340  0.98322598  1
  U  U4  1  0.19344924  0.00532660  0.01677402  1
  O  O5  1  0.10000000  0.22559760  0.27440240  1
  O  O6  1  0.27469452  0.29791734  0.24208969  1
  O  O7  1  0.47063366  0.31330750  0.23189142  1
  O  O8  1  0.10000000  0.77440240  0.72559760  1
  O  O9  1  0.72936634  0.21167470  0.24312638  1
  O  O10  1  0.27469452  0.78860301  0.75140402  1
  O  O11  1  0.47063366  0.78832530  0.75687362  1
  O  O12  1  0.92530548  0.21139699  0.24859598  1
  O  O13  1  0.72936634  0.68669250  0.76810858  1
  O  O14  1  0.92530548  0.70208266  0.75791031  1
