# generated using pymatgen
data_Rb3V2Br9
_symmetry_space_group_name_H-M   'P 1'
_cell_length_a   7.59025114
_cell_length_b   7.59025114
_cell_length_c   18.82381827
_cell_angle_alpha   90.00000000
_cell_angle_beta   90.00000000
_cell_angle_gamma   119.99999999
_symmetry_Int_Tables_number   1
_chemical_formula_structural   Rb3V2Br9
_chemical_formula_sum   'Rb6 V4 Br18'
_cell_volume   939.18391205
_cell_formula_units_Z   2
loop_
 _symmetry_equiv_pos_site_id
 _symmetry_equiv_pos_as_xyz
  1  'x, y, z'
loop_
 _atom_site_type_symbol
 _atom_site_label
 _atom_site_symmetry_multiplicity
 _atom_site_fract_x
 _atom_site_fract_y
 _atom_site_fract_z
 _atom_site_occupancy
  Rb  Rb0  1  0.66666700  0.33333300  0.56990721  1
  Rb  Rb1  1  0.33333300  0.66666700  0.06990721  1
  Rb  Rb2  1  0.33333300  0.66666700  0.43009279  1
  Rb  Rb3  1  0.66666700  0.33333300  0.93009279  1
  Rb  Rb4  1  0.00000000  0.00000000  0.25000000  1
  Rb  Rb5  1  0.00000000  0.00000000  0.75000000  1
  V  V6  1  0.33333300  0.66666700  0.66313111  1
  V  V7  1  0.66666700  0.33333300  0.33686889  1
  V  V8  1  0.33333300  0.66666700  0.83686889  1
  V  V9  1  0.66666700  0.33333300  0.16313111  1
  Br  Br10  1  0.82512054  0.65024109  0.40926417  1
  Br  Br11  1  0.17487946  0.82512054  0.59073583  1
  Br  Br12  1  0.65024109  0.82512054  0.59073583  1
  Br  Br13  1  0.82512054  0.17487946  0.40926417  1
  Br  Br14  1  0.34975891  0.17487946  0.40926417  1
  Br  Br15  1  0.17487946  0.34975891  0.90926417  1
  Br  Br16  1  0.02241539  0.51120770  0.75000000  1
  Br  Br17  1  0.65024109  0.82512054  0.90926417  1
  Br  Br18  1  0.82512054  0.65024109  0.09073583  1
  Br  Br19  1  0.17487946  0.34975891  0.59073583  1
  Br  Br20  1  0.48879230  0.97758461  0.75000000  1
  Br  Br21  1  0.51120770  0.48879230  0.25000000  1
  Br  Br22  1  0.48879230  0.51120770  0.75000000  1
  Br  Br23  1  0.17487946  0.82512054  0.90926417  1
  Br  Br24  1  0.34975891  0.17487946  0.09073583  1
  Br  Br25  1  0.97758461  0.48879230  0.25000000  1
  Br  Br26  1  0.51120770  0.02241539  0.25000000  1
  Br  Br27  1  0.82512054  0.17487946  0.09073583  1
