# generated using pymatgen
data_Rb3Ta5O14
_symmetry_space_group_name_H-M   'P 1'
_cell_length_a   7.45541468
_cell_length_b   14.93442276
_cell_length_c   25.64832119
_cell_angle_alpha   90.00000000
_cell_angle_beta   90.00000000
_cell_angle_gamma   90.00000000
_symmetry_Int_Tables_number   1
_chemical_formula_structural   Rb3Ta5O14
_chemical_formula_sum   'Rb24 Ta40 O112'
_cell_volume   2855.74344901
_cell_formula_units_Z   8
loop_
 _symmetry_equiv_pos_site_id
 _symmetry_equiv_pos_as_xyz
  1  'x, y, z'
loop_
 _atom_site_type_symbol
 _atom_site_label
 _atom_site_symmetry_multiplicity
 _atom_site_fract_x
 _atom_site_fract_y
 _atom_site_fract_z
 _atom_site_occupancy
  Rb  Rb0  1  0.27241123  0.01324294  0.48063468  1
  Rb  Rb1  1  0.87047463  0.00282371  0.38188881  1
  Rb  Rb2  1  0.22758877  0.51324294  0.98063468  1
  Rb  Rb3  1  0.37689383  0.75000000  0.20602832  1
  Rb  Rb4  1  0.27241123  0.48675706  0.48063468  1
  Rb  Rb5  1  0.72758877  0.98675706  0.51936532  1
  Rb  Rb6  1  0.12310617  0.25000000  0.70602832  1
  Rb  Rb7  1  0.37047463  0.00282371  0.11811119  1
  Rb  Rb8  1  0.65157633  0.75000000  0.79254584  1
  Rb  Rb9  1  0.72758877  0.51324294  0.51936532  1
  Rb  Rb10  1  0.37047463  0.49717629  0.11811119  1
  Rb  Rb11  1  0.87689383  0.75000000  0.29397168  1
  Rb  Rb12  1  0.87047463  0.49717629  0.38188881  1
  Rb  Rb13  1  0.84842367  0.25000000  0.29254584  1
  Rb  Rb14  1  0.22758877  0.98675706  0.98063468  1
  Rb  Rb15  1  0.62952537  0.99717629  0.88188881  1
  Rb  Rb16  1  0.77241123  0.01324294  0.01936532  1
  Rb  Rb17  1  0.77241123  0.48675706  0.01936532  1
  Rb  Rb18  1  0.12952537  0.99717629  0.61811119  1
  Rb  Rb19  1  0.12952537  0.50282371  0.61811119  1
  Rb  Rb20  1  0.34842367  0.25000000  0.20745416  1
  Rb  Rb21  1  0.62310617  0.25000000  0.79397168  1
  Rb  Rb22  1  0.62952537  0.50282371  0.88188881  1
  Rb  Rb23  1  0.15157633  0.75000000  0.70745416  1
  Ta  Ta24  1  0.37026216  0.61929504  0.35642927  1
  Ta  Ta25  1  0.91680627  0.25000000  0.93863372  1
  Ta  Ta26  1  0.41680627  0.25000000  0.56136628  1
  Ta  Ta27  1  0.89286255  0.75000000  0.94501044  1
  Ta  Ta28  1  0.41010134  0.75000000  0.94467101  1
  Ta  Ta29  1  0.62912252  0.62313722  0.65297898  1
  Ta  Ta30  1  0.08319373  0.75000000  0.06136628  1
  Ta  Ta31  1  0.39286255  0.75000000  0.55498956  1
  Ta  Ta32  1  0.12973784  0.11929504  0.85642927  1
  Ta  Ta33  1  0.91010134  0.75000000  0.55532899  1
  Ta  Ta34  1  0.87026216  0.61929504  0.14357073  1
  Ta  Ta35  1  0.14256350  0.51082812  0.24442661  1
  Ta  Ta36  1  0.56488118  0.75000000  0.05640798  1
  Ta  Ta37  1  0.87026216  0.88070496  0.14357073  1
  Ta  Ta38  1  0.14256350  0.98917188  0.24442661  1
  Ta  Ta39  1  0.43511882  0.25000000  0.94359202  1
  Ta  Ta40  1  0.08989866  0.25000000  0.44467101  1
  Ta  Ta41  1  0.06488118  0.75000000  0.44359202  1
  Ta  Ta42  1  0.85743650  0.01082812  0.75557339  1
  Ta  Ta43  1  0.62973784  0.11929504  0.64357073  1
  Ta  Ta44  1  0.12912252  0.87686278  0.84702102  1
  Ta  Ta45  1  0.93511882  0.25000000  0.55640798  1
  Ta  Ta46  1  0.35743650  0.01082812  0.74442661  1
  Ta  Ta47  1  0.87087748  0.37686278  0.15297898  1
  Ta  Ta48  1  0.37087748  0.37686278  0.34702102  1
  Ta  Ta49  1  0.12912252  0.62313722  0.84702102  1
  Ta  Ta50  1  0.87087748  0.12313722  0.15297898  1
  Ta  Ta51  1  0.10713745  0.25000000  0.05498956  1
  Ta  Ta52  1  0.64256350  0.51082812  0.25557339  1
  Ta  Ta53  1  0.60713745  0.25000000  0.44501044  1
  Ta  Ta54  1  0.12973784  0.38070496  0.85642927  1
  Ta  Ta55  1  0.37087748  0.12313722  0.34702102  1
  Ta  Ta56  1  0.64256350  0.98917188  0.25557339  1
  Ta  Ta57  1  0.37026216  0.88070496  0.35642927  1
  Ta  Ta58  1  0.58989866  0.25000000  0.05532899  1
  Ta  Ta59  1  0.62973784  0.38070496  0.64357073  1
  Ta  Ta60  1  0.58319373  0.75000000  0.43863372  1
  Ta  Ta61  1  0.35743650  0.48917188  0.74442661  1
  Ta  Ta62  1  0.62912252  0.87686278  0.65297898  1
  Ta  Ta63  1  0.85743650  0.48917188  0.75557339  1
  O  O64  1  0.71378494  0.60877137  0.20368286  1
  O  O65  1  0.98752883  0.83809803  0.49917612  1
  O  O66  1  0.17725618  0.34408811  0.39961250  1
  O  O67  1  0.85053940  0.25000000  0.01395110  1
  O  O68  1  0.90817854  0.25000000  0.17071812  1
  O  O69  1  0.41911502  0.40157899  0.69029879  1
  O  O70  1  0.14946060  0.75000000  0.98604890  1
  O  O71  1  0.65626656  0.65403915  0.10010589  1
  O  O72  1  0.46543616  0.37475750  0.57541152  1
  O  O73  1  0.70546342  0.09421219  0.20655109  1
  O  O74  1  0.48752883  0.83809803  0.00082388  1
  O  O75  1  0.34771474  0.00180805  0.37749928  1
  O  O76  1  0.79453658  0.59421219  0.70655109  1
  O  O77  1  0.04419173  0.14175676  0.08601564  1
  O  O78  1  0.91911502  0.09842101  0.80970121  1
  O  O79  1  0.84373344  0.34596085  0.60010589  1
  O  O80  1  0.45580827  0.64175676  0.58601564  1
  O  O81  1  0.15626656  0.65403915  0.39989411  1
  O  O82  1  0.58336098  0.08432921  0.30762418  1
  O  O83  1  0.01247117  0.33809803  0.50082388  1
  O  O84  1  0.58088498  0.90157899  0.30970121  1
  O  O85  1  0.21378494  0.89122863  0.29631714  1
  O  O86  1  0.28621506  0.39122863  0.79631714  1
  O  O87  1  0.67598164  0.25000000  0.91214213  1
  O  O88  1  0.67633155  0.25000000  0.51856850  1
  O  O89  1  0.84771474  0.49819195  0.12250072  1
  O  O90  1  0.08336098  0.41567079  0.19237582  1
  O  O91  1  0.34373344  0.15403915  0.89989411  1
  O  O92  1  0.82401836  0.75000000  0.41214213  1
  O  O93  1  0.09844690  0.01112582  0.72498320  1
  O  O94  1  0.44918259  0.75000000  0.36239136  1
  O  O95  1  0.48752883  0.66190197  0.00082388  1
  O  O96  1  0.96543616  0.37475750  0.92458848  1
  O  O97  1  0.59844690  0.01112582  0.77501680  1
  O  O98  1  0.96543616  0.12524250  0.92458848  1
  O  O99  1  0.09844690  0.48887418  0.72498320  1
  O  O100  1  0.71378494  0.89122863  0.20368286  1
  O  O101  1  0.90155310  0.51112582  0.27501680  1
  O  O102  1  0.82366845  0.75000000  0.01856850  1
  O  O103  1  0.84771474  0.00180805  0.12250072  1
  O  O104  1  0.91911502  0.40157899  0.80970121  1
  O  O105  1  0.82274382  0.65591189  0.60038750  1
  O  O106  1  0.20546342  0.40578781  0.29344891  1
  O  O107  1  0.08088498  0.59842101  0.19029879  1
  O  O108  1  0.08088498  0.90157899  0.19029879  1
  O  O109  1  0.84744209  0.25000000  0.41594455  1
  O  O110  1  0.46543616  0.12524250  0.57541152  1
  O  O111  1  0.40155310  0.98887418  0.22498320  1
  O  O112  1  0.29453658  0.59421219  0.79344891  1
  O  O113  1  0.91663902  0.91567079  0.80762418  1
  O  O114  1  0.78621506  0.39122863  0.70368286  1
  O  O115  1  0.32366845  0.75000000  0.48143150  1
  O  O116  1  0.17598164  0.25000000  0.58785787  1
  O  O117  1  0.34744209  0.25000000  0.08405545  1
  O  O118  1  0.41911502  0.09842101  0.69029879  1
  O  O119  1  0.08336098  0.08432921  0.19237582  1
  O  O120  1  0.58088498  0.59842101  0.30970121  1
  O  O121  1  0.32401836  0.75000000  0.08785787  1
  O  O122  1  0.64946060  0.75000000  0.51395110  1
  O  O123  1  0.84373344  0.15403915  0.60010589  1
  O  O124  1  0.41663902  0.58432921  0.69237582  1
  O  O125  1  0.15255791  0.75000000  0.58405545  1
  O  O126  1  0.94918259  0.75000000  0.13760864  1
  O  O127  1  0.51247117  0.16190197  0.99917612  1
  O  O128  1  0.91663902  0.58432921  0.80762418  1
  O  O129  1  0.05081741  0.25000000  0.86239136  1
  O  O130  1  0.59182146  0.75000000  0.67071812  1
  O  O131  1  0.58336098  0.41567079  0.30762418  1
  O  O132  1  0.53456384  0.87475750  0.42458848  1
  O  O133  1  0.40155310  0.51112582  0.22498320  1
  O  O134  1  0.35053940  0.25000000  0.48604890  1
  O  O135  1  0.95580827  0.85824324  0.91398436  1
  O  O136  1  0.95580827  0.64175676  0.91398436  1
  O  O137  1  0.67725618  0.34408811  0.10038750  1
  O  O138  1  0.90155310  0.98887418  0.27501680  1
  O  O139  1  0.32274382  0.84408811  0.89961250  1
  O  O140  1  0.70546342  0.40578781  0.20655109  1
  O  O141  1  0.28621506  0.10877137  0.79631714  1
  O  O142  1  0.21378494  0.60877137  0.29631714  1
  O  O143  1  0.79453658  0.90578781  0.70655109  1
  O  O144  1  0.40817854  0.25000000  0.32928188  1
  O  O145  1  0.41663902  0.91567079  0.69237582  1
  O  O146  1  0.01247117  0.16190197  0.50082388  1
  O  O147  1  0.29453658  0.90578781  0.79344891  1
  O  O148  1  0.51247117  0.33809803  0.99917612  1
  O  O149  1  0.03456384  0.62524250  0.07541152  1
  O  O150  1  0.82274382  0.84408811  0.60038750  1
  O  O151  1  0.15626656  0.84596085  0.39989411  1
  O  O152  1  0.32274382  0.65591189  0.89961250  1
  O  O153  1  0.09182146  0.75000000  0.82928188  1
  O  O154  1  0.98752883  0.66190197  0.49917612  1
  O  O155  1  0.67725618  0.15591189  0.10038750  1
  O  O156  1  0.04419173  0.35824324  0.08601564  1
  O  O157  1  0.65255791  0.75000000  0.91594455  1
  O  O158  1  0.34373344  0.34596085  0.89989411  1
  O  O159  1  0.17725618  0.15591189  0.39961250  1
  O  O160  1  0.65228526  0.50180805  0.62250072  1
  O  O161  1  0.55081741  0.25000000  0.63760864  1
  O  O162  1  0.65228526  0.99819195  0.62250072  1
  O  O163  1  0.15228526  0.99819195  0.87749928  1
  O  O164  1  0.34771474  0.49819195  0.37749928  1
  O  O165  1  0.15228526  0.50180805  0.87749928  1
  O  O166  1  0.03456384  0.87475750  0.07541152  1
  O  O167  1  0.54419173  0.35824324  0.41398436  1
  O  O168  1  0.20546342  0.09421219  0.29344891  1
  O  O169  1  0.78621506  0.10877137  0.70368286  1
  O  O170  1  0.45580827  0.85824324  0.58601564  1
  O  O171  1  0.17633155  0.25000000  0.98143150  1
  O  O172  1  0.65626656  0.84596085  0.10010589  1
  O  O173  1  0.54419173  0.14175676  0.41398436  1
  O  O174  1  0.59844690  0.48887418  0.77501680  1
  O  O175  1  0.53456384  0.62524250  0.42458848  1
