# generated using pymatgen
data_K5InO4
_symmetry_space_group_name_H-M   'P 1'
_cell_length_a   13.45967650
_cell_length_b   16.91453675
_cell_length_c   17.09771714
_cell_angle_alpha   114.14836029
_cell_angle_beta   112.97889494
_cell_angle_gamma   90.25729928
_symmetry_Int_Tables_number   1
_chemical_formula_structural   K5InO4
_chemical_formula_sum   'K80 In16 O64'
_cell_volume   3206.97890911
_cell_formula_units_Z   16
loop_
 _symmetry_equiv_pos_site_id
 _symmetry_equiv_pos_as_xyz
  1  'x, y, z'
loop_
 _atom_site_type_symbol
 _atom_site_label
 _atom_site_symmetry_multiplicity
 _atom_site_fract_x
 _atom_site_fract_y
 _atom_site_fract_z
 _atom_site_occupancy
  K  K0  1  0.51626001  0.87541269  0.97075586  1
  K  K1  1  0.88986046  0.89192122  0.72009268  1
  K  K2  1  0.47204180  0.05038628  0.61090699  1
  K  K3  1  0.22033370  0.30857175  0.44591813  1
  K  K4  1  0.26834560  0.86533274  0.54601826  1
  K  K5  1  0.41640099  0.74736853  0.25583061  1
  K  K6  1  0.21107568  0.48715682  0.78635102  1
  K  K7  1  0.48652578  0.88621106  0.16121213  1
  K  K8  1  0.31600858  0.94453697  0.85803366  1
  K  K9  1  0.58596708  0.54510612  0.35178772  1
  K  K10  1  0.89659855  0.99052738  0.23095315  1
  K  K11  1  0.82290442  0.48845141  0.40129895  1
  K  K12  1  0.27165316  0.18926709  0.54741296  1
  K  K13  1  0.72834684  0.81073291  0.45258704  1
  K  K14  1  0.71211082  0.01658780  0.60702521  1
  K  K15  1  0.10517473  0.21329150  0.88516210  1
  K  K16  1  0.41403292  0.45489388  0.64821228  1
  K  K17  1  0.17709558  0.51154859  0.59870105  1
  K  K18  1  0.58261899  0.35077494  0.33386638  1
  K  K19  1  0.25783435  0.67097944  0.02191318  1
  K  K20  1  0.83070311  0.73286833  0.89964351  1
  K  K21  1  0.96769688  0.56450652  0.62833058  1
  K  K22  1  0.11013954  0.10807878  0.27990732  1
  K  K23  1  0.45495199  0.87417094  0.74615478  1
  K  K24  1  0.78892432  0.51284318  0.21364898  1
  K  K25  1  0.96635967  0.38071323  0.75650316  1
  K  K26  1  0.59659289  0.66635516  0.87600047  1
  K  K27  1  0.72371114  0.28729656  0.64536343  1
  K  K28  1  0.68080103  0.76402098  0.71757147  1
  K  K29  1  0.13315619  0.75606685  0.70090054  1
  K  K30  1  0.07392802  0.86343720  0.34454562  1
  K  K31  1  0.65226017  0.76414967  0.10893900  1
  K  K32  1  0.27628886  0.71270344  0.35463657  1
  K  K33  1  0.73165440  0.13466726  0.45398174  1
  K  K34  1  0.00492946  0.60616946  0.84234940  1
  K  K35  1  0.25292546  0.84638272  0.99559800  1
  K  K36  1  0.58602673  0.63430453  0.22394879  1
  K  K37  1  0.00047764  0.91668546  0.52311490  1
  K  K38  1  0.52795820  0.94961372  0.38909301  1
  K  K39  1  0.70282063  0.97809382  0.78041998  1
  K  K40  1  0.31103384  0.52101158  0.21306371  1
  K  K41  1  0.10340145  0.00947262  0.76904685  1
  K  K42  1  0.89482527  0.78670850  0.11483790  1
  K  K43  1  0.29717937  0.02190618  0.21958002  1
  K  K44  1  0.00745669  0.60596659  0.03293542  1
  K  K45  1  0.99952236  0.08331454  0.47688510  1
  K  K46  1  0.17098234  0.27352499  0.71780064  1
  K  K47  1  0.16929689  0.26713167  0.10035649  1
  K  K48  1  0.40340711  0.33364484  0.12399953  1
  K  K49  1  0.92607198  0.13656280  0.65545438  1
  K  K50  1  0.77966630  0.69142825  0.55408187  1
  K  K51  1  0.34773983  0.23585033  0.89106100  1
  K  K52  1  0.99099742  0.19837351  0.14585164  1
  K  K53  1  0.31919897  0.23597902  0.28242853  1
  K  K54  1  0.86684381  0.24393315  0.29909946  1
  K  K55  1  0.54504801  0.12582906  0.25384522  1
  K  K56  1  0.28788918  0.98341220  0.39297479  1
  K  K57  1  0.58359901  0.25263147  0.74416939  1
  K  K58  1  0.82901766  0.72647501  0.28219936  1
  K  K59  1  0.74216565  0.32902056  0.97808682  1
  K  K60  1  0.79129595  0.36076343  0.52000597  1
  K  K61  1  0.46550752  0.57370262  0.97033332  1
  K  K62  1  0.51347422  0.11378894  0.83878787  1
  K  K63  1  0.03230312  0.43549348  0.37166942  1
  K  K64  1  0.00900258  0.80162649  0.85414836  1
  K  K65  1  0.02144733  0.94697943  0.05930060  1
  K  K66  1  0.99507054  0.39383054  0.15765060  1
  K  K67  1  0.51791740  0.40873694  0.50673096  1
  K  K68  1  0.48208260  0.59126306  0.49326904  1
  K  K69  1  0.97855267  0.05302057  0.94069940  1
  K  K70  1  0.20870405  0.63923657  0.47999403  1
  K  K71  1  0.68896616  0.47898842  0.78693629  1
  K  K72  1  0.41397327  0.36569547  0.77605121  1
  K  K73  1  0.48373999  0.12458731  0.02924414  1
  K  K74  1  0.74707454  0.15361728  0.00440200  1
  K  K75  1  0.99254331  0.39403341  0.96706458  1
  K  K76  1  0.53449248  0.42629738  0.02966668  1
  K  K77  1  0.68399142  0.05546303  0.14196634  1
  K  K78  1  0.03364033  0.61928677  0.24349684  1
  K  K79  1  0.41738101  0.64922506  0.66613362  1
  In  In80  1  0.25259163  0.07320627  0.66642682  1
  In  In81  1  0.96930074  0.70128935  0.47679122  1
  In  In82  1  0.32825178  0.68808903  0.84165818  1
  In  In83  1  0.51412035  0.79821812  0.51581728  1
  In  In84  1  0.26032944  0.43974189  0.34620916  1
  In  In85  1  0.03069926  0.29871065  0.52320878  1
  In  In86  1  0.73967056  0.56025811  0.65379084  1
  In  In87  1  0.74740837  0.92679373  0.33357318  1
  In  In88  1  0.75523077  0.94313960  0.97576237  1
  In  In89  1  0.15583234  0.82133623  0.16116213  1
  In  In90  1  0.84416766  0.17866377  0.83883787  1
  In  In91  1  0.74668361  0.53989343  0.01288450  1
  In  In92  1  0.25331639  0.46010657  0.98711550  1
  In  In93  1  0.48587965  0.20178188  0.48418272  1
  In  In94  1  0.67174822  0.31191097  0.15834182  1
  In  In95  1  0.24476923  0.05686040  0.02423763  1
  O  O96  1  0.11292815  0.50584376  0.92037187  1
  O  O97  1  0.88707185  0.49415624  0.07962813  1
  O  O98  1  0.31928577  0.14997307  0.38969480  1
  O  O99  1  0.35846003  0.77929276  0.79422565  1
  O  O100  1  0.49887194  0.68560521  0.39159570  1
  O  O101  1  0.60549134  0.58904384  0.68944526  1
  O  O102  1  0.30760827  0.48831785  0.49520860  1
  O  O103  1  0.32155927  0.86179671  0.19557654  1
  O  O104  1  0.67844073  0.13820329  0.80442346  1
  O  O105  1  0.09661767  0.93513084  0.22376330  1
  O  O106  1  0.81989443  0.46794716  0.69555202  1
  O  O107  1  0.90338233  0.06486916  0.77623670  1
  O  O108  1  0.80682384  0.99061092  0.48308306  1
  O  O109  1  0.50112806  0.31439479  0.60840430  1
  O  O110  1  0.42591882  0.88504588  0.46851799  1
  O  O111  1  0.38310972  0.57286661  0.78286198  1
  O  O112  1  0.27611530  0.15639256  0.98842849  1
  O  O113  1  0.57498807  0.25587123  0.00946843  1
  O  O114  1  0.64153997  0.22070724  0.20577435  1
  O  O115  1  0.05700579  0.74539399  0.41752905  1
  O  O116  1  0.72388470  0.84360744  0.01157151  1
  O  O117  1  0.14773656  0.32202859  0.28067658  1
  O  O118  1  0.87071695  0.87927152  0.29115566  1
  O  O119  1  0.42501193  0.74412877  0.99053157  1
  O  O120  1  0.19317616  0.00938908  0.51691694  1
  O  O121  1  0.03497304  0.18922536  0.40552095  1
  O  O122  1  0.85226344  0.67797141  0.71932342  1
  O  O123  1  0.15771498  0.65505445  0.79990733  1
  O  O124  1  0.06168427  0.76741082  0.01056274  1
  O  O125  1  0.32145106  0.98708580  0.72518293  1
  O  O126  1  0.83177226  0.89895572  0.88246303  1
  O  O127  1  0.37675455  0.57087873  0.10028828  1
  O  O128  1  0.16822774  0.10104428  0.11753697  1
  O  O129  1  0.12928305  0.12072848  0.70884434  1
  O  O130  1  0.86333249  0.05574922  0.10218959  1
  O  O131  1  0.62324545  0.42912127  0.89971172  1
  O  O132  1  0.18010557  0.53205284  0.30444798  1
  O  O133  1  0.84228502  0.34494555  0.20009267  1
  O  O134  1  0.87245829  0.26802586  0.78990154  1
  O  O135  1  0.13666751  0.94425078  0.89781041  1
  O  O136  1  0.93831573  0.23258918  0.98943726  1
  O  O137  1  0.21125715  0.37493830  0.03553441  1
  O  O138  1  0.67854894  0.01291420  0.27481707  1
  O  O139  1  0.78874285  0.62506170  0.96446559  1
  O  O140  1  0.94299421  0.25460601  0.58247095  1
  O  O141  1  0.96502696  0.81077464  0.59447905  1
  O  O142  1  0.60865019  0.99210426  0.92559791  1
  O  O143  1  0.68071423  0.85002693  0.61030520  1
  O  O144  1  0.39134981  0.00789574  0.07440209  1
  O  O145  1  0.04167268  0.60706546  0.52025612  1
  O  O146  1  0.43095041  0.75109451  0.57694405  1
  O  O147  1  0.80069785  0.64509707  0.38173904  1
  O  O148  1  0.69239173  0.51168215  0.50479140  1
  O  O149  1  0.39450866  0.41095616  0.31055474  1
  O  O150  1  0.12754171  0.73197414  0.21009846  1
  O  O151  1  0.56904959  0.24890549  0.42305595  1
  O  O152  1  0.32075322  0.39661920  0.89002687  1
  O  O153  1  0.67924678  0.60338080  0.10997313  1
  O  O154  1  0.57408118  0.11495412  0.53148201  1
  O  O155  1  0.37664772  0.18334850  0.71965883  1
  O  O156  1  0.95832732  0.39293454  0.47974388  1
  O  O157  1  0.62335228  0.81665150  0.28034117  1
  O  O158  1  0.61689028  0.42713339  0.21713802  1
  O  O159  1  0.19930215  0.35490293  0.61826096  1
