# generated using pymatgen
data_Gd3NCl6
_symmetry_space_group_name_H-M   'P 1'
_cell_length_a   7.15926438
_cell_length_b   8.20857706
_cell_length_c   9.77551417
_cell_angle_alpha   75.31442340
_cell_angle_beta   70.93682739
_cell_angle_gamma   65.28075341
_symmetry_Int_Tables_number   1
_chemical_formula_structural   Gd3NCl6
_chemical_formula_sum   'Gd6 N2 Cl12'
_cell_volume   488.62588318
_cell_formula_units_Z   2
loop_
 _symmetry_equiv_pos_site_id
 _symmetry_equiv_pos_as_xyz
  1  'x, y, z'
loop_
 _atom_site_type_symbol
 _atom_site_label
 _atom_site_symmetry_multiplicity
 _atom_site_fract_x
 _atom_site_fract_y
 _atom_site_fract_z
 _atom_site_occupancy
  Gd  Gd0  1  0.58840134  0.08452727  0.68758097  1
  Gd  Gd1  1  0.72033167  0.42790782  0.77979197  1
  Gd  Gd2  1  0.25891948  0.58341812  0.62622048  1
  Gd  Gd3  1  0.27966833  0.57209218  0.22020803  1
  Gd  Gd4  1  0.41159866  0.91547273  0.31241903  1
  Gd  Gd5  1  0.74108052  0.41658188  0.37377952  1
  N  N6  1  0.40803527  0.63285654  0.37673732  1
  N  N7  1  0.59196473  0.36714346  0.62326268  1
  Cl  Cl8  1  0.30120002  0.58342891  0.91014089  1
  Cl  Cl9  1  0.28887651  0.89815590  0.08530416  1
  Cl  Cl10  1  0.00000000  0.00000000  0.50000000  1
  Cl  Cl11  1  0.82463134  0.71803614  0.79764044  1
  Cl  Cl12  1  0.16399328  0.26015710  0.79161089  1
  Cl  Cl13  1  0.71112349  0.10184410  0.91469584  1
  Cl  Cl14  1  0.53142027  0.17734531  0.39514902  1
  Cl  Cl15  1  0.17536866  0.28196386  0.20235956  1
  Cl  Cl16  1  0.46857973  0.82265469  0.60485098  1
  Cl  Cl17  1  0.69879998  0.41657109  0.08985911  1
  Cl  Cl18  1  0.83600672  0.73984290  0.20838911  1
  Cl  Cl19  1  0.00000000  0.50000000  0.50000000  1
