# generated using pymatgen
data_Ho(BO2)3
_symmetry_space_group_name_H-M   'P 1'
_cell_length_a   7.43195580
_cell_length_b   12.29583076
_cell_length_c   16.00669759
_cell_angle_alpha   90.00000000
_cell_angle_beta   90.00000000
_cell_angle_gamma   90.00000000
_symmetry_Int_Tables_number   1
_chemical_formula_structural   Ho(BO2)3
_chemical_formula_sum   'Ho16 B48 O96'
_cell_volume   1462.72517136
_cell_formula_units_Z   16
loop_
 _symmetry_equiv_pos_site_id
 _symmetry_equiv_pos_as_xyz
  1  'x, y, z'
loop_
 _atom_site_type_symbol
 _atom_site_label
 _atom_site_symmetry_multiplicity
 _atom_site_fract_x
 _atom_site_fract_y
 _atom_site_fract_z
 _atom_site_occupancy
  Ho  Ho0  1  0.25000000  0.93448087  0.17216539  1
  Ho  Ho1  1  0.75000000  0.76731257  0.62790865  1
  Ho  Ho2  1  0.75000000  0.00893745  0.12099247  1
  Ho  Ho3  1  0.25000000  0.58896961  0.04827574  1
  Ho  Ho4  1  0.75000000  0.41103039  0.95172426  1
  Ho  Ho5  1  0.25000000  0.91103039  0.54827574  1
  Ho  Ho6  1  0.25000000  0.50893745  0.37900753  1
  Ho  Ho7  1  0.75000000  0.73268743  0.12790865  1
  Ho  Ho8  1  0.75000000  0.06551913  0.82783461  1
  Ho  Ho9  1  0.25000000  0.26731257  0.87209135  1
  Ho  Ho10  1  0.75000000  0.08896961  0.45172426  1
  Ho  Ho11  1  0.75000000  0.49106255  0.62099247  1
  Ho  Ho12  1  0.25000000  0.23268743  0.37209135  1
  Ho  Ho13  1  0.25000000  0.56551913  0.67216539  1
  Ho  Ho14  1  0.75000000  0.43448087  0.32783461  1
  Ho  Ho15  1  0.25000000  0.99106255  0.87900753  1
  B  B16  1  0.56870957  0.12869580  0.25800512  1
  B  B17  1  0.57770379  0.48306432  0.15259825  1
  B  B18  1  0.42229621  0.98306432  0.34740175  1
  B  B19  1  0.42229621  0.51693568  0.84740175  1
  B  B20  1  0.42339543  0.14305220  0.10968135  1
  B  B21  1  0.07036040  0.31461099  0.21775698  1
  B  B22  1  0.92963960  0.81461099  0.28224302  1
  B  B23  1  0.57036040  0.68538901  0.78224302  1
  B  B24  1  0.43980118  0.82236526  0.03194236  1
  B  B25  1  0.56019882  0.32236526  0.46805764  1
  B  B26  1  0.06019882  0.82236526  0.03194236  1
  B  B27  1  0.92229621  0.48306432  0.15259825  1
  B  B28  1  0.92339543  0.64305220  0.39031865  1
  B  B29  1  0.92229621  0.01693568  0.65259825  1
  B  B30  1  0.93980118  0.32236526  0.46805764  1
  B  B31  1  0.42339543  0.35694780  0.60968135  1
  B  B32  1  0.92650400  0.84601805  0.44307847  1
  B  B33  1  0.57660457  0.85694780  0.89031865  1
  B  B34  1  0.57770379  0.01693568  0.65259825  1
  B  B35  1  0.42963960  0.31461099  0.21775698  1
  B  B36  1  0.06870957  0.87130420  0.74199488  1
  B  B37  1  0.93980118  0.17763474  0.96805764  1
  B  B38  1  0.56870957  0.37130420  0.75800512  1
  B  B39  1  0.93129043  0.37130420  0.75800512  1
  B  B40  1  0.07036040  0.18538901  0.71775698  1
  B  B41  1  0.92650400  0.65398195  0.94307847  1
  B  B42  1  0.57660457  0.64305220  0.39031865  1
  B  B43  1  0.42650400  0.15398195  0.55692153  1
  B  B44  1  0.07349600  0.34601805  0.05692153  1
  B  B45  1  0.93129043  0.12869580  0.25800512  1
  B  B46  1  0.42650400  0.34601805  0.05692153  1
  B  B47  1  0.92339543  0.85694780  0.89031865  1
  B  B48  1  0.07660457  0.14305220  0.10968135  1
  B  B49  1  0.42963960  0.18538901  0.71775698  1
  B  B50  1  0.92963960  0.68538901  0.78224302  1
  B  B51  1  0.07660457  0.35694780  0.60968135  1
  B  B52  1  0.57349600  0.65398195  0.94307847  1
  B  B53  1  0.43980118  0.67763474  0.53194236  1
  B  B54  1  0.57349600  0.84601805  0.44307847  1
  B  B55  1  0.06870957  0.62869580  0.24199488  1
  B  B56  1  0.43129043  0.87130420  0.74199488  1
  B  B57  1  0.56019882  0.17763474  0.96805764  1
  B  B58  1  0.43129043  0.62869580  0.24199488  1
  B  B59  1  0.07770379  0.98306432  0.34740175  1
  B  B60  1  0.06019882  0.67763474  0.53194236  1
  B  B61  1  0.57036040  0.81461099  0.28224302  1
  B  B62  1  0.07770379  0.51693568  0.84740175  1
  B  B63  1  0.07349600  0.15398195  0.55692153  1
  O  O64  1  0.56578271  0.37730774  0.54856352  1
  O  O65  1  0.52128869  0.73035262  0.22313891  1
  O  O66  1  0.75000000  0.64339239  0.75464504  1
  O  O67  1  0.43470360  0.60076596  0.78172209  1
  O  O68  1  0.56529640  0.10076596  0.71827791  1
  O  O69  1  0.07412879  0.23454570  0.62906810  1
  O  O70  1  0.06577234  0.56486198  0.16391860  1
  O  O71  1  0.46554273  0.07709058  0.18525658  1
  O  O72  1  0.93470360  0.10076596  0.71827791  1
  O  O73  1  0.02128869  0.23035262  0.27686109  1
  O  O74  1  0.02128869  0.26964738  0.77686109  1
  O  O75  1  0.94028823  0.06857899  0.56940927  1
  O  O76  1  0.93421729  0.12269226  0.04856352  1
  O  O77  1  0.43422766  0.93513802  0.66391860  1
  O  O78  1  0.75000000  0.85660761  0.25464504  1
  O  O79  1  0.97620498  0.79050010  0.52190047  1
  O  O80  1  0.06578271  0.87730774  0.95143648  1
  O  O81  1  0.55971177  0.43142101  0.06940927  1
  O  O82  1  0.42587121  0.23454570  0.62906810  1
  O  O83  1  0.25000000  0.39900688  0.04873520  1
  O  O84  1  0.03445727  0.07709058  0.18525658  1
  O  O85  1  0.75000000  0.54156792  0.15876431  1
  O  O86  1  0.52379502  0.79050010  0.52190047  1
  O  O87  1  0.92587121  0.76545430  0.37093190  1
  O  O88  1  0.25000000  0.04156792  0.34123569  1
  O  O89  1  0.43470360  0.89923404  0.28172209  1
  O  O90  1  0.56577234  0.06486198  0.33608140  1
  O  O91  1  0.04079070  0.37821544  0.40346918  1
  O  O92  1  0.42587121  0.26545430  0.12906810  1
  O  O93  1  0.95920930  0.62178456  0.59653082  1
  O  O94  1  0.93470360  0.39923404  0.21827791  1
  O  O95  1  0.75000000  0.60524027  0.42214845  1
  O  O96  1  0.75000000  0.30211603  0.43442014  1
  O  O97  1  0.45920930  0.37821544  0.40346918  1
  O  O98  1  0.04079070  0.12178456  0.90346918  1
  O  O99  1  0.43421729  0.87730774  0.95143648  1
  O  O100  1  0.25000000  0.10099312  0.54873520  1
  O  O101  1  0.25000000  0.86057051  0.77599242  1
  O  O102  1  0.02379502  0.29050010  0.97809953  1
  O  O103  1  0.75000000  0.19788397  0.93442014  1
  O  O104  1  0.92587121  0.73454570  0.87093190  1
  O  O105  1  0.47620498  0.20949990  0.47809953  1
  O  O106  1  0.45920930  0.12178456  0.90346918  1
  O  O107  1  0.44028823  0.93142101  0.43059073  1
  O  O108  1  0.55971177  0.06857899  0.56940927  1
  O  O109  1  0.05971177  0.93142101  0.43059073  1
  O  O110  1  0.93421729  0.37730774  0.54856352  1
  O  O111  1  0.52379502  0.70949990  0.02190047  1
  O  O112  1  0.25000000  0.10524027  0.07785155  1
  O  O113  1  0.06577234  0.93513802  0.66391860  1
  O  O114  1  0.57412879  0.73454570  0.87093190  1
  O  O115  1  0.75000000  0.36057051  0.72400758  1
  O  O116  1  0.44028823  0.56857899  0.93059073  1
  O  O117  1  0.56529640  0.39923404  0.21827791  1
  O  O118  1  0.56578271  0.12269226  0.04856352  1
  O  O119  1  0.75000000  0.13942949  0.22400758  1
  O  O120  1  0.96554273  0.92290942  0.81474342  1
  O  O121  1  0.25000000  0.39475973  0.57785155  1
  O  O122  1  0.25000000  0.63942949  0.27599242  1
  O  O123  1  0.75000000  0.89900688  0.45126480  1
  O  O124  1  0.25000000  0.80211603  0.06557986  1
  O  O125  1  0.07412879  0.26545430  0.12906810  1
  O  O126  1  0.53445727  0.57709058  0.31474342  1
  O  O127  1  0.94028823  0.43142101  0.06940927  1
  O  O128  1  0.75000000  0.89475973  0.92214845  1
  O  O129  1  0.05971177  0.56857899  0.93059073  1
  O  O130  1  0.97871131  0.73035262  0.22313891  1
  O  O131  1  0.03445727  0.42290942  0.68525658  1
  O  O132  1  0.43422766  0.56486198  0.16391860  1
  O  O133  1  0.52128869  0.76964738  0.72313891  1
  O  O134  1  0.56577234  0.43513802  0.83608140  1
  O  O135  1  0.25000000  0.35660761  0.24535496  1
  O  O136  1  0.96554273  0.57709058  0.31474342  1
  O  O137  1  0.97620498  0.70949990  0.02190047  1
  O  O138  1  0.02379502  0.20949990  0.47809953  1
  O  O139  1  0.06529640  0.60076596  0.78172209  1
  O  O140  1  0.25000000  0.45843208  0.84123569  1
  O  O141  1  0.95920930  0.87821544  0.09653082  1
  O  O142  1  0.75000000  0.95843208  0.65876431  1
  O  O143  1  0.97871131  0.76964738  0.72313891  1
  O  O144  1  0.93422766  0.06486198  0.33608140  1
  O  O145  1  0.06578271  0.62269226  0.45143648  1
  O  O146  1  0.54079070  0.87821544  0.09653082  1
  O  O147  1  0.46554273  0.42290942  0.68525658  1
  O  O148  1  0.93422766  0.43513802  0.83608140  1
  O  O149  1  0.54079070  0.62178456  0.59653082  1
  O  O150  1  0.25000000  0.14339239  0.74535496  1
  O  O151  1  0.53445727  0.92290942  0.81474342  1
  O  O152  1  0.25000000  0.69788397  0.56557986  1
  O  O153  1  0.06529640  0.89923404  0.28172209  1
  O  O154  1  0.47871131  0.23035262  0.27686109  1
  O  O155  1  0.43421729  0.62269226  0.45143648  1
  O  O156  1  0.75000000  0.60099312  0.95126480  1
  O  O157  1  0.57412879  0.76545430  0.37093190  1
  O  O158  1  0.47620498  0.29050010  0.97809953  1
  O  O159  1  0.47871131  0.26964738  0.77686109  1
