# generated using pymatgen
data_UTl2(MoO5)2
_symmetry_space_group_name_H-M   'P 1'
_cell_length_a   11.16030531
_cell_length_b   14.24364869
_cell_length_c   14.23821306
_cell_angle_alpha   90.00000000
_cell_angle_beta   90.00000000
_cell_angle_gamma   90.00000000
_symmetry_Int_Tables_number   1
_chemical_formula_structural   UTl2(MoO5)2
_chemical_formula_sum   'U8 Tl16 Mo16 O80'
_cell_volume   2263.35572769
_cell_formula_units_Z   8
loop_
 _symmetry_equiv_pos_site_id
 _symmetry_equiv_pos_as_xyz
  1  'x, y, z'
loop_
 _atom_site_type_symbol
 _atom_site_label
 _atom_site_symmetry_multiplicity
 _atom_site_fract_x
 _atom_site_fract_y
 _atom_site_fract_z
 _atom_site_occupancy
  U  U0  1  0.16289613  0.72838770  0.13058916  1
  U  U1  1  0.65586057  0.76212305  0.98366708  1
  U  U2  1  0.15586057  0.23787695  0.98366708  1
  U  U3  1  0.83710387  0.27161230  0.63058916  1
  U  U4  1  0.33710387  0.72838770  0.63058916  1
  U  U5  1  0.84413943  0.76212305  0.48366708  1
  U  U6  1  0.66289613  0.27161230  0.13058916  1
  U  U7  1  0.34413943  0.23787695  0.48366708  1
  Tl  Tl8  1  0.74803901  0.91621395  0.24509600  1
  Tl  Tl9  1  0.27571499  0.55457318  0.90496830  1
  Tl  Tl10  1  0.75196099  0.91621395  0.74509600  1
  Tl  Tl11  1  0.25196099  0.08378605  0.74509600  1
  Tl  Tl12  1  0.00816447  0.57244720  0.67426431  1
  Tl  Tl13  1  0.46541364  0.94800948  0.46164856  1
  Tl  Tl14  1  0.99183553  0.42755280  0.17426431  1
  Tl  Tl15  1  0.53458636  0.05199052  0.96164856  1
  Tl  Tl16  1  0.72428501  0.44542682  0.40496830  1
  Tl  Tl17  1  0.24803901  0.08378605  0.24509600  1
  Tl  Tl18  1  0.22428501  0.55457318  0.40496830  1
  Tl  Tl19  1  0.77571499  0.44542682  0.90496830  1
  Tl  Tl20  1  0.50816447  0.42755280  0.67426431  1
  Tl  Tl21  1  0.49183553  0.57244720  0.17426431  1
  Tl  Tl22  1  0.03458636  0.94800948  0.96164856  1
  Tl  Tl23  1  0.96541364  0.05199052  0.46164856  1
  Mo  Mo24  1  0.33585341  0.33841092  0.21547837  1
  Mo  Mo25  1  0.43944341  0.88473555  0.16645235  1
  Mo  Mo26  1  0.83585341  0.66158908  0.21547837  1
  Mo  Mo27  1  0.94881537  0.66264509  0.90749027  1
  Mo  Mo28  1  0.34850288  0.81769370  0.88898308  1
  Mo  Mo29  1  0.66414659  0.66158908  0.71547837  1
  Mo  Mo30  1  0.44881537  0.33735491  0.90749027  1
  Mo  Mo31  1  0.05118463  0.33735491  0.40749027  1
  Mo  Mo32  1  0.16414659  0.33841092  0.71547837  1
  Mo  Mo33  1  0.65149712  0.18230630  0.38898308  1
  Mo  Mo34  1  0.06055659  0.88473555  0.66645235  1
  Mo  Mo35  1  0.55118463  0.66264509  0.40749027  1
  Mo  Mo36  1  0.56055659  0.11526445  0.66645235  1
  Mo  Mo37  1  0.84850288  0.18230630  0.88898308  1
  Mo  Mo38  1  0.93944341  0.11526445  0.16645235  1
  Mo  Mo39  1  0.15149712  0.81769370  0.38898308  1
  O  O40  1  0.22875026  0.14956479  0.46038029  1
  O  O41  1  0.04069606  0.32759650  0.00250902  1
  O  O42  1  0.01184032  0.94048758  0.77126926  1
  O  O43  1  0.73340851  0.55288210  0.74031443  1
  O  O44  1  0.76659149  0.55288210  0.24031443  1
  O  O45  1  0.01503371  0.36196816  0.67063305  1
  O  O46  1  0.49023322  0.55188007  0.37253805  1
  O  O47  1  0.95930394  0.67240350  0.50250902  1
  O  O48  1  0.21684861  0.77470817  0.49613887  1
  O  O49  1  0.72875026  0.85043521  0.46038029  1
  O  O50  1  0.85625952  0.03241834  0.10157191  1
  O  O51  1  0.84482202  0.27607558  0.80139238  1
  O  O52  1  0.35625952  0.96758166  0.10157191  1
  O  O53  1  0.78315139  0.22529183  0.99613887  1
  O  O54  1  0.24957117  0.27464706  0.12936372  1
  O  O55  1  0.92527103  0.85943477  0.59744617  1
  O  O56  1  0.28315139  0.77470817  0.99613887  1
  O  O57  1  0.26659149  0.44711790  0.24031443  1
  O  O58  1  0.79947070  0.64035417  0.95675996  1
  O  O59  1  0.70052930  0.64035417  0.45675996  1
  O  O60  1  0.00976678  0.55188007  0.87253805  1
  O  O61  1  0.26469849  0.91540843  0.85193245  1
  O  O62  1  0.54069606  0.67240350  0.00250902  1
  O  O63  1  0.20052930  0.35964583  0.45675996  1
  O  O64  1  0.15517798  0.72392442  0.30139238  1
  O  O65  1  0.06583837  0.27060397  0.30410055  1
  O  O66  1  0.71684861  0.22529183  0.49613887  1
  O  O67  1  0.72929376  0.38763305  0.11387590  1
  O  O68  1  0.45930394  0.32759650  0.50250902  1
  O  O69  1  0.42527103  0.14056523  0.59744617  1
  O  O70  1  0.50976678  0.44811993  0.87253805  1
  O  O71  1  0.34482202  0.72392442  0.80139238  1
  O  O72  1  0.14374048  0.96758166  0.60157191  1
  O  O73  1  0.40643149  0.84352610  0.64507179  1
  O  O74  1  0.64374048  0.03241834  0.60157191  1
  O  O75  1  0.51503371  0.63803184  0.67063305  1
  O  O76  1  0.99775320  0.85562589  0.41099930  1
  O  O77  1  0.45217614  0.71989344  0.49177462  1
  O  O78  1  0.29947070  0.35964583  0.95675996  1
  O  O79  1  0.65396362  0.21930999  0.68635070  1
  O  O80  1  0.22929376  0.61236695  0.11387590  1
  O  O81  1  0.15342412  0.26737944  0.82022010  1
  O  O82  1  0.77070624  0.38763305  0.61387590  1
  O  O83  1  0.51184032  0.05951242  0.77126926  1
  O  O84  1  0.99023322  0.44811993  0.37253805  1
  O  O85  1  0.98815968  0.05951242  0.27126926  1
  O  O86  1  0.75042883  0.72535294  0.62936372  1
  O  O87  1  0.77124974  0.85043521  0.96038029  1
  O  O88  1  0.74957117  0.72535294  0.12936372  1
  O  O89  1  0.27124974  0.14956479  0.96038029  1
  O  O90  1  0.98496629  0.63803184  0.17063305  1
  O  O91  1  0.50224680  0.85562589  0.91099930  1
  O  O92  1  0.54782386  0.28010656  0.99177462  1
  O  O93  1  0.76469849  0.08459157  0.85193245  1
  O  O94  1  0.04782386  0.71989344  0.99177462  1
  O  O95  1  0.09356851  0.84352610  0.14507179  1
  O  O96  1  0.56583837  0.72939603  0.30410055  1
  O  O97  1  0.84603638  0.21930999  0.18635070  1
  O  O98  1  0.43416163  0.27060397  0.80410055  1
  O  O99  1  0.57472897  0.85943477  0.09744617  1
  O  O100  1  0.84657588  0.73262056  0.32022010  1
  O  O101  1  0.23530151  0.91540843  0.35193245  1
  O  O102  1  0.48815968  0.94048758  0.27126926  1
  O  O103  1  0.48496629  0.36196816  0.17063305  1
  O  O104  1  0.27070624  0.61236695  0.61387590  1
  O  O105  1  0.65342412  0.73262056  0.82022010  1
  O  O106  1  0.34657588  0.26737944  0.32022010  1
  O  O107  1  0.23340851  0.44711790  0.74031443  1
  O  O108  1  0.95217614  0.28010656  0.49177462  1
  O  O109  1  0.34603638  0.78069001  0.18635070  1
  O  O110  1  0.07472897  0.14056523  0.09744617  1
  O  O111  1  0.73530151  0.08459157  0.35193245  1
  O  O112  1  0.65517798  0.27607558  0.30139238  1
  O  O113  1  0.59356851  0.15647390  0.14507179  1
  O  O114  1  0.25042883  0.27464706  0.62936372  1
  O  O115  1  0.15396362  0.78069001  0.68635070  1
  O  O116  1  0.90643149  0.15647390  0.64507179  1
  O  O117  1  0.49775320  0.14437411  0.41099930  1
  O  O118  1  0.93416163  0.72939603  0.80410055  1
  O  O119  1  0.00224680  0.14437411  0.91099930  1
