# generated using pymatgen
data_Nb6InCl15
_symmetry_space_group_name_H-M   'P 1'
_cell_length_a   9.45601356
_cell_length_b   13.64630026
_cell_length_c   18.16375314
_cell_angle_alpha   90.00000000
_cell_angle_beta   90.00000000
_cell_angle_gamma   90.00000000
_symmetry_Int_Tables_number   1
_chemical_formula_structural   Nb6InCl15
_chemical_formula_sum   'Nb24 In4 Cl60'
_cell_volume   2343.84344518
_cell_formula_units_Z   4
loop_
 _symmetry_equiv_pos_site_id
 _symmetry_equiv_pos_as_xyz
  1  'x, y, z'
loop_
 _atom_site_type_symbol
 _atom_site_label
 _atom_site_symmetry_multiplicity
 _atom_site_fract_x
 _atom_site_fract_y
 _atom_site_fract_z
 _atom_site_occupancy
  Nb  Nb0  1  0.64726401  0.39113242  0.97086038  1
  Nb  Nb1  1  0.61765594  0.00000000  0.75000000  1
  Nb  Nb2  1  0.64726401  0.60886758  0.97086038  1
  Nb  Nb3  1  0.83328153  0.10944613  0.83221670  1
  Nb  Nb4  1  0.83328153  0.89055387  0.83221670  1
  Nb  Nb5  1  0.35273599  0.60886758  0.47086038  1
  Nb  Nb6  1  0.83328153  0.89055387  0.66778330  1
  Nb  Nb7  1  0.57985148  0.50000000  0.39408647  1
  Nb  Nb8  1  0.05067620  0.00000000  0.75000000  1
  Nb  Nb9  1  0.83328153  0.10944613  0.66778330  1
  Nb  Nb10  1  0.16671847  0.10944613  0.33221670  1
  Nb  Nb11  1  0.64726401  0.39113242  0.52913962  1
  Nb  Nb12  1  0.42014852  0.50000000  0.89408647  1
  Nb  Nb13  1  0.64726401  0.60886758  0.52913962  1
  Nb  Nb14  1  0.16671847  0.89055387  0.33221670  1
  Nb  Nb15  1  0.35273599  0.39113242  0.02913962  1
  Nb  Nb16  1  0.57985148  0.50000000  0.10591353  1
  Nb  Nb17  1  0.38234406  0.00000000  0.25000000  1
  Nb  Nb18  1  0.35273599  0.39113242  0.47086038  1
  Nb  Nb19  1  0.16671847  0.10944613  0.16778330  1
  Nb  Nb20  1  0.16671847  0.89055387  0.16778330  1
  Nb  Nb21  1  0.35273599  0.60886758  0.02913962  1
  Nb  Nb22  1  0.94932380  0.00000000  0.25000000  1
  Nb  Nb23  1  0.42014852  0.50000000  0.60591353  1
  In  In24  1  0.31763305  0.25491263  0.75000000  1
  In  In25  1  0.68236695  0.74508737  0.25000000  1
  In  In26  1  0.68236695  0.25491263  0.25000000  1
  In  In27  1  0.31763305  0.74508737  0.75000000  1
  Cl  Cl28  1  0.23230042  0.37389487  0.59252453  1
  Cl  Cl29  1  0.76769958  0.37389487  0.09252453  1
  Cl  Cl30  1  0.15537245  0.74657454  0.25000000  1
  Cl  Cl31  1  0.84462755  0.74657454  0.75000000  1
  Cl  Cl32  1  0.83414584  0.74965689  0.56465502  1
  Cl  Cl33  1  0.84462755  0.25342546  0.75000000  1
  Cl  Cl34  1  0.57364515  0.87564071  0.65433639  1
  Cl  Cl35  1  0.50000000  0.75249891  0.50000000  1
  Cl  Cl36  1  0.84199205  0.50000000  0.93087622  1
  Cl  Cl37  1  0.50000000  0.24750109  0.00000000  1
  Cl  Cl38  1  0.09345178  0.87527665  0.84786425  1
  Cl  Cl39  1  0.09345178  0.12472335  0.65213575  1
  Cl  Cl40  1  0.15800795  0.50000000  0.43087622  1
  Cl  Cl41  1  0.31338180  0.50000000  0.75000000  1
  Cl  Cl42  1  0.90654822  0.12472335  0.15213575  1
  Cl  Cl43  1  0.09345178  0.12472335  0.84786425  1
  Cl  Cl44  1  0.09345178  0.87527665  0.65213575  1
  Cl  Cl45  1  0.76769958  0.62610513  0.09252453  1
  Cl  Cl46  1  0.84199205  0.50000000  0.56912378  1
  Cl  Cl47  1  0.16585416  0.74965689  0.43534498  1
  Cl  Cl48  1  0.50000000  0.24750109  0.50000000  1
  Cl  Cl49  1  0.57364515  0.87564071  0.84566361  1
  Cl  Cl50  1  0.66710782  0.00000000  0.25000000  1
  Cl  Cl51  1  0.83414584  0.74965689  0.93534498  1
  Cl  Cl52  1  0.50000000  0.75249891  0.00000000  1
  Cl  Cl53  1  0.57855316  0.62392140  0.65954627  1
  Cl  Cl54  1  0.23230042  0.37389487  0.90747547  1
  Cl  Cl55  1  0.15537245  0.25342546  0.25000000  1
  Cl  Cl56  1  0.83063699  0.00000000  0.94090798  1
  Cl  Cl57  1  0.90654822  0.87527665  0.34786425  1
  Cl  Cl58  1  0.57364515  0.12435929  0.65433639  1
  Cl  Cl59  1  0.57855316  0.37607860  0.84045373  1
  Cl  Cl60  1  0.57364515  0.12435929  0.84566361  1
  Cl  Cl61  1  0.42144684  0.37607860  0.34045373  1
  Cl  Cl62  1  0.76769958  0.37389487  0.40747547  1
  Cl  Cl63  1  0.42635485  0.87564071  0.34566361  1
  Cl  Cl64  1  0.83414584  0.25034311  0.56465502  1
  Cl  Cl65  1  0.15800795  0.50000000  0.06912378  1
  Cl  Cl66  1  0.68661820  0.50000000  0.25000000  1
  Cl  Cl67  1  0.23230042  0.62610513  0.59252453  1
  Cl  Cl68  1  0.16585416  0.25034311  0.06465502  1
  Cl  Cl69  1  0.42144684  0.62392140  0.34045373  1
  Cl  Cl70  1  0.16936301  0.00000000  0.05909202  1
  Cl  Cl71  1  0.23230042  0.62610513  0.90747547  1
  Cl  Cl72  1  0.42144684  0.37607860  0.15954627  1
  Cl  Cl73  1  0.42635485  0.12435929  0.34566361  1
  Cl  Cl74  1  0.90654822  0.12472335  0.34786425  1
  Cl  Cl75  1  0.83414584  0.25034311  0.93534498  1
  Cl  Cl76  1  0.42144684  0.62392140  0.15954627  1
  Cl  Cl77  1  0.16585416  0.74965689  0.06465502  1
  Cl  Cl78  1  0.76769958  0.62610513  0.40747547  1
  Cl  Cl79  1  0.57855316  0.62392140  0.84045373  1
  Cl  Cl80  1  0.57855316  0.37607860  0.65954627  1
  Cl  Cl81  1  0.16936301  0.00000000  0.44090798  1
  Cl  Cl82  1  0.42635485  0.12435929  0.15433639  1
  Cl  Cl83  1  0.33289218  0.00000000  0.75000000  1
  Cl  Cl84  1  0.83063699  0.00000000  0.55909202  1
  Cl  Cl85  1  0.90654822  0.87527665  0.15213575  1
  Cl  Cl86  1  0.42635485  0.87564071  0.15433639  1
  Cl  Cl87  1  0.16585416  0.25034311  0.43534498  1
