# generated using pymatgen
data_Ta14(CuS8)3
_symmetry_space_group_name_H-M   'P 1'
_cell_length_a   13.09462528
_cell_length_b   26.12932993
_cell_length_c   39.27075406
_cell_angle_alpha   14.68201866
_cell_angle_beta   14.55893756
_cell_angle_gamma   14.66966727
_symmetry_Int_Tables_number   1
_chemical_formula_structural   Ta14(CuS8)3
_chemical_formula_sum   'Ta14 Cu3 S24'
_cell_volume   747.03540260
_cell_formula_units_Z   1
loop_
 _symmetry_equiv_pos_site_id
 _symmetry_equiv_pos_as_xyz
  1  'x, y, z'
loop_
 _atom_site_type_symbol
 _atom_site_label
 _atom_site_symmetry_multiplicity
 _atom_site_fract_x
 _atom_site_fract_y
 _atom_site_fract_z
 _atom_site_occupancy
  Ta  Ta0  1  0.09755726  0.03904896  0.02227774  1
  Ta  Ta1  1  0.06787669  0.04454822  0.36220767  1
  Ta  Ta2  1  0.07076636  0.54528366  0.02673109  1
  Ta  Ta3  1  0.94451940  0.50208635  0.35069916  1
  Ta  Ta4  1  0.08744451  0.53719505  0.36179000  1
  Ta  Ta5  1  0.08751249  0.02944862  0.69968292  1
  Ta  Ta6  1  0.91873729  0.45753882  0.30635838  1
  Ta  Ta7  1  0.08503361  0.54252283  0.69246817  1
  Ta  Ta8  1  0.90972114  0.96997286  0.30158542  1
  Ta  Ta9  1  0.91766860  0.46034421  0.63824752  1
  Ta  Ta10  1  0.05457954  0.49850505  0.64947509  1
  Ta  Ta11  1  0.92220423  0.45614627  0.97461776  1
  Ta  Ta12  1  0.92771653  0.95835558  0.63729368  1
  Ta  Ta13  1  0.91102148  0.95899997  0.97617926  1
  Cu  Cu14  1  0.15332240  0.07870637  0.71773173  1
  Cu  Cu15  1  0.84296511  0.91927077  0.28460421  1
  Cu  Cu16  1  0.84319995  0.42555818  0.94718419  1
  S  S17  1  0.23034423  0.10213631  0.06553094  1
  S  S18  1  0.28586106  0.14967899  0.09738104  1
  S  S19  1  0.19393171  0.10754423  0.40771278  1
  S  S20  1  0.20187984  0.60783638  0.07230214  1
  S  S21  1  0.28683347  0.15051033  0.43035411  1
  S  S22  1  0.28464583  0.64650843  0.10076638  1
  S  S23  1  0.69782905  0.35323456  0.23820017  1
  S  S24  1  0.79000511  0.39561932  0.26118655  1
  S  S25  1  0.21520672  0.10201324  0.73889396  1
  S  S26  1  0.21689209  0.59955255  0.40550014  1
  S  S27  1  0.29322432  0.14906408  0.76208965  1
  S  S28  1  0.27372868  0.66505372  0.42389346  1
  S  S29  1  0.72626842  0.33473062  0.57628043  1
  S  S30  1  0.70710569  0.85038320  0.23842192  1
  S  S31  1  0.78487607  0.39954698  0.59466489  1
  S  S32  1  0.78539113  0.89790430  0.26083745  1
  S  S33  1  0.21791693  0.60846579  0.73310213  1
  S  S34  1  0.30023527  0.64645218  0.76228690  1
  S  S35  1  0.71759274  0.35345345  0.89890660  1
  S  S36  1  0.71332854  0.84941214  0.56973333  1
  S  S37  1  0.78178505  0.39526178  0.93059261  1
  S  S38  1  0.80543417  0.89355685  0.59177070  1
  S  S39  1  0.71415241  0.85067921  0.90199197  1
  S  S40  1  0.77808486  0.89006958  0.93659881  1
