# generated using pymatgen
data_V3P4Pb2O17
_symmetry_space_group_name_H-M   'P 1'
_cell_length_a   9.52815809
_cell_length_b   12.87586086
_cell_length_c   12.87586156
_cell_angle_alpha   90.93606375
_cell_angle_beta   108.60725213
_cell_angle_gamma   108.60725413
_symmetry_Int_Tables_number   1
_chemical_formula_structural   V3P4Pb2O17
_chemical_formula_sum   'V12 P16 Pb8 O68'
_cell_volume   1406.49697861
_cell_formula_units_Z   4
loop_
 _symmetry_equiv_pos_site_id
 _symmetry_equiv_pos_as_xyz
  1  'x, y, z'
loop_
 _atom_site_type_symbol
 _atom_site_label
 _atom_site_symmetry_multiplicity
 _atom_site_fract_x
 _atom_site_fract_y
 _atom_site_fract_z
 _atom_site_occupancy
  V  V0  1  0.75295186  0.44312818  0.06291036  1
  V  V1  1  0.44548578  0.65741129  0.23679652  1
  V  V2  1  0.75000000  0.44427261  0.55572739  1
  V  V3  1  0.24704814  0.55687182  0.93708964  1
  V  V4  1  0.75000000  0.93882546  0.06117454  1
  V  V5  1  0.25295186  0.06291036  0.44312818  1
  V  V6  1  0.05451422  0.76320348  0.34258871  1
  V  V7  1  0.25000000  0.06117454  0.93882546  1
  V  V8  1  0.94548578  0.23679652  0.65741129  1
  V  V9  1  0.55451422  0.34258871  0.76320348  1
  V  V10  1  0.74704814  0.93708964  0.55687182  1
  V  V11  1  0.25000000  0.55572739  0.44427261  1
  P  P12  1  0.62938738  0.66192128  0.50372282  1
  P  P13  1  0.37061262  0.33807872  0.49627718  1
  P  P14  1  0.15730052  0.05562542  0.16822856  1
  P  P15  1  0.13559407  0.05987724  0.66172581  1
  P  P16  1  0.64870114  0.16646574  0.49771558  1
  P  P17  1  0.87061262  0.49627718  0.33807872  1
  P  P18  1  0.14870114  0.49771558  0.16646574  1
  P  P19  1  0.86440593  0.94012276  0.33827419  1
  P  P20  1  0.63559407  0.66172581  0.05987724  1
  P  P21  1  0.65730052  0.16822856  0.05562542  1
  P  P22  1  0.12938738  0.50372282  0.66192128  1
  P  P23  1  0.35129886  0.83353426  0.50228442  1
  P  P24  1  0.34269948  0.83177144  0.94437458  1
  P  P25  1  0.84269948  0.94437458  0.83177144  1
  P  P26  1  0.36440593  0.33827419  0.94012276  1
  P  P27  1  0.85129886  0.50228442  0.83353426  1
  Pb  Pb28  1  0.51710791  0.98484569  0.23717984  1
  Pb  Pb29  1  0.03175380  0.24474304  0.29542744  1
  Pb  Pb30  1  0.46824620  0.70457256  0.75525696  1
  Pb  Pb31  1  0.96824620  0.75525696  0.70457256  1
  Pb  Pb32  1  0.98289209  0.76282016  0.01515431  1
  Pb  Pb33  1  0.53175380  0.29542744  0.24474304  1
  Pb  Pb34  1  0.01710791  0.23717984  0.98484569  1
  Pb  Pb35  1  0.48289209  0.01515431  0.76282016  1
  O  O36  1  0.26109275  0.21934733  0.43552555  1
  O  O37  1  0.97928429  0.53309639  0.63205847  1
  O  O38  1  0.26406647  0.21922016  0.95342261  1
  O  O39  1  0.02071571  0.46690361  0.36794153  1
  O  O40  1  0.48290603  0.62100194  0.95816550  1
  O  O41  1  0.76109275  0.43552555  0.21934733  1
  O  O42  1  0.36529393  0.82685445  0.82992179  1
  O  O43  1  0.23593353  0.04657739  0.78077984  1
  O  O44  1  0.27159278  0.05952697  0.10239870  1
  O  O45  1  0.47928429  0.63205847  0.53309639  1
  O  O46  1  0.73316044  0.59330352  0.56222039  1
  O  O47  1  0.50372304  0.88958297  0.03674529  1
  O  O48  1  0.22980766  0.89485180  0.44707077  1
  O  O49  1  0.24859764  0.03697964  0.28632083  1
  O  O50  1  0.77019234  0.10514820  0.55292923  1
  O  O51  1  0.09695495  0.37901279  0.65097333  1
  O  O52  1  0.49701842  0.11689609  0.52176764  1
  O  O53  1  0.63470607  0.17314555  0.17007821  1
  O  O54  1  0.77159278  0.10239870  0.05952697  1
  O  O55  1  0.40304505  0.34902667  0.62098721  1
  O  O56  1  0.24669159  0.05760535  0.59618276  1
  O  O57  1  0.51709397  0.37899806  0.04183450  1
  O  O58  1  0.75330841  0.94239465  0.40381724  1
  O  O59  1  0.90304505  0.62098721  0.34902667  1
  O  O60  1  0.37580538  0.83134985  0.62560110  1
  O  O61  1  0.74669159  0.59618276  0.05760535  1
  O  O62  1  0.89818283  0.83143737  0.34247537  1
  O  O63  1  0.73890725  0.78065267  0.56447445  1
  O  O64  1  0.42308385  0.77849357  0.23142452  1
  O  O65  1  0.12419462  0.37439890  0.16865015  1
  O  O66  1  0.57691615  0.22150643  0.76857548  1
  O  O67  1  0.60181717  0.65752463  0.16856263  1
  O  O68  1  0.52071571  0.36794153  0.46690361  1
  O  O69  1  0.22840722  0.89760130  0.94047303  1
  O  O70  1  0.72840722  0.94047303  0.89760130  1
  O  O71  1  0.07691615  0.76857548  0.22150643  1
  O  O72  1  0.86529393  0.82992179  0.82685445  1
  O  O73  1  0.98290603  0.95816550  0.62100194  1
  O  O74  1  0.73819548  0.43482265  0.71505873  1
  O  O75  1  0.23819548  0.71505873  0.43482265  1
  O  O76  1  0.25330841  0.40381724  0.94239465  1
  O  O77  1  0.01709397  0.04183450  0.37899806  1
  O  O78  1  0.26683956  0.40669648  0.43777961  1
  O  O79  1  0.92308385  0.23142452  0.77849357  1
  O  O80  1  0.25140236  0.71367917  0.96302036  1
  O  O81  1  0.49627696  0.11041703  0.96325471  1
  O  O82  1  0.87580538  0.62560110  0.83134985  1
  O  O83  1  0.00372304  0.03674529  0.88958297  1
  O  O84  1  0.10181717  0.16856263  0.65752463  1
  O  O85  1  0.23316044  0.56222039  0.59330352  1
  O  O86  1  0.76406647  0.95342261  0.21922016  1
  O  O87  1  0.74859764  0.28632083  0.03697964  1
  O  O88  1  0.26180452  0.56517735  0.28494127  1
  O  O89  1  0.27019234  0.55292923  0.10514820  1
  O  O90  1  0.50298158  0.88310391  0.47823236  1
  O  O91  1  0.39818283  0.34247537  0.83143737  1
  O  O92  1  0.00298158  0.47823236  0.88310391  1
  O  O93  1  0.76180452  0.28494127  0.56517735  1
  O  O94  1  0.99627696  0.96325471  0.11041703  1
  O  O95  1  0.62419462  0.16865015  0.37439890  1
  O  O96  1  0.59695495  0.65097333  0.37901279  1
  O  O97  1  0.23890725  0.56447445  0.78065267  1
  O  O98  1  0.73593353  0.78077984  0.04657739  1
  O  O99  1  0.72980766  0.44707077  0.89485180  1
  O  O100  1  0.76683956  0.43777961  0.40669648  1
  O  O101  1  0.13470607  0.17007821  0.17314555  1
  O  O102  1  0.75140236  0.96302036  0.71367917  1
  O  O103  1  0.99701842  0.52176764  0.11689609  1
