# generated using pymatgen
data_SrCo2Te3(ClO4)2
_symmetry_space_group_name_H-M   'P 1'
_cell_length_a   6.70654805
_cell_length_b   9.17720519
_cell_length_c   18.78078031
_cell_angle_alpha   90.00000000
_cell_angle_beta   94.27816903
_cell_angle_gamma   90.00000000
_symmetry_Int_Tables_number   1
_chemical_formula_structural   SrCo2Te3(ClO4)2
_chemical_formula_sum   'Sr4 Co8 Te12 Cl8 O32'
_cell_volume   1152.68680213
_cell_formula_units_Z   4
loop_
 _symmetry_equiv_pos_site_id
 _symmetry_equiv_pos_as_xyz
  1  'x, y, z'
loop_
 _atom_site_type_symbol
 _atom_site_label
 _atom_site_symmetry_multiplicity
 _atom_site_fract_x
 _atom_site_fract_y
 _atom_site_fract_z
 _atom_site_occupancy
  Sr  Sr0  1  0.25761296  0.61945671  0.77195634  1
  Sr  Sr1  1  0.75761296  0.88054329  0.27195634  1
  Sr  Sr2  1  0.24238704  0.11945671  0.72804366  1
  Sr  Sr3  1  0.74238704  0.38054329  0.22804366  1
  Co  Co4  1  0.87089469  0.45672543  0.68060794  1
  Co  Co5  1  0.61360377  0.75551543  0.67622287  1
  Co  Co6  1  0.62910531  0.95672543  0.81939206  1
  Co  Co7  1  0.11360377  0.74448457  0.17622287  1
  Co  Co8  1  0.88639623  0.25551543  0.82377713  1
  Co  Co9  1  0.37089469  0.04327457  0.18060794  1
  Co  Co10  1  0.38639623  0.24448457  0.32377713  1
  Co  Co11  1  0.12910531  0.54327457  0.31939206  1
  Te  Te12  1  0.11087561  0.92668939  0.88814708  1
  Te  Te13  1  0.61087561  0.57331061  0.38814708  1
  Te  Te14  1  0.88912439  0.07331061  0.11185292  1
  Te  Te15  1  0.77172189  0.60773889  0.86267638  1
  Te  Te16  1  0.72827811  0.10773889  0.63732362  1
  Te  Te17  1  0.22827811  0.39226111  0.13732362  1
  Te  Te18  1  0.44287444  0.29001307  0.89422494  1
  Te  Te19  1  0.38912439  0.42668939  0.61185292  1
  Te  Te20  1  0.55712556  0.70998693  0.10577506  1
  Te  Te21  1  0.94287444  0.20998693  0.39422494  1
  Te  Te22  1  0.05712556  0.79001307  0.60577506  1
  Te  Te23  1  0.27172189  0.89226111  0.36267638  1
  Cl  Cl24  1  0.30585376  0.10407765  0.05232241  1
  Cl  Cl25  1  0.69414624  0.89592235  0.94767759  1
  Cl  Cl26  1  0.80585376  0.39592235  0.55232241  1
  Cl  Cl27  1  0.86181456  0.31925447  0.95230130  1
  Cl  Cl28  1  0.13818544  0.68074553  0.04769870  1
  Cl  Cl29  1  0.19414624  0.60407765  0.44767759  1
  Cl  Cl30  1  0.63818544  0.81925447  0.54769870  1
  Cl  Cl31  1  0.36181456  0.18074553  0.45230130  1
  O  O32  1  0.80299147  0.73808540  0.16128024  1
  O  O33  1  0.18242609  0.42862318  0.67608950  1
  O  O34  1  0.86917111  0.23253579  0.70623703  1
  O  O35  1  0.98715401  0.01643080  0.35905000  1
  O  O36  1  0.19700853  0.26191460  0.83871976  1
  O  O37  1  0.04042776  0.73090680  0.85870199  1
  O  O38  1  0.45957224  0.23090680  0.64129801  1
  O  O39  1  0.08748321  0.30974789  0.32470247  1
  O  O40  1  0.36917111  0.26746421  0.20623703  1
  O  O41  1  0.61039887  0.97918415  0.70306405  1
  O  O42  1  0.31757391  0.92862318  0.82391050  1
  O  O43  1  0.54042776  0.76909320  0.35870199  1
  O  O44  1  0.30299147  0.76191460  0.66128024  1
  O  O45  1  0.95957224  0.26909320  0.14129801  1
  O  O46  1  0.11039887  0.52081585  0.20306405  1
  O  O47  1  0.58748321  0.19025211  0.82470247  1
  O  O48  1  0.57438015  0.52277127  0.67788987  1
  O  O49  1  0.41251679  0.80974789  0.17529753  1
  O  O50  1  0.69700853  0.23808540  0.33871976  1
  O  O51  1  0.51284599  0.51643080  0.14095000  1
  O  O52  1  0.68242609  0.07137682  0.17608950  1
  O  O53  1  0.48715401  0.48356920  0.85905000  1
  O  O54  1  0.07438015  0.97722873  0.17788987  1
  O  O55  1  0.38960113  0.02081585  0.29693595  1
  O  O56  1  0.01284599  0.98356920  0.64095000  1
  O  O57  1  0.63082889  0.73253579  0.79376297  1
  O  O58  1  0.92561985  0.02277127  0.82211013  1
  O  O59  1  0.91251679  0.69025211  0.67529753  1
  O  O60  1  0.42561985  0.47722873  0.32211013  1
  O  O61  1  0.13082889  0.76746421  0.29376297  1
  O  O62  1  0.88960113  0.47918415  0.79693595  1
  O  O63  1  0.81757391  0.57137682  0.32391050  1
