# generated using pymatgen
data_CsPuP2S7
_symmetry_space_group_name_H-M   'P 1'
_cell_length_a   9.14203442
_cell_length_b   10.28160350
_cell_length_c   12.76248951
_cell_angle_alpha   90.00000000
_cell_angle_beta   90.00000000
_cell_angle_gamma   91.25541726
_symmetry_Int_Tables_number   1
_chemical_formula_structural   CsPuP2S7
_chemical_formula_sum   'Cs4 Pu4 P8 S28'
_cell_volume   1199.31935144
_cell_formula_units_Z   4
loop_
 _symmetry_equiv_pos_site_id
 _symmetry_equiv_pos_as_xyz
  1  'x, y, z'
loop_
 _atom_site_type_symbol
 _atom_site_label
 _atom_site_symmetry_multiplicity
 _atom_site_fract_x
 _atom_site_fract_y
 _atom_site_fract_z
 _atom_site_occupancy
  Cs  Cs0  1  0.86600423  0.89816812  0.69752996  1
  Cs  Cs1  1  0.63399577  0.10183188  0.19752996  1
  Cs  Cs2  1  0.36600423  0.89816812  0.80247004  1
  Cs  Cs3  1  0.13399577  0.10183188  0.30247004  1
  Pu  Pu4  1  0.39433978  0.63478561  0.14097874  1
  Pu  Pu5  1  0.10566022  0.36521439  0.64097874  1
  Pu  Pu6  1  0.60566022  0.36521439  0.85902126  1
  Pu  Pu7  1  0.89433978  0.63478561  0.35902126  1
  P  P8  1  0.47559942  0.23981999  0.60600247  1
  P  P9  1  0.19965010  0.67648619  0.53325558  1
  P  P10  1  0.80034990  0.32351381  0.46674442  1
  P  P11  1  0.02440058  0.76018001  0.10600247  1
  P  P12  1  0.69965010  0.67648619  0.96674442  1
  P  P13  1  0.97559942  0.23981999  0.89399753  1
  P  P14  1  0.52440058  0.76018001  0.39399753  1
  P  P15  1  0.30034990  0.32351381  0.03325558  1
  S  S16  1  0.92259006  0.41498249  0.82824096  1
  S  S17  1  0.67519823  0.51377631  0.05685736  1
  S  S18  1  0.32480177  0.48622369  0.94314264  1
  S  S19  1  0.85241999  0.35999456  0.31380508  1
  S  S20  1  0.92548847  0.73632241  0.95298529  1
  S  S21  1  0.21383439  0.85220118  0.06320548  1
  S  S22  1  0.35241999  0.35999456  0.18619492  1
  S  S23  1  0.64758001  0.64000544  0.81380508  1
  S  S24  1  0.57451153  0.26367759  0.45298529  1
  S  S25  1  0.82480177  0.48622369  0.55685736  1
  S  S26  1  0.38864778  0.84529827  0.29096134  1
  S  S27  1  0.42548847  0.73632241  0.54701471  1
  S  S28  1  0.28616561  0.14779882  0.56320548  1
  S  S29  1  0.61135222  0.15470173  0.70903866  1
  S  S30  1  0.14758001  0.64000544  0.68619492  1
  S  S31  1  0.57422781  0.81804386  0.02929815  1
  S  S32  1  0.42577219  0.18195614  0.97070185  1
  S  S33  1  0.88864778  0.84529827  0.20903866  1
  S  S34  1  0.17519823  0.51377631  0.44314264  1
  S  S35  1  0.71383439  0.85220118  0.43679452  1
  S  S36  1  0.92577219  0.18195614  0.52929815  1
  S  S37  1  0.42259006  0.41498249  0.67175904  1
  S  S38  1  0.07451153  0.26367759  0.04701471  1
  S  S39  1  0.78616561  0.14779882  0.93679452  1
  S  S40  1  0.07422781  0.81804386  0.47070185  1
  S  S41  1  0.07740994  0.58501751  0.17175904  1
  S  S42  1  0.57740994  0.58501751  0.32824096  1
  S  S43  1  0.11135222  0.15470173  0.79096134  1
