# generated using pymatgen
data_TlVTeO5
_symmetry_space_group_name_H-M   'P 1'
_cell_length_a   7.38666722
_cell_length_b   7.93803756
_cell_length_c   8.81933375
_cell_angle_alpha   90.00000000
_cell_angle_beta   90.00000000
_cell_angle_gamma   90.00000000
_symmetry_Int_Tables_number   1
_chemical_formula_structural   TlVTeO5
_chemical_formula_sum   'Tl4 V4 Te4 O20'
_cell_volume   517.12729499
_cell_formula_units_Z   4
loop_
 _symmetry_equiv_pos_site_id
 _symmetry_equiv_pos_as_xyz
  1  'x, y, z'
loop_
 _atom_site_type_symbol
 _atom_site_label
 _atom_site_symmetry_multiplicity
 _atom_site_fract_x
 _atom_site_fract_y
 _atom_site_fract_z
 _atom_site_occupancy
  Tl  Tl0  1  0.97647804  0.90223767  0.89229470  1
  Tl  Tl1  1  0.47647804  0.90223767  0.60770530  1
  Tl  Tl2  1  0.52352196  0.40223767  0.39229470  1
  Tl  Tl3  1  0.02352196  0.40223767  0.10770530  1
  V  V4  1  0.27834462  0.78550150  0.24223164  1
  V  V5  1  0.22165538  0.28550150  0.74223164  1
  V  V6  1  0.77834462  0.78550150  0.25776836  1
  V  V7  1  0.72165538  0.28550150  0.75776836  1
  Te  Te8  1  0.97726137  0.09707641  0.46743189  1
  Te  Te9  1  0.02273863  0.59707641  0.53256811  1
  Te  Te10  1  0.52273863  0.59707641  0.96743189  1
  Te  Te11  1  0.47726137  0.09707641  0.03256811  1
  O  O12  1  0.93631535  0.25937894  0.82510008  1
  O  O13  1  0.12760221  0.05103335  0.63531216  1
  O  O14  1  0.06368465  0.75937894  0.17489992  1
  O  O15  1  0.87239779  0.55103335  0.36468784  1
  O  O16  1  0.27470546  0.98169517  0.31820749  1
  O  O17  1  0.56368465  0.75937894  0.32510008  1
  O  O18  1  0.89877091  0.85990301  0.44934628  1
  O  O19  1  0.22529454  0.48169517  0.81820749  1
  O  O20  1  0.43631535  0.25937894  0.67489992  1
  O  O21  1  0.60122909  0.35990301  0.94934628  1
  O  O22  1  0.25534126  0.15017395  0.92236420  1
  O  O23  1  0.37239779  0.55103335  0.13531216  1
  O  O24  1  0.74465874  0.65017395  0.07763580  1
  O  O25  1  0.39877091  0.85990301  0.05065372  1
  O  O26  1  0.75534126  0.15017395  0.57763580  1
  O  O27  1  0.72529454  0.48169517  0.68179251  1
  O  O28  1  0.62760221  0.05103335  0.86468784  1
  O  O29  1  0.77470546  0.98169517  0.18179251  1
  O  O30  1  0.24465874  0.65017395  0.42236420  1
  O  O31  1  0.10122909  0.35990301  0.55065372  1
