# generated using pymatgen
data_KIn(MoO4)2
_symmetry_space_group_name_H-M   'P 1'
_cell_length_a   5.98681712
_cell_length_b   8.88772615
_cell_length_c   15.06652303
_cell_angle_alpha   90.00024193
_cell_angle_beta   89.99999767
_cell_angle_gamma   90.00000564
_symmetry_Int_Tables_number   1
_chemical_formula_structural   KIn(MoO4)2
_chemical_formula_sum   'K4 In4 Mo8 O32'
_cell_volume   801.67750270
_cell_formula_units_Z   4
loop_
 _symmetry_equiv_pos_site_id
 _symmetry_equiv_pos_as_xyz
  1  'x, y, z'
loop_
 _atom_site_type_symbol
 _atom_site_label
 _atom_site_symmetry_multiplicity
 _atom_site_fract_x
 _atom_site_fract_y
 _atom_site_fract_z
 _atom_site_occupancy
  K  K0  1  0.74999368  0.04689836  0.37624887  1
  K  K1  1  0.74999815  0.45309586  0.87624116  1
  K  K2  1  0.25000267  0.95310318  0.62375693  1
  K  K3  1  0.24999836  0.54690339  0.12375762  1
  In  In4  1  0.75000112  0.19547038  0.10557664  1
  In  In5  1  0.24999988  0.69547030  0.39442222  1
  In  In6  1  0.75000017  0.30452929  0.60557729  1
  In  In7  1  0.24999980  0.80452949  0.89442285  1
  Mo  Mo8  1  0.75000122  0.49687435  0.28356419  1
  Mo  Mo9  1  0.24999874  0.50312225  0.71643678  1
  Mo  Mo10  1  0.24999953  0.99687479  0.21643228  1
  Mo  Mo11  1  0.75000149  0.71746354  0.53837412  1
  Mo  Mo12  1  0.24999787  0.21746291  0.96162430  1
  Mo  Mo13  1  0.75000173  0.78253777  0.03837481  1
  Mo  Mo14  1  0.24999882  0.28253420  0.46162433  1
  Mo  Mo15  1  0.75000120  0.00312836  0.78356878  1
  O  O16  1  0.25000141  0.59124610  0.82593475  1
  O  O17  1  0.74999935  0.09124744  0.67406420  1
  O  O18  1  0.74999980  0.78167601  0.64778293  1
  O  O19  1  0.00604541  0.29469884  0.01882662  1
  O  O20  1  0.25000116  0.90875197  0.32593625  1
  O  O21  1  0.00190019  0.60527540  0.30396001  1
  O  O22  1  0.99395503  0.79469901  0.48117410  1
  O  O23  1  0.75000037  0.15025664  0.85958299  1
  O  O24  1  0.00604597  0.20530007  0.51882582  1
  O  O25  1  0.99395581  0.70530079  0.98117341  1
  O  O26  1  0.25000071  0.21832286  0.35221761  1
  O  O27  1  0.74999953  0.40875430  0.17406426  1
  O  O28  1  0.50190085  0.39472472  0.69604027  1
  O  O29  1  0.50604536  0.70530060  0.98117313  1
  O  O30  1  0.24999910  0.65026011  0.64041460  1
  O  O31  1  0.49809817  0.60527620  0.30395990  1
  O  O32  1  0.49395561  0.29470030  0.01882649  1
  O  O33  1  0.25000056  0.01591873  0.96647005  1
  O  O34  1  0.74999932  0.34974124  0.35958356  1
  O  O35  1  0.25000005  0.48408070  0.46646985  1
  O  O36  1  0.00189958  0.89472447  0.80395964  1
  O  O37  1  0.99810040  0.39472303  0.69603998  1
  O  O38  1  0.74999957  0.98408117  0.03352954  1
  O  O39  1  0.50190014  0.10527586  0.19604059  1
  O  O40  1  0.25000044  0.28167687  0.85221740  1
  O  O41  1  0.75000002  0.51591888  0.53352993  1
  O  O42  1  0.50604662  0.79469981  0.48117359  1
  O  O43  1  0.99809925  0.10527680  0.19604016  1
  O  O44  1  0.74999976  0.71832325  0.14778245  1
  O  O45  1  0.49395527  0.20529889  0.51882639  1
  O  O46  1  0.49810038  0.89472546  0.80395925  1
  O  O47  1  0.25000037  0.84974507  0.14041711  1
