# generated using pymatgen
data_SrNi2Te3(ClO4)2
_symmetry_space_group_name_H-M   'P 1'
_cell_length_a   6.73647086
_cell_length_b   9.00891385
_cell_length_c   18.49045530
_cell_angle_alpha   90.00000000
_cell_angle_beta   92.12608687
_cell_angle_gamma   90.00000000
_symmetry_Int_Tables_number   1
_chemical_formula_structural   SrNi2Te3(ClO4)2
_chemical_formula_sum   'Sr4 Ni8 Te12 Cl8 O32'
_cell_volume   1121.38154903
_cell_formula_units_Z   4
loop_
 _symmetry_equiv_pos_site_id
 _symmetry_equiv_pos_as_xyz
  1  'x, y, z'
loop_
 _atom_site_type_symbol
 _atom_site_label
 _atom_site_symmetry_multiplicity
 _atom_site_fract_x
 _atom_site_fract_y
 _atom_site_fract_z
 _atom_site_occupancy
  Sr  Sr0  1  0.25965081  0.41165046  0.27656716  1
  Sr  Sr1  1  0.74034919  0.58834954  0.72343284  1
  Sr  Sr2  1  0.24034919  0.91165046  0.22343284  1
  Sr  Sr3  1  0.75965081  0.08834954  0.77656716  1
  Ni  Ni4  1  0.10291856  0.25165450  0.68015237  1
  Ni  Ni5  1  0.39708144  0.75165450  0.81984763  1
  Ni  Ni6  1  0.36458603  0.95934782  0.68011443  1
  Ni  Ni7  1  0.63541397  0.04065218  0.31988557  1
  Ni  Ni8  1  0.89708144  0.74834550  0.31984763  1
  Ni  Ni9  1  0.60291856  0.24834550  0.18015237  1
  Ni  Ni10  1  0.13541397  0.45934782  0.81988557  1
  Ni  Ni11  1  0.86458603  0.54065218  0.18011443  1
  Te  Te12  1  0.76966183  0.39415857  0.36490427  1
  Te  Te13  1  0.10076425  0.07442677  0.39253836  1
  Te  Te14  1  0.60076425  0.42557323  0.89253836  1
  Te  Te15  1  0.93041210  0.77616566  0.88776874  1
  Te  Te16  1  0.89923575  0.92557323  0.60746164  1
  Te  Te17  1  0.56958790  0.27616566  0.61223126  1
  Te  Te18  1  0.23033817  0.60584143  0.63509573  1
  Te  Te19  1  0.39923575  0.57442677  0.10746164  1
  Te  Te20  1  0.06958790  0.22383434  0.11223126  1
  Te  Te21  1  0.73033817  0.89415857  0.13509573  1
  Te  Te22  1  0.43041210  0.72383434  0.38776874  1
  Te  Te23  1  0.26966183  0.10584143  0.86490427  1
  Cl  Cl24  1  0.31202079  0.90548981  0.55184407  1
  Cl  Cl25  1  0.39048618  0.79799660  0.94923718  1
  Cl  Cl26  1  0.68797921  0.09451019  0.44815593  1
  Cl  Cl27  1  0.81202079  0.59451019  0.05184407  1
  Cl  Cl28  1  0.18797921  0.40548981  0.94815593  1
  Cl  Cl29  1  0.89048618  0.70200340  0.44923718  1
  Cl  Cl30  1  0.60951382  0.20200340  0.05076282  1
  Cl  Cl31  1  0.10951382  0.29799660  0.55076282  1
  O  O32  1  0.00539191  0.01971982  0.12948527  1
  O  O33  1  0.67324294  0.94441118  0.66455431  1
  O  O34  1  0.99460809  0.98028018  0.87051473  1
  O  O35  1  0.43797917  0.52111322  0.81971269  1
  O  O36  1  0.28937751  0.21372022  0.17930757  1
  O  O37  1  0.12593713  0.23126045  0.79799469  1
  O  O38  1  0.62593713  0.26873955  0.29799469  1
  O  O39  1  0.59880044  0.81101840  0.32014733  1
  O  O40  1  0.87406287  0.76873955  0.20200531  1
  O  O41  1  0.78937751  0.28627978  0.67930757  1
  O  O42  1  0.11779329  0.47566364  0.70437850  1
  O  O43  1  0.06202083  0.02111322  0.68028731  1
  O  O44  1  0.71062249  0.78627978  0.82069243  1
  O  O45  1  0.45874123  0.77132252  0.14235900  1
  O  O46  1  0.37406287  0.73126045  0.70200531  1
  O  O47  1  0.61779329  0.02433636  0.20437850  1
  O  O48  1  0.38220671  0.97566364  0.79562150  1
  O  O49  1  0.95874123  0.72867748  0.64235900  1
  O  O50  1  0.93797917  0.97888678  0.31971269  1
  O  O51  1  0.82675706  0.44441118  0.83544569  1
  O  O52  1  0.56202083  0.47888678  0.18028731  1
  O  O53  1  0.90119956  0.31101840  0.17985267  1
  O  O54  1  0.32675706  0.05558882  0.33544569  1
  O  O55  1  0.17324294  0.55558882  0.16455431  1
  O  O56  1  0.04125877  0.27132252  0.35764100  1
  O  O57  1  0.21062249  0.71372022  0.32069243  1
  O  O58  1  0.50539191  0.48028018  0.62948527  1
  O  O59  1  0.49460809  0.51971982  0.37051473  1
  O  O60  1  0.09880044  0.68898160  0.82014733  1
  O  O61  1  0.54125877  0.22867748  0.85764100  1
  O  O62  1  0.40119956  0.18898160  0.67985267  1
  O  O63  1  0.88220671  0.52433636  0.29562150  1
