# generated using pymatgen
data_K5(AsPb)3
_symmetry_space_group_name_H-M   'P 1'
_cell_length_a   6.67845972
_cell_length_b   12.34733101
_cell_length_c   19.76705617
_cell_angle_alpha   90.00000000
_cell_angle_beta   90.00000000
_cell_angle_gamma   90.00000000
_symmetry_Int_Tables_number   1
_chemical_formula_structural   K5(AsPb)3
_chemical_formula_sum   'K20 As12 Pb12'
_cell_volume   1630.01423924
_cell_formula_units_Z   4
loop_
 _symmetry_equiv_pos_site_id
 _symmetry_equiv_pos_as_xyz
  1  'x, y, z'
loop_
 _atom_site_type_symbol
 _atom_site_label
 _atom_site_symmetry_multiplicity
 _atom_site_fract_x
 _atom_site_fract_y
 _atom_site_fract_z
 _atom_site_occupancy
  K  K0  1  0.77079885  0.54546715  0.67879187  1
  K  K1  1  0.26119706  0.75000000  0.13032484  1
  K  K2  1  0.45195284  0.75000000  0.39690636  1
  K  K3  1  0.76119706  0.25000000  0.36967516  1
  K  K4  1  0.23880294  0.75000000  0.63032484  1
  K  K5  1  0.54804716  0.25000000  0.60309364  1
  K  K6  1  0.27079885  0.45453285  0.82120813  1
  K  K7  1  0.04804716  0.75000000  0.89690636  1
  K  K8  1  0.77079885  0.95453285  0.67879187  1
  K  K9  1  0.72920115  0.95453285  0.17879187  1
  K  K10  1  0.27079885  0.04546715  0.82120813  1
  K  K11  1  0.72920115  0.54546715  0.17879187  1
  K  K12  1  0.00000000  0.00000000  0.00000000  1
  K  K13  1  0.22920115  0.45453285  0.32120813  1
  K  K14  1  0.22920115  0.04546715  0.32120813  1
  K  K15  1  0.50000000  0.00000000  0.50000000  1
  K  K16  1  0.95195284  0.25000000  0.10309364  1
  K  K17  1  0.73880294  0.25000000  0.86967516  1
  K  K18  1  0.50000000  0.50000000  0.50000000  1
  K  K19  1  0.00000000  0.50000000  0.00000000  1
  As  As20  1  0.74070889  0.75000000  0.54400530  1
  As  As21  1  0.75929111  0.75000000  0.04400530  1
  As  As22  1  0.23479758  0.44684437  0.15305620  1
  As  As23  1  0.76520242  0.94684437  0.84694380  1
  As  As24  1  0.26520242  0.05315563  0.65305620  1
  As  As25  1  0.73479758  0.55315563  0.34694380  1
  As  As26  1  0.73479758  0.94684437  0.34694380  1
  As  As27  1  0.23479758  0.05315563  0.15305620  1
  As  As28  1  0.25929111  0.25000000  0.45599470  1
  As  As29  1  0.26520242  0.44684437  0.65305620  1
  As  As30  1  0.76520242  0.55315563  0.84694380  1
  As  As31  1  0.24070889  0.25000000  0.95599470  1
  Pb  Pb32  1  0.97941873  0.88234553  0.45613333  1
  Pb  Pb33  1  0.02058127  0.11765447  0.54386667  1
  Pb  Pb34  1  0.93907054  0.75000000  0.30641681  1
  Pb  Pb35  1  0.56092946  0.75000000  0.80641681  1
  Pb  Pb36  1  0.97941873  0.61765447  0.45613333  1
  Pb  Pb37  1  0.06092946  0.25000000  0.69358319  1
  Pb  Pb38  1  0.02058127  0.38234553  0.54386667  1
  Pb  Pb39  1  0.52058127  0.88234553  0.95613333  1
  Pb  Pb40  1  0.47941873  0.38234553  0.04386667  1
  Pb  Pb41  1  0.47941873  0.11765447  0.04386667  1
  Pb  Pb42  1  0.52058127  0.61765447  0.95613333  1
  Pb  Pb43  1  0.43907054  0.25000000  0.19358319  1
