# generated using pymatgen
data_MnV2TeO7
_symmetry_space_group_name_H-M   'P 1'
_cell_length_a   6.79329872
_cell_length_b   7.01426616
_cell_length_c   8.02506683
_cell_angle_alpha   94.40201408
_cell_angle_beta   113.53373668
_cell_angle_gamma   114.59298874
_symmetry_Int_Tables_number   1
_chemical_formula_structural   MnV2TeO7
_chemical_formula_sum   'Mn2 V4 Te2 O14'
_cell_volume   304.95121799
_cell_formula_units_Z   2
loop_
 _symmetry_equiv_pos_site_id
 _symmetry_equiv_pos_as_xyz
  1  'x, y, z'
loop_
 _atom_site_type_symbol
 _atom_site_label
 _atom_site_symmetry_multiplicity
 _atom_site_fract_x
 _atom_site_fract_y
 _atom_site_fract_z
 _atom_site_occupancy
  Mn  Mn0  1  0.43947800  0.06389958  0.17636052  1
  Mn  Mn1  1  0.56052200  0.93610042  0.82363948  1
  V  V2  1  0.02579835  0.88704038  0.66702853  1
  V  V3  1  0.50779430  0.56658946  0.32787843  1
  V  V4  1  0.49220570  0.43341054  0.67212157  1
  V  V5  1  0.97420165  0.11295962  0.33297147  1
  Te  Te6  1  0.05773913  0.69335269  0.29008398  1
  Te  Te7  1  0.94226087  0.30664731  0.70991602  1
  O  O8  1  0.14577431  0.98422336  0.25531411  1
  O  O9  1  0.44881429  0.36645897  0.15451821  1
  O  O10  1  0.17672547  0.18212943  0.63080320  1
  O  O11  1  0.34329799  0.74121236  0.25259938  1
  O  O12  1  0.21480887  0.77850995  0.55992127  1
  O  O13  1  0.65670201  0.25878764  0.74740062  1
  O  O14  1  0.82327453  0.81787057  0.36919680  1
  O  O15  1  0.74945576  0.09387410  0.11870587  1
  O  O16  1  0.85422569  0.01577664  0.74468589  1
  O  O17  1  0.26503196  0.40853524  0.41482292  1
  O  O18  1  0.55118571  0.63354103  0.84548179  1
  O  O19  1  0.78519113  0.22149005  0.44007873  1
  O  O20  1  0.25054424  0.90612590  0.88129413  1
  O  O21  1  0.73496804  0.59146476  0.58517708  1
