# generated using pymatgen
data_Cs2Mn(PO3)4
_symmetry_space_group_name_H-M   'P 1'
_cell_length_a   8.12199704
_cell_length_b   11.71588995
_cell_length_c   13.46831120
_cell_angle_alpha   90.00000000
_cell_angle_beta   90.00000000
_cell_angle_gamma   101.97501485
_symmetry_Int_Tables_number   1
_chemical_formula_structural   Cs2Mn(PO3)4
_chemical_formula_sum   'Cs8 Mn4 P16 O48'
_cell_volume   1253.70644687
_cell_formula_units_Z   4
loop_
 _symmetry_equiv_pos_site_id
 _symmetry_equiv_pos_as_xyz
  1  'x, y, z'
loop_
 _atom_site_type_symbol
 _atom_site_label
 _atom_site_symmetry_multiplicity
 _atom_site_fract_x
 _atom_site_fract_y
 _atom_site_fract_z
 _atom_site_occupancy
  Cs  Cs0  1  0.92211404  0.36376563  0.87977724  1
  Cs  Cs1  1  0.58730758  0.65640027  0.87520922  1
  Cs  Cs2  1  0.91269242  0.84359973  0.37520922  1
  Cs  Cs3  1  0.57788596  0.13623437  0.37977724  1
  Cs  Cs4  1  0.41269242  0.34359973  0.12479078  1
  Cs  Cs5  1  0.42211404  0.86376563  0.62022276  1
  Cs  Cs6  1  0.07788596  0.63623437  0.12022276  1
  Cs  Cs7  1  0.08730758  0.15640027  0.62479078  1
  Mn  Mn8  1  0.25940636  0.51265993  0.64426380  1
  Mn  Mn9  1  0.74059364  0.48734007  0.35573620  1
  Mn  Mn10  1  0.24059364  0.98734007  0.14426380  1
  Mn  Mn11  1  0.75940636  0.01265993  0.85573620  1
  P  P12  1  0.09583439  0.17000674  0.32539010  1
  P  P13  1  0.40416561  0.32999326  0.82539010  1
  P  P14  1  0.67528245  0.62055521  0.57491710  1
  P  P15  1  0.83017607  0.41262051  0.59245908  1
  P  P16  1  0.90401706  0.29844888  0.18734322  1
  P  P17  1  0.33017607  0.91262051  0.90754092  1
  P  P18  1  0.17528245  0.12055521  0.92508290  1
  P  P19  1  0.66982393  0.08737949  0.09245908  1
  P  P20  1  0.59598294  0.20155112  0.68734322  1
  P  P21  1  0.16982393  0.58737949  0.40754092  1
  P  P22  1  0.82471755  0.87944479  0.07491710  1
  P  P23  1  0.90416561  0.82999326  0.67460990  1
  P  P24  1  0.32471755  0.37944479  0.42508290  1
  P  P25  1  0.40401706  0.79844888  0.31265678  1
  P  P26  1  0.09598294  0.70155112  0.81265678  1
  P  P27  1  0.59583439  0.67000674  0.17460990  1
  O  O28  1  0.52404858  0.61050426  0.64153783  1
  O  O29  1  0.68580859  0.33479031  0.66057892  1
  O  O30  1  0.20265641  0.45979120  0.38035277  1
  O  O31  1  0.70919247  0.75012745  0.09005073  1
  O  O32  1  0.47829125  0.86607211  0.40145015  1
  O  O33  1  0.71359459  0.15185234  0.75359965  1
  O  O34  1  0.29177186  0.39722382  0.77150673  1
  O  O35  1  0.47595142  0.38949574  0.35846217  1
  O  O36  1  0.18580859  0.83479031  0.83942108  1
  O  O37  1  0.70822814  0.60277618  0.22849327  1
  O  O38  1  0.20919247  0.25012745  0.40994927  1
  O  O39  1  0.21359459  0.65185234  0.74640035  1
  O  O40  1  0.05798443  0.89442579  0.62271324  1
  O  O41  1  0.84364043  0.89524805  0.96479979  1
  O  O42  1  0.44201557  0.60557421  0.12271324  1
  O  O43  1  0.56085234  0.77108892  0.24867415  1
  O  O44  1  0.34364043  0.39524805  0.53520021  1
  O  O45  1  0.02170875  0.63392789  0.90145015  1
  O  O46  1  0.31419141  0.66520969  0.33942108  1
  O  O47  1  0.79734359  0.54020880  0.61964723  1
  O  O48  1  0.02404858  0.11050426  0.85846217  1
  O  O49  1  0.29080753  0.24987255  0.90994927  1
  O  O50  1  0.78640541  0.34814766  0.25359965  1
  O  O51  1  0.93914766  0.72891108  0.74867415  1
  O  O52  1  0.79816027  0.38425260  0.48469656  1
  O  O53  1  0.94201557  0.10557421  0.37728676  1
  O  O54  1  0.15635957  0.10475195  0.03520021  1
  O  O55  1  0.81419141  0.16520969  0.16057892  1
  O  O56  1  0.50190418  0.09352403  0.13729708  1
  O  O57  1  0.20822814  0.10277618  0.27150673  1
  O  O58  1  0.99809582  0.40647597  0.63729708  1
  O  O59  1  0.52170875  0.13392789  0.59854985  1
  O  O60  1  0.79080753  0.74987255  0.59005073  1
  O  O61  1  0.97595142  0.88949574  0.14153783  1
  O  O62  1  0.20183973  0.61574740  0.51530344  1
  O  O63  1  0.79177186  0.89722382  0.72849327  1
  O  O64  1  0.70183973  0.11574740  0.98469656  1
  O  O65  1  0.49809582  0.90647597  0.86270292  1
  O  O66  1  0.97829125  0.36607211  0.09854985  1
  O  O67  1  0.06085234  0.27108892  0.25132585  1
  O  O68  1  0.29816027  0.88425260  0.01530344  1
  O  O69  1  0.43914766  0.22891108  0.75132585  1
  O  O70  1  0.70265641  0.95979120  0.11964723  1
  O  O71  1  0.00190418  0.59352403  0.36270292  1
  O  O72  1  0.55798443  0.39442579  0.87728676  1
  O  O73  1  0.65635957  0.60475195  0.46479979  1
  O  O74  1  0.28640541  0.84814766  0.24640035  1
  O  O75  1  0.29734359  0.04020880  0.88035277  1
