# generated using pymatgen
data_Re3S4Br
_symmetry_space_group_name_H-M   'P 1'
_cell_length_a   6.45647826
_cell_length_b   10.19408120
_cell_length_c   11.66683827
_cell_angle_alpha   90.00000000
_cell_angle_beta   90.00000000
_cell_angle_gamma   99.91858273
_symmetry_Int_Tables_number   1
_chemical_formula_structural   Re3S4Br
_chemical_formula_sum   'Re12 S16 Br4'
_cell_volume   756.40916602
_cell_formula_units_Z   4
loop_
 _symmetry_equiv_pos_site_id
 _symmetry_equiv_pos_as_xyz
  1  'x, y, z'
loop_
 _atom_site_type_symbol
 _atom_site_label
 _atom_site_symmetry_multiplicity
 _atom_site_fract_x
 _atom_site_fract_y
 _atom_site_fract_z
 _atom_site_occupancy
  Re  Re0  1  0.25197999  0.56317137  0.47589603  1
  Re  Re1  1  0.62269704  0.66461270  0.55911598  1
  Re  Re2  1  0.41040993  0.44645705  0.64709712  1
  Re  Re3  1  0.74802001  0.43682863  0.52410397  1
  Re  Re4  1  0.24802001  0.93682863  0.97589603  1
  Re  Re5  1  0.75197999  0.06317137  0.02410397  1
  Re  Re6  1  0.37730296  0.33538730  0.44088402  1
  Re  Re7  1  0.12269704  0.16461270  0.94088402  1
  Re  Re8  1  0.58959007  0.55354295  0.35290288  1
  Re  Re9  1  0.87730296  0.83538730  0.05911598  1
  Re  Re10  1  0.08959007  0.05354295  0.14709712  1
  Re  Re11  1  0.91040993  0.94645705  0.85290288  1
  S  S12  1  0.69650788  0.33826067  0.33599269  1
  S  S13  1  0.92269235  0.65551673  0.43613340  1
  S  S14  1  0.42269235  0.15551673  0.06386660  1
  S  S15  1  0.75675531  0.54089856  0.70989637  1
  S  S16  1  0.74324469  0.95910144  0.20989637  1
  S  S17  1  0.96419641  0.25869247  0.10205826  1
  S  S18  1  0.03580359  0.74130753  0.89794174  1
  S  S19  1  0.24324469  0.45910144  0.29010363  1
  S  S20  1  0.57730765  0.84448327  0.93613340  1
  S  S21  1  0.07730765  0.34448327  0.56386660  1
  S  S22  1  0.53580359  0.24130753  0.60205826  1
  S  S23  1  0.30349212  0.66173933  0.66400731  1
  S  S24  1  0.80349212  0.16173933  0.83599269  1
  S  S25  1  0.46419641  0.75869247  0.39794174  1
  S  S26  1  0.19650788  0.83826067  0.16400731  1
  S  S27  1  0.25675531  0.04089856  0.79010363  1
  Br  Br28  1  0.20633448  0.09752523  0.36468262  1
  Br  Br29  1  0.70633448  0.59752523  0.13531738  1
  Br  Br30  1  0.79366552  0.90247477  0.63531738  1
  Br  Br31  1  0.29366552  0.40247477  0.86468262  1
