# generated using pymatgen
data_K4US3O14
_symmetry_space_group_name_H-M   'P 1'
_cell_length_a   9.39714694
_cell_length_b   13.41075172
_cell_length_c   23.65084045
_cell_angle_alpha   90.00000000
_cell_angle_beta   90.00000000
_cell_angle_gamma   90.00000000
_symmetry_Int_Tables_number   1
_chemical_formula_structural   K4US3O14
_chemical_formula_sum   'K32 U8 S24 O112'
_cell_volume   2980.54524202
_cell_formula_units_Z   8
loop_
 _symmetry_equiv_pos_site_id
 _symmetry_equiv_pos_as_xyz
  1  'x, y, z'
loop_
 _atom_site_type_symbol
 _atom_site_label
 _atom_site_symmetry_multiplicity
 _atom_site_fract_x
 _atom_site_fract_y
 _atom_site_fract_z
 _atom_site_occupancy
  K  K0  1  0.67250273  0.28823569  0.47395785  1
  K  K1  1  0.16123824  0.49360776  0.66807862  1
  K  K2  1  0.12245156  0.68488937  0.25000000  1
  K  K3  1  0.86164538  0.06169726  0.87350730  1
  K  K4  1  0.83876176  0.50639224  0.33192138  1
  K  K5  1  0.83876176  0.50639224  0.16807862  1
  K  K6  1  0.33876176  0.99360776  0.66807862  1
  K  K7  1  0.36164538  0.43830274  0.37350730  1
  K  K8  1  0.13835462  0.93830274  0.37350730  1
  K  K9  1  0.62245156  0.81511063  0.75000000  1
  K  K10  1  0.66123824  0.00639224  0.16807862  1
  K  K11  1  0.37754844  0.18488937  0.25000000  1
  K  K12  1  0.86164538  0.06169726  0.62649270  1
  K  K13  1  0.82749727  0.78823569  0.02604215  1
  K  K14  1  0.16123824  0.49360776  0.83192138  1
  K  K15  1  0.82749727  0.78823569  0.47395785  1
  K  K16  1  0.87754844  0.31511063  0.75000000  1
  K  K17  1  0.50000000  0.00000000  0.50000000  1
  K  K18  1  0.67250273  0.28823569  0.02604215  1
  K  K19  1  0.63835462  0.56169726  0.62649270  1
  K  K20  1  0.32749727  0.71176431  0.97395785  1
  K  K21  1  0.36164538  0.43830274  0.12649270  1
  K  K22  1  0.17250273  0.21176431  0.97395785  1
  K  K23  1  0.66123824  0.00639224  0.33192138  1
  K  K24  1  0.00000000  0.50000000  0.00000000  1
  K  K25  1  0.50000000  0.00000000  0.00000000  1
  K  K26  1  0.13835462  0.93830274  0.12649270  1
  K  K27  1  0.33876176  0.99360776  0.83192138  1
  K  K28  1  0.17250273  0.21176431  0.52604215  1
  K  K29  1  0.00000000  0.50000000  0.50000000  1
  K  K30  1  0.32749727  0.71176431  0.52604215  1
  K  K31  1  0.63835462  0.56169726  0.87350730  1
  U  U32  1  0.00335920  0.23171664  0.36300273  1
  U  U33  1  0.00335920  0.23171664  0.13699727  1
  U  U34  1  0.99664080  0.76828336  0.86300273  1
  U  U35  1  0.49664080  0.73171664  0.36300273  1
  U  U36  1  0.99664080  0.76828336  0.63699727  1
  U  U37  1  0.50335920  0.26828336  0.63699727  1
  U  U38  1  0.49664080  0.73171664  0.13699727  1
  U  U39  1  0.50335920  0.26828336  0.86300273  1
  S  S40  1  0.35632647  0.42604061  0.55582601  1
  S  S41  1  0.76777974  0.76895081  0.25000000  1
  S  S42  1  0.64367353  0.57395939  0.05582601  1
  S  S43  1  0.37937363  0.17819220  0.40062032  1
  S  S44  1  0.64367353  0.57395939  0.44417399  1
  S  S45  1  0.14367353  0.92604061  0.55582601  1
  S  S46  1  0.12062637  0.67819220  0.09937968  1
  S  S47  1  0.14367353  0.92604061  0.94417399  1
  S  S48  1  0.12062637  0.67819220  0.40062032  1
  S  S49  1  0.35632647  0.42604061  0.94417399  1
  S  S50  1  0.35519875  0.90705711  0.25000000  1
  S  S51  1  0.85632647  0.07395939  0.44417399  1
  S  S52  1  0.64480125  0.09294289  0.75000000  1
  S  S53  1  0.73222026  0.26895081  0.25000000  1
  S  S54  1  0.87937363  0.32180780  0.90062032  1
  S  S55  1  0.85519875  0.59294289  0.75000000  1
  S  S56  1  0.14480125  0.40705711  0.25000000  1
  S  S57  1  0.37937363  0.17819220  0.09937968  1
  S  S58  1  0.62062637  0.82180780  0.59937968  1
  S  S59  1  0.62062637  0.82180780  0.90062032  1
  S  S60  1  0.85632647  0.07395939  0.05582601  1
  S  S61  1  0.87937363  0.32180780  0.59937968  1
  S  S62  1  0.26777974  0.73104919  0.75000000  1
  S  S63  1  0.23222026  0.23104919  0.75000000  1
  O  O64  1  0.00854701  0.11095531  0.44552455  1
  O  O65  1  0.28583362  0.45203930  0.25000000  1
  O  O66  1  0.96145899  0.87512479  0.81883583  1
  O  O67  1  0.92682379  0.32234341  0.96042515  1
  O  O68  1  0.71582594  0.58576486  0.49879142  1
  O  O69  1  0.50854701  0.38904469  0.94552455  1
  O  O70  1  0.65070084  0.47019781  0.42358929  1
  O  O71  1  0.15070084  0.02980219  0.92358929  1
  O  O72  1  0.84929916  0.97019781  0.07641071  1
  O  O73  1  0.21047057  0.85739589  0.89977551  1
  O  O74  1  0.76882780  0.77037625  0.59995972  1
  O  O75  1  0.03031696  0.48255709  0.25000000  1
  O  O76  1  0.49145299  0.61095531  0.44552455  1
  O  O77  1  0.97313551  0.26040288  0.86478338  1
  O  O78  1  0.78952943  0.14260411  0.10022449  1
  O  O79  1  0.07317621  0.67765659  0.46042515  1
  O  O80  1  0.17439615  0.71063203  0.69827380  1
  O  O81  1  0.95989433  0.33746575  0.09098688  1
  O  O82  1  0.32560385  0.21063203  0.69827380  1
  O  O83  1  0.71047057  0.64260411  0.39977551  1
  O  O84  1  0.04010567  0.66253425  0.90901312  1
  O  O85  1  0.21416638  0.95203930  0.25000000  1
  O  O86  1  0.47313551  0.23959712  0.36478338  1
  O  O87  1  0.57317621  0.82234341  0.53957485  1
  O  O88  1  0.13548814  0.57553285  0.37872723  1
  O  O89  1  0.71582594  0.58576486  0.00120858  1
  O  O90  1  0.36451186  0.07553285  0.12127277  1
  O  O91  1  0.57317621  0.82234341  0.96042515  1
  O  O92  1  0.42682379  0.17765659  0.46042515  1
  O  O93  1  0.49145299  0.61095531  0.05447545  1
  O  O94  1  0.42682379  0.17765659  0.03957485  1
  O  O95  1  0.04010567  0.66253425  0.59098688  1
  O  O96  1  0.45989433  0.16253425  0.59098688  1
  O  O97  1  0.23117220  0.22962375  0.09995972  1
  O  O98  1  0.32560385  0.21063203  0.80172620  1
  O  O99  1  0.73117220  0.27037625  0.90004028  1
  O  O100  1  0.81203458  0.66345945  0.25000000  1
  O  O101  1  0.37021135  0.83982522  0.19870200  1
  O  O102  1  0.71047057  0.64260411  0.10022449  1
  O  O103  1  0.73117220  0.27037625  0.59995972  1
  O  O104  1  0.54010567  0.83746575  0.40901312  1
  O  O105  1  0.17439615  0.71063203  0.80172620  1
  O  O106  1  0.12978865  0.33982522  0.30129800  1
  O  O107  1  0.46145899  0.62487521  0.18116417  1
  O  O108  1  0.97313551  0.26040288  0.63521662  1
  O  O109  1  0.82560385  0.28936797  0.30172620  1
  O  O110  1  0.76882780  0.77037625  0.90004028  1
  O  O111  1  0.21047057  0.85739589  0.60022449  1
  O  O112  1  0.84929916  0.97019781  0.42358929  1
  O  O113  1  0.15070084  0.02980219  0.57641071  1
  O  O114  1  0.12978865  0.33982522  0.19870200  1
  O  O115  1  0.50854701  0.38904469  0.55447545  1
  O  O116  1  0.92682379  0.32234341  0.53957485  1
  O  O117  1  0.13548814  0.57553285  0.12127277  1
  O  O118  1  0.02686449  0.73959712  0.36478338  1
  O  O119  1  0.26882780  0.72962375  0.40004028  1
  O  O120  1  0.34929916  0.52980219  0.57641071  1
  O  O121  1  0.53854101  0.37512479  0.68116417  1
  O  O122  1  0.36451186  0.07553285  0.37872723  1
  O  O123  1  0.87021135  0.66017478  0.69870200  1
  O  O124  1  0.03854101  0.12487521  0.18116417  1
  O  O125  1  0.46145899  0.62487521  0.31883583  1
  O  O126  1  0.28417406  0.41423514  0.99879142  1
  O  O127  1  0.78417406  0.08576486  0.00120858  1
  O  O128  1  0.67439615  0.78936797  0.19827380  1
  O  O129  1  0.28952943  0.35739589  0.89977551  1
  O  O130  1  0.96968304  0.51744291  0.75000000  1
  O  O131  1  0.67439615  0.78936797  0.30172620  1
  O  O132  1  0.99145299  0.88904469  0.55447545  1
  O  O133  1  0.31203458  0.83654055  0.75000000  1
  O  O134  1  0.86451186  0.42446715  0.87872723  1
  O  O135  1  0.03854101  0.12487521  0.31883583  1
  O  O136  1  0.63548814  0.92446715  0.87872723  1
  O  O137  1  0.11405395  0.16069340  0.75000000  1
  O  O138  1  0.21582594  0.91423514  0.99879142  1
  O  O139  1  0.52686449  0.76040288  0.86478338  1
  O  O140  1  0.00854701  0.11095531  0.05447545  1
  O  O141  1  0.87021135  0.66017478  0.80129800  1
  O  O142  1  0.78952943  0.14260411  0.39977551  1
  O  O143  1  0.71416638  0.54796070  0.75000000  1
  O  O144  1  0.46968304  0.98255709  0.25000000  1
  O  O145  1  0.02686449  0.73959712  0.13521662  1
  O  O146  1  0.88594605  0.83930660  0.25000000  1
  O  O147  1  0.37021135  0.83982522  0.30129800  1
  O  O148  1  0.68796542  0.16345945  0.25000000  1
  O  O149  1  0.18796542  0.33654055  0.75000000  1
  O  O150  1  0.82560385  0.28936797  0.19827380  1
  O  O151  1  0.61405395  0.33930660  0.25000000  1
  O  O152  1  0.38594605  0.66069340  0.75000000  1
  O  O153  1  0.54010567  0.83746575  0.09098688  1
  O  O154  1  0.52686449  0.76040288  0.63521662  1
  O  O155  1  0.21582594  0.91423514  0.50120858  1
  O  O156  1  0.96145899  0.87512479  0.68116417  1
  O  O157  1  0.63548814  0.92446715  0.62127277  1
  O  O158  1  0.26882780  0.72962375  0.09995972  1
  O  O159  1  0.78417406  0.08576486  0.49879142  1
  O  O160  1  0.86451186  0.42446715  0.62127277  1
  O  O161  1  0.78583362  0.04796070  0.75000000  1
  O  O162  1  0.99145299  0.88904469  0.94552455  1
  O  O163  1  0.53031696  0.01744291  0.75000000  1
  O  O164  1  0.28952943  0.35739589  0.60022449  1
  O  O165  1  0.28417406  0.41423514  0.50120858  1
  O  O166  1  0.65070084  0.47019781  0.07641071  1
  O  O167  1  0.62978865  0.16017478  0.80129800  1
  O  O168  1  0.95989433  0.33746575  0.40901312  1
  O  O169  1  0.07317621  0.67765659  0.03957485  1
  O  O170  1  0.53854101  0.37512479  0.81883583  1
  O  O171  1  0.47313551  0.23959712  0.13521662  1
  O  O172  1  0.62978865  0.16017478  0.69870200  1
  O  O173  1  0.34929916  0.52980219  0.92358929  1
  O  O174  1  0.23117220  0.22962375  0.40004028  1
  O  O175  1  0.45989433  0.16253425  0.90901312  1
