# generated using pymatgen
data_Pr14Si11Ni6
_symmetry_space_group_name_H-M   'P 1'
_cell_length_a   4.28243457
_cell_length_b   17.32210546
_cell_length_c   21.60504714
_cell_angle_alpha   114.13117300
_cell_angle_beta   89.98923063
_cell_angle_gamma   97.09900243
_symmetry_Int_Tables_number   1
_chemical_formula_structural   Pr14Si11Ni6
_chemical_formula_sum   'Pr28 Si22 Ni12'
_cell_volume   1449.16808222
_cell_formula_units_Z   2
loop_
 _symmetry_equiv_pos_site_id
 _symmetry_equiv_pos_as_xyz
  1  'x, y, z'
loop_
 _atom_site_type_symbol
 _atom_site_label
 _atom_site_symmetry_multiplicity
 _atom_site_fract_x
 _atom_site_fract_y
 _atom_site_fract_z
 _atom_site_occupancy
  Pr  Pr0  1  0.00480839  0.01014163  0.18117355  1
  Pr  Pr1  1  0.29077095  0.58470118  0.17715749  1
  Pr  Pr2  1  0.50125997  0.00740352  0.67887241  1
  Pr  Pr3  1  0.28629010  0.57672452  0.97581204  1
  Pr  Pr4  1  0.61251974  0.22922160  0.64698658  1
  Pr  Pr5  1  0.38886696  0.78210561  0.53774437  1
  Pr  Pr6  1  0.38465126  0.77055474  0.35230378  1
  Pr  Pr7  1  0.60863395  0.21684885  0.28637741  1
  Pr  Pr8  1  0.28647795  0.57839761  0.77185733  1
  Pr  Pr9  1  0.88966184  0.78261795  0.03691705  1
  Pr  Pr10  1  0.71128205  0.42339532  0.42597097  1
  Pr  Pr11  1  0.38929736  0.78354824  0.71382436  1
  Pr  Pr12  1  0.89601227  0.79288843  0.21426522  1
  Pr  Pr13  1  0.28678811  0.57668664  0.57381252  1
  Pr  Pr14  1  0.10629909  0.21735939  0.96253276  1
  Pr  Pr15  1  0.70673047  0.41493996  0.82206761  1
  Pr  Pr16  1  0.28665588  0.57559078  0.37556488  1
  Pr  Pr17  1  0.49766402  0.99362740  0.32158041  1
  Pr  Pr18  1  0.71177728  0.42151934  0.22743091  1
  Pr  Pr19  1  0.10136292  0.20673980  0.78524236  1
  Pr  Pr20  1  0.70973072  0.42431322  0.62434915  1
  Pr  Pr21  1  0.71140869  0.42288259  0.02321739  1
  Pr  Pr22  1  0.99776956  0.00014573  0.00035830  1
  Pr  Pr23  1  0.88380826  0.77441189  0.85626256  1
  Pr  Pr24  1  0.99185164  0.98981794  0.81904305  1
  Pr  Pr25  1  0.60842780  0.21864491  0.46290566  1
  Pr  Pr26  1  0.49887858  0.99971892  0.50003808  1
  Pr  Pr27  1  0.11269261  0.22500060  0.14313005  1
  Si  Si28  1  0.92964294  0.86464579  0.65621732  1
  Si  Si29  1  0.06999264  0.13517892  0.34435497  1
  Si  Si30  1  0.18365239  0.37050138  0.50698934  1
  Si  Si31  1  0.81682649  0.63844170  0.69394604  1
  Si  Si32  1  0.18566181  0.37149278  0.90910444  1
  Si  Si33  1  0.81364468  0.63031468  0.49307047  1
  Si  Si34  1  0.92305747  0.84967787  0.46623871  1
  Si  Si35  1  0.56370773  0.13314357  0.84356401  1
  Si  Si36  1  0.07387529  0.15053244  0.53386047  1
  Si  Si37  1  0.80580363  0.61820881  0.88886012  1
  Si  Si38  1  0.42217385  0.84918167  0.96556279  1
  Si  Si39  1  0.57391917  0.15049801  0.03444135  1
  Si  Si40  1  0.18105556  0.36174514  0.30578870  1
  Si  Si41  1  0.19194028  0.38188278  0.11057771  1
  Si  Si42  1  0.18509689  0.37350672  0.70823103  1
  Si  Si43  1  0.81156018  0.62602331  0.29155206  1
  Si  Si44  1  0.45316790  0.91336937  0.87884209  1
  Si  Si45  1  0.95703198  0.91325038  0.37982196  1
  Si  Si46  1  0.54354591  0.08743961  0.12103449  1
  Si  Si47  1  0.04134267  0.08652602  0.62004180  1
  Si  Si48  1  0.81205914  0.62847990  0.09041748  1
  Si  Si49  1  0.43290493  0.86740099  0.15595811  1
  Ni  Ni50  1  0.85301534  0.70894926  0.61428561  1
  Ni  Ni51  1  0.14602378  0.29173019  0.38582029  1
  Ni  Ni52  1  0.64392831  0.28910441  0.88563047  1
  Ni  Ni53  1  0.65240727  0.30359124  0.08535069  1
  Ni  Ni54  1  0.03343201  0.06412954  0.41977515  1
  Ni  Ni55  1  0.34513913  0.69645354  0.91406905  1
  Ni  Ni56  1  0.52857946  0.06454553  0.92028597  1
  Ni  Ni57  1  0.96515035  0.93567765  0.57979666  1
  Ni  Ni58  1  0.84873885  0.69885739  0.41695656  1
  Ni  Ni59  1  0.14825482  0.30108229  0.58298407  1
  Ni  Ni60  1  0.46707400  0.93514312  0.07933614  1
  Ni  Ni61  1  0.35306772  0.71071673  0.11372064  1
