# generated using pymatgen
data_Tm(BO2)3
_symmetry_space_group_name_H-M   'P 1'
_cell_length_a   7.39809707
_cell_length_b   12.21973331
_cell_length_c   15.89855827
_cell_angle_alpha   90.00000000
_cell_angle_beta   90.00000000
_cell_angle_gamma   90.00000000
_symmetry_Int_Tables_number   1
_chemical_formula_structural   Tm(BO2)3
_chemical_formula_sum   'Tm16 B48 O96'
_cell_volume   1437.27375744
_cell_formula_units_Z   16
loop_
 _symmetry_equiv_pos_site_id
 _symmetry_equiv_pos_as_xyz
  1  'x, y, z'
loop_
 _atom_site_type_symbol
 _atom_site_label
 _atom_site_symmetry_multiplicity
 _atom_site_fract_x
 _atom_site_fract_y
 _atom_site_fract_z
 _atom_site_occupancy
  Tm  Tm0  1  0.75000000  0.76499440  0.62867536  1
  Tm  Tm1  1  0.75000000  0.01019125  0.12062805  1
  Tm  Tm2  1  0.75000000  0.43552531  0.32696624  1
  Tm  Tm3  1  0.75000000  0.48980875  0.62062805  1
  Tm  Tm4  1  0.25000000  0.26499440  0.87132464  1
  Tm  Tm5  1  0.75000000  0.06447469  0.82696624  1
  Tm  Tm6  1  0.25000000  0.56447469  0.67303376  1
  Tm  Tm7  1  0.25000000  0.23500560  0.37132464  1
  Tm  Tm8  1  0.25000000  0.93552531  0.17303376  1
  Tm  Tm9  1  0.25000000  0.98980875  0.87937195  1
  Tm  Tm10  1  0.25000000  0.51019125  0.37937195  1
  Tm  Tm11  1  0.75000000  0.41169950  0.95146621  1
  Tm  Tm12  1  0.75000000  0.08830050  0.45146621  1
  Tm  Tm13  1  0.25000000  0.91169950  0.54853379  1
  Tm  Tm14  1  0.25000000  0.58830050  0.04853379  1
  Tm  Tm15  1  0.75000000  0.73500560  0.12867536  1
  B  B16  1  0.56875568  0.12815449  0.25866162  1
  B  B17  1  0.05917527  0.82346326  0.03310912  1
  B  B18  1  0.92972512  0.68551621  0.78240742  1
  B  B19  1  0.56875568  0.37184551  0.75866162  1
  B  B20  1  0.93124432  0.37184551  0.75866162  1
  B  B21  1  0.42348330  0.14222592  0.10955390  1
  B  B22  1  0.57651670  0.64222592  0.39044610  1
  B  B23  1  0.42655556  0.34582697  0.05587997  1
  B  B24  1  0.55917527  0.32346326  0.46689088  1
  B  B25  1  0.92348330  0.85777408  0.89044610  1
  B  B26  1  0.57834909  0.48281335  0.15190863  1
  B  B27  1  0.92165091  0.01718665  0.65190863  1
  B  B28  1  0.42165091  0.51718665  0.84809137  1
  B  B29  1  0.06875568  0.62815449  0.24133838  1
  B  B30  1  0.07027488  0.18551621  0.71759258  1
  B  B31  1  0.94082473  0.32346326  0.46689088  1
  B  B32  1  0.57344444  0.84582697  0.44412003  1
  B  B33  1  0.07027488  0.31448379  0.21759258  1
  B  B34  1  0.42972512  0.18551621  0.71759258  1
  B  B35  1  0.07834909  0.51718665  0.84809137  1
  B  B36  1  0.92655556  0.84582697  0.44412003  1
  B  B37  1  0.93124432  0.12815449  0.25866162  1
  B  B38  1  0.92348330  0.64222592  0.39044610  1
  B  B39  1  0.44082473  0.82346326  0.03310912  1
  B  B40  1  0.57344444  0.65417303  0.94412003  1
  B  B41  1  0.43124432  0.87184551  0.74133838  1
  B  B42  1  0.07834909  0.98281335  0.34809137  1
  B  B43  1  0.07651670  0.35777408  0.60955390  1
  B  B44  1  0.55917527  0.17653674  0.96689088  1
  B  B45  1  0.42655556  0.15417303  0.55587997  1
  B  B46  1  0.92655556  0.65417303  0.94412003  1
  B  B47  1  0.42348330  0.35777408  0.60955390  1
  B  B48  1  0.57027488  0.68551621  0.78240742  1
  B  B49  1  0.57651670  0.85777408  0.89044610  1
  B  B50  1  0.57027488  0.81448379  0.28240742  1
  B  B51  1  0.05917527  0.67653674  0.53310912  1
  B  B52  1  0.07651670  0.14222592  0.10955390  1
  B  B53  1  0.07344444  0.34582697  0.05587997  1
  B  B54  1  0.42165091  0.98281335  0.34809137  1
  B  B55  1  0.57834909  0.01718665  0.65190863  1
  B  B56  1  0.44082473  0.67653674  0.53310912  1
  B  B57  1  0.43124432  0.62815449  0.24133838  1
  B  B58  1  0.42972512  0.31448379  0.21759258  1
  B  B59  1  0.92972512  0.81448379  0.28240742  1
  B  B60  1  0.94082473  0.17653674  0.96689088  1
  B  B61  1  0.07344444  0.15417303  0.55587997  1
  B  B62  1  0.92165091  0.48281335  0.15190863  1
  B  B63  1  0.06875568  0.87184551  0.74133838  1
  O  O64  1  0.02465331  0.21005484  0.47653439  1
  O  O65  1  0.06142331  0.93084837  0.43163498  1
  O  O66  1  0.97534669  0.71005484  0.02346561  1
  O  O67  1  0.56142331  0.06915163  0.56836502  1
  O  O68  1  0.56617976  0.12147311  0.04793021  1
  O  O69  1  0.25000000  0.63939821  0.27607969  1
  O  O70  1  0.56754259  0.06367717  0.33673458  1
  O  O71  1  0.75000000  0.64273970  0.75506839  1
  O  O72  1  0.43857669  0.56915163  0.93163498  1
  O  O73  1  0.75000000  0.60021036  0.95203771  1
  O  O74  1  0.54394584  0.87952269  0.09719438  1
  O  O75  1  0.47534669  0.21005484  0.47653439  1
  O  O76  1  0.75000000  0.13939821  0.22392031  1
  O  O77  1  0.75000000  0.60339622  0.42222450  1
  O  O78  1  0.03441772  0.07612023  0.18562619  1
  O  O79  1  0.43382024  0.87852689  0.95206979  1
  O  O80  1  0.43250741  0.60138991  0.78189809  1
  O  O81  1  0.56754259  0.43632283  0.83673458  1
  O  O82  1  0.75000000  0.30365655  0.43246353  1
  O  O83  1  0.56749259  0.39861009  0.21810191  1
  O  O84  1  0.93857669  0.43084837  0.06836502  1
  O  O85  1  0.25000000  0.80365655  0.06753647  1
  O  O86  1  0.56749259  0.10138991  0.71810191  1
  O  O87  1  0.92587785  0.76482853  0.37145216  1
  O  O88  1  0.07412215  0.26482853  0.12854784  1
  O  O89  1  0.25000000  0.39660378  0.57777550  1
  O  O90  1  0.75000000  0.54284506  0.15806364  1
  O  O91  1  0.52254013  0.77038441  0.72236063  1
  O  O92  1  0.53441772  0.92387977  0.81437381  1
  O  O93  1  0.25000000  0.35726030  0.24493161  1
  O  O94  1  0.75000000  0.89660378  0.92222450  1
  O  O95  1  0.54394584  0.62047731  0.59719438  1
  O  O96  1  0.96558228  0.92387977  0.81437381  1
  O  O97  1  0.57412215  0.73517147  0.87145216  1
  O  O98  1  0.25000000  0.04284506  0.34193636  1
  O  O99  1  0.06617976  0.62147311  0.45206979  1
  O  O100  1  0.93857669  0.06915163  0.56836502  1
  O  O101  1  0.46558228  0.07612023  0.18562619  1
  O  O102  1  0.06617976  0.87852689  0.95206979  1
  O  O103  1  0.42587785  0.23517147  0.62854784  1
  O  O104  1  0.45605416  0.37952269  0.40280562  1
  O  O105  1  0.56617976  0.37852689  0.54793021  1
  O  O106  1  0.95605416  0.87952269  0.09719438  1
  O  O107  1  0.06142331  0.56915163  0.93163498  1
  O  O108  1  0.93382024  0.12147311  0.04793021  1
  O  O109  1  0.02254013  0.27038441  0.77763937  1
  O  O110  1  0.97745987  0.72961559  0.22236063  1
  O  O111  1  0.75000000  0.85726030  0.25506839  1
  O  O112  1  0.06749259  0.60138991  0.78189809  1
  O  O113  1  0.75000000  0.89978964  0.45203771  1
  O  O114  1  0.25000000  0.10021036  0.54796229  1
  O  O115  1  0.25000000  0.39978964  0.04796229  1
  O  O116  1  0.03441772  0.42387977  0.68562619  1
  O  O117  1  0.97745987  0.77038441  0.72236063  1
  O  O118  1  0.43382024  0.62147311  0.45206979  1
  O  O119  1  0.43245741  0.93632283  0.66326542  1
  O  O120  1  0.93250741  0.39861009  0.21810191  1
  O  O121  1  0.25000000  0.69634345  0.56753647  1
  O  O122  1  0.47534669  0.28994516  0.97653439  1
  O  O123  1  0.02254013  0.22961559  0.27763937  1
  O  O124  1  0.93382024  0.37852689  0.54793021  1
  O  O125  1  0.56142331  0.43084837  0.06836502  1
  O  O126  1  0.47745987  0.22961559  0.27763937  1
  O  O127  1  0.25000000  0.14273970  0.74493161  1
  O  O128  1  0.25000000  0.10339622  0.07777550  1
  O  O129  1  0.02465331  0.28994516  0.97653439  1
  O  O130  1  0.06754259  0.56367717  0.16326542  1
  O  O131  1  0.43857669  0.93084837  0.43163498  1
  O  O132  1  0.04394584  0.12047731  0.90280562  1
  O  O133  1  0.46558228  0.42387977  0.68562619  1
  O  O134  1  0.75000000  0.19634345  0.93246353  1
  O  O135  1  0.52465331  0.78994516  0.52346561  1
  O  O136  1  0.42587785  0.26482853  0.12854784  1
  O  O137  1  0.97534669  0.78994516  0.52346561  1
  O  O138  1  0.53441772  0.57612023  0.31437381  1
  O  O139  1  0.57412215  0.76482853  0.37145216  1
  O  O140  1  0.43250741  0.89861009  0.28189809  1
  O  O141  1  0.06754259  0.93632283  0.66326542  1
  O  O142  1  0.25000000  0.86060179  0.77607969  1
  O  O143  1  0.45605416  0.12047731  0.90280562  1
  O  O144  1  0.75000000  0.36060179  0.72392031  1
  O  O145  1  0.75000000  0.95715494  0.65806364  1
  O  O146  1  0.25000000  0.45715494  0.84193636  1
  O  O147  1  0.04394584  0.37952269  0.40280562  1
  O  O148  1  0.07412215  0.23517147  0.62854784  1
  O  O149  1  0.92587785  0.73517147  0.87145216  1
  O  O150  1  0.95605416  0.62047731  0.59719438  1
  O  O151  1  0.43245741  0.56367717  0.16326542  1
  O  O152  1  0.93250741  0.10138991  0.71810191  1
  O  O153  1  0.47745987  0.27038441  0.77763937  1
  O  O154  1  0.06749259  0.89861009  0.28189809  1
  O  O155  1  0.96558228  0.57612023  0.31437381  1
  O  O156  1  0.52465331  0.71005484  0.02346561  1
  O  O157  1  0.93245741  0.06367717  0.33673458  1
  O  O158  1  0.52254013  0.72961559  0.22236063  1
  O  O159  1  0.93245741  0.43632283  0.83673458  1
