# generated using pymatgen
data_Fe(PO3)2
_symmetry_space_group_name_H-M   'P 1'
_cell_length_a   7.40509685
_cell_length_b   7.41215423
_cell_length_c   9.89144635
_cell_angle_alpha   97.96828955
_cell_angle_beta   110.85941593
_cell_angle_gamma   109.88528746
_symmetry_Int_Tables_number   1
_chemical_formula_structural   Fe(PO3)2
_chemical_formula_sum   'Fe4 P8 O24'
_cell_volume   455.76735939
_cell_formula_units_Z   4
loop_
 _symmetry_equiv_pos_site_id
 _symmetry_equiv_pos_as_xyz
  1  'x, y, z'
loop_
 _atom_site_type_symbol
 _atom_site_label
 _atom_site_symmetry_multiplicity
 _atom_site_fract_x
 _atom_site_fract_y
 _atom_site_fract_z
 _atom_site_occupancy
  Fe  Fe0  1  0.70009059  0.94918443  0.75003939  1
  Fe  Fe1  1  0.29927926  0.05028351  0.24931609  1
  Fe  Fe2  1  0.49826120  0.99898669  0.00077728  1
  Fe  Fe3  1  0.50088504  0.49860087  0.49950389  1
  P  P4  1  0.00832916  0.69809529  0.69394858  1
  P  P5  1  0.20249039  0.74414786  0.47549916  1
  P  P6  1  0.76780424  0.72324483  0.02257507  1
  P  P7  1  0.79931926  0.25571041  0.52413898  1
  P  P8  1  0.99153962  0.30060632  0.30561380  1
  P  P9  1  0.23013427  0.27630013  0.97506811  1
  P  P10  1  0.49722823  0.68540035  0.19493803  1
  P  P11  1  0.50397028  0.31299712  0.80510261  1
  O  O12  1  0.79929342  0.19513464  0.15836534  1
  O  O13  1  0.46320550  0.87346880  0.18085456  1
  O  O14  1  0.75616579  0.08953841  0.59204017  1
  O  O15  1  0.54221804  0.64099148  0.34239021  1
  O  O16  1  0.39030050  0.71502104  0.58270221  1
  O  O17  1  0.04010107  0.53564092  0.34181686  1
  O  O18  1  0.46190731  0.35657218  0.65758538  1
  O  O19  1  0.19439024  0.28004450  0.32169633  1
  O  O20  1  0.05593519  0.76741899  0.55784119  1
  O  O21  1  0.30727186  0.30622411  0.84278470  1
  O  O22  1  0.28816505  0.50421100  0.05897137  1
  O  O23  1  0.53734358  0.12493018  0.82114864  1
  O  O24  1  0.00238015  0.83386307  0.09132813  1
  O  O25  1  0.99484834  0.16748683  0.90622623  1
  O  O26  1  0.69146815  0.69223082  0.15516300  1
  O  O27  1  0.63004047  0.80312402  0.91565531  1
  O  O28  1  0.80456337  0.71732208  0.67631473  1
  O  O29  1  0.94685449  0.23199434  0.44256583  1
  O  O30  1  0.24481059  0.91112304  0.40742678  1
  O  O31  1  0.61312636  0.28636322  0.41628194  1
  O  O32  1  0.96313752  0.46430801  0.65811192  1
  O  O33  1  0.36532757  0.19428664  0.08206933  1
  O  O34  1  0.71161423  0.49463617  0.94101237  1
  O  O35  1  0.19778669  0.80525470  0.84257946  1
