# generated using pymatgen
data_Ca2Ti9O13
_symmetry_space_group_name_H-M   'P 1'
_cell_length_a   3.04832251
_cell_length_b   5.20316120
_cell_length_c   16.71736838
_cell_angle_alpha   98.80225244
_cell_angle_beta   89.99388922
_cell_angle_gamma   107.03836857
_symmetry_Int_Tables_number   1
_chemical_formula_structural   Ca2Ti9O13
_chemical_formula_sum   'Ca2 Ti9 O13'
_cell_volume   250.24812903
_cell_formula_units_Z   1
loop_
 _symmetry_equiv_pos_site_id
 _symmetry_equiv_pos_as_xyz
  1  'x, y, z'
loop_
 _atom_site_type_symbol
 _atom_site_label
 _atom_site_symmetry_multiplicity
 _atom_site_fract_x
 _atom_site_fract_y
 _atom_site_fract_z
 _atom_site_occupancy
  Ca  Ca0  1  0.21463209  0.42889211  0.22858237  1
  Ca  Ca1  1  0.78536791  0.57110789  0.77141763  1
  Ti  Ti2  1  0.50000000  -0.00000000  0.50000000  1
  Ti  Ti3  1  0.65679686  0.31393978  0.03546227  1
  Ti  Ti4  1  0.34320314  0.68606022  0.96453773  1
  Ti  Ti5  1  0.76067001  0.52267322  0.42645318  1
  Ti  Ti6  1  0.23932999  0.47732678  0.57354682  1
  Ti  Ti7  1  0.92971317  0.85949100  0.11481885  1
  Ti  Ti8  1  0.07028683  0.14050900  0.88518115  1
  Ti  Ti9  1  0.99035516  0.98006005  0.34066916  1
  Ti  Ti10  1  0.00964484  0.01993995  0.65933084  1
  O  O11  1  -0.00000000  -0.00000000  0.00000000  1
  O  O12  1  0.89502612  0.78916892  0.23025657  1
  O  O13  1  0.10497388  0.21083108  0.76974343  1
  O  O14  1  0.28517375  0.57029901  0.08705961  1
  O  O15  1  0.71482625  0.42970099  0.91294039  1
  O  O16  1  0.57372457  0.14692109  0.14141172  1
  O  O17  1  0.42627543  0.85307891  0.85858828  1
  O  O18  1  0.62424929  0.24764782  0.31822825  1
  O  O19  1  0.37575071  0.75235218  0.68177175  1
  O  O20  1  0.36863168  0.73702915  0.37787272  1
  O  O21  1  0.63136832  0.26297085  0.62212728  1
  O  O22  1  0.12055697  0.24135773  0.45262262  1
  O  O23  1  0.87944303  0.75864227  0.54737738  1
