# generated using pymatgen
data_LiEu3SiCl3O4
_symmetry_space_group_name_H-M   'P 1'
_cell_length_a   7.00757262
_cell_length_b   9.48792169
_cell_length_c   13.66370943
_cell_angle_alpha   90.00000000
_cell_angle_beta   90.00000000
_cell_angle_gamma   90.00000000
_symmetry_Int_Tables_number   1
_chemical_formula_structural   LiEu3SiCl3O4
_chemical_formula_sum   'Li4 Eu12 Si4 Cl12 O16'
_cell_volume   908.46315148
_cell_formula_units_Z   4
loop_
 _symmetry_equiv_pos_site_id
 _symmetry_equiv_pos_as_xyz
  1  'x, y, z'
loop_
 _atom_site_type_symbol
 _atom_site_label
 _atom_site_symmetry_multiplicity
 _atom_site_fract_x
 _atom_site_fract_y
 _atom_site_fract_z
 _atom_site_occupancy
  Eu  Eu0  1  0.00000000  0.74055542  0.00000000  1
  Eu  Eu1  1  0.00000000  0.25944458  0.00000000  1
  Eu  Eu2  1  0.22243298  0.00000000  0.18910703  1
  Eu  Eu3  1  0.77756702  0.50000000  0.68910703  1
  Eu  Eu4  1  0.66981562  0.25000000  0.25000000  1
  Eu  Eu5  1  0.77756702  0.00000000  0.81089297  1
  Eu  Eu6  1  0.00000000  0.75944458  0.50000000  1
  Eu  Eu7  1  0.66981562  0.75000000  0.25000000  1
  Eu  Eu8  1  0.33018438  0.25000000  0.75000000  1
  Eu  Eu9  1  0.00000000  0.24055542  0.50000000  1
  Eu  Eu10  1  0.33018438  0.75000000  0.75000000  1
  Eu  Eu11  1  0.22243298  0.50000000  0.31089297  1
  Li  Li12  1  0.50000000  0.50000000  0.00000000  1
  Li  Li13  1  0.50000000  0.50000000  0.50000000  1
  Li  Li14  1  0.50000000  0.00000000  0.50000000  1
  Li  Li15  1  0.50000000  0.00000000  0.00000000  1
  Si  Si16  1  0.79151579  0.50000000  0.38863102  1
  Si  Si17  1  0.79151579  0.00000000  0.11136898  1
  Si  Si18  1  0.20848421  0.00000000  0.88863102  1
  Si  Si19  1  0.20848421  0.50000000  0.61136898  1
  Cl  Cl20  1  0.80106804  0.00000000  0.39329048  1
  Cl  Cl21  1  0.66518811  0.68323239  0.87352092  1
  Cl  Cl22  1  0.66518811  0.18323239  0.62647908  1
  Cl  Cl23  1  0.66518811  0.81676761  0.62647908  1
  Cl  Cl24  1  0.19893196  0.00000000  0.60670952  1
  Cl  Cl25  1  0.33481189  0.68323239  0.12647908  1
  Cl  Cl26  1  0.33481189  0.81676761  0.37352092  1
  Cl  Cl27  1  0.33481189  0.18323239  0.37352092  1
  Cl  Cl28  1  0.19893196  0.50000000  0.89329048  1
  Cl  Cl29  1  0.66518811  0.31676761  0.87352092  1
  Cl  Cl30  1  0.80106804  0.50000000  0.10670952  1
  Cl  Cl31  1  0.33481189  0.31676761  0.12647908  1
  O  O32  1  0.22648901  0.50000000  0.49176743  1
  O  O33  1  0.57742489  0.50000000  0.33965637  1
  O  O34  1  0.08819394  0.63935303  0.64856249  1
  O  O35  1  0.91180606  0.86064697  0.14856249  1
  O  O36  1  0.08819394  0.36064697  0.64856249  1
  O  O37  1  0.91180606  0.13935303  0.14856249  1
  O  O38  1  0.77351099  0.50000000  0.50823257  1
  O  O39  1  0.91180606  0.63935303  0.35143751  1
  O  O40  1  0.42257511  0.50000000  0.66034363  1
  O  O41  1  0.57742489  0.00000000  0.16034363  1
  O  O42  1  0.08819394  0.86064697  0.85143751  1
  O  O43  1  0.42257511  0.00000000  0.83965637  1
  O  O44  1  0.77351099  0.00000000  0.99176743  1
  O  O45  1  0.22648901  0.00000000  0.00823257  1
  O  O46  1  0.08819394  0.13935303  0.85143751  1
  O  O47  1  0.91180606  0.36064697  0.35143751  1
