# generated using pymatgen
data_MgTi4O6
_symmetry_space_group_name_H-M   'P 1'
_cell_length_a   2.94282268
_cell_length_b   5.16166911
_cell_length_c   14.96203276
_cell_angle_alpha   90.00000000
_cell_angle_beta   90.00000000
_cell_angle_gamma   106.56273556
_symmetry_Int_Tables_number   1
_chemical_formula_structural   MgTi4O6
_chemical_formula_sum   'Mg2 Ti8 O12'
_cell_volume   217.84153044
_cell_formula_units_Z   2
loop_
 _symmetry_equiv_pos_site_id
 _symmetry_equiv_pos_as_xyz
  1  'x, y, z'
loop_
 _atom_site_type_symbol
 _atom_site_label
 _atom_site_symmetry_multiplicity
 _atom_site_fract_x
 _atom_site_fract_y
 _atom_site_fract_z
 _atom_site_occupancy
  Mg  Mg0  1  0.65800379  0.31600757  0.75000000  1
  Mg  Mg1  1  0.34199621  0.68399243  0.25000000  1
  Ti  Ti2  1  0.85348950  0.70698199  0.03968593  1
  Ti  Ti3  1  0.40229667  0.80459134  0.63023825  1
  Ti  Ti4  1  0.14650850  0.29301701  0.96031407  1
  Ti  Ti5  1  0.59770333  0.19540866  0.36976275  1
  Ti  Ti6  1  0.85348950  0.70698199  0.46031407  1
  Ti  Ti7  1  0.14650850  0.29301701  0.53968593  1
  Ti  Ti8  1  0.59770333  0.19540866  0.13023725  1
  Ti  Ti9  1  0.40229667  0.80459134  0.86976175  1
  O  O10  1  0.49999900  0.00000000  0.50000000  1
  O  O11  1  0.49999900  0.00000000  0.00000000  1
  O  O12  1  0.04428729  0.08857357  0.83805672  1
  O  O13  1  0.95571271  0.91142643  0.16194428  1
  O  O14  1  0.95571271  0.91142643  0.33805572  1
  O  O15  1  0.04428729  0.08857357  0.66194428  1
  O  O16  1  0.76485022  0.52970344  0.90425760  1
  O  O17  1  0.23514878  0.47029756  0.09574240  1
  O  O18  1  0.23514878  0.47029756  0.40425760  1
  O  O19  1  0.76485022  0.52970344  0.59574240  1
  O  O20  1  0.31077307  0.62154814  0.75000000  1
  O  O21  1  0.68922493  0.37845086  0.25000000  1
