# generated using pymatgen
data_K2P4PbO12
_symmetry_space_group_name_H-M   'P 1'
_cell_length_a   9.33453926
_cell_length_b   15.68322424
_cell_length_c   15.65595730
_cell_angle_alpha   90.00000000
_cell_angle_beta   90.00000000
_cell_angle_gamma   90.00000000
_symmetry_Int_Tables_number   1
_chemical_formula_structural   K2P4PbO12
_chemical_formula_sum   'K16 P32 Pb8 O96'
_cell_volume   2291.96439587
_cell_formula_units_Z   8
loop_
 _symmetry_equiv_pos_site_id
 _symmetry_equiv_pos_as_xyz
  1  'x, y, z'
loop_
 _atom_site_type_symbol
 _atom_site_label
 _atom_site_symmetry_multiplicity
 _atom_site_fract_x
 _atom_site_fract_y
 _atom_site_fract_z
 _atom_site_occupancy
  K  K0  1  0.80629736  0.26054670  0.69479101  1
  K  K1  1  0.69370264  0.76054670  0.69479101  1
  K  K2  1  0.69370264  0.73945330  0.19479101  1
  K  K3  1  0.13426016  0.39439059  0.10014448  1
  K  K4  1  0.86573984  0.60560941  0.89985552  1
  K  K5  1  0.36573984  0.60560941  0.60014448  1
  K  K6  1  0.63426016  0.39439059  0.39985552  1
  K  K7  1  0.13426016  0.10560941  0.60014448  1
  K  K8  1  0.30629736  0.23945330  0.30520899  1
  K  K9  1  0.19370264  0.76054670  0.80520899  1
  K  K10  1  0.86573984  0.89439059  0.39985552  1
  K  K11  1  0.63426016  0.10560941  0.89985552  1
  K  K12  1  0.36573984  0.89439059  0.10014448  1
  K  K13  1  0.30629736  0.26054670  0.80520899  1
  K  K14  1  0.19370264  0.73945330  0.30520899  1
  K  K15  1  0.80629736  0.23945330  0.19479101  1
  P  P16  1  0.97100268  0.88724879  0.16224285  1
  P  P17  1  0.75039007  0.00392118  0.09913169  1
  P  P18  1  0.02899732  0.38724879  0.33775715  1
  P  P19  1  0.94455303  0.25864980  0.94757282  1
  P  P20  1  0.74960993  0.50392118  0.09913169  1
  P  P21  1  0.24960993  0.99607882  0.90086831  1
  P  P22  1  0.99851441  0.90204300  0.67001689  1
  P  P23  1  0.44455303  0.25864980  0.55242718  1
  P  P24  1  0.47100268  0.88724879  0.33775715  1
  P  P25  1  0.00148559  0.40204300  0.82998311  1
  P  P26  1  0.49851441  0.59795700  0.32998311  1
  P  P27  1  0.52899732  0.11275121  0.66224285  1
  P  P28  1  0.74960993  0.99607882  0.59913169  1
  P  P29  1  0.44455303  0.24135020  0.05242718  1
  P  P30  1  0.02899732  0.11275121  0.83775715  1
  P  P31  1  0.49851441  0.90204300  0.82998311  1
  P  P32  1  0.97100268  0.61275121  0.66224285  1
  P  P33  1  0.50148559  0.40204300  0.67001689  1
  P  P34  1  0.94455303  0.24135020  0.44757282  1
  P  P35  1  0.05544697  0.74135020  0.05242718  1
  P  P36  1  0.25039007  0.00392118  0.40086831  1
  P  P37  1  0.75039007  0.49607882  0.59913169  1
  P  P38  1  0.99851441  0.59795700  0.17001689  1
  P  P39  1  0.24960993  0.50392118  0.40086831  1
  P  P40  1  0.25039007  0.49607882  0.90086831  1
  P  P41  1  0.52899732  0.38724879  0.16224285  1
  P  P42  1  0.00148559  0.09795700  0.32998311  1
  P  P43  1  0.50148559  0.09795700  0.17001689  1
  P  P44  1  0.55544697  0.75864980  0.94757282  1
  P  P45  1  0.05544697  0.75864980  0.55242718  1
  P  P46  1  0.47100268  0.61275121  0.83775715  1
  P  P47  1  0.55544697  0.74135020  0.44757282  1
  Pb  Pb48  1  0.62129494  0.39390903  0.89889458  1
  Pb  Pb49  1  0.37870506  0.89390903  0.60110542  1
  Pb  Pb50  1  0.12129494  0.39390903  0.60110542  1
  Pb  Pb51  1  0.87870506  0.60609097  0.39889458  1
  Pb  Pb52  1  0.12129494  0.10609097  0.10110542  1
  Pb  Pb53  1  0.62129494  0.10609097  0.39889458  1
  Pb  Pb54  1  0.37870506  0.60609097  0.10110542  1
  Pb  Pb55  1  0.87870506  0.89390903  0.89889458  1
  O  O56  1  0.30404806  0.24778326  0.09949745  1
  O  O57  1  0.69595194  0.75221674  0.90050255  1
  O  O58  1  0.80404806  0.24778326  0.40050255  1
  O  O59  1  0.48595549  0.84328520  0.25376820  1
  O  O60  1  0.03022393  0.15614819  0.41451330  1
  O  O61  1  0.18877923  0.42844731  0.33925450  1
  O  O62  1  0.80404806  0.25221674  0.90050255  1
  O  O63  1  0.09524299  0.01487659  0.35423069  1
  O  O64  1  0.34869244  0.06820096  0.17448710  1
  O  O65  1  0.27937632  0.03208667  0.98822692  1
  O  O66  1  0.18877923  0.07155269  0.83925450  1
  O  O67  1  0.05329906  0.31624603  0.41411955  1
  O  O68  1  0.91914208  0.45087616  0.36849880  1
  O  O69  1  0.94670094  0.81624603  0.08588045  1
  O  O70  1  0.84869244  0.06820096  0.32551290  1
  O  O71  1  0.06469700  0.14348902  0.25400932  1
  O  O72  1  0.59524299  0.01487659  0.14576931  1
  O  O73  1  0.81122077  0.57155269  0.66074550  1
  O  O74  1  0.09524299  0.48512341  0.85423069  1
  O  O75  1  0.55329906  0.31624603  0.08588045  1
  O  O76  1  0.68877923  0.07155269  0.66074550  1
  O  O77  1  0.22062368  0.53208667  0.98822692  1
  O  O78  1  0.15130756  0.56820096  0.17448710  1
  O  O79  1  0.16221593  0.58403428  0.39287604  1
  O  O80  1  0.01404451  0.34328520  0.25376820  1
  O  O81  1  0.31122077  0.57155269  0.83925450  1
  O  O82  1  0.40475701  0.98512341  0.85423069  1
  O  O83  1  0.04399485  0.74026654  0.95713405  1
  O  O84  1  0.94670094  0.68375397  0.58588045  1
  O  O85  1  0.30404806  0.25221674  0.59949745  1
  O  O86  1  0.33778407  0.08403428  0.39287604  1
  O  O87  1  0.53022393  0.15614819  0.08548670  1
  O  O88  1  0.46977607  0.65614819  0.41451330  1
  O  O89  1  0.81122077  0.92844731  0.16074550  1
  O  O90  1  0.91914208  0.04912384  0.86849880  1
  O  O91  1  0.51404451  0.15671480  0.74623180  1
  O  O92  1  0.40475701  0.51487659  0.35423069  1
  O  O93  1  0.83778407  0.41596572  0.60712396  1
  O  O94  1  0.41914208  0.45087616  0.13150120  1
  O  O95  1  0.51404451  0.34328520  0.24623180  1
  O  O96  1  0.84869244  0.43179904  0.82551290  1
  O  O97  1  0.33778407  0.41596572  0.89287604  1
  O  O98  1  0.95600515  0.24026654  0.54286595  1
  O  O99  1  0.45600515  0.24026654  0.95713405  1
  O  O100  1  0.56469700  0.35651098  0.74599068  1
  O  O101  1  0.43530300  0.64348902  0.25400932  1
  O  O102  1  0.34869244  0.43179904  0.67448710  1
  O  O103  1  0.95600515  0.25973346  0.04286595  1
  O  O104  1  0.65130756  0.56820096  0.32551290  1
  O  O105  1  0.72062368  0.53208667  0.51177308  1
  O  O106  1  0.27937632  0.46791333  0.48822692  1
  O  O107  1  0.22062368  0.96791333  0.48822692  1
  O  O108  1  0.96977607  0.84385181  0.58548670  1
  O  O109  1  0.66221593  0.91596572  0.60712396  1
  O  O110  1  0.98595549  0.65671480  0.74623180  1
  O  O111  1  0.03022393  0.34385181  0.91451330  1
  O  O112  1  0.16221593  0.91596572  0.89287604  1
  O  O113  1  0.93530300  0.64348902  0.24599068  1
  O  O114  1  0.96977607  0.65614819  0.08548670  1
  O  O115  1  0.08085792  0.54912384  0.63150120  1
  O  O116  1  0.90475701  0.98512341  0.64576931  1
  O  O117  1  0.05329906  0.18375397  0.91411955  1
  O  O118  1  0.66221593  0.58403428  0.10712396  1
  O  O119  1  0.48595549  0.65671480  0.75376820  1
  O  O120  1  0.31122077  0.92844731  0.33925450  1
  O  O121  1  0.54399485  0.74026654  0.54286595  1
  O  O122  1  0.44670094  0.68375397  0.91411955  1
  O  O123  1  0.59524299  0.48512341  0.64576931  1
  O  O124  1  0.93530300  0.85651098  0.74599068  1
  O  O125  1  0.83778407  0.08403428  0.10712396  1
  O  O126  1  0.56469700  0.14348902  0.24599068  1
  O  O127  1  0.44670094  0.81624603  0.41411955  1
  O  O128  1  0.90475701  0.51487659  0.14576931  1
  O  O129  1  0.46977607  0.84385181  0.91451330  1
  O  O130  1  0.54399485  0.75973346  0.04286595  1
  O  O131  1  0.08085792  0.95087616  0.13150120  1
  O  O132  1  0.65130756  0.93179904  0.82551290  1
  O  O133  1  0.01404451  0.15671480  0.75376820  1
  O  O134  1  0.41914208  0.04912384  0.63150120  1
  O  O135  1  0.15130756  0.93179904  0.67448710  1
  O  O136  1  0.69595194  0.74778326  0.40050255  1
  O  O137  1  0.43530300  0.85651098  0.75400932  1
  O  O138  1  0.98595549  0.84328520  0.24623180  1
  O  O139  1  0.04399485  0.75973346  0.45713405  1
  O  O140  1  0.55329906  0.18375397  0.58588045  1
  O  O141  1  0.77937632  0.46791333  0.01177308  1
  O  O142  1  0.58085792  0.95087616  0.36849880  1
  O  O143  1  0.06469700  0.35651098  0.75400932  1
  O  O144  1  0.19595194  0.74778326  0.09949745  1
  O  O145  1  0.58085792  0.54912384  0.86849880  1
  O  O146  1  0.45600515  0.25973346  0.45713405  1
  O  O147  1  0.77937632  0.03208667  0.51177308  1
  O  O148  1  0.68877923  0.42844731  0.16074550  1
  O  O149  1  0.19595194  0.75221674  0.59949745  1
  O  O150  1  0.53022393  0.34385181  0.58548670  1
  O  O151  1  0.72062368  0.96791333  0.01177308  1
