# generated using pymatgen
data_Ba4LiW2N7
_symmetry_space_group_name_H-M   'P 1'
_cell_length_a   6.57530530
_cell_length_b   10.48807680
_cell_length_c   15.76604174
_cell_angle_alpha   98.94113139
_cell_angle_beta   90.00000000
_cell_angle_gamma   90.00000000
_symmetry_Int_Tables_number   1
_chemical_formula_structural   Ba4LiW2N7
_chemical_formula_sum   'Ba16 Li4 W8 N28'
_cell_volume   1074.05079125
_cell_formula_units_Z   4
loop_
 _symmetry_equiv_pos_site_id
 _symmetry_equiv_pos_as_xyz
  1  'x, y, z'
loop_
 _atom_site_type_symbol
 _atom_site_label
 _atom_site_symmetry_multiplicity
 _atom_site_fract_x
 _atom_site_fract_y
 _atom_site_fract_z
 _atom_site_occupancy
  Li  Li0  1  0.45649664  0.87210411  0.23916334  1
  Li  Li1  1  0.54350336  0.37210411  0.73916334  1
  Li  Li2  1  0.54350336  0.12789589  0.76083666  1
  Li  Li3  1  0.45649664  0.62789589  0.26083666  1
  N  N4  1  0.46476382  0.10787174  0.09206958  1
  N  N5  1  0.81732529  0.05174250  0.80470907  1
  N  N6  1  0.81732529  0.44825750  0.69529093  1
  N  N7  1  0.18267471  0.94825750  0.19529093  1
  N  N8  1  0.18267471  0.55174250  0.30470907  1
  N  N9  1  0.46972626  0.22094682  0.65285302  1
  N  N10  1  0.46972626  0.27905318  0.84714698  1
  N  N11  1  0.53027374  0.77905318  0.34714698  1
  N  N12  1  0.53027374  0.72094682  0.15285302  1
  N  N13  1  0.53523618  0.89212826  0.90793042  1
  N  N14  1  0.53523618  0.60787174  0.59206958  1
  N  N15  1  0.92137924  0.85900330  0.43564024  1
  N  N16  1  0.72483104  0.03761806  0.32892103  1
  N  N17  1  0.72483104  0.46238194  0.17107897  1
  N  N18  1  0.27516896  0.96238194  0.67107897  1
  N  N19  1  0.27516896  0.53761806  0.82892103  1
  N  N20  1  0.50000000  0.50000000  0.00000000  1
  N  N21  1  0.50000000  0.00000000  0.50000000  1
  N  N22  1  0.23977780  0.25000000  0.25000000  1
  N  N23  1  0.76022220  0.75000000  0.75000000  1
  N  N24  1  0.98848572  0.86175578  0.91648193  1
  N  N25  1  0.98848572  0.63824422  0.58351807  1
  N  N26  1  0.01151428  0.13824422  0.08351807  1
  N  N27  1  0.01151428  0.36175578  0.41648193  1
  N  N28  1  0.07862076  0.35900330  0.93564024  1
  N  N29  1  0.92137924  0.64099670  0.06435976  1
  N  N30  1  0.07862076  0.14099670  0.56435976  1
  N  N31  1  0.46476382  0.39212826  0.40793042  1
  Ba  Ba32  1  0.68428702  0.25000000  0.25000000  1
  Ba  Ba33  1  0.14225397  0.07587928  0.37920275  1
  Ba  Ba34  1  0.14225397  0.42412072  0.12079725  1
  Ba  Ba35  1  0.85774603  0.92412072  0.62079725  1
  Ba  Ba36  1  0.85774603  0.57587928  0.87920275  1
  Ba  Ba37  1  0.72127239  0.25662289  0.51593935  1
  Ba  Ba38  1  0.72127239  0.24337711  0.98406065  1
  Ba  Ba39  1  0.27872761  0.74337711  0.48406065  1
  Ba  Ba40  1  0.27872761  0.75662289  0.01593935  1
  Ba  Ba41  1  0.22897108  0.42106181  0.57205097  1
  Ba  Ba42  1  0.22897108  0.07893819  0.92794903  1
  Ba  Ba43  1  0.77102892  0.57893819  0.42794903  1
  Ba  Ba44  1  0.77102892  0.92106181  0.07205097  1
  Ba  Ba45  1  0.02262050  0.25000000  0.75000000  1
  Ba  Ba46  1  0.97737950  0.75000000  0.25000000  1
  Ba  Ba47  1  0.31571298  0.75000000  0.75000000  1
  W  W48  1  0.67000550  0.57861527  0.09651919  1
  W  W49  1  0.67000550  0.92138473  0.40348081  1
  W  W50  1  0.32999450  0.42138473  0.90348081  1
  W  W51  1  0.32999450  0.07861527  0.59651919  1
  W  W52  1  0.77491253  0.89397435  0.84463417  1
  W  W53  1  0.77491253  0.60602565  0.65536583  1
  W  W54  1  0.22508747  0.10602565  0.15536583  1
  W  W55  1  0.22508747  0.39397435  0.34463417  1
