# generated using pymatgen
data_Ta3Ge
_symmetry_space_group_name_H-M   'P 1'
_cell_length_a   5.24800625
_cell_length_b   10.34020843
_cell_length_c   10.34021048
_cell_angle_alpha   89.99980329
_cell_angle_beta   89.99985752
_cell_angle_gamma   89.99974683
_symmetry_Int_Tables_number   1
_chemical_formula_structural   Ta3Ge
_chemical_formula_sum   'Ta24 Ge8'
_cell_volume   561.11646914
_cell_formula_units_Z   8
loop_
 _symmetry_equiv_pos_site_id
 _symmetry_equiv_pos_as_xyz
  1  'x, y, z'
loop_
 _atom_site_type_symbol
 _atom_site_label
 _atom_site_symmetry_multiplicity
 _atom_site_fract_x
 _atom_site_fract_y
 _atom_site_fract_z
 _atom_site_occupancy
  Ta  Ta0  1  0.97683298  0.89899718  0.76622340  1
  Ta  Ta1  1  0.47683419  0.23377622  0.39899689  1
  Ta  Ta2  1  0.77744546  0.66435047  0.34752173  1
  Ta  Ta3  1  0.72255291  0.15247844  0.66434851  1
  Ta  Ta4  1  0.73860569  0.06073948  0.96247252  1
  Ta  Ta5  1  0.23860545  0.46247432  0.93926008  1
  Ta  Ta6  1  0.02316667  0.10100557  0.23377980  1
  Ta  Ta7  1  0.76139083  0.96247418  0.43926263  1
  Ta  Ta8  1  0.27744614  0.84752237  0.33564940  1
  Ta  Ta9  1  0.02316474  0.39899498  0.26622030  1
  Ta  Ta10  1  0.97683306  0.60100265  0.73377655  1
  Ta  Ta11  1  0.23860612  0.03752591  0.56074005  1
  Ta  Ta12  1  0.52316783  0.73377992  0.89899431  1
  Ta  Ta13  1  0.22255468  0.33565133  0.65247818  1
  Ta  Ta14  1  0.26139119  0.56073719  0.46247438  1
  Ta  Ta15  1  0.52316716  0.76622023  0.60100519  1
  Ta  Ta16  1  0.47683436  0.26622329  0.10100322  1
  Ta  Ta17  1  0.27744551  0.65247771  0.16435058  1
  Ta  Ta18  1  0.26139221  0.93926269  0.03752627  1
  Ta  Ta19  1  0.22255484  0.16434928  0.84752195  1
  Ta  Ta20  1  0.72255157  0.34752151  0.83565185  1
  Ta  Ta21  1  0.76139216  0.53752626  0.06073715  1
  Ta  Ta22  1  0.73860521  0.43926072  0.53752714  1
  Ta  Ta23  1  0.77744574  0.83564875  0.15247820  1
  Ge  Ge24  1  0.52627928  0.04557853  0.22387273  1
  Ge  Ge25  1  0.02627583  0.77612705  0.54557919  1
  Ge  Ge26  1  0.97372570  0.27612497  0.04557347  1
  Ge  Ge27  1  0.02627567  0.72387281  0.95442073  1
  Ge  Ge28  1  0.97372687  0.22387520  0.45442675  1
  Ge  Ge29  1  0.47372684  0.54557300  0.72387496  1
  Ge  Ge30  1  0.52627611  0.45442138  0.27612711  1
  Ge  Ge31  1  0.47372698  0.95442645  0.77612480  1
