# generated using pymatgen
data_Zr14P9
_symmetry_space_group_name_H-M   'P 1'
_cell_length_a   3.70225464
_cell_length_b   16.83233973
_cell_length_c   27.78289362
_cell_angle_alpha   90.00000000
_cell_angle_beta   90.00000000
_cell_angle_gamma   90.00000000
_symmetry_Int_Tables_number   1
_chemical_formula_structural   Zr14P9
_chemical_formula_sum   'Zr56 P36'
_cell_volume   1731.36347003
_cell_formula_units_Z   4
loop_
 _symmetry_equiv_pos_site_id
 _symmetry_equiv_pos_as_xyz
  1  'x, y, z'
loop_
 _atom_site_type_symbol
 _atom_site_label
 _atom_site_symmetry_multiplicity
 _atom_site_fract_x
 _atom_site_fract_y
 _atom_site_fract_z
 _atom_site_occupancy
  Zr  Zr0  1  0.00000000  0.48665055  0.69598660  1
  Zr  Zr1  1  0.00000000  0.90128275  0.89527641  1
  Zr  Zr2  1  0.00000000  0.86257417  0.64676000  1
  Zr  Zr3  1  0.00000000  0.20159042  0.85783428  1
  Zr  Zr4  1  0.50000000  0.69921087  0.50952754  1
  Zr  Zr5  1  0.00000000  0.75470145  0.41636521  1
  Zr  Zr6  1  0.50000000  0.23272534  0.68722271  1
  Zr  Zr7  1  0.00000000  0.33343349  0.76212532  1
  Zr  Zr8  1  0.00000000  0.26727466  0.18722271  1
  Zr  Zr9  1  0.50000000  0.76727466  0.31277729  1
  Zr  Zr10  1  0.50000000  0.59871725  0.39527641  1
  Zr  Zr11  1  0.50000000  0.40128275  0.60472359  1
  Zr  Zr12  1  0.00000000  0.51334945  0.30401340  1
  Zr  Zr13  1  0.50000000  0.01948728  0.67742093  1
  Zr  Zr14  1  0.00000000  0.80078913  0.00952754  1
  Zr  Zr15  1  0.50000000  0.44925348  0.08012246  1
  Zr  Zr16  1  0.00000000  0.86362400  0.53087360  1
  Zr  Zr17  1  0.50000000  0.93063263  0.07625472  1
  Zr  Zr18  1  0.50000000  0.01334945  0.19598660  1
  Zr  Zr19  1  0.00000000  0.43063263  0.42374528  1
  Zr  Zr20  1  0.50000000  0.70159042  0.64216572  1
  Zr  Zr21  1  0.00000000  0.51948728  0.82257907  1
  Zr  Zr22  1  0.50000000  0.98051272  0.32257907  1
  Zr  Zr23  1  0.00000000  0.50000000  0.00000000  1
  Zr  Zr24  1  0.50000000  0.36362400  0.96912640  1
  Zr  Zr25  1  0.50000000  0.30078913  0.49047246  1
  Zr  Zr26  1  0.00000000  0.73272534  0.81277729  1
  Zr  Zr27  1  0.50000000  0.74529855  0.91636521  1
  Zr  Zr28  1  0.50000000  0.36257417  0.85324000  1
  Zr  Zr29  1  0.50000000  0.06936737  0.92374528  1
  Zr  Zr30  1  0.00000000  0.48051272  0.17742093  1
  Zr  Zr31  1  0.50000000  0.63742583  0.14676000  1
  Zr  Zr32  1  0.00000000  0.11882640  0.75575749  1
  Zr  Zr33  1  0.50000000  0.63637600  0.03087360  1
  Zr  Zr34  1  0.00000000  0.13637600  0.46912640  1
  Zr  Zr35  1  0.00000000  0.24529855  0.58363479  1
  Zr  Zr36  1  0.00000000  0.19921087  0.99047246  1
  Zr  Zr37  1  0.00000000  0.56936737  0.57625472  1
  Zr  Zr38  1  0.00000000  0.94925348  0.41987754  1
  Zr  Zr39  1  0.50000000  0.25470145  0.08363479  1
  Zr  Zr40  1  0.50000000  0.55074652  0.91987754  1
  Zr  Zr41  1  0.00000000  0.05074652  0.58012246  1
  Zr  Zr42  1  0.00000000  0.00000000  0.00000000  1
  Zr  Zr43  1  0.50000000  0.50000000  0.50000000  1
  Zr  Zr44  1  0.50000000  0.38117360  0.25575749  1
  Zr  Zr45  1  0.00000000  0.88117360  0.24424251  1
  Zr  Zr46  1  0.50000000  0.83343349  0.73787468  1
  Zr  Zr47  1  0.50000000  0.16656651  0.26212532  1
  Zr  Zr48  1  0.00000000  0.13742583  0.35324000  1
  Zr  Zr49  1  0.50000000  0.98665055  0.80401340  1
  Zr  Zr50  1  0.00000000  0.09871725  0.10472359  1
  Zr  Zr51  1  0.50000000  0.61882640  0.74424251  1
  Zr  Zr52  1  0.00000000  0.66656651  0.23787468  1
  Zr  Zr53  1  0.50000000  0.00000000  0.50000000  1
  Zr  Zr54  1  0.50000000  0.29840958  0.35783428  1
  Zr  Zr55  1  0.00000000  0.79840958  0.14216572  1
  P  P56  1  0.00000000  0.60410440  0.46677130  1
  P  P57  1  0.00000000  0.04851597  0.85712437  1
  P  P58  1  0.00000000  0.26882332  0.42217154  1
  P  P59  1  0.50000000  0.45148403  0.35712437  1
  P  P60  1  0.50000000  0.23117668  0.92217154  1
  P  P61  1  0.00000000  0.72638715  0.71415122  1
  P  P62  1  0.00000000  0.86752979  0.34202639  1
  P  P63  1  0.00000000  0.34190453  0.66515162  1
  P  P64  1  0.00000000  0.73117668  0.57782846  1
  P  P65  1  0.00000000  0.27361285  0.28584878  1
  P  P66  1  0.50000000  0.15562628  0.53781859  1
  P  P67  1  0.00000000  0.43702975  0.90796813  1
  P  P68  1  0.00000000  0.39589560  0.53322870  1
  P  P69  1  0.50000000  0.89589560  0.96677130  1
  P  P70  1  0.50000000  0.36752979  0.15797361  1
  P  P71  1  0.50000000  0.84437372  0.46218141  1
  P  P72  1  0.00000000  0.56297025  0.09203187  1
  P  P73  1  0.50000000  0.15809547  0.16515162  1
  P  P74  1  0.00000000  0.13247021  0.65797361  1
  P  P75  1  0.50000000  0.93702975  0.59203187  1
  P  P76  1  0.50000000  0.84190453  0.83484838  1
  P  P77  1  0.00000000  0.04746000  0.26668839  1
  P  P78  1  0.00000000  0.34437372  0.03781859  1
  P  P79  1  0.00000000  0.65809547  0.33484838  1
  P  P80  1  0.50000000  0.63247021  0.84202639  1
  P  P81  1  0.50000000  0.76882332  0.07782846  1
  P  P82  1  0.50000000  0.54746000  0.23331161  1
  P  P83  1  0.00000000  0.95148403  0.14287563  1
  P  P84  1  0.50000000  0.22638715  0.78584878  1
  P  P85  1  0.50000000  0.45254000  0.76668839  1
  P  P86  1  0.50000000  0.54851597  0.64287563  1
  P  P87  1  0.00000000  0.95254000  0.73331161  1
  P  P88  1  0.00000000  0.65562628  0.96218141  1
  P  P89  1  0.50000000  0.10410440  0.03322870  1
  P  P90  1  0.50000000  0.77361285  0.21415122  1
  P  P91  1  0.50000000  0.06297025  0.40796813  1
