# generated using pymatgen
data_Cs2Co(PO3)4
_symmetry_space_group_name_H-M   'P 1'
_cell_length_a   8.58153894
_cell_length_b   12.32115265
_cell_length_c   12.77255333
_cell_angle_alpha   90.00000000
_cell_angle_beta   107.88317592
_cell_angle_gamma   90.00000000
_symmetry_Int_Tables_number   1
_chemical_formula_structural   Cs2Co(PO3)4
_chemical_formula_sum   'Cs8 Co4 P16 O48'
_cell_volume   1285.24904175
_cell_formula_units_Z   4
loop_
 _symmetry_equiv_pos_site_id
 _symmetry_equiv_pos_as_xyz
  1  'x, y, z'
loop_
 _atom_site_type_symbol
 _atom_site_label
 _atom_site_symmetry_multiplicity
 _atom_site_fract_x
 _atom_site_fract_y
 _atom_site_fract_z
 _atom_site_occupancy
  Cs  Cs0  1  0.27439926  0.55891840  0.02217705  1
  Cs  Cs1  1  0.24077639  0.89214968  0.83006570  1
  Cs  Cs2  1  0.77439926  0.94108160  0.52217705  1
  Cs  Cs3  1  0.22560074  0.05891840  0.47782295  1
  Cs  Cs4  1  0.74077639  0.60785032  0.33006570  1
  Cs  Cs5  1  0.72560074  0.44108160  0.97782295  1
  Cs  Cs6  1  0.25922361  0.39214968  0.66993430  1
  Cs  Cs7  1  0.75922361  0.10785032  0.16993430  1
  Co  Co8  1  0.72830163  0.26686410  0.68790243  1
  Co  Co9  1  0.27169837  0.73313590  0.31209757  1
  Co  Co10  1  0.22830163  0.23313590  0.18790243  1
  Co  Co11  1  0.77169837  0.76686410  0.81209757  1
  P  P12  1  0.48544183  0.14403531  0.80725218  1
  P  P13  1  0.20802101  0.95770943  0.18416366  1
  P  P14  1  0.49953767  0.72511939  0.57235589  1
  P  P15  1  0.79197899  0.04229057  0.81583634  1
  P  P16  1  0.51455817  0.85596469  0.19274782  1
  P  P17  1  0.01455817  0.64403531  0.69274782  1
  P  P18  1  0.99953767  0.77488061  0.07235589  1
  P  P19  1  0.15207317  0.73304994  0.52761998  1
  P  P20  1  0.70802101  0.54229057  0.68416366  1
  P  P21  1  0.29197899  0.45770943  0.31583634  1
  P  P22  1  0.50046233  0.27488061  0.42764411  1
  P  P23  1  0.00046233  0.22511939  0.92764411  1
  P  P24  1  0.34792683  0.23304994  0.97238002  1
  P  P25  1  0.98544183  0.35596469  0.30725218  1
  P  P26  1  0.65207317  0.76695006  0.02761998  1
  P  P27  1  0.84792683  0.26695006  0.47238002  1
  O  O28  1  0.39705309  0.38623356  0.42121628  1
  O  O29  1  0.83156939  0.82179438  0.08749101  1
  O  O30  1  0.92738947  0.74572445  0.71043001  1
  O  O31  1  0.66843061  0.32179438  0.41250899  1
  O  O32  1  0.78660401  0.09995838  0.71053977  1
  O  O33  1  0.17195508  0.61082201  0.77520996  1
  O  O34  1  0.14354255  0.07150163  0.16896478  1
  O  O35  1  0.82804492  0.38917799  0.22479004  1
  O  O36  1  0.21339599  0.90004162  0.28946023  1
  O  O37  1  0.60294691  0.61376644  0.57878372  1
  O  O38  1  0.46722356  0.77067171  0.45798588  1
  O  O39  1  0.61299655  0.04190591  0.83301505  1
  O  O40  1  0.91744244  0.30034352  0.83403487  1
  O  O41  1  0.03277644  0.27067171  0.04201412  1
  O  O42  1  0.96294260  0.35069135  0.43028223  1
  O  O43  1  0.46294260  0.14930865  0.93028223  1
  O  O44  1  0.38700345  0.95809409  0.16698495  1
  O  O45  1  0.53277644  0.22932829  0.54201412  1
  O  O46  1  0.71339599  0.59995838  0.78946023  1
  O  O47  1  0.64313372  0.65550683  0.07214378  1
  O  O48  1  0.28660401  0.40004162  0.21053977  1
  O  O49  1  0.89705309  0.11376644  0.92121628  1
  O  O50  1  0.10294691  0.88623356  0.07878372  1
  O  O51  1  0.32804492  0.11082201  0.72479004  1
  O  O52  1  0.89189761  0.28603385  0.59474238  1
  O  O53  1  0.64354255  0.42849837  0.66896478  1
  O  O54  1  0.16843061  0.17820562  0.91250899  1
  O  O55  1  0.57261053  0.24572445  0.78956999  1
  O  O56  1  0.33156939  0.67820562  0.58749101  1
  O  O57  1  0.67195508  0.88917799  0.27520996  1
  O  O58  1  0.88700345  0.54190591  0.66698495  1
  O  O59  1  0.10810239  0.71396615  0.40525762  1
  O  O60  1  0.07261053  0.25427555  0.28956999  1
  O  O61  1  0.85645745  0.92849837  0.83103522  1
  O  O62  1  0.41744244  0.19965648  0.33403487  1
  O  O63  1  0.08255756  0.69965648  0.16596513  1
  O  O64  1  0.35645745  0.57150163  0.33103522  1
  O  O65  1  0.35686628  0.34449317  0.92785622  1
  O  O66  1  0.42738947  0.75427555  0.21043001  1
  O  O67  1  0.53705740  0.85069135  0.06971777  1
  O  O68  1  0.11299655  0.45809409  0.33301505  1
  O  O69  1  0.60810239  0.78603385  0.90525762  1
  O  O70  1  0.58255756  0.80034352  0.66596513  1
  O  O71  1  0.03705740  0.64930865  0.56971777  1
  O  O72  1  0.14313372  0.84449317  0.57214378  1
  O  O73  1  0.96722356  0.72932829  0.95798588  1
  O  O74  1  0.39189761  0.21396615  0.09474238  1
  O  O75  1  0.85686628  0.15550683  0.42785622  1
