# generated using pymatgen
data_Sm(BO2)3
_symmetry_space_group_name_H-M   'P 1'
_cell_length_a   7.50689909
_cell_length_b   12.47845433
_cell_length_c   16.24352344
_cell_angle_alpha   90.00000000
_cell_angle_beta   90.00000000
_cell_angle_gamma   90.00000000
_symmetry_Int_Tables_number   1
_chemical_formula_structural   Sm(BO2)3
_chemical_formula_sum   'Sm16 B48 O96'
_cell_volume   1521.60389513
_cell_formula_units_Z   16
loop_
 _symmetry_equiv_pos_site_id
 _symmetry_equiv_pos_as_xyz
  1  'x, y, z'
loop_
 _atom_site_type_symbol
 _atom_site_label
 _atom_site_symmetry_multiplicity
 _atom_site_fract_x
 _atom_site_fract_y
 _atom_site_fract_z
 _atom_site_occupancy
  Sm  Sm0  1  0.75000000  0.49356268  0.62006092  1
  Sm  Sm1  1  0.25000000  0.93136750  0.17097328  1
  Sm  Sm2  1  0.25000000  0.58603879  0.04803420  1
  Sm  Sm3  1  0.25000000  0.27383774  0.87316023  1
  Sm  Sm4  1  0.25000000  0.50643732  0.37993908  1
  Sm  Sm5  1  0.75000000  0.06863250  0.82902672  1
  Sm  Sm6  1  0.75000000  0.77383774  0.62683977  1
  Sm  Sm7  1  0.25000000  0.91396121  0.54803420  1
  Sm  Sm8  1  0.25000000  0.22616226  0.37316023  1
  Sm  Sm9  1  0.75000000  0.41396121  0.95196580  1
  Sm  Sm10  1  0.75000000  0.08603879  0.45196580  1
  Sm  Sm11  1  0.25000000  0.56863250  0.67097328  1
  Sm  Sm12  1  0.25000000  0.99356268  0.87993908  1
  Sm  Sm13  1  0.75000000  0.72616226  0.12683977  1
  Sm  Sm14  1  0.75000000  0.43136750  0.32902672  1
  Sm  Sm15  1  0.75000000  0.00643732  0.12006092  1
  B  B16  1  0.92904911  0.68721918  0.78308892  1
  B  B17  1  0.92441449  0.48123708  0.15455484  1
  B  B18  1  0.92257218  0.85548699  0.88998104  1
  B  B19  1  0.42441449  0.51876292  0.84544516  1
  B  B20  1  0.57280496  0.84465039  0.44155146  1
  B  B21  1  0.56855963  0.12898518  0.25655807  1
  B  B22  1  0.06169954  0.82016957  0.02949901  1
  B  B23  1  0.07280496  0.34465039  0.05844854  1
  B  B24  1  0.07742782  0.14451301  0.11001896  1
  B  B25  1  0.42719504  0.34465039  0.05844854  1
  B  B26  1  0.07742782  0.35548699  0.61001896  1
  B  B27  1  0.56169954  0.32016957  0.47050099  1
  B  B28  1  0.07558551  0.98123708  0.34544516  1
  B  B29  1  0.42904911  0.18721918  0.71691108  1
  B  B30  1  0.07095089  0.18721918  0.71691108  1
  B  B31  1  0.06855963  0.87101482  0.74344193  1
  B  B32  1  0.92904911  0.81278082  0.28308892  1
  B  B33  1  0.07095089  0.31278082  0.21691108  1
  B  B34  1  0.92719504  0.84465039  0.44155146  1
  B  B35  1  0.43830046  0.67983043  0.52949901  1
  B  B36  1  0.93830046  0.32016957  0.47050099  1
  B  B37  1  0.56855963  0.37101482  0.75655807  1
  B  B38  1  0.92257218  0.64451301  0.38998104  1
  B  B39  1  0.92719504  0.65534961  0.94155146  1
  B  B40  1  0.56169954  0.17983043  0.97050099  1
  B  B41  1  0.57280496  0.65534961  0.94155146  1
  B  B42  1  0.42257218  0.14451301  0.11001896  1
  B  B43  1  0.93144037  0.37101482  0.75655807  1
  B  B44  1  0.57558551  0.01876292  0.65455484  1
  B  B45  1  0.57742782  0.85548699  0.88998104  1
  B  B46  1  0.57742782  0.64451301  0.38998104  1
  B  B47  1  0.92441449  0.01876292  0.65455484  1
  B  B48  1  0.93144037  0.12898518  0.25655807  1
  B  B49  1  0.42441449  0.98123708  0.34544516  1
  B  B50  1  0.06169954  0.67983043  0.52949901  1
  B  B51  1  0.07280496  0.15534961  0.55844854  1
  B  B52  1  0.42719504  0.15534961  0.55844854  1
  B  B53  1  0.93830046  0.17983043  0.97050099  1
  B  B54  1  0.06855963  0.62898518  0.24344193  1
  B  B55  1  0.42904911  0.31278082  0.21691108  1
  B  B56  1  0.57558551  0.48123708  0.15455484  1
  B  B57  1  0.43144037  0.87101482  0.74344193  1
  B  B58  1  0.57095089  0.81278082  0.28308892  1
  B  B59  1  0.43830046  0.82016957  0.02949901  1
  B  B60  1  0.57095089  0.68721918  0.78308892  1
  B  B61  1  0.42257218  0.35548699  0.61001896  1
  B  B62  1  0.07558551  0.51876292  0.84544516  1
  B  B63  1  0.43144037  0.62898518  0.24344193  1
  O  O64  1  0.57287868  0.76532146  0.37062034  1
  O  O65  1  0.25000000  0.39299927  0.04730554  1
  O  O66  1  0.43768669  0.87595598  0.95084160  1
  O  O67  1  0.07287868  0.23467854  0.62937966  1
  O  O68  1  0.25000000  0.46501758  0.83919857  1
  O  O69  1  0.51670237  0.73081271  0.22504701  1
  O  O70  1  0.25000000  0.03498242  0.33919857  1
  O  O71  1  0.94753709  0.06707268  0.57216841  1
  O  O72  1  0.75000000  0.60865779  0.42125193  1
  O  O73  1  0.56022491  0.43400648  0.83347529  1
  O  O74  1  0.57287868  0.73467854  0.87062034  1
  O  O75  1  0.53459242  0.92042779  0.81545963  1
  O  O76  1  0.56231331  0.37595598  0.54915840  1
  O  O77  1  0.46161563  0.37358514  0.40590202  1
  O  O78  1  0.98329763  0.76918729  0.72504701  1
  O  O79  1  0.25000000  0.39134221  0.57874807  1
  O  O80  1  0.03838437  0.12641486  0.90590202  1
  O  O81  1  0.48329763  0.26918729  0.77495299  1
  O  O82  1  0.75000000  0.13728289  0.22494797  1
  O  O83  1  0.55945843  0.39835961  0.21823931  1
  O  O84  1  0.25000000  0.35175441  0.24432785  1
  O  O85  1  0.42712132  0.23467854  0.62937966  1
  O  O86  1  0.44054157  0.89835961  0.28176069  1
  O  O87  1  0.06231331  0.62404402  0.45084160  1
  O  O88  1  0.51625659  0.70831623  0.01882427  1
  O  O89  1  0.56022491  0.06599352  0.33347529  1
  O  O90  1  0.43768669  0.62404402  0.45084160  1
  O  O91  1  0.75000000  0.53498242  0.16080143  1
  O  O92  1  0.01670237  0.23081271  0.27495299  1
  O  O93  1  0.92712132  0.73467854  0.87062034  1
  O  O94  1  0.25000000  0.10865779  0.07874807  1
  O  O95  1  0.05945843  0.89835961  0.28176069  1
  O  O96  1  0.53838437  0.87358514  0.09409798  1
  O  O97  1  0.06022491  0.56599352  0.16652471  1
  O  O98  1  0.01670237  0.26918729  0.77495299  1
  O  O99  1  0.75000000  0.96501758  0.66080143  1
  O  O100  1  0.06231331  0.87595598  0.95084160  1
  O  O101  1  0.75000000  0.36271711  0.72494797  1
  O  O102  1  0.25000000  0.10700073  0.54730554  1
  O  O103  1  0.25000000  0.86271711  0.77505203  1
  O  O104  1  0.43977509  0.93400648  0.66652471  1
  O  O105  1  0.25000000  0.14824559  0.74432785  1
  O  O106  1  0.75000000  0.30264092  0.43846033  1
  O  O107  1  0.03459242  0.42042779  0.68454037  1
  O  O108  1  0.44054157  0.60164039  0.78176069  1
  O  O109  1  0.53459242  0.57957221  0.31545963  1
  O  O110  1  0.46161563  0.12641486  0.90590202  1
  O  O111  1  0.93977509  0.43400648  0.83347529  1
  O  O112  1  0.07287868  0.26532146  0.12937966  1
  O  O113  1  0.25000000  0.63728289  0.27505203  1
  O  O114  1  0.75000000  0.85175441  0.25567215  1
  O  O115  1  0.03459242  0.07957221  0.18454037  1
  O  O116  1  0.01625659  0.20831623  0.48117573  1
  O  O117  1  0.96161563  0.87358514  0.09409798  1
  O  O118  1  0.06022491  0.93400648  0.66652471  1
  O  O119  1  0.94054157  0.39835961  0.21823931  1
  O  O120  1  0.05246291  0.93292732  0.42783159  1
  O  O121  1  0.48374341  0.29168377  0.98117573  1
  O  O122  1  0.25000000  0.80264092  0.06153967  1
  O  O123  1  0.48329763  0.23081271  0.27495299  1
  O  O124  1  0.75000000  0.89299927  0.45269446  1
  O  O125  1  0.46540758  0.07957221  0.18454037  1
  O  O126  1  0.96540758  0.92042779  0.81545963  1
  O  O127  1  0.94054157  0.10164039  0.71823931  1
  O  O128  1  0.75000000  0.64824559  0.75567215  1
  O  O129  1  0.98374341  0.70831623  0.01882427  1
  O  O130  1  0.51625659  0.79168377  0.51882427  1
  O  O131  1  0.51670237  0.76918729  0.72504701  1
  O  O132  1  0.93768669  0.12404402  0.04915840  1
  O  O133  1  0.42712132  0.26532146  0.12937966  1
  O  O134  1  0.96161563  0.62641486  0.59409798  1
  O  O135  1  0.01625659  0.29168377  0.98117573  1
  O  O136  1  0.46540758  0.42042779  0.68454037  1
  O  O137  1  0.05945843  0.60164039  0.78176069  1
  O  O138  1  0.44753709  0.93292732  0.42783159  1
  O  O139  1  0.93977509  0.06599352  0.33347529  1
  O  O140  1  0.98329763  0.73081271  0.22504701  1
  O  O141  1  0.98374341  0.79168377  0.51882427  1
  O  O142  1  0.75000000  0.19735908  0.93846033  1
  O  O143  1  0.25000000  0.69735908  0.56153967  1
  O  O144  1  0.48374341  0.20831623  0.48117573  1
  O  O145  1  0.56231331  0.12404402  0.04915840  1
  O  O146  1  0.75000000  0.89134221  0.92125193  1
  O  O147  1  0.92712132  0.76532146  0.37062034  1
  O  O148  1  0.75000000  0.60700073  0.95269446  1
  O  O149  1  0.55945843  0.10164039  0.71823931  1
  O  O150  1  0.53838437  0.62641486  0.59409798  1
  O  O151  1  0.43977509  0.56599352  0.16652471  1
  O  O152  1  0.44753709  0.56707268  0.92783159  1
  O  O153  1  0.55246291  0.43292732  0.07216841  1
  O  O154  1  0.03838437  0.37358514  0.40590202  1
  O  O155  1  0.96540758  0.57957221  0.31545963  1
  O  O156  1  0.05246291  0.56707268  0.92783159  1
  O  O157  1  0.93768669  0.37595598  0.54915840  1
  O  O158  1  0.55246291  0.06707268  0.57216841  1
  O  O159  1  0.94753709  0.43292732  0.07216841  1
