# generated using pymatgen
data_Ca3AlCd17
_symmetry_space_group_name_H-M   'P 1'
_cell_length_a   15.84461814
_cell_length_b   15.84461814
_cell_length_c   15.84461814
_cell_angle_alpha   90.04463644
_cell_angle_beta   90.04463642
_cell_angle_gamma   90.04463641
_symmetry_Int_Tables_number   1
_chemical_formula_structural   Ca3AlCd17
_chemical_formula_sum   'Ca24 Al8 Cd136'
_cell_volume   3977.81824514
_cell_formula_units_Z   8
loop_
 _symmetry_equiv_pos_site_id
 _symmetry_equiv_pos_as_xyz
  1  'x, y, z'
loop_
 _atom_site_type_symbol
 _atom_site_label
 _atom_site_symmetry_multiplicity
 _atom_site_fract_x
 _atom_site_fract_y
 _atom_site_fract_z
 _atom_site_occupancy
  Ca  Ca0  1  0.49788536  0.31065989  0.19883619  1
  Ca  Ca1  1  0.50117174  0.31397931  0.80102141  1
  Ca  Ca2  1  0.68959920  0.20171305  0.50111204  1
  Ca  Ca3  1  0.20171305  0.50111204  0.68959920  1
  Ca  Ca4  1  0.50210235  0.69060298  0.80356863  1
  Ca  Ca5  1  0.69060298  0.80356863  0.50210235  1
  Ca  Ca6  1  0.29880499  0.99870111  0.18770305  1
  Ca  Ca7  1  0.00107176  0.19021875  0.69916831  1
  Ca  Ca8  1  0.18770305  0.29880499  0.99870111  1
  Ca  Ca9  1  0.99870111  0.18770305  0.29880499  1
  Ca  Ca10  1  0.19883619  0.49788536  0.31065989  1
  Ca  Ca11  1  0.00239396  0.81166504  0.69899547  1
  Ca  Ca12  1  0.30468836  0.00080011  0.80927029  1
  Ca  Ca13  1  0.69916831  0.00107176  0.19021875  1
  Ca  Ca14  1  0.00080011  0.80927029  0.30468836  1
  Ca  Ca15  1  0.81166504  0.69899547  0.00239396  1
  Ca  Ca16  1  0.80356863  0.50210235  0.69060298  1
  Ca  Ca17  1  0.80102141  0.50117174  0.31397931  1
  Ca  Ca18  1  0.80927029  0.30468836  0.00080011  1
  Ca  Ca19  1  0.19021875  0.69916831  0.00107176  1
  Ca  Ca20  1  0.31065989  0.19883619  0.49788536  1
  Ca  Ca21  1  0.31397931  0.80102141  0.50117174  1
  Ca  Ca22  1  0.50111204  0.68959920  0.20171305  1
  Ca  Ca23  1  0.69899547  0.00239396  0.81166504  1
  Al  Al24  1  0.07535691  0.94759399  0.06812409  1
  Al  Al25  1  0.94759399  0.06812409  0.07535691  1
  Al  Al26  1  0.43299224  0.49429427  0.58214381  1
  Al  Al27  1  0.42476525  0.42476525  0.42476525  1
  Al  Al28  1  0.49429427  0.58214381  0.43299224  1
  Al  Al29  1  0.58214381  0.43299224  0.49429427  1
  Al  Al30  1  0.06812409  0.07535691  0.94759399  1
  Al  Al31  1  0.94556618  0.94556618  0.94556618  1
  Cd  Cd32  1  0.77279588  0.90966068  0.00172361  1
  Cd  Cd33  1  0.38683846  0.83756394  0.69787820  1
  Cd  Cd34  1  0.16915371  0.16862927  0.83120309  1
  Cd  Cd35  1  0.40551514  0.34281176  0.99928243  1
  Cd  Cd36  1  0.16862927  0.83120309  0.16915371  1
  Cd  Cd37  1  0.61698165  0.16413448  0.69704333  1
  Cd  Cd38  1  0.38518286  0.15262747  0.30014127  1
  Cd  Cd39  1  0.66026148  0.34560207  0.65627792  1
  Cd  Cd40  1  0.72033648  0.58841102  0.50491606  1
  Cd  Cd41  1  0.16068859  0.69477878  0.38788916  1
  Cd  Cd42  1  0.90439807  0.15807294  0.50196999  1
  Cd  Cd43  1  0.65787008  0.00260328  0.59755694  1
  Cd  Cd44  1  0.15629446  0.49936670  0.09407187  1
  Cd  Cd45  1  0.65627792  0.66026148  0.34560207  1
  Cd  Cd46  1  0.38788916  0.16068859  0.69477878  1
  Cd  Cd47  1  0.99792491  0.31591461  0.50056149  1
  Cd  Cd48  1  0.34484498  0.99911081  0.59561003  1
  Cd  Cd49  1  0.90561415  0.99882333  0.23656968  1
  Cd  Cd50  1  0.26308530  0.40435020  0.50083985  1
  Cd  Cd51  1  0.99882333  0.23656968  0.90561415  1
  Cd  Cd52  1  0.34281176  0.99928243  0.40551514  1
  Cd  Cd53  1  0.10006217  0.50596473  0.50058872  1
  Cd  Cd54  1  0.23656968  0.90561415  0.99882333  1
  Cd  Cd55  1  0.16282633  0.83962201  0.83872912  1
  Cd  Cd56  1  0.00052182  0.40655888  0.65588472  1
  Cd  Cd57  1  0.58929024  0.49891376  0.28058790  1
  Cd  Cd58  1  0.20145182  0.88349593  0.66017033  1
  Cd  Cd59  1  0.34483201  0.80033244  0.11638400  1
  Cd  Cd60  1  0.90492536  0.84446720  0.50175684  1
  Cd  Cd61  1  0.15807294  0.50196999  0.90439807  1
  Cd  Cd62  1  0.59755694  0.65787008  0.00260328  1
  Cd  Cd63  1  0.50146728  0.99941050  0.68837982  1
  Cd  Cd64  1  0.83757426  0.83757426  0.83757426  1
  Cd  Cd65  1  0.66017033  0.20145182  0.88349593  1
  Cd  Cd66  1  0.16413448  0.69704333  0.61698165  1
  Cd  Cd67  1  0.34007291  0.19877825  0.11762086  1
  Cd  Cd68  1  0.66548526  0.66548526  0.66548526  1
  Cd  Cd69  1  0.61644887  0.15808529  0.30112565  1
  Cd  Cd70  1  0.50140637  0.18560272  0.99988219  1
  Cd  Cd71  1  0.84446720  0.50175684  0.90492536  1
  Cd  Cd72  1  0.59859953  0.99905864  0.00064187  1
  Cd  Cd73  1  0.50056149  0.99792491  0.31591461  1
  Cd  Cd74  1  0.37999506  0.84330194  0.29868800  1
  Cd  Cd75  1  0.11762086  0.34007291  0.19877825  1
  Cd  Cd76  1  0.66307995  0.33830833  0.34091134  1
  Cd  Cd77  1  0.88376628  0.34327247  0.80238891  1
  Cd  Cd78  1  0.49936670  0.09407187  0.15629446  1
  Cd  Cd79  1  0.50083985  0.26308530  0.40435020  1
  Cd  Cd80  1  0.80252925  0.11553515  0.66052039  1
  Cd  Cd81  1  0.19971840  0.88012581  0.34603267  1
  Cd  Cd82  1  0.84223348  0.50280250  0.09728054  1
  Cd  Cd83  1  0.11638400  0.34483201  0.80033244  1
  Cd  Cd84  1  0.20111783  0.11646885  0.65636292  1
  Cd  Cd85  1  0.68837982  0.50146728  0.99941050  1
  Cd  Cd86  1  0.80311718  0.88577914  0.66037517  1
  Cd  Cd87  1  0.11646885  0.65636292  0.20111783  1
  Cd  Cd88  1  0.66037517  0.80311718  0.88577914  1
  Cd  Cd89  1  0.00184695  0.77083043  0.09432619  1
  Cd  Cd90  1  0.50175684  0.90492536  0.84446720  1
  Cd  Cd91  1  0.29842321  0.62398316  0.84141706  1
  Cd  Cd92  1  0.24194104  0.09222488  0.99737281  1
  Cd  Cd93  1  0.65588472  0.00052182  0.40655888  1
  Cd  Cd94  1  0.50280250  0.09728054  0.84223348  1
  Cd  Cd95  1  0.50178922  0.90863409  0.51085528  1
  Cd  Cd96  1  0.32412866  0.32412866  0.32412866  1
  Cd  Cd97  1  0.19877825  0.11762086  0.34007291  1
  Cd  Cd98  1  0.99911081  0.59561003  0.34484498  1
  Cd  Cd99  1  0.51085528  0.50178922  0.90863409  1
  Cd  Cd100  1  0.33830833  0.34091134  0.66307995  1
  Cd  Cd101  1  0.83962201  0.83872912  0.16282633  1
  Cd  Cd102  1  0.99928243  0.40551514  0.34281176  1
  Cd  Cd103  1  0.18560272  0.99988219  0.50140637  1
  Cd  Cd104  1  0.15476047  0.15476047  0.15476047  1
  Cd  Cd105  1  0.84214105  0.69927044  0.61745957  1
  Cd  Cd106  1  0.50596473  0.50058872  0.10006217  1
  Cd  Cd107  1  0.58841102  0.50491606  0.72033648  1
  Cd  Cd108  1  0.50058872  0.10006217  0.50596473  1
  Cd  Cd109  1  0.49891376  0.28058790  0.58929024  1
  Cd  Cd110  1  0.99546274  0.99987928  0.40760038  1
  Cd  Cd111  1  0.61745957  0.84214105  0.69927044  1
  Cd  Cd112  1  0.83120309  0.16915371  0.16862927  1
  Cd  Cd113  1  0.84141706  0.29842321  0.62398316  1
  Cd  Cd114  1  0.09222488  0.99737281  0.24194104  1
  Cd  Cd115  1  0.40435020  0.50083985  0.26308530  1
  Cd  Cd116  1  0.69927044  0.61745957  0.84214105  1
  Cd  Cd117  1  0.28058790  0.58929024  0.49891376  1
  Cd  Cd118  1  0.90863409  0.51085528  0.50178922  1
  Cd  Cd119  1  0.69477878  0.38788916  0.16068859  1
  Cd  Cd120  1  0.15262747  0.30014127  0.38518286  1
  Cd  Cd121  1  0.00064187  0.59859953  0.99905864  1
  Cd  Cd122  1  0.99941050  0.68837982  0.50146728  1
  Cd  Cd123  1  0.65636292  0.20111783  0.11646885  1
  Cd  Cd124  1  0.31591461  0.50056149  0.99792491  1
  Cd  Cd125  1  0.90966068  0.00172361  0.77279588  1
  Cd  Cd126  1  0.09432619  0.00184695  0.77083043  1
  Cd  Cd127  1  0.81349317  0.00079687  0.50119765  1
  Cd  Cd128  1  0.88349593  0.66017033  0.20145182  1
  Cd  Cd129  1  0.99987928  0.40760038  0.99546274  1
  Cd  Cd130  1  0.30112565  0.61644887  0.15808529  1
  Cd  Cd131  1  0.34091134  0.66307995  0.33830833  1
  Cd  Cd132  1  0.15808529  0.30112565  0.61644887  1
  Cd  Cd133  1  0.50196999  0.90439807  0.15807294  1
  Cd  Cd134  1  0.40655888  0.65588472  0.00052182  1
  Cd  Cd135  1  0.11553515  0.66052039  0.80252925  1
  Cd  Cd136  1  0.69704333  0.61698165  0.16413448  1
  Cd  Cd137  1  0.50119765  0.81349317  0.00079687  1
  Cd  Cd138  1  0.34560207  0.65627792  0.66026148  1
  Cd  Cd139  1  0.66052039  0.80252925  0.11553515  1
  Cd  Cd140  1  0.00172361  0.77279588  0.90966068  1
  Cd  Cd141  1  0.77083043  0.09432619  0.00184695  1
  Cd  Cd142  1  0.88012581  0.34603267  0.19971840  1
  Cd  Cd143  1  0.83872912  0.16282633  0.83962201  1
  Cd  Cd144  1  0.62398316  0.84141706  0.29842321  1
  Cd  Cd145  1  0.99905864  0.00064187  0.59859953  1
  Cd  Cd146  1  0.09407187  0.15629446  0.49936670  1
  Cd  Cd147  1  0.30014127  0.38518286  0.15262747  1
  Cd  Cd148  1  0.40760038  0.99546274  0.99987928  1
  Cd  Cd149  1  0.34327247  0.80238891  0.88376628  1
  Cd  Cd150  1  0.80238891  0.88376628  0.34327247  1
  Cd  Cd151  1  0.80033244  0.11638400  0.34483201  1
  Cd  Cd152  1  0.00260328  0.59755694  0.65787008  1
  Cd  Cd153  1  0.50182929  0.75466013  0.40580528  1
  Cd  Cd154  1  0.99737281  0.24194104  0.09222488  1
  Cd  Cd155  1  0.59561003  0.34484498  0.99911081  1
  Cd  Cd156  1  0.88577914  0.66037517  0.80311718  1
  Cd  Cd157  1  0.69787820  0.38683846  0.83756394  1
  Cd  Cd158  1  0.40580528  0.50182929  0.75466013  1
  Cd  Cd159  1  0.84330194  0.29868800  0.37999506  1
  Cd  Cd160  1  0.75466013  0.40580528  0.50182929  1
  Cd  Cd161  1  0.50491606  0.72033648  0.58841102  1
  Cd  Cd162  1  0.29868800  0.37999506  0.84330194  1
  Cd  Cd163  1  0.00079687  0.50119765  0.81349317  1
  Cd  Cd164  1  0.83756394  0.69787820  0.38683846  1
  Cd  Cd165  1  0.99988219  0.50140637  0.18560272  1
  Cd  Cd166  1  0.09728054  0.84223348  0.50280250  1
  Cd  Cd167  1  0.34603267  0.19971840  0.88012581  1
