# generated using pymatgen
data_V2Pb4O9
_symmetry_space_group_name_H-M   'P 1'
_cell_length_a   7.57261840
_cell_length_b   11.77914314
_cell_length_c   23.26459768
_cell_angle_alpha   90.00000000
_cell_angle_beta   90.00000000
_cell_angle_gamma   90.00000000
_symmetry_Int_Tables_number   1
_chemical_formula_structural   V2Pb4O9
_chemical_formula_sum   'V16 Pb32 O72'
_cell_volume   2075.17782664
_cell_formula_units_Z   8
loop_
 _symmetry_equiv_pos_site_id
 _symmetry_equiv_pos_as_xyz
  1  'x, y, z'
loop_
 _atom_site_type_symbol
 _atom_site_label
 _atom_site_symmetry_multiplicity
 _atom_site_fract_x
 _atom_site_fract_y
 _atom_site_fract_z
 _atom_site_occupancy
  V  V0  1  0.36698987  0.25000000  0.82169604  1
  V  V1  1  0.49505737  0.99617561  0.59527588  1
  V  V2  1  0.11369616  0.75000000  0.31620499  1
  V  V3  1  0.86698987  0.75000000  0.67830396  1
  V  V4  1  0.61369616  0.25000000  0.18379501  1
  V  V5  1  0.00494263  0.99617561  0.09527588  1
  V  V6  1  0.99505737  0.49617561  0.90472412  1
  V  V7  1  0.63301013  0.75000000  0.17830396  1
  V  V8  1  0.99505737  0.00382439  0.90472412  1
  V  V9  1  0.49505737  0.50382439  0.59527588  1
  V  V10  1  0.88630384  0.25000000  0.68379501  1
  V  V11  1  0.38630384  0.75000000  0.81620499  1
  V  V12  1  0.00494263  0.50382439  0.09527588  1
  V  V13  1  0.50494263  0.00382439  0.40472412  1
  V  V14  1  0.13301013  0.25000000  0.32169604  1
  V  V15  1  0.50494263  0.49617561  0.40472412  1
  Pb  Pb16  1  0.65145129  0.52731367  0.75491230  1
  Pb  Pb17  1  0.83684773  0.25000000  0.83620847  1
  Pb  Pb18  1  0.49102183  0.99057369  0.07619686  1
  Pb  Pb19  1  0.23613744  0.25000000  0.48553925  1
  Pb  Pb20  1  0.42937106  0.25000000  0.65320143  1
  Pb  Pb21  1  0.92937106  0.75000000  0.84679857  1
  Pb  Pb22  1  0.73613744  0.75000000  0.01446075  1
  Pb  Pb23  1  0.26386256  0.25000000  0.98553925  1
  Pb  Pb24  1  0.65145129  0.97268633  0.75491230  1
  Pb  Pb25  1  0.84854871  0.52731367  0.25491230  1
  Pb  Pb26  1  0.24916266  0.75000000  0.48838661  1
  Pb  Pb27  1  0.16315227  0.75000000  0.16379153  1
  Pb  Pb28  1  0.74916266  0.25000000  0.01161339  1
  Pb  Pb29  1  0.15145129  0.02731367  0.74508770  1
  Pb  Pb30  1  0.07062894  0.25000000  0.15320143  1
  Pb  Pb31  1  0.76386256  0.75000000  0.51446075  1
  Pb  Pb32  1  0.00897817  0.50942631  0.57619686  1
  Pb  Pb33  1  0.00897817  0.99057369  0.57619686  1
  Pb  Pb34  1  0.99102183  0.49057369  0.42380314  1
  Pb  Pb35  1  0.66315227  0.25000000  0.33620847  1
  Pb  Pb36  1  0.57062894  0.75000000  0.34679857  1
  Pb  Pb37  1  0.33684773  0.75000000  0.66379153  1
  Pb  Pb38  1  0.15145129  0.47268633  0.74508770  1
  Pb  Pb39  1  0.50897817  0.00942631  0.92380314  1
  Pb  Pb40  1  0.84854871  0.97268633  0.25491230  1
  Pb  Pb41  1  0.49102183  0.50942631  0.07619686  1
  Pb  Pb42  1  0.34854871  0.47268633  0.24508770  1
  Pb  Pb43  1  0.75083734  0.25000000  0.51161339  1
  Pb  Pb44  1  0.25083734  0.75000000  0.98838661  1
  Pb  Pb45  1  0.50897817  0.49057369  0.92380314  1
  Pb  Pb46  1  0.34854871  0.02731367  0.24508770  1
  Pb  Pb47  1  0.99102183  0.00942631  0.42380314  1
  O  O48  1  0.63603659  0.75000000  0.68430834  1
  O  O49  1  0.55402265  0.87227979  0.21269432  1
  O  O50  1  0.01364183  0.98838744  0.83009799  1
  O  O51  1  0.01364183  0.51161256  0.83009799  1
  O  O52  1  0.10966783  0.37809779  0.07375079  1
  O  O53  1  0.00759133  0.62553131  0.49620134  1
  O  O54  1  0.60966783  0.62190221  0.42624921  1
  O  O55  1  0.80210611  0.52305645  0.06240252  1
  O  O56  1  0.39033217  0.37809779  0.57375079  1
  O  O57  1  0.48635817  0.51161256  0.33009799  1
  O  O58  1  0.30210611  0.02305645  0.43759748  1
  O  O59  1  0.14453210  0.62120194  0.08306835  1
  O  O60  1  0.56240790  0.75000000  0.10726864  1
  O  O61  1  0.44597735  0.37227979  0.78730568  1
  O  O62  1  0.99240867  0.37446869  0.50379866  1
  O  O63  1  0.69789389  0.97694355  0.56240252  1
  O  O64  1  0.14453210  0.87879806  0.08306835  1
  O  O65  1  0.89033217  0.87809779  0.92624921  1
  O  O66  1  0.69789389  0.52305645  0.56240252  1
  O  O67  1  0.99240867  0.12553131  0.50379866  1
  O  O68  1  0.10966783  0.12190221  0.07375079  1
  O  O69  1  0.19789389  0.02305645  0.93759748  1
  O  O70  1  0.85546790  0.37879806  0.91693165  1
  O  O71  1  0.05402265  0.37227979  0.28730568  1
  O  O72  1  0.74857250  0.25000000  0.62338851  1
  O  O73  1  0.64453210  0.12120194  0.41693165  1
  O  O74  1  0.98635817  0.48838744  0.16990201  1
  O  O75  1  0.19789389  0.47694355  0.93759748  1
  O  O76  1  0.60966783  0.87809779  0.42624921  1
  O  O77  1  0.39685841  0.25000000  0.16287381  1
  O  O78  1  0.86396341  0.75000000  0.18430834  1
  O  O79  1  0.94597735  0.87227979  0.71269432  1
  O  O80  1  0.89033217  0.62190221  0.92624921  1
  O  O81  1  0.84960009  0.13071182  0.72848371  1
  O  O82  1  0.34960009  0.63071182  0.77151629  1
  O  O83  1  0.10314159  0.25000000  0.66287381  1
  O  O84  1  0.55402265  0.62772021  0.21269432  1
  O  O85  1  0.39033217  0.12190221  0.57375079  1
  O  O86  1  0.43759210  0.25000000  0.89273136  1
  O  O87  1  0.35546790  0.62120194  0.58306835  1
  O  O88  1  0.65039991  0.13071182  0.22848371  1
  O  O89  1  0.50759133  0.37446869  0.00379866  1
  O  O90  1  0.51364183  0.48838744  0.66990201  1
  O  O91  1  0.51364183  0.01161256  0.66990201  1
  O  O92  1  0.75142750  0.25000000  0.12338851  1
  O  O93  1  0.80210611  0.97694355  0.06240252  1
  O  O94  1  0.48635817  0.98838744  0.33009799  1
  O  O95  1  0.60314159  0.75000000  0.83712619  1
  O  O96  1  0.34960009  0.86928818  0.77151629  1
  O  O97  1  0.94597735  0.62772021  0.71269432  1
  O  O98  1  0.64453210  0.37879806  0.41693165  1
  O  O99  1  0.50759133  0.12553131  0.00379866  1
  O  O100  1  0.35546790  0.87879806  0.58306835  1
  O  O101  1  0.98635817  0.01161256  0.16990201  1
  O  O102  1  0.15039991  0.86928818  0.27151629  1
  O  O103  1  0.49240867  0.62553131  0.99620134  1
  O  O104  1  0.44597735  0.12772021  0.78730568  1
  O  O105  1  0.00759133  0.87446869  0.49620134  1
  O  O106  1  0.93759210  0.75000000  0.60726864  1
  O  O107  1  0.65039991  0.36928818  0.22848371  1
  O  O108  1  0.85546790  0.12120194  0.91693165  1
  O  O109  1  0.05402265  0.12772021  0.28730568  1
  O  O110  1  0.25142750  0.75000000  0.37661149  1
  O  O111  1  0.13603659  0.25000000  0.81569166  1
  O  O112  1  0.49240867  0.87446869  0.99620134  1
  O  O113  1  0.06240790  0.25000000  0.39273136  1
  O  O114  1  0.24857250  0.75000000  0.87661149  1
  O  O115  1  0.30210611  0.47694355  0.43759748  1
  O  O116  1  0.36396341  0.25000000  0.31569166  1
  O  O117  1  0.84960009  0.36928818  0.72848371  1
  O  O118  1  0.89685841  0.75000000  0.33712619  1
  O  O119  1  0.15039991  0.63071182  0.27151629  1
