# generated using pymatgen
data_Ta4AgS8
_symmetry_space_group_name_H-M   'P 1'
_cell_length_a   13.63180060
_cell_length_b   27.26079212
_cell_length_c   40.61370687
_cell_angle_alpha   9.42530369
_cell_angle_beta   12.53877131
_cell_angle_gamma   14.18273983
_symmetry_Int_Tables_number   1
_chemical_formula_structural   Ta4AgS8
_chemical_formula_sum   'Ta8 Ag2 S16'
_cell_volume   527.40363449
_cell_formula_units_Z   2
loop_
 _symmetry_equiv_pos_site_id
 _symmetry_equiv_pos_as_xyz
  1  'x, y, z'
loop_
 _atom_site_type_symbol
 _atom_site_label
 _atom_site_symmetry_multiplicity
 _atom_site_fract_x
 _atom_site_fract_y
 _atom_site_fract_z
 _atom_site_occupancy
  Ta  Ta0  1  0.07623572  0.01432743  0.04022093  1
  Ta  Ta1  1  0.06985540  0.51805559  0.03986202  1
  Ta  Ta2  1  0.07657067  0.27047102  0.53628688  1
  Ta  Ta3  1  0.93014460  0.23194441  0.46013798  1
  Ta  Ta4  1  0.07819120  0.77175653  0.53455690  1
  Ta  Ta5  1  0.92376428  0.73567257  0.45977907  1
  Ta  Ta6  1  0.92342933  0.47952898  0.96371312  1
  Ta  Ta7  1  0.92180880  0.97824347  0.96544310  1
  Ag  Ag8  1  0.15831039  0.28762149  0.58067234  1
  Ag  Ag9  1  0.84168961  0.46237851  0.91932766  1
  S  S10  1  0.22546653  0.04835904  0.11167038  1
  S  S11  1  0.29524925  0.07610248  0.14713649  1
  S  S12  1  0.20852161  0.55705368  0.11154921  1
  S  S13  1  0.29942677  0.57388344  0.14715376  1
  S  S14  1  0.70057323  0.17611656  0.35284624  1
  S  S15  1  0.79147839  0.19294632  0.38845079  1
  S  S16  1  0.21805910  0.30393555  0.61073873  1
  S  S17  1  0.29534127  0.32385729  0.64780885  1
  S  S18  1  0.70475075  0.67389752  0.35286351  1
  S  S19  1  0.77453347  0.70164096  0.38832962  1
  S  S20  1  0.22548500  0.81036931  0.60388912  1
  S  S21  1  0.29448199  0.82180239  0.65004180  1
  S  S22  1  0.70465873  0.42614271  0.85219115  1
  S  S23  1  0.78194090  0.44606445  0.88926127  1
  S  S24  1  0.70551801  0.92819761  0.84995820  1
  S  S25  1  0.77451500  0.93963069  0.89611088  1
