# generated using pymatgen
data_GdGaGe2O7
_symmetry_space_group_name_H-M   'P 1'
_cell_length_a   6.63629573
_cell_length_b   7.31708208
_cell_length_c   11.56147090
_cell_angle_alpha   96.48859144
_cell_angle_beta   90.00000000
_cell_angle_gamma   90.00000000
_symmetry_Int_Tables_number   1
_chemical_formula_structural   GdGaGe2O7
_chemical_formula_sum   'Gd4 Ga4 Ge8 O28'
_cell_volume   557.80945697
_cell_formula_units_Z   4
loop_
 _symmetry_equiv_pos_site_id
 _symmetry_equiv_pos_as_xyz
  1  'x, y, z'
loop_
 _atom_site_type_symbol
 _atom_site_label
 _atom_site_symmetry_multiplicity
 _atom_site_fract_x
 _atom_site_fract_y
 _atom_site_fract_z
 _atom_site_occupancy
  Gd  Gd0  1  0.35564266  0.77079585  0.52616270  1
  Gd  Gd1  1  0.85564266  0.72920415  0.97383730  1
  Gd  Gd2  1  0.64435734  0.22920415  0.47383730  1
  Gd  Gd3  1  0.14435734  0.27079585  0.02616270  1
  Ga  Ga4  1  0.40028512  0.48083301  0.26872481  1
  Ga  Ga5  1  0.09971488  0.98083301  0.76872481  1
  Ga  Ga6  1  0.59971488  0.51916699  0.73127519  1
  Ga  Ga7  1  0.90028512  0.01916699  0.23127519  1
  Ge  Ge8  1  0.15876248  0.24116233  0.45726176  1
  Ge  Ge9  1  0.84123752  0.75883767  0.54273824  1
  Ge  Ge10  1  0.91061455  0.57945897  0.27777390  1
  Ge  Ge11  1  0.58938545  0.07945897  0.77777390  1
  Ge  Ge12  1  0.65876248  0.25883767  0.04273824  1
  Ge  Ge13  1  0.41061455  0.92054103  0.22222610  1
  Ge  Ge14  1  0.08938545  0.42054103  0.72222610  1
  Ge  Ge15  1  0.34123752  0.74116233  0.95726176  1
  O  O16  1  0.17083427  0.56990310  0.98071876  1
  O  O17  1  0.88927197  0.56075216  0.78110879  1
  O  O18  1  0.68831560  0.46481956  0.31204344  1
  O  O19  1  0.67083427  0.93009690  0.51928124  1
  O  O20  1  0.99815616  0.67678724  0.42122712  1
  O  O21  1  0.15835507  0.90811051  0.92146046  1
  O  O22  1  0.18831560  0.03518044  0.18795656  1
  O  O23  1  0.61072803  0.06075216  0.28110879  1
  O  O24  1  0.50184384  0.17678724  0.92122712  1
  O  O25  1  0.84164493  0.09188949  0.07853954  1
  O  O26  1  0.00184384  0.32321276  0.57877288  1
  O  O27  1  0.34164493  0.40811051  0.42146046  1
  O  O28  1  0.37782695  0.73784754  0.30997418  1
  O  O29  1  0.44571157  0.33710818  0.12517704  1
  O  O30  1  0.05428843  0.83710818  0.62517704  1
  O  O31  1  0.81168440  0.96481956  0.81204344  1
  O  O32  1  0.55428843  0.66289182  0.87482296  1
  O  O33  1  0.12217305  0.23784754  0.80997418  1
  O  O34  1  0.94571157  0.16289182  0.37482296  1
  O  O35  1  0.32916573  0.06990310  0.48071876  1
  O  O36  1  0.11072803  0.43924784  0.21889121  1
  O  O37  1  0.31168440  0.53518044  0.68795656  1
  O  O38  1  0.49815616  0.82321276  0.07877288  1
  O  O39  1  0.62217305  0.26215246  0.69002582  1
  O  O40  1  0.38927197  0.93924784  0.71889121  1
  O  O41  1  0.87782695  0.76215246  0.19002582  1
  O  O42  1  0.82916573  0.43009690  0.01928124  1
  O  O43  1  0.65835507  0.59188949  0.57853954  1
