# generated using pymatgen
data_Yb2Ge4Ru3
_symmetry_space_group_name_H-M   'P 1'
_cell_length_a   5.55407686
_cell_length_b   10.45297326
_cell_length_c   11.43305057
_cell_angle_alpha   79.88473669
_cell_angle_beta   75.94249386
_cell_angle_gamma   74.59325255
_symmetry_Int_Tables_number   1
_chemical_formula_structural   Yb2Ge4Ru3
_chemical_formula_sum   'Yb8 Ge16 Ru12'
_cell_volume   616.35164218
_cell_formula_units_Z   4
loop_
 _symmetry_equiv_pos_site_id
 _symmetry_equiv_pos_as_xyz
  1  'x, y, z'
loop_
 _atom_site_type_symbol
 _atom_site_label
 _atom_site_symmetry_multiplicity
 _atom_site_fract_x
 _atom_site_fract_y
 _atom_site_fract_z
 _atom_site_occupancy
  Yb  Yb0  1  0.43617262  0.50496927  0.35797661  1
  Yb  Yb1  1  0.03951542  0.53089616  0.14624430  1
  Yb  Yb2  1  0.96048458  0.46910384  0.85375570  1
  Yb  Yb3  1  0.29911850  0.99503073  0.14202339  1
  Yb  Yb4  1  0.71665588  0.96910384  0.35375570  1
  Yb  Yb5  1  0.70088150  0.00496927  0.85797661  1
  Yb  Yb6  1  0.28334412  0.03089616  0.64624430  1
  Yb  Yb7  1  0.56382738  0.49503073  0.64202339  1
  Ge  Ge8  1  0.25629557  0.88127505  0.90038895  1
  Ge  Ge9  1  0.13760122  0.07374809  0.39877770  1
  Ge  Ge10  1  0.74370443  0.11872495  0.09961105  1
  Ge  Ge11  1  0.38043072  0.25000000  0.75000000  1
  Ge  Ge12  1  0.86239878  0.92625191  0.60122230  1
  Ge  Ge13  1  0.90529954  0.72637897  0.93464134  1
  Ge  Ge14  1  0.61012702  0.42625191  0.10122230  1
  Ge  Ge15  1  0.03795957  0.61872495  0.59961105  1
  Ge  Ge16  1  0.43368014  0.22637897  0.43464134  1
  Ge  Ge17  1  0.09470046  0.27362103  0.06535866  1
  Ge  Ge18  1  0.13064419  0.75000000  0.25000000  1
  Ge  Ge19  1  0.96204043  0.38127505  0.40038895  1
  Ge  Ge20  1  0.86935581  0.25000000  0.75000000  1
  Ge  Ge21  1  0.61956928  0.75000000  0.25000000  1
  Ge  Ge22  1  0.56631986  0.77362103  0.56535866  1
  Ge  Ge23  1  0.38987298  0.57374809  0.89877770  1
  Ru  Ru24  1  0.10127352  0.12564028  0.91168295  1
  Ru  Ru25  1  0.63338245  0.74191444  0.77624089  1
  Ru  Ru26  1  0.84846221  0.24191444  0.27624089  1
  Ru  Ru27  1  0.36661755  0.25808556  0.22375911  1
  Ru  Ru28  1  0.75702748  0.18781918  0.56167482  1
  Ru  Ru29  1  0.89872648  0.87435972  0.08831705  1
  Ru  Ru30  1  0.15153779  0.75808556  0.72375911  1
  Ru  Ru31  1  0.49347853  0.68781918  0.06167482  1
  Ru  Ru32  1  0.50652147  0.31218082  0.93832518  1
  Ru  Ru33  1  0.13859674  0.37435972  0.58831705  1
  Ru  Ru34  1  0.86140326  0.62564028  0.41168295  1
  Ru  Ru35  1  0.24297252  0.81218082  0.43832518  1
