# generated using pymatgen
data_Na2Co(NO3)4
_symmetry_space_group_name_H-M   'P 1'
_cell_length_a   7.80932480
_cell_length_b   10.85155674
_cell_length_c   11.88704370
_cell_angle_alpha   92.92198759
_cell_angle_beta   90.00000000
_cell_angle_gamma   90.00000000
_symmetry_Int_Tables_number   1
_chemical_formula_structural   Na2Co(NO3)4
_chemical_formula_sum   'Na8 Co4 N16 O48'
_cell_volume   1006.03799621
_cell_formula_units_Z   4
loop_
 _symmetry_equiv_pos_site_id
 _symmetry_equiv_pos_as_xyz
  1  'x, y, z'
loop_
 _atom_site_type_symbol
 _atom_site_label
 _atom_site_symmetry_multiplicity
 _atom_site_fract_x
 _atom_site_fract_y
 _atom_site_fract_z
 _atom_site_occupancy
  Na  Na0  1  0.83208088  0.03697324  0.17019763  1
  Na  Na1  1  0.15748149  0.50924636  0.83990672  1
  Na  Na2  1  0.34251851  0.00924636  0.33990672  1
  Na  Na3  1  0.33208088  0.46302676  0.32980237  1
  Na  Na4  1  0.84251851  0.49075364  0.16009328  1
  Na  Na5  1  0.16791912  0.96302676  0.82980237  1
  Na  Na6  1  0.65748149  0.99075364  0.66009328  1
  Na  Na7  1  0.66791912  0.53697324  0.67019763  1
  Co  Co8  1  0.94861991  0.74393047  0.46959766  1
  Co  Co9  1  0.44861991  0.75606953  0.03040234  1
  Co  Co10  1  0.55138009  0.24393047  0.96959766  1
  Co  Co11  1  0.05138009  0.25606953  0.53040234  1
  N  N12  1  0.04202495  0.73911600  0.68956060  1
  N  N13  1  0.95797505  0.26088400  0.31043940  1
  N  N14  1  0.23703570  0.57120921  0.09847707  1
  N  N15  1  0.76983438  0.07140173  0.88903622  1
  N  N16  1  0.73016562  0.57140173  0.38903622  1
  N  N17  1  0.54202495  0.76088400  0.81043940  1
  N  N18  1  0.23068240  0.24874449  0.90757605  1
  N  N19  1  0.76931760  0.75125551  0.09242395  1
  N  N20  1  0.26931760  0.74874449  0.40757605  1
  N  N21  1  0.73068240  0.25125551  0.59242395  1
  N  N22  1  0.45797505  0.23911600  0.18956060  1
  N  N23  1  0.23016562  0.92859827  0.11096378  1
  N  N24  1  0.26983438  0.42859827  0.61096378  1
  N  N25  1  0.73703570  0.92879079  0.40152293  1
  N  N26  1  0.26296430  0.07120921  0.59847707  1
  N  N27  1  0.76296430  0.42879079  0.90152293  1
  O  O28  1  0.90096131  0.27486031  0.21342795  1
  O  O29  1  0.04608718  0.84317606  0.64581167  1
  O  O30  1  0.07992858  0.26466331  0.88095212  1
  O  O31  1  0.30461092  0.38816484  0.51252138  1
  O  O32  1  0.73207944  0.38168261  0.99765383  1
  O  O33  1  0.19538908  0.88816484  0.01252138  1
  O  O34  1  0.23207944  0.11831739  0.50234617  1
  O  O35  1  0.81886058  0.88526077  0.31741721  1
  O  O36  1  0.31886058  0.61473923  0.18258279  1
  O  O37  1  0.45391282  0.34317606  0.14581167  1
  O  O38  1  0.69538908  0.61183516  0.48747862  1
  O  O39  1  0.76792056  0.88168261  0.49765383  1
  O  O40  1  0.79209717  0.35491490  0.56585876  1
  O  O41  1  0.97803911  0.64853198  0.62941349  1
  O  O42  1  0.68113942  0.38526077  0.81741721  1
  O  O43  1  0.63149975  0.01442889  0.39631573  1
  O  O44  1  0.95391282  0.15682394  0.35418833  1
  O  O45  1  0.35685120  0.50778667  0.66514054  1
  O  O46  1  0.26792056  0.61831739  0.00234617  1
  O  O47  1  0.83974932  0.16068777  0.58996599  1
  O  O48  1  0.66025068  0.66068777  0.08996599  1
  O  O49  1  0.57992858  0.23533669  0.61904788  1
  O  O50  1  0.13546796  0.38309161  0.65742141  1
  O  O51  1  0.63546796  0.11690839  0.84257859  1
  O  O52  1  0.85685120  0.99221333  0.83485946  1
  O  O53  1  0.40096131  0.22513969  0.28657205  1
  O  O54  1  0.33974932  0.33931223  0.91003401  1
  O  O55  1  0.42007142  0.76466331  0.38095212  1
  O  O56  1  0.36453204  0.88309161  0.15742141  1
  O  O57  1  0.29209717  0.14508510  0.93414124  1
  O  O58  1  0.92007142  0.73533669  0.11904788  1
  O  O59  1  0.70790283  0.85491490  0.06585876  1
  O  O60  1  0.18113942  0.11473923  0.68258279  1
  O  O61  1  0.14314880  0.00778667  0.16514054  1
  O  O62  1  0.09903869  0.72513969  0.78657205  1
  O  O63  1  0.47803911  0.85146802  0.87058651  1
  O  O64  1  0.86453204  0.61690839  0.34257859  1
  O  O65  1  0.86850025  0.51442889  0.89631573  1
  O  O66  1  0.52196089  0.14853198  0.12941349  1
  O  O67  1  0.36850025  0.98557111  0.60368427  1
  O  O68  1  0.20790283  0.64508510  0.43414124  1
  O  O69  1  0.13149975  0.48557111  0.10368427  1
  O  O70  1  0.80461092  0.11183516  0.98747862  1
  O  O71  1  0.59903869  0.77486031  0.71342795  1
  O  O72  1  0.02196089  0.35146802  0.37058651  1
  O  O73  1  0.16025068  0.83931223  0.41003401  1
  O  O74  1  0.64314880  0.49221333  0.33485946  1
  O  O75  1  0.54608718  0.65682394  0.85418833  1
