# generated using pymatgen
data_Mo6PbBr14
_symmetry_space_group_name_H-M   'P 1'
_cell_length_a   13.87193993
_cell_length_b   13.87193993
_cell_length_c   13.87193993
_cell_angle_alpha   90.00000000
_cell_angle_beta   90.00000000
_cell_angle_gamma   90.00000000
_symmetry_Int_Tables_number   1
_chemical_formula_structural   Mo6PbBr14
_chemical_formula_sum   'Mo24 Pb4 Br56'
_cell_volume   2669.38735276
_cell_formula_units_Z   4
loop_
 _symmetry_equiv_pos_site_id
 _symmetry_equiv_pos_as_xyz
  1  'x, y, z'
loop_
 _atom_site_type_symbol
 _atom_site_label
 _atom_site_symmetry_multiplicity
 _atom_site_fract_x
 _atom_site_fract_y
 _atom_site_fract_z
 _atom_site_occupancy
  Mo  Mo0  1  0.12788824  0.52737509  0.46521170  1
  Mo  Mo1  1  0.02737509  0.96521170  0.87211176  1
  Mo  Mo2  1  0.03478830  0.12788824  0.97262491  1
  Mo  Mo3  1  0.37211176  0.97262491  0.46521170  1
  Mo  Mo4  1  0.97262491  0.46521170  0.37211176  1
  Mo  Mo5  1  0.03478830  0.37211176  0.52737509  1
  Mo  Mo6  1  0.62788824  0.47262491  0.96521170  1
  Mo  Mo7  1  0.62788824  0.02737509  0.53478830  1
  Mo  Mo8  1  0.46521170  0.37211176  0.97262491  1
  Mo  Mo9  1  0.53478830  0.62788824  0.02737509  1
  Mo  Mo10  1  0.12788824  0.97262491  0.03478830  1
  Mo  Mo11  1  0.02737509  0.53478830  0.62788824  1
  Mo  Mo12  1  0.87211176  0.47262491  0.53478830  1
  Mo  Mo13  1  0.97262491  0.03478830  0.12788824  1
  Mo  Mo14  1  0.53478830  0.87211176  0.47262491  1
  Mo  Mo15  1  0.96521170  0.87211176  0.02737509  1
  Mo  Mo16  1  0.52737509  0.46521170  0.12788824  1
  Mo  Mo17  1  0.47262491  0.53478830  0.87211176  1
  Mo  Mo18  1  0.96521170  0.62788824  0.47262491  1
  Mo  Mo19  1  0.37211176  0.52737509  0.03478830  1
  Mo  Mo20  1  0.52737509  0.03478830  0.37211176  1
  Mo  Mo21  1  0.47262491  0.96521170  0.62788824  1
  Mo  Mo22  1  0.46521170  0.12788824  0.52737509  1
  Mo  Mo23  1  0.87211176  0.02737509  0.96521170  1
  Pb  Pb24  1  0.00000000  0.00000000  0.50000000  1
  Pb  Pb25  1  0.50000000  0.50000000  0.50000000  1
  Pb  Pb26  1  0.50000000  0.00000000  0.00000000  1
  Pb  Pb27  1  0.00000000  0.50000000  0.00000000  1
  Br  Br28  1  0.63372421  0.63372421  0.86627579  1
  Br  Br29  1  0.38088913  0.81291969  0.56414390  1
  Br  Br30  1  0.80701999  0.42891223  0.91172024  1
  Br  Br31  1  0.07108777  0.91172024  0.69298001  1
  Br  Br32  1  0.42891223  0.58827976  0.69298001  1
  Br  Br33  1  0.06414390  0.61911087  0.31291969  1
  Br  Br34  1  0.57108777  0.08827976  0.19298001  1
  Br  Br35  1  0.88088913  0.18708031  0.06414390  1
  Br  Br36  1  0.31291969  0.43585610  0.88088913  1
  Br  Br37  1  0.57108777  0.41172024  0.30701999  1
  Br  Br38  1  0.36627579  0.13372421  0.36627579  1
  Br  Br39  1  0.36627579  0.36627579  0.13372421  1
  Br  Br40  1  0.07108777  0.58827976  0.80701999  1
  Br  Br41  1  0.11911087  0.81291969  0.93585610  1
  Br  Br42  1  0.30701999  0.57108777  0.41172024  1
  Br  Br43  1  0.42891223  0.91172024  0.80701999  1
  Br  Br44  1  0.86627579  0.63372421  0.63372421  1
  Br  Br45  1  0.81291969  0.56414390  0.38088913  1
  Br  Br46  1  0.93585610  0.38088913  0.68708031  1
  Br  Br47  1  0.61911087  0.18708031  0.43585610  1
  Br  Br48  1  0.69298001  0.07108777  0.91172024  1
  Br  Br49  1  0.80701999  0.07108777  0.58827976  1
  Br  Br50  1  0.13372421  0.13372421  0.13372421  1
  Br  Br51  1  0.30701999  0.92891223  0.08827976  1
  Br  Br52  1  0.56414390  0.11911087  0.68708031  1
  Br  Br53  1  0.18708031  0.43585610  0.61911087  1
  Br  Br54  1  0.63372421  0.86627579  0.63372421  1
  Br  Br55  1  0.68708031  0.93585610  0.38088913  1
  Br  Br56  1  0.18708031  0.06414390  0.88088913  1
  Br  Br57  1  0.92891223  0.08827976  0.30701999  1
  Br  Br58  1  0.08827976  0.30701999  0.92891223  1
  Br  Br59  1  0.31291969  0.06414390  0.61911087  1
  Br  Br60  1  0.43585610  0.88088913  0.31291969  1
  Br  Br61  1  0.19298001  0.57108777  0.08827976  1
  Br  Br62  1  0.38088913  0.68708031  0.93585610  1
  Br  Br63  1  0.61911087  0.31291969  0.06414390  1
  Br  Br64  1  0.19298001  0.92891223  0.41172024  1
  Br  Br65  1  0.91172024  0.80701999  0.42891223  1
  Br  Br66  1  0.11911087  0.68708031  0.56414390  1
  Br  Br67  1  0.13372421  0.36627579  0.36627579  1
  Br  Br68  1  0.58827976  0.80701999  0.07108777  1
  Br  Br69  1  0.06414390  0.88088913  0.18708031  1
  Br  Br70  1  0.58827976  0.69298001  0.42891223  1
  Br  Br71  1  0.92891223  0.41172024  0.19298001  1
  Br  Br72  1  0.91172024  0.69298001  0.07108777  1
  Br  Br73  1  0.81291969  0.93585610  0.11911087  1
  Br  Br74  1  0.43585610  0.61911087  0.18708031  1
  Br  Br75  1  0.68708031  0.56414390  0.11911087  1
  Br  Br76  1  0.41172024  0.30701999  0.57108777  1
  Br  Br77  1  0.93585610  0.11911087  0.81291969  1
  Br  Br78  1  0.86627579  0.86627579  0.86627579  1
  Br  Br79  1  0.56414390  0.38088913  0.81291969  1
  Br  Br80  1  0.88088913  0.31291969  0.43585610  1
  Br  Br81  1  0.08827976  0.19298001  0.57108777  1
  Br  Br82  1  0.69298001  0.42891223  0.58827976  1
  Br  Br83  1  0.41172024  0.19298001  0.92891223  1
