# generated using pymatgen
data_La3U2O10
_symmetry_space_group_name_H-M   'P 1'
_cell_length_a   33.57820249
_cell_length_b   19.36472967
_cell_length_c   12.83355778
_cell_angle_alpha   15.57399636
_cell_angle_beta   17.16190499
_cell_angle_gamma   11.23157290
_symmetry_Int_Tables_number   1
_chemical_formula_structural   La3U2O10
_chemical_formula_sum   'La6 U4 O20'
_cell_volume   427.25364727
_cell_formula_units_Z   2
loop_
 _symmetry_equiv_pos_site_id
 _symmetry_equiv_pos_as_xyz
  1  'x, y, z'
loop_
 _atom_site_type_symbol
 _atom_site_label
 _atom_site_symmetry_multiplicity
 _atom_site_fract_x
 _atom_site_fract_y
 _atom_site_fract_z
 _atom_site_occupancy
  La  La0  1  0.99170202  0.01000622  0.00602136  1
  La  La1  1  0.20829798  0.98999378  0.99397864  1
  La  La2  1  0.40100767  0.99206114  0.00967190  1
  La  La3  1  0.60000000  0.00000000  0.00000000  1
  La  La4  1  0.79899233  0.00793886  0.99032810  1
  La  La5  1  0.60000000  0.50000000  0.50000000  1
  U  U6  1  0.19736869  0.50768029  0.49540658  1
  U  U7  1  0.40044712  0.50550343  0.49074539  1
  U  U8  1  0.79955288  0.49449657  0.50925461  1
  U  U9  1  0.00263131  0.49231971  0.50459342  1
  O  O10  1  0.15928278  0.10751358  0.14159521  1
  O  O11  1  0.04132819  0.39186771  0.38963397  1
  O  O12  1  0.32312733  0.17969850  0.12557405  1
  O  O13  1  0.23828400  0.39822528  0.38991117  1
  O  O14  1  0.54191513  0.11159947  0.18064918  1
  O  O15  1  0.15867181  0.60813229  0.61036603  1
  O  O16  1  0.44969021  0.37265625  0.39976739  1
  O  O17  1  0.04071722  0.89248642  0.85840479  1
  O  O18  1  0.74643580  0.14559716  0.11394652  1
  O  O19  1  0.34585321  0.62091042  0.62039613  1
  O  O20  1  0.64764886  0.37730198  0.37406733  1
  O  O21  1  0.23873766  0.87947392  0.88602451  1
  O  O22  1  0.96126234  0.12052608  0.11397549  1
  O  O23  1  0.55235114  0.62269802  0.62593267  1
  O  O24  1  0.85414679  0.37908958  0.37960387  1
  O  O25  1  0.45356420  0.85440284  0.88605348  1
  O  O26  1  0.75030979  0.62734375  0.60023261  1
  O  O27  1  0.65808487  0.88840053  0.81935082  1
  O  O28  1  0.96171600  0.60177472  0.61008883  1
  O  O29  1  0.87687267  0.82030150  0.87442595  1
