# generated using pymatgen
data_Nd6In22Pt13
_symmetry_space_group_name_H-M   'P 1'
_cell_length_a   4.50298011
_cell_length_b   14.51855913
_cell_length_c   15.14148806
_cell_angle_alpha   112.11038044
_cell_angle_beta   90.00000000
_cell_angle_gamma   98.92124392
_symmetry_Int_Tables_number   1
_chemical_formula_structural   Nd6In22Pt13
_chemical_formula_sum   'Nd6 In22 Pt13'
_cell_volume   904.16579044
_cell_formula_units_Z   1
loop_
 _symmetry_equiv_pos_site_id
 _symmetry_equiv_pos_as_xyz
  1  'x, y, z'
loop_
 _atom_site_type_symbol
 _atom_site_label
 _atom_site_symmetry_multiplicity
 _atom_site_fract_x
 _atom_site_fract_y
 _atom_site_fract_z
 _atom_site_occupancy
  Nd  Nd0  1  0.45361211  0.90722423  0.30119091  1
  Nd  Nd1  1  0.83722090  0.67444180  0.46995797  1
  Nd  Nd2  1  0.54638789  0.09277577  0.69880909  1
  Nd  Nd3  1  0.16277910  0.32555820  0.53004203  1
  Nd  Nd4  1  0.82175646  0.64351293  0.91993497  1
  Nd  Nd5  1  0.17824354  0.35648707  0.08006503  1
  In  In6  1  0.32605932  0.65211865  0.28030996  1
  In  In7  1  0.87591266  0.75182532  0.16893739  1
  In  In8  1  0.67394068  0.34788135  0.71969004  1
  In  In9  1  0.43534201  0.87068401  0.49759600  1
  In  In10  1  0.85740447  0.71480894  0.71808105  1
  In  In11  1  0.72797285  0.45594570  0.24827635  1
  In  In12  1  0.23741262  0.47482523  0.91618728  1
  In  In13  1  0.40828307  0.81656613  0.04747582  1
  In  In14  1  0.05552171  0.11104342  0.06375645  1
  In  In15  1  0.95690650  0.91381301  0.66026618  1
  In  In16  1  0.76258738  0.52517477  0.08381272  1
  In  In17  1  0.71280050  0.42560100  0.43470202  1
  In  In18  1  0.56465799  0.12931599  0.50240400  1
  In  In19  1  0.28719950  0.57439900  0.56529798  1
  In  In20  1  0.27202715  0.54405430  0.75172365  1
  In  In21  1  0.94447829  0.88895658  0.93624355  1
  In  In22  1  0.59171693  0.18343387  0.95252418  1
  In  In23  1  0.52948736  0.05897473  0.17902021  1
  In  In24  1  0.12408734  0.24817468  0.83106261  1
  In  In25  1  0.47051264  0.94102527  0.82097979  1
  In  In26  1  0.14259553  0.28519106  0.28191895  1
  In  In27  1  0.04309350  0.08618699  0.33973382  1
  Pt  Pt28  1  0.61929970  0.23859940  0.15148587  1
  Pt  Pt29  1  0.90109826  0.80219653  0.36428688  1
  Pt  Pt30  1  0.03279259  0.06558517  0.86085099  1
  Pt  Pt31  1  0.39271383  0.78542767  0.63704796  1
  Pt  Pt32  1  0.09890174  0.19780347  0.63571312  1
  Pt  Pt33  1  0.25165935  0.50331869  0.36384162  1
  Pt  Pt34  1  0.00000000  0.00000000  0.50000000  1
  Pt  Pt35  1  0.32054906  0.64109812  0.08792713  1
  Pt  Pt36  1  0.67945094  0.35890188  0.91207287  1
  Pt  Pt37  1  0.38070030  0.76140060  0.84851413  1
  Pt  Pt38  1  0.96720741  0.93441483  0.13914901  1
  Pt  Pt39  1  0.74834065  0.49668131  0.63615838  1
  Pt  Pt40  1  0.60728617  0.21457233  0.36295204  1
