# generated using pymatgen
data_Na3Sr(BO2)5
_symmetry_space_group_name_H-M   'P 1'
_cell_length_a   7.34576801
_cell_length_b   7.69531359
_cell_length_c   9.82860193
_cell_angle_alpha   81.55611911
_cell_angle_beta   70.97002054
_cell_angle_gamma   62.02685196
_symmetry_Int_Tables_number   1
_chemical_formula_structural   Na3Sr(BO2)5
_chemical_formula_sum   'Na6 Sr2 B10 O20'
_cell_volume   463.85102325
_cell_formula_units_Z   2
loop_
 _symmetry_equiv_pos_site_id
 _symmetry_equiv_pos_as_xyz
  1  'x, y, z'
loop_
 _atom_site_type_symbol
 _atom_site_label
 _atom_site_symmetry_multiplicity
 _atom_site_fract_x
 _atom_site_fract_y
 _atom_site_fract_z
 _atom_site_occupancy
  B  B0  1  0.83828679  0.25002036  0.45231584  1
  B  B1  1  0.16171321  0.74997964  0.54768416  1
  B  B2  1  0.86270090  0.32223639  0.91717950  1
  B  B3  1  0.13729910  0.67776361  0.08282050  1
  B  B4  1  0.51209699  0.22670105  0.62213476  1
  B  B5  1  0.48790301  0.77329895  0.37786524  1
  B  B6  1  0.61813129  0.66039175  0.86232918  1
  B  B7  1  0.38186871  0.33960825  0.13767082  1
  B  B8  1  0.70192157  0.37309463  0.70990191  1
  B  B9  1  0.29807843  0.62690537  0.29009809  1
  O  O10  1  0.83455678  0.24929675  0.80740407  1
  O  O11  1  0.34198391  0.19313309  0.64442680  1
  O  O12  1  0.01561100  0.79549855  0.99967174  1
  O  O13  1  0.98438900  0.20450145  0.00032826  1
  O  O14  1  0.65801609  0.80686691  0.35557320  1
  O  O15  1  0.84439773  0.34697976  0.55954421  1
  O  O16  1  0.40042492  0.41514802  0.25157087  1
  O  O17  1  0.59957508  0.58485198  0.74842913  1
  O  O18  1  0.46687505  0.68666559  0.27238220  1
  O  O19  1  0.53312495  0.31333441  0.72761780  1
  O  O20  1  0.32044207  0.82028546  0.51141413  1
  O  O21  1  0.67955793  0.17971454  0.48858587  1
  O  O22  1  0.50035019  0.14965649  0.10384285  1
  O  O23  1  0.49964981  0.85034351  0.89615715  1
  O  O24  1  0.23161074  0.47128775  0.06502507  1
  O  O25  1  0.76838926  0.52871225  0.93497493  1
  O  O26  1  0.02741918  0.77721781  0.68160225  1
  O  O27  1  0.97258082  0.22278219  0.31839775  1
  O  O28  1  0.15560227  0.65302024  0.44045579  1
  O  O29  1  0.16544322  0.75070325  0.19259593  1
  Na  Na30  1  0.79233766  0.71913771  0.54784649  1
  Na  Na31  1  0.20766234  0.28086229  0.45215351  1
  Na  Na32  1  0.15644038  0.49871062  0.83492675  1
  Na  Na33  1  0.84355962  0.50128938  0.16507325  1
  Na  Na34  1  0.72100957  0.98618055  0.88501324  1
  Na  Na35  1  0.27899043  0.01381945  0.11498676  1
  Sr  Sr36  1  0.78401335  0.05242241  0.22357783  1
  Sr  Sr37  1  0.21598665  0.94757759  0.77642217  1
