# generated using pymatgen
data_NbTe4
_symmetry_space_group_name_H-M   'P 1'
_cell_length_a   9.34080322
_cell_length_b   9.34080322
_cell_length_c   20.98185185
_cell_angle_alpha   90.00000000
_cell_angle_beta   90.00000000
_cell_angle_gamma   90.00000000
_symmetry_Int_Tables_number   1
_chemical_formula_structural   NbTe4
_chemical_formula_sum   'Nb12 Te48'
_cell_volume   1830.67926363
_cell_formula_units_Z   12
loop_
 _symmetry_equiv_pos_site_id
 _symmetry_equiv_pos_as_xyz
  1  'x, y, z'
loop_
 _atom_site_type_symbol
 _atom_site_label
 _atom_site_symmetry_multiplicity
 _atom_site_fract_x
 _atom_site_fract_y
 _atom_site_fract_z
 _atom_site_occupancy
  Nb  Nb0  1  0.00000000  0.00000000  0.59635083  1
  Nb  Nb1  1  0.50000000  0.50000000  0.92749198  1
  Nb  Nb2  1  0.00000000  0.00000000  0.90319559  1
  Nb  Nb3  1  0.50000000  0.50000000  0.58042380  1
  Nb  Nb4  1  0.50000000  0.50000000  0.73505846  1
  Nb  Nb5  1  0.50000000  0.50000000  0.08008784  1
  Nb  Nb6  1  0.00000000  0.00000000  0.40215060  1
  Nb  Nb7  1  0.50000000  0.50000000  0.42790634  1
  Nb  Nb8  1  0.00000000  0.00000000  0.09605834  1
  Nb  Nb9  1  0.00000000  0.00000000  0.75038303  1
  Nb  Nb10  1  0.50000000  0.50000000  0.23450715  1
  Nb  Nb11  1  0.00000000  0.00000000  0.24960092  1
  Te  Te12  1  0.76200626  0.09027022  0.16847311  1
  Te  Te13  1  0.23799374  0.90972978  0.16847311  1
  Te  Te14  1  0.21544332  0.09554660  0.99982662  1
  Te  Te15  1  0.91007345  0.23789285  0.66916521  1
  Te  Te16  1  0.09643240  0.21428099  0.49916577  1
  Te  Te17  1  0.09554660  0.78455668  0.99982662  1
  Te  Te18  1  0.73631662  0.40643368  0.16152051  1
  Te  Te19  1  0.90972978  0.76200626  0.16847311  1
  Te  Te20  1  0.78455668  0.90445340  0.99982662  1
  Te  Te21  1  0.90445340  0.21544332  0.99982662  1
  Te  Te22  1  0.74146849  0.41711254  0.50034237  1
  Te  Te23  1  0.24086918  0.08418625  0.32975334  1
  Te  Te24  1  0.28459536  0.40446977  0.33121506  1
  Te  Te25  1  0.23789285  0.08992655  0.66916521  1
  Te  Te26  1  0.26368338  0.59356632  0.16152051  1
  Te  Te27  1  0.41584641  0.74098354  0.00009048  1
  Te  Te28  1  0.21428099  0.90356760  0.49916577  1
  Te  Te29  1  0.26401272  0.40621630  0.66210412  1
  Te  Te30  1  0.28347213  0.59439387  0.83114941  1
  Te  Te31  1  0.09027022  0.23799374  0.16847311  1
  Te  Te32  1  0.78571901  0.09643240  0.49916577  1
  Te  Te33  1  0.91581375  0.24086918  0.32975334  1
  Te  Te34  1  0.59553023  0.28459536  0.33121506  1
  Te  Te35  1  0.59356632  0.73631662  0.16152051  1
  Te  Te36  1  0.73598728  0.59378370  0.66210412  1
  Te  Te37  1  0.25853151  0.58288746  0.50034237  1
  Te  Te38  1  0.91434509  0.75970948  0.83054029  1
  Te  Te39  1  0.40621630  0.73598728  0.66210412  1
  Te  Te40  1  0.24029052  0.91434509  0.83054029  1
  Te  Te41  1  0.25901646  0.41584641  0.00009048  1
  Te  Te42  1  0.58415359  0.25901646  0.00009048  1
  Te  Te43  1  0.08992655  0.76210715  0.66916521  1
  Te  Te44  1  0.76210715  0.91007345  0.66916521  1
  Te  Te45  1  0.08565491  0.24029052  0.83054029  1
  Te  Te46  1  0.40643368  0.26368338  0.16152051  1
  Te  Te47  1  0.59378370  0.26401272  0.66210412  1
  Te  Te48  1  0.71540464  0.59553023  0.33121506  1
  Te  Te49  1  0.75913082  0.91581375  0.32975334  1
  Te  Te50  1  0.90356760  0.78571901  0.49916577  1
  Te  Te51  1  0.58288746  0.74146849  0.50034237  1
  Te  Te52  1  0.40446977  0.71540464  0.33121506  1
  Te  Te53  1  0.08418625  0.75913082  0.32975334  1
  Te  Te54  1  0.71652787  0.40560613  0.83114941  1
  Te  Te55  1  0.74098354  0.58415359  0.00009048  1
  Te  Te56  1  0.59439387  0.71652787  0.83114941  1
  Te  Te57  1  0.40560613  0.28347213  0.83114941  1
  Te  Te58  1  0.41711254  0.25853151  0.50034237  1
  Te  Te59  1  0.75970948  0.08565491  0.83054029  1
