# generated using pymatgen
data_Cs7Ni4F15
_symmetry_space_group_name_H-M   'P 1'
_cell_length_a   7.95385512
_cell_length_b   11.04250384
_cell_length_c   11.63106098
_cell_angle_alpha   90.00000000
_cell_angle_beta   92.46582459
_cell_angle_gamma   90.00000000
_symmetry_Int_Tables_number   1
_chemical_formula_structural   Cs7Ni4F15
_chemical_formula_sum   'Cs14 Ni8 F30'
_cell_volume   1020.61571636
_cell_formula_units_Z   2
loop_
 _symmetry_equiv_pos_site_id
 _symmetry_equiv_pos_as_xyz
  1  'x, y, z'
loop_
 _atom_site_type_symbol
 _atom_site_label
 _atom_site_symmetry_multiplicity
 _atom_site_fract_x
 _atom_site_fract_y
 _atom_site_fract_z
 _atom_site_occupancy
  Cs  Cs0  1  0.49743659  0.31901875  0.52856152  1
  Cs  Cs1  1  0.50256341  0.68098125  0.47143848  1
  Cs  Cs2  1  0.49743659  0.18098125  0.02856152  1
  Cs  Cs3  1  0.83803977  0.65361919  0.19674182  1
  Cs  Cs4  1  0.32986345  0.00411495  0.66744079  1
  Cs  Cs5  1  0.16196023  0.34638081  0.80325818  1
  Cs  Cs6  1  0.67013655  0.99588505  0.33255921  1
  Cs  Cs7  1  0.00000000  0.00000000  0.00000000  1
  Cs  Cs8  1  0.83803977  0.84638081  0.69674182  1
  Cs  Cs9  1  0.67013655  0.50411495  0.83255921  1
  Cs  Cs10  1  0.50256341  0.81901875  0.97143848  1
  Cs  Cs11  1  0.00000000  0.50000000  0.50000000  1
  Cs  Cs12  1  0.16196023  0.15361919  0.30325818  1
  Cs  Cs13  1  0.32986345  0.49588505  0.16744079  1
  Ni  Ni14  1  0.25856741  0.82695512  0.22896369  1
  Ni  Ni15  1  0.07694545  0.66228544  0.92966386  1
  Ni  Ni16  1  0.92305455  0.16228544  0.57033614  1
  Ni  Ni17  1  0.74143259  0.17304488  0.77103631  1
  Ni  Ni18  1  0.07694545  0.83771456  0.42966386  1
  Ni  Ni19  1  0.92305455  0.33771456  0.07033614  1
  Ni  Ni20  1  0.25856741  0.67304488  0.72896369  1
  Ni  Ni21  1  0.74143259  0.32695512  0.27103631  1
  F  F22  1  0.66911721  0.47208398  0.35778506  1
  F  F23  1  0.17047462  0.80862030  0.83709437  1
  F  F24  1  0.66911721  0.02791602  0.85778506  1
  F  F25  1  0.68944731  0.40711344  0.10710916  1
  F  F26  1  0.14788006  0.23563711  0.55414969  1
  F  F27  1  0.31055269  0.59288656  0.89289084  1
  F  F28  1  0.82952538  0.30862030  0.66290563  1
  F  F29  1  0.97809203  0.39730348  0.23847895  1
  F  F30  1  0.48560949  0.74852027  0.72150093  1
  F  F31  1  0.97809203  0.10269652  0.73847895  1
  F  F32  1  0.82952538  0.19137970  0.16290563  1
  F  F33  1  0.31055269  0.90711344  0.39289084  1
  F  F34  1  0.16825586  0.73390228  0.08353357  1
  F  F35  1  0.02190797  0.60269652  0.76152105  1
  F  F36  1  0.51439051  0.24852027  0.77849907  1
  F  F37  1  0.83174414  0.23390228  0.41646643  1
  F  F38  1  0.02190797  0.89730348  0.26152105  1
  F  F39  1  0.83174414  0.26609772  0.91646643  1
  F  F40  1  0.33088279  0.97208398  0.14221494  1
  F  F41  1  0.68944731  0.09288656  0.60710916  1
  F  F42  1  0.14788006  0.26436289  0.05414969  1
  F  F43  1  0.85211994  0.76436289  0.44585031  1
  F  F44  1  0.17047462  0.69137970  0.33709437  1
  F  F45  1  0.85211994  0.73563711  0.94585031  1
  F  F46  1  0.51439051  0.25147973  0.27849907  1
  F  F47  1  0.33088279  0.52791602  0.64221494  1
  F  F48  1  0.48560949  0.75147973  0.22150093  1
  F  F49  1  0.16825586  0.76609772  0.58353357  1
  F  F50  1  0.00000000  0.00000000  0.50000000  1
  F  F51  1  0.00000000  0.50000000  0.00000000  1
