# generated using pymatgen
data_LiMn9Se10
_symmetry_space_group_name_H-M   'P 1'
_cell_length_a   7.62895326
_cell_length_b   19.04650481
_cell_length_c   10.07518136
_cell_angle_alpha   19.11173577
_cell_angle_beta   55.38902994
_cell_angle_gamma   59.94418520
_symmetry_Int_Tables_number   1
_chemical_formula_structural   LiMn9Se10
_chemical_formula_sum   'Li1 Mn9 Se10'
_cell_volume   390.98797307
_cell_formula_units_Z   1
loop_
 _symmetry_equiv_pos_site_id
 _symmetry_equiv_pos_as_xyz
  1  'x, y, z'
loop_
 _atom_site_type_symbol
 _atom_site_label
 _atom_site_symmetry_multiplicity
 _atom_site_fract_x
 _atom_site_fract_y
 _atom_site_fract_z
 _atom_site_occupancy
  Li  Li0  1  0.50000000  0.80000000  0.00000000  1
  Mn  Mn1  1  0.00041725  0.99888989  0.00240501  1
  Mn  Mn2  1  0.99853255  0.20189962  0.99778619  1
  Mn  Mn3  1  0.00146745  0.39810038  0.00221381  1
  Mn  Mn4  1  0.49998520  0.20068764  0.99996115  1
  Mn  Mn5  1  0.99958275  0.60111011  0.99759499  1
  Mn  Mn6  1  0.50001480  0.39931236  0.00003885  1
  Mn  Mn7  1  0.00000000  0.80000000  0.00000000  1
  Mn  Mn8  1  0.50002454  0.60081503  0.99964076  1
  Mn  Mn9  1  0.49997546  0.99918497  0.00035924  1
  Se  Se10  1  0.24771266  0.10214820  0.49663465  1
  Se  Se11  1  0.25105985  0.30040949  0.49867253  1
  Se  Se12  1  0.75135539  0.10210747  0.49732489  1
  Se  Se13  1  0.24864461  0.49789253  0.50267511  1
  Se  Se14  1  0.74894015  0.29959051  0.50132747  1
  Se  Se15  1  0.24818049  0.69910079  0.50471613  1
  Se  Se16  1  0.75228734  0.49785180  0.50336535  1
  Se  Se17  1  0.25061539  0.90000899  0.49977125  1
  Se  Se18  1  0.74938461  0.69999101  0.50022875  1
  Se  Se19  1  0.75181951  0.90089921  0.49528387  1
