# generated using pymatgen
data_Cs2Re2Se5
_symmetry_space_group_name_H-M   'P 1'
_cell_length_a   12.95464927
_cell_length_b   12.95464912
_cell_length_c   12.95464993
_cell_angle_alpha   70.01329457
_cell_angle_beta   70.01329480
_cell_angle_gamma   70.01329301
_symmetry_Int_Tables_number   1
_chemical_formula_structural   Cs2Re2Se5
_chemical_formula_sum   'Cs12 Re12 Se30'
_cell_volume   1856.75023682
_cell_formula_units_Z   6
loop_
 _symmetry_equiv_pos_site_id
 _symmetry_equiv_pos_as_xyz
  1  'x, y, z'
loop_
 _atom_site_type_symbol
 _atom_site_label
 _atom_site_symmetry_multiplicity
 _atom_site_fract_x
 _atom_site_fract_y
 _atom_site_fract_z
 _atom_site_occupancy
  Cs  Cs0  1  0.12269810  0.32087181  0.53484345  1
  Cs  Cs1  1  0.87730190  0.67912819  0.46515655  1
  Cs  Cs2  1  0.67912819  0.46515655  0.87730190  1
  Cs  Cs3  1  0.53484345  0.12269810  0.32087181  1
  Cs  Cs4  1  0.96515655  0.17912819  0.37730190  1
  Cs  Cs5  1  0.62269810  0.03484345  0.82087181  1
  Cs  Cs6  1  0.82087181  0.62269810  0.03484345  1
  Cs  Cs7  1  0.46515655  0.87730190  0.67912819  1
  Cs  Cs8  1  0.03484345  0.82087181  0.62269810  1
  Cs  Cs9  1  0.32087181  0.53484345  0.12269810  1
  Cs  Cs10  1  0.37730190  0.96515655  0.17912819  1
  Cs  Cs11  1  0.17912819  0.37730190  0.96515655  1
  Re  Re12  1  0.63137845  0.42721403  0.55341913  1
  Re  Re13  1  0.57278597  0.44658087  0.36862155  1
  Re  Re14  1  0.36862155  0.57278597  0.44658087  1
  Re  Re15  1  0.07278597  0.86862155  0.94658087  1
  Re  Re16  1  0.05341913  0.92721403  0.13137845  1
  Re  Re17  1  0.86862155  0.94658087  0.07278597  1
  Re  Re18  1  0.44658087  0.36862155  0.57278597  1
  Re  Re19  1  0.13137845  0.05341913  0.92721403  1
  Re  Re20  1  0.55341913  0.63137845  0.42721403  1
  Re  Re21  1  0.42721403  0.55341913  0.63137845  1
  Re  Re22  1  0.92721403  0.13137845  0.05341913  1
  Re  Re23  1  0.94658087  0.07278597  0.86862155  1
  Se  Se24  1  0.14735471  0.68642284  0.87136761  1
  Se  Se25  1  0.64586273  0.25289655  0.49566158  1
  Se  Se26  1  0.87136761  0.14735471  0.68642284  1
  Se  Se27  1  0.12863239  0.85264529  0.31357716  1
  Se  Se28  1  0.60747310  0.60747310  0.60747310  1
  Se  Se29  1  0.14586273  0.99566158  0.75289655  1
  Se  Se30  1  0.25289655  0.49566158  0.64586273  1
  Se  Se31  1  0.81357716  0.35264529  0.62863239  1
  Se  Se32  1  0.85413727  0.00433842  0.24710345  1
  Se  Se33  1  0.24710345  0.85413727  0.00433842  1
  Se  Se34  1  0.75289655  0.14586273  0.99566158  1
  Se  Se35  1  0.50433842  0.35413727  0.74710345  1
  Se  Se36  1  0.62863239  0.81357716  0.35264529  1
  Se  Se37  1  0.39252690  0.39252690  0.39252690  1
  Se  Se38  1  0.00433842  0.24710345  0.85413727  1
  Se  Se39  1  0.10747310  0.10747310  0.10747310  1
  Se  Se40  1  0.18642284  0.64735471  0.37136761  1
  Se  Se41  1  0.99566158  0.75289655  0.14586273  1
  Se  Se42  1  0.64735471  0.37136761  0.18642284  1
  Se  Se43  1  0.31357716  0.12863239  0.85264529  1
  Se  Se44  1  0.37136761  0.18642284  0.64735471  1
  Se  Se45  1  0.89252690  0.89252690  0.89252690  1
  Se  Se46  1  0.35264529  0.62863239  0.81357716  1
  Se  Se47  1  0.74710345  0.50433842  0.35413727  1
  Se  Se48  1  0.35413727  0.74710345  0.50433842  1
  Se  Se49  1  0.49566158  0.64586273  0.25289655  1
  Se  Se50  1  0.25000000  0.25000000  0.25000000  1
  Se  Se51  1  0.85264529  0.31357716  0.12863239  1
  Se  Se52  1  0.68642284  0.87136761  0.14735471  1
  Se  Se53  1  0.75000000  0.75000000  0.75000000  1
