# generated using pymatgen
data_Cs2Ti2S9
_symmetry_space_group_name_H-M   'P 1'
_cell_length_a   10.49225962
_cell_length_b   10.49231158
_cell_length_c   10.49219295
_cell_angle_alpha   83.52399236
_cell_angle_beta   83.52475855
_cell_angle_gamma   83.52443630
_symmetry_Int_Tables_number   1
_chemical_formula_structural   Cs2Ti2S9
_chemical_formula_sum   'Cs6 Ti6 S27'
_cell_volume   1134.50148191
_cell_formula_units_Z   3
loop_
 _symmetry_equiv_pos_site_id
 _symmetry_equiv_pos_as_xyz
  1  'x, y, z'
loop_
 _atom_site_type_symbol
 _atom_site_label
 _atom_site_symmetry_multiplicity
 _atom_site_fract_x
 _atom_site_fract_y
 _atom_site_fract_z
 _atom_site_occupancy
  Cs  Cs0  1  0.34018092  0.34018013  0.34018088  1
  Cs  Cs1  1  0.55952768  0.21371511  0.82562048  1
  Cs  Cs2  1  0.21371483  0.82561994  0.55952649  1
  Cs  Cs3  1  0.76488594  0.76489328  0.76489434  1
  Cs  Cs4  1  0.82561998  0.55952601  0.21371252  1
  Cs  Cs5  1  0.99964812  0.99964894  0.99964980  1
  Ti  Ti6  1  0.13290197  0.46961926  0.83122277  1
  Ti  Ti7  1  0.00713329  0.26974506  0.66791639  1
  Ti  Ti8  1  0.46961899  0.83122859  0.13289986  1
  Ti  Ti9  1  0.26974494  0.66791268  0.00713355  1
  Ti  Ti10  1  0.66791581  0.00713607  0.26974288  1
  Ti  Ti11  1  0.83122351  0.13289943  0.46961868  1
  S  S12  1  0.08760835  0.68579128  0.88500689  1
  S  S13  1  0.60548833  0.10584961  0.49221069  1
  S  S14  1  0.17776002  0.21354556  0.80412693  1
  S  S15  1  0.29415367  0.48731981  0.65021767  1
  S  S16  1  0.21354439  0.80412446  0.17775740  1
  S  S17  1  0.61700666  0.22038747  0.16526012  1
  S  S18  1  0.82766927  0.44102914  0.67071930  1
  S  S19  1  0.39652783  0.84517194  0.90744119  1
  S  S20  1  0.67072123  0.82766605  0.44102797  1
  S  S21  1  0.98743873  0.29020346  0.42676696  1
  S  S22  1  0.29020567  0.42676593  0.98743899  1
  S  S23  1  0.68579406  0.88500653  0.08760771  1
  S  S24  1  0.48732118  0.65021720  0.29415583  1
  S  S25  1  0.04708133  0.11312987  0.35621516  1
  S  S26  1  0.88500903  0.08760874  0.68579578  1
  S  S27  1  0.65021449  0.29415537  0.48732073  1
  S  S28  1  0.35621274  0.04708345  0.11312910  1
  S  S29  1  0.11312623  0.35621559  0.04708472  1
  S  S30  1  0.84517859  0.90744893  0.39653109  1
  S  S31  1  0.10584907  0.49220998  0.60548935  1
  S  S32  1  0.22038643  0.16526164  0.61700713  1
  S  S33  1  0.80412726  0.17776119  0.21354540  1
  S  S34  1  0.49221115  0.60549200  0.10585129  1
  S  S35  1  0.16525967  0.61700922  0.22038867  1
  S  S36  1  0.42676696  0.98743958  0.29020285  1
  S  S37  1  0.44103164  0.67071334  0.82766645  1
  S  S38  1  0.90745005  0.39652815  0.84517600  1
