# generated using pymatgen
data_Rb6LiPr11Se12(Cl4O9)4
_symmetry_space_group_name_H-M   'P 1'
_cell_length_a   16.11691080
_cell_length_b   16.11691071
_cell_length_c   16.98914469
_cell_angle_alpha   118.31571451
_cell_angle_beta   118.31571432
_cell_angle_gamma   89.99999806
_symmetry_Int_Tables_number   1
_chemical_formula_structural   Rb6LiPr11Se12(Cl4O9)4
_chemical_formula_sum   'Rb12 Li2 Pr22 Se24 Cl32 O72'
_cell_volume   3272.84497681
_cell_formula_units_Z   2
loop_
 _symmetry_equiv_pos_site_id
 _symmetry_equiv_pos_as_xyz
  1  'x, y, z'
loop_
 _atom_site_type_symbol
 _atom_site_label
 _atom_site_symmetry_multiplicity
 _atom_site_fract_x
 _atom_site_fract_y
 _atom_site_fract_z
 _atom_site_occupancy
  Rb  Rb0  1  0.62939122  0.37992317  0.00000000  1
  Rb  Rb1  1  0.37631248  0.87631248  0.00000000  1
  Rb  Rb2  1  0.87992317  0.12939122  0.00000000  1
  Rb  Rb3  1  0.62007683  0.62939122  1.00000000  1
  Rb  Rb4  1  0.12368752  0.37631248  1.00000000  1
  Rb  Rb5  1  0.37060878  0.62007683  1.00000000  1
  Rb  Rb6  1  0.87631248  0.62368752  0.00000000  1
  Rb  Rb7  1  0.37992317  0.37060878  0.00000000  1
  Rb  Rb8  1  0.62368752  0.12368752  1.00000000  1
  Rb  Rb9  1  0.12007683  0.87060878  1.00000000  1
  Rb  Rb10  1  0.12939122  0.12007683  1.00000000  1
  Rb  Rb11  1  0.87060878  0.87992317  0.00000000  1
  Li  Li12  1  0.75000000  0.25000000  0.50000000  1
  Li  Li13  1  0.25000000  0.75000000  0.50000000  1
  Pr  Pr14  1  0.49305618  0.75000000  0.50000000  1
  Pr  Pr15  1  0.25000000  0.50694382  0.50000000  1
  Pr  Pr16  1  0.99305618  0.25000000  0.50000000  1
  Pr  Pr17  1  0.99751248  0.49751248  0.75251708  1
  Pr  Pr18  1  0.75000000  0.00694382  0.50000000  1
  Pr  Pr19  1  0.50694382  0.25000000  0.50000000  1
  Pr  Pr20  1  0.25500460  0.99751248  0.75251708  1
  Pr  Pr21  1  0.25000000  0.99305618  0.50000000  1
  Pr  Pr22  1  0.50000000  0.50000000  0.50000000  1
  Pr  Pr23  1  0.50248752  0.24499540  0.24748292  1
  Pr  Pr24  1  0.50000000  0.00000000  0.50000000  1
  Pr  Pr25  1  0.24499540  0.74499540  0.24748292  1
  Pr  Pr26  1  0.49751248  0.75500460  0.75251708  1
  Pr  Pr27  1  0.00694382  0.75000000  0.50000000  1
  Pr  Pr28  1  0.75000000  0.75000000  0.50000000  1
  Pr  Pr29  1  0.74499540  0.00248752  0.24748292  1
  Pr  Pr30  1  0.75000000  0.49305618  0.50000000  1
  Pr  Pr31  1  0.75500460  0.25500460  0.75251708  1
  Pr  Pr32  1  0.00248752  0.50248752  0.24748292  1
  Pr  Pr33  1  0.00000000  0.50000000  0.50000000  1
  Pr  Pr34  1  0.00000000  0.00000000  0.50000000  1
  Pr  Pr35  1  0.25000000  0.25000000  0.50000000  1
  Se  Se36  1  0.72094000  0.43612974  0.65706974  1
  Se  Se37  1  0.01032776  0.03848592  0.31997554  1
  Se  Se38  1  0.93612974  0.22094000  0.65706974  1
  Se  Se39  1  0.80964779  0.53848592  0.31997554  1
  Se  Se40  1  0.03848592  0.30964779  0.31997554  1
  Se  Se41  1  0.06387026  0.77906000  0.34293026  1
  Se  Se42  1  0.48967224  0.21851037  0.68002446  1
  Se  Se43  1  0.71851037  0.98967224  0.68002446  1
  Se  Se44  1  0.28148963  0.01032776  0.31997554  1
  Se  Se45  1  0.56387026  0.06387026  0.34293026  1
  Se  Se46  1  0.69035221  0.71851037  0.68002446  1
  Se  Se47  1  0.78148963  0.80964779  0.31997554  1
  Se  Se48  1  0.22094000  0.72094000  0.65706974  1
  Se  Se49  1  0.43612974  0.93612974  0.65706974  1
  Se  Se50  1  0.19035221  0.46151408  0.68002446  1
  Se  Se51  1  0.96151408  0.69035221  0.68002446  1
  Se  Se52  1  0.27906000  0.56387026  0.34293026  1
  Se  Se53  1  0.77906000  0.27906000  0.34293026  1
  Se  Se54  1  0.53848592  0.51032776  0.31997554  1
  Se  Se55  1  0.21851037  0.19035221  0.68002446  1
  Se  Se56  1  0.46151408  0.48967224  0.68002446  1
  Se  Se57  1  0.98967224  0.96151408  0.68002446  1
  Se  Se58  1  0.30964779  0.28148963  0.31997554  1
  Se  Se59  1  0.51032776  0.78148963  0.31997554  1
  Cl  Cl60  1  0.31008466  0.58210528  0.15024753  1
  Cl  Cl61  1  0.68450113  0.18450113  0.84722088  1
  Cl  Cl62  1  0.07716003  0.07716003  0.15432005  1
  Cl  Cl63  1  0.41789472  0.15983713  0.84975247  1
  Cl  Cl64  1  0.57716003  0.57716003  0.15432005  1
  Cl  Cl65  1  0.18991534  0.93185776  0.84975247  1
  Cl  Cl66  1  0.57584317  0.07584317  0.15168633  1
  Cl  Cl67  1  0.42283997  0.42283997  0.84567995  1
  Cl  Cl68  1  0.66271975  0.68450113  0.84722088  1
  Cl  Cl69  1  0.42415683  0.92415683  0.84831367  1
  Cl  Cl70  1  0.07584317  0.57584317  0.15168633  1
  Cl  Cl71  1  0.81008466  0.06814224  0.15024753  1
  Cl  Cl72  1  0.92283997  0.92283997  0.84567995  1
  Cl  Cl73  1  0.16271975  0.66271975  0.84722088  1
  Cl  Cl74  1  0.65983713  0.91789472  0.84975247  1
  Cl  Cl75  1  0.34016287  0.08210528  0.15024753  1
  Cl  Cl76  1  0.92415683  0.42415683  0.84831367  1
  Cl  Cl77  1  0.08210528  0.81008466  0.15024753  1
  Cl  Cl78  1  0.18450113  0.16271975  0.84722088  1
  Cl  Cl79  1  0.91789472  0.18991534  0.84975247  1
  Cl  Cl80  1  0.93185776  0.65983713  0.84975247  1
  Cl  Cl81  1  0.31549887  0.81549887  0.15277912  1
  Cl  Cl82  1  0.81549887  0.83728025  0.15277912  1
  Cl  Cl83  1  0.83728025  0.33728025  0.15277912  1
  Cl  Cl84  1  0.68991534  0.41789472  0.84975247  1
  Cl  Cl85  1  0.58210528  0.84016287  0.15024753  1
  Cl  Cl86  1  0.43185776  0.68991534  0.84975247  1
  Cl  Cl87  1  0.06814224  0.34016287  0.15024753  1
  Cl  Cl88  1  0.33728025  0.31549887  0.15277912  1
  Cl  Cl89  1  0.15983713  0.43185776  0.84975247  1
  Cl  Cl90  1  0.56814224  0.31008466  0.15024753  1
  Cl  Cl91  1  0.84016287  0.56814224  0.15024753  1
  O  O92  1  0.31851048  0.40506112  0.39517691  1
  O  O93  1  0.56405350  0.18260096  0.37038279  1
  O  O94  1  0.49011579  0.57666643  0.39517691  1
  O  O95  1  0.59493888  0.92333357  0.60482309  1
  O  O96  1  0.42850670  0.80606574  0.36474435  1
  O  O97  1  0.43594650  0.81739904  0.62961721  1
  O  O98  1  0.81739904  0.19367071  0.62961721  1
  O  O99  1  0.57463308  0.73722064  0.39833214  1
  O  O100  1  0.37405105  0.59439311  0.46844417  1
  O  O101  1  0.18260096  0.80632929  0.37038279  1
  O  O102  1  0.67630094  0.76277936  0.60166786  1
  O  O103  1  0.93623764  0.55867860  0.36474435  1
  O  O104  1  0.07463308  0.16111150  0.39833214  1
  O  O105  1  0.31221817  0.69367071  0.62961721  1
  O  O106  1  0.43623764  0.30606574  0.36474435  1
  O  O107  1  0.76277936  0.92536692  0.60166786  1
  O  O108  1  0.40506112  0.07666643  0.39517691  1
  O  O109  1  0.18148952  0.50988421  0.60482309  1
  O  O110  1  0.73722064  0.82369906  0.39833214  1
  O  O111  1  0.00988421  0.68148952  0.60482309  1
  O  O112  1  0.92333357  0.00988421  0.60482309  1
  O  O113  1  0.87405105  0.37405105  0.46844417  1
  O  O114  1  0.81851048  0.49011579  0.39517691  1
  O  O115  1  0.50988421  0.42333357  0.60482309  1
  O  O116  1  0.82369906  0.66111150  0.39833214  1
  O  O117  1  0.07149330  0.94132140  0.63525565  1
  O  O118  1  0.18778183  0.56405350  0.37038279  1
  O  O119  1  0.59439311  0.09439311  0.46844417  1
  O  O120  1  0.99011579  0.31851048  0.39517691  1
  O  O121  1  0.05867860  0.43623764  0.36474435  1
  O  O122  1  0.42333357  0.09493888  0.60482309  1
  O  O123  1  0.66111150  0.57463308  0.39833214  1
  O  O124  1  0.17630094  0.33888850  0.60166786  1
  O  O125  1  0.94132140  0.56376236  0.63525565  1
  O  O126  1  0.31739904  0.93594650  0.62961721  1
  O  O127  1  0.92536692  0.83888850  0.60166786  1
  O  O128  1  0.57149330  0.19393426  0.63525565  1
  O  O129  1  0.62594895  0.40560689  0.53155583  1
  O  O130  1  0.23722064  0.07463308  0.39833214  1
  O  O131  1  0.55867860  0.42850670  0.36474435  1
  O  O132  1  0.44132140  0.57149330  0.63525565  1
  O  O133  1  0.68260096  0.06405350  0.37038279  1
  O  O134  1  0.12594895  0.62594895  0.53155583  1
  O  O135  1  0.90506112  0.81851048  0.39517691  1
  O  O136  1  0.06376236  0.44132140  0.63525565  1
  O  O137  1  0.30632929  0.68260096  0.37038279  1
  O  O138  1  0.07666643  0.99011579  0.39517691  1
  O  O139  1  0.19393426  0.06376236  0.63525565  1
  O  O140  1  0.56376236  0.69393426  0.63525565  1
  O  O141  1  0.09439311  0.87405105  0.46844417  1
  O  O142  1  0.09493888  0.18148952  0.60482309  1
  O  O143  1  0.93594650  0.31221817  0.62961721  1
  O  O144  1  0.80632929  0.18778183  0.37038279  1
  O  O145  1  0.42536692  0.26277936  0.60166786  1
  O  O146  1  0.32369906  0.23722064  0.39833214  1
  O  O147  1  0.16111150  0.32369906  0.39833214  1
  O  O148  1  0.83888850  0.67630094  0.60166786  1
  O  O149  1  0.68778183  0.30632929  0.37038279  1
  O  O150  1  0.69367071  0.31739904  0.62961721  1
  O  O151  1  0.19367071  0.81221817  0.62961721  1
  O  O152  1  0.30606574  0.92850670  0.36474435  1
  O  O153  1  0.06405350  0.68778183  0.37038279  1
  O  O154  1  0.90560689  0.12594895  0.53155583  1
  O  O155  1  0.40560689  0.90560689  0.53155583  1
  O  O156  1  0.80606574  0.93623764  0.36474435  1
  O  O157  1  0.92850670  0.05867860  0.36474435  1
  O  O158  1  0.26277936  0.17630094  0.60166786  1
  O  O159  1  0.57666643  0.90506112  0.39517691  1
  O  O160  1  0.81221817  0.43594650  0.62961721  1
  O  O161  1  0.69393426  0.07149330  0.63525565  1
  O  O162  1  0.33888850  0.42536692  0.60166786  1
  O  O163  1  0.68148952  0.59493888  0.60482309  1
