# generated using pymatgen
data_Al(WF5)3
_symmetry_space_group_name_H-M   'P 1'
_cell_length_a   10.17806473
_cell_length_b   6.15238305
_cell_length_c   10.04022153
_cell_angle_alpha   90.00000000
_cell_angle_beta   90.00000000
_cell_angle_gamma   104.14057308
_symmetry_Int_Tables_number   1
_chemical_formula_structural   Al(WF5)3
_chemical_formula_sum   'Al2 W6 F30'
_cell_volume   609.66173122
_cell_formula_units_Z   2
loop_
 _symmetry_equiv_pos_site_id
 _symmetry_equiv_pos_as_xyz
  1  'x, y, z'
loop_
 _atom_site_type_symbol
 _atom_site_label
 _atom_site_symmetry_multiplicity
 _atom_site_fract_x
 _atom_site_fract_y
 _atom_site_fract_z
 _atom_site_occupancy
  Al  Al0  1  0.90127100  0.45568077  0.25000000  1
  Al  Al1  1  0.43206200  0.54431923  0.75000000  1
  W  W2  1  0.16666700  -0.00000000  0.50000000  1
  W  W3  1  0.50013666  0.98035951  0.45507503  1
  W  W4  1  0.83319634  0.01964049  0.54492497  1
  W  W5  1  0.16666700  -0.00000000  -0.00000000  1
  W  W6  1  0.50013666  0.98035951  0.04492497  1
  W  W7  1  0.83319634  0.01964049  0.95507503  1
  F  F8  1  0.06365993  0.59865608  0.25000000  1
  F  F9  1  0.49285135  0.90015039  0.25000000  1
  F  F10  1  0.78238980  0.59542785  0.25000000  1
  F  F11  1  0.26967307  0.40134392  0.75000000  1
  F  F12  1  0.55094420  0.40457215  0.75000000  1
  F  F13  1  0.84048165  0.09984961  0.75000000  1
  F  F14  1  0.03943457  0.15638276  0.60231893  1
  F  F15  1  0.36632322  0.10236627  0.57731072  1
  F  F16  1  0.64866138  0.10712760  0.59510107  1
  F  F17  1  0.29389943  0.84361724  0.39768107  1
  F  F18  1  0.68467162  0.89287240  0.40489893  1
  F  F19  1  0.96700978  0.89763373  0.42268828  1
  F  F20  1  0.11597327  0.73779636  0.88750716  1
  F  F21  1  0.45534947  0.71632958  0.89490521  1
  F  F22  1  0.77700810  0.71987292  0.88443921  1
  F  F23  1  0.21736073  0.26220364  0.11249284  1
  F  F24  1  0.55632490  0.28012708  0.11556079  1
  F  F25  1  0.87798353  0.28367042  0.10509479  1
  F  F26  1  0.21736073  0.26220364  0.38750716  1
  F  F27  1  0.55632490  0.28012708  0.38443921  1
  F  F28  1  0.87798353  0.28367042  0.39490521  1
  F  F29  1  0.11597327  0.73779636  0.61249284  1
  F  F30  1  0.45534947  0.71632958  0.60509479  1
  F  F31  1  0.77700810  0.71987292  0.61556079  1
  F  F32  1  0.03943457  0.15638276  0.89768107  1
  F  F33  1  0.36632322  0.10236627  0.92268928  1
  F  F34  1  0.64866138  0.10712760  0.90489893  1
  F  F35  1  0.29389943  0.84361724  0.10231893  1
  F  F36  1  0.68467162  0.89287240  0.09510107  1
  F  F37  1  0.96700978  0.89763373  0.07731072  1
