# generated using pymatgen
data_TaTlO3
_symmetry_space_group_name_H-M   'P 1'
_cell_length_a   7.60943377
_cell_length_b   7.60943390
_cell_length_c   15.16900121
_cell_angle_alpha   60.10220653
_cell_angle_beta   60.10220594
_cell_angle_gamma   60.10841336
_symmetry_Int_Tables_number   1
_chemical_formula_structural   TaTlO3
_chemical_formula_sum   'Ta8 Tl8 O24'
_cell_volume   622.54613187
_cell_formula_units_Z   8
loop_
 _symmetry_equiv_pos_site_id
 _symmetry_equiv_pos_as_xyz
  1  'x, y, z'
loop_
 _atom_site_type_symbol
 _atom_site_label
 _atom_site_symmetry_multiplicity
 _atom_site_fract_x
 _atom_site_fract_y
 _atom_site_fract_z
 _atom_site_occupancy
  Ta  Ta0  1  0.00000000  0.00000000  0.00000000  1
  Ta  Ta1  1  0.50000000  0.00000000  0.00000000  1
  Ta  Ta2  1  0.50000000  0.00000000  0.50000000  1
  Ta  Ta3  1  0.00000000  0.50000000  0.00000000  1
  Ta  Ta4  1  0.99870535  0.00129465  0.25000000  1
  Ta  Ta5  1  0.00000000  0.00000000  0.50000000  1
  Ta  Ta6  1  0.00129465  0.99870535  0.75000000  1
  Ta  Ta7  1  0.00000000  0.50000000  0.50000000  1
  Tl  Tl8  1  0.07491128  0.47056592  0.23877874  1
  Tl  Tl9  1  0.50000000  0.50000000  0.00000000  1
  Tl  Tl10  1  0.50578705  0.49421295  0.25000000  1
  Tl  Tl11  1  0.47056592  0.07491128  0.73877874  1
  Tl  Tl12  1  0.50000000  0.50000000  0.50000000  1
  Tl  Tl13  1  0.52943408  0.92508872  0.26122126  1
  Tl  Tl14  1  0.49421295  0.50578705  0.75000000  1
  Tl  Tl15  1  0.92508872  0.52943408  0.76122126  1
  O  O16  1  0.06306050  0.05875696  0.34454334  1
  O  O17  1  0.05821062  0.69147975  0.02952691  1
  O  O18  1  0.68871045  0.05976665  0.03180388  1
  O  O19  1  0.05846985  0.69200466  0.34545884  1
  O  O20  1  0.30998514  0.30941604  0.47014405  1
  O  O21  1  0.05875696  0.06306050  0.84454334  1
  O  O22  1  0.05976665  0.68871045  0.53180388  1
  O  O23  1  0.30799534  0.94153015  0.15454116  1
  O  O24  1  0.68827266  0.05955322  0.34417967  1
  O  O25  1  0.69058396  0.69001486  0.02985595  1
  O  O26  1  0.69147975  0.05821062  0.52952691  1
  O  O27  1  0.94044678  0.31172734  0.15582033  1
  O  O28  1  0.30852025  0.94178938  0.47047309  1
  O  O29  1  0.05955322  0.68827266  0.84417967  1
  O  O30  1  0.30941604  0.30998514  0.97014405  1
  O  O31  1  0.31172734  0.94044678  0.65582033  1
  O  O32  1  0.69200466  0.05846985  0.84545884  1
  O  O33  1  0.94023335  0.31128955  0.46819612  1
  O  O34  1  0.69001486  0.69058396  0.52985595  1
  O  O35  1  0.94124304  0.93693950  0.15545666  1
  O  O36  1  0.94153015  0.30799534  0.65454116  1
  O  O37  1  0.31128955  0.94023335  0.96819612  1
  O  O38  1  0.94178938  0.30852025  0.97047309  1
  O  O39  1  0.93693950  0.94124304  0.65545666  1
