# generated using pymatgen
data_SrMo(PO4)2
_symmetry_space_group_name_H-M   'P 1'
_cell_length_a   5.72047447
_cell_length_b   7.13519806
_cell_length_c   9.33753905
_cell_angle_alpha   111.17624166
_cell_angle_beta   100.85610210
_cell_angle_gamma   98.01423576
_symmetry_Int_Tables_number   1
_chemical_formula_structural   SrMo(PO4)2
_chemical_formula_sum   'Sr2 Mo2 P4 O16'
_cell_volume   339.95760479
_cell_formula_units_Z   2
loop_
 _symmetry_equiv_pos_site_id
 _symmetry_equiv_pos_as_xyz
  1  'x, y, z'
loop_
 _atom_site_type_symbol
 _atom_site_label
 _atom_site_symmetry_multiplicity
 _atom_site_fract_x
 _atom_site_fract_y
 _atom_site_fract_z
 _atom_site_occupancy
  Sr  Sr0  1  0.24395834  0.75889021  0.02584962  1
  Sr  Sr1  1  0.75604166  0.24110979  0.97415038  1
  Mo  Mo2  1  0.66367152  0.84362456  0.56272558  1
  Mo  Mo3  1  0.33632848  0.15637544  0.43727442  1
  P  P4  1  0.39203234  0.44028846  0.23014626  1
  P  P5  1  0.60796766  0.55971154  0.76985374  1
  P  P6  1  0.84548304  0.03353109  0.30232934  1
  P  P7  1  0.15451696  0.96646891  0.69767066  1
  O  O8  1  0.83012617  0.55742679  0.88760503  1
  O  O9  1  0.62673114  0.47575072  0.18309970  1
  O  O10  1  0.64547135  0.77377595  0.74866291  1
  O  O11  1  0.95183804  0.09942282  0.70596742  1
  O  O12  1  0.37326886  0.52424928  0.81690030  1
  O  O13  1  0.99242589  0.75240007  0.57398818  1
  O  O14  1  0.00757411  0.24759993  0.42601182  1
  O  O15  1  0.28129432  0.98748408  0.86189160  1
  O  O16  1  0.35452865  0.22622405  0.25133709  1
  O  O17  1  0.71870568  0.01251592  0.13810840  1
  O  O18  1  0.16987383  0.44257321  0.11239497  1
  O  O19  1  0.40742209  0.61046088  0.40014744  1
  O  O20  1  0.59257791  0.38953912  0.59985256  1
  O  O21  1  0.63953989  0.97062463  0.38256093  1
  O  O22  1  0.04816196  0.90057718  0.29403258  1
  O  O23  1  0.36046011  0.02937637  0.61743907  1
