# generated using pymatgen
data_BaBi2(MoO4)4
_symmetry_space_group_name_H-M   'P 1'
_cell_length_a   5.39901206
_cell_length_b   7.06314905
_cell_length_c   19.69881881
_cell_angle_alpha   89.46087215
_cell_angle_beta   88.58927183
_cell_angle_gamma   67.53023685
_symmetry_Int_Tables_number   1
_chemical_formula_structural   BaBi2(MoO4)4
_chemical_formula_sum   'Ba2 Bi4 Mo8 O32'
_cell_volume   693.95515702
_cell_formula_units_Z   2
loop_
 _symmetry_equiv_pos_site_id
 _symmetry_equiv_pos_as_xyz
  1  'x, y, z'
loop_
 _atom_site_type_symbol
 _atom_site_label
 _atom_site_symmetry_multiplicity
 _atom_site_fract_x
 _atom_site_fract_y
 _atom_site_fract_z
 _atom_site_occupancy
  Ba  Ba0  1  0.97004679  0.05990641  0.75000000  1
  Ba  Ba1  1  0.02995321  0.94009359  0.25000000  1
  Bi  Bi2  1  0.85277676  0.29887704  0.53768406  1
  Bi  Bi3  1  0.15165379  0.70112296  0.03768406  1
  Bi  Bi4  1  0.84834621  0.29887704  0.96231594  1
  Bi  Bi5  1  0.14722324  0.70112296  0.46231594  1
  Mo  Mo6  1  0.54029483  0.88233430  0.59209409  1
  Mo  Mo7  1  0.25636604  0.47819347  0.84839603  1
  Mo  Mo8  1  0.42262913  0.11766570  0.09209409  1
  Mo  Mo9  1  0.26544049  0.47819347  0.65160397  1
  Mo  Mo10  1  0.57737087  0.88233430  0.90790591  1
  Mo  Mo11  1  0.45970517  0.11766570  0.40790591  1
  Mo  Mo12  1  0.73455951  0.52180653  0.34839603  1
  Mo  Mo13  1  0.74363396  0.52180653  0.15160397  1
  O  O14  1  0.38316233  0.70268694  0.36239901  1
  O  O15  1  0.61683767  0.29731306  0.63760099  1
  O  O16  1  0.51617963  0.38579800  0.78730053  1
  O  O17  1  0.29603721  0.91623020  0.10695333  1
  O  O18  1  0.72161088  0.03077278  0.03604778  1
  O  O19  1  0.59127229  0.49214692  0.06999484  1
  O  O20  1  0.40872771  0.50785308  0.93000516  1
  O  O21  1  0.24761634  0.03077278  0.46395222  1
  O  O22  1  0.90197763  0.61420200  0.28730053  1
  O  O23  1  0.30006612  0.16487562  0.33026069  1
  O  O24  1  0.69993388  0.83512438  0.66973931  1
  O  O25  1  0.73865440  0.28332026  0.32210853  1
  O  O26  1  0.75238366  0.96922722  0.53604778  1
  O  O27  1  0.21226742  0.08376980  0.60695333  1
  O  O28  1  0.27838912  0.96922722  0.96395222  1
  O  O29  1  0.08341921  0.50785308  0.56999484  1
  O  O30  1  0.17387771  0.34588833  0.04917975  1
  O  O31  1  0.09802237  0.38579800  0.71269947  1
  O  O32  1  0.48382037  0.61420200  0.21269947  1
  O  O33  1  0.53505826  0.16487562  0.16973931  1
  O  O34  1  0.97802534  0.28332026  0.17789147  1
  O  O35  1  0.78773258  0.91623020  0.39304667  1
  O  O36  1  0.91658079  0.49214692  0.43000516  1
  O  O37  1  0.08584926  0.29731306  0.86239901  1
  O  O38  1  0.26134560  0.71667974  0.67789147  1
  O  O39  1  0.51976604  0.65411167  0.54917975  1
  O  O40  1  0.48023396  0.34588833  0.45082025  1
  O  O41  1  0.70396279  0.08376980  0.89304667  1
  O  O42  1  0.46494174  0.83512438  0.83026069  1
  O  O43  1  0.82612229  0.65411167  0.95082025  1
  O  O44  1  0.91415074  0.70268694  0.13760099  1
  O  O45  1  0.02197466  0.71667974  0.82210853  1
