# generated using pymatgen
data_In2Bi4Pb4S13
_symmetry_space_group_name_H-M   'P 1'
_cell_length_a   4.04223495
_cell_length_b   21.79531905
_cell_length_c   27.05732160
_cell_angle_alpha   90.00000000
_cell_angle_beta   90.00000000
_cell_angle_gamma   90.00000000
_symmetry_Int_Tables_number   1
_chemical_formula_structural   In2Bi4Pb4S13
_chemical_formula_sum   'In8 Bi16 Pb16 S52'
_cell_volume   2383.79874724
_cell_formula_units_Z   4
loop_
 _symmetry_equiv_pos_site_id
 _symmetry_equiv_pos_as_xyz
  1  'x, y, z'
loop_
 _atom_site_type_symbol
 _atom_site_label
 _atom_site_symmetry_multiplicity
 _atom_site_fract_x
 _atom_site_fract_y
 _atom_site_fract_z
 _atom_site_occupancy
  In  In0  1  0.00000000  0.22525449  0.16259846  1
  In  In1  1  0.00000000  0.72525449  0.33740154  1
  In  In2  1  0.00000000  0.77474551  0.83740154  1
  In  In3  1  0.00000000  0.00000000  0.00000000  1
  In  In4  1  0.00000000  0.50000000  0.50000000  1
  In  In5  1  0.00000000  0.50000000  0.00000000  1
  In  In6  1  0.00000000  0.00000000  0.50000000  1
  In  In7  1  0.00000000  0.27474551  0.66259846  1
  Bi  Bi8  1  0.50000000  0.88321687  0.41518516  1
  Bi  Bi9  1  0.50000000  0.84576778  0.97539491  1
  Bi  Bi10  1  0.00000000  0.35894377  0.39084993  1
  Bi  Bi11  1  0.50000000  0.11678313  0.58481484  1
  Bi  Bi12  1  0.50000000  0.34576778  0.52460509  1
  Bi  Bi13  1  0.50000000  0.61678313  0.91518516  1
  Bi  Bi14  1  0.50000000  0.38321687  0.08481484  1
  Bi  Bi15  1  0.00000000  0.47692433  0.84438485  1
  Bi  Bi16  1  0.50000000  0.65423222  0.47539491  1
  Bi  Bi17  1  0.00000000  0.52307567  0.15561515  1
  Bi  Bi18  1  0.50000000  0.15423222  0.02460509  1
  Bi  Bi19  1  0.00000000  0.14105623  0.89084993  1
  Bi  Bi20  1  0.00000000  0.02307567  0.34438485  1
  Bi  Bi21  1  0.00000000  0.97692433  0.65561515  1
  Bi  Bi22  1  0.00000000  0.85894377  0.10915007  1
  Bi  Bi23  1  0.00000000  0.64105623  0.60915007  1
  Pb  Pb24  1  0.50000000  0.53624183  0.34011629  1
  Pb  Pb25  1  0.50000000  0.03624183  0.15988371  1
  Pb  Pb26  1  0.50000000  0.46375817  0.65988371  1
  Pb  Pb27  1  0.50000000  0.96375817  0.84011629  1
  Pb  Pb28  1  0.50000000  0.82722864  0.72148539  1
  Pb  Pb29  1  0.50000000  0.31604306  0.93102182  1
  Pb  Pb30  1  0.50000000  0.87478928  0.24958349  1
  Pb  Pb31  1  0.50000000  0.18395694  0.43102182  1
  Pb  Pb32  1  0.50000000  0.62521072  0.74958349  1
  Pb  Pb33  1  0.50000000  0.32722864  0.77851461  1
  Pb  Pb34  1  0.50000000  0.68395694  0.06897818  1
  Pb  Pb35  1  0.50000000  0.37478928  0.25041651  1
  Pb  Pb36  1  0.50000000  0.81604306  0.56897818  1
  Pb  Pb37  1  0.50000000  0.67277136  0.22148539  1
  Pb  Pb38  1  0.50000000  0.17277136  0.27851461  1
  Pb  Pb39  1  0.50000000  0.12521072  0.75041651  1
  S  S40  1  0.50000000  0.06357736  0.95299043  1
  S  S41  1  0.50000000  0.56357736  0.54700957  1
  S  S42  1  0.00000000  0.08042283  0.06972429  1
  S  S43  1  0.00000000  0.58042283  0.43027571  1
  S  S44  1  0.00000000  0.06050064  0.81326094  1
  S  S45  1  0.50000000  0.47380337  0.77878629  1
  S  S46  1  0.00000000  0.43949936  0.31326094  1
  S  S47  1  0.00000000  0.87935417  0.79905710  1
  S  S48  1  0.50000000  0.97380337  0.72121371  1
  S  S49  1  0.00000000  0.89293315  0.34370368  1
  S  S50  1  0.00000000  0.77749351  0.02371020  1
  S  S51  1  0.50000000  0.20749337  0.85273301  1
  S  S52  1  0.50000000  0.75498553  0.89190878  1
  S  S53  1  0.50000000  0.52619663  0.22121371  1
  S  S54  1  0.00000000  0.12064583  0.20094290  1
  S  S55  1  0.00000000  0.61665780  0.99136578  1
  S  S56  1  0.00000000  0.88334220  0.49136578  1
  S  S57  1  0.00000000  0.11665780  0.50863422  1
  S  S58  1  0.00000000  0.85032534  0.64095127  1
  S  S59  1  0.00000000  0.27749351  0.47628980  1
  S  S60  1  0.00000000  0.72686003  0.75440380  1
  S  S61  1  0.50000000  0.93642264  0.04700957  1
  S  S62  1  0.00000000  0.22250649  0.97628980  1
  S  S63  1  0.50000000  0.49293984  0.93030288  1
  S  S64  1  0.00000000  0.60706685  0.84370368  1
  S  S65  1  0.00000000  0.56050064  0.68673906  1
  S  S66  1  0.50000000  0.00706016  0.43030288  1
  S  S67  1  0.00000000  0.62064583  0.29905710  1
  S  S68  1  0.00000000  0.39293315  0.15629632  1
  S  S69  1  0.00000000  0.93949936  0.18673906  1
  S  S70  1  0.00000000  0.27313997  0.24559620  1
  S  S71  1  0.00000000  0.72250649  0.52371020  1
  S  S72  1  0.00000000  0.22686003  0.74559620  1
  S  S73  1  0.50000000  0.25498553  0.60809122  1
  S  S74  1  0.00000000  0.10706685  0.65629632  1
  S  S75  1  0.50000000  0.50706016  0.06969712  1
  S  S76  1  0.00000000  0.91957717  0.93027571  1
  S  S77  1  0.50000000  0.74501447  0.39190878  1
  S  S78  1  0.50000000  0.79250663  0.14726699  1
  S  S79  1  0.50000000  0.24501447  0.10809122  1
  S  S80  1  0.50000000  0.70749337  0.64726699  1
  S  S81  1  0.50000000  0.99293984  0.56969712  1
  S  S82  1  0.50000000  0.43642264  0.45299043  1
  S  S83  1  0.00000000  0.64967466  0.14095127  1
  S  S84  1  0.00000000  0.37935417  0.70094290  1
  S  S85  1  0.00000000  0.38334220  0.00863422  1
  S  S86  1  0.00000000  0.14967466  0.35904873  1
  S  S87  1  0.00000000  0.41957717  0.56972429  1
  S  S88  1  0.50000000  0.02619663  0.27878629  1
  S  S89  1  0.00000000  0.77313997  0.25440380  1
  S  S90  1  0.00000000  0.35032534  0.85904873  1
  S  S91  1  0.50000000  0.29250663  0.35273301  1
