# generated using pymatgen
data_Re6Te7Se8
_symmetry_space_group_name_H-M   'P 1'
_cell_length_a   12.90630059
_cell_length_b   12.85929966
_cell_length_c   14.38382333
_cell_angle_alpha   90.00000000
_cell_angle_beta   90.00000000
_cell_angle_gamma   90.00000000
_symmetry_Int_Tables_number   1
_chemical_formula_structural   Re6Te7Se8
_chemical_formula_sum   'Re24 Te28 Se32'
_cell_volume   2387.22543276
_cell_formula_units_Z   4
loop_
 _symmetry_equiv_pos_site_id
 _symmetry_equiv_pos_as_xyz
  1  'x, y, z'
loop_
 _atom_site_type_symbol
 _atom_site_label
 _atom_site_symmetry_multiplicity
 _atom_site_fract_x
 _atom_site_fract_y
 _atom_site_fract_z
 _atom_site_occupancy
  Re  Re0  1  0.63431994  0.49208723  0.44955856  1
  Re  Re1  1  0.63431994  0.00791277  0.94955856  1
  Re  Re2  1  0.45217114  0.55991755  0.38906495  1
  Re  Re3  1  0.02974865  0.86729276  0.45220013  1
  Re  Re4  1  0.13431994  0.00791277  0.55044144  1
  Re  Re5  1  0.36568006  0.50791277  0.55044144  1
  Re  Re6  1  0.13431994  0.49208723  0.05044144  1
  Re  Re7  1  0.97025135  0.13270724  0.54779987  1
  Re  Re8  1  0.86568006  0.50791277  0.94955856  1
  Re  Re9  1  0.52974865  0.63270724  0.54779987  1
  Re  Re10  1  0.86568006  0.99208723  0.44955856  1
  Re  Re11  1  0.95217114  0.94008245  0.61093505  1
  Re  Re12  1  0.52974865  0.86729276  0.04779987  1
  Re  Re13  1  0.54782886  0.05991755  0.11093505  1
  Re  Re14  1  0.04782886  0.44008245  0.88906495  1
  Re  Re15  1  0.04782886  0.05991755  0.38906495  1
  Re  Re16  1  0.45217114  0.94008245  0.88906495  1
  Re  Re17  1  0.36568006  0.99208723  0.05044144  1
  Re  Re18  1  0.02974865  0.63270724  0.95220013  1
  Re  Re19  1  0.47025135  0.36729276  0.45220013  1
  Re  Re20  1  0.54782886  0.44008245  0.61093505  1
  Re  Re21  1  0.97025135  0.36729276  0.04779987  1
  Re  Re22  1  0.95217114  0.55991755  0.11093505  1
  Re  Re23  1  0.47025135  0.13270724  0.95220013  1
  Te  Te24  1  0.92281483  0.32445192  0.62496397  1
  Te  Te25  1  0.07718517  0.82445192  0.87503603  1
  Te  Te26  1  0.82425813  0.45559607  0.36722672  1
  Te  Te27  1  0.82425813  0.04440393  0.86722672  1
  Te  Te28  1  0.50000000  0.00000000  0.50000000  1
  Te  Te29  1  0.00000000  0.50000000  0.50000000  1
  Te  Te30  1  0.61472728  0.35588226  0.77727419  1
  Te  Te31  1  0.42281483  0.32445192  0.87503603  1
  Te  Te32  1  0.88527272  0.64411774  0.27727419  1
  Te  Te33  1  0.11472728  0.35588226  0.72272581  1
  Te  Te34  1  0.67574187  0.54440393  0.86722672  1
  Te  Te35  1  0.42281483  0.17554808  0.37503603  1
  Te  Te36  1  0.92281483  0.17554808  0.12496397  1
  Te  Te37  1  0.17574187  0.54440393  0.63277328  1
  Te  Te38  1  0.11472728  0.14411774  0.22272581  1
  Te  Te39  1  0.67574187  0.95559607  0.36722672  1
  Te  Te40  1  0.00000000  0.00000000  0.00000000  1
  Te  Te41  1  0.38527272  0.85588226  0.72272581  1
  Te  Te42  1  0.07718517  0.67554808  0.37503603  1
  Te  Te43  1  0.57718517  0.67554808  0.12496397  1
  Te  Te44  1  0.17574187  0.95559607  0.13277328  1
  Te  Te45  1  0.32425813  0.04440393  0.63277328  1
  Te  Te46  1  0.88527272  0.85588226  0.77727419  1
  Te  Te47  1  0.61472728  0.14411774  0.27727419  1
  Te  Te48  1  0.57718517  0.82445192  0.62496397  1
  Te  Te49  1  0.50000000  0.50000000  0.00000000  1
  Te  Te50  1  0.38527272  0.64411774  0.22272581  1
  Te  Te51  1  0.32425813  0.45559607  0.13277328  1
  Se  Se52  1  0.11120449  0.67760023  0.10796033  1
  Se  Se53  1  0.44655896  0.57672288  0.70010317  1
  Se  Se54  1  0.61120449  0.82239977  0.89203967  1
  Se  Se55  1  0.55344104  0.42327712  0.29989683  1
  Se  Se56  1  0.38879551  0.17760023  0.10796033  1
  Se  Se57  1  0.70423267  0.56080461  0.60198930  1
  Se  Se58  1  0.61120449  0.67760023  0.39203967  1
  Se  Se59  1  0.64582828  0.30663223  0.51317293  1
  Se  Se60  1  0.35417172  0.69336777  0.48682707  1
  Se  Se61  1  0.35417172  0.80663223  0.98682707  1
  Se  Se62  1  0.20423267  0.93919539  0.39801070  1
  Se  Se63  1  0.44655896  0.92327712  0.20010317  1
  Se  Se64  1  0.88879551  0.32239977  0.89203967  1
  Se  Se65  1  0.79576733  0.06080461  0.60198930  1
  Se  Se66  1  0.70423267  0.93919539  0.10198930  1
  Se  Se67  1  0.55344104  0.07672288  0.79989683  1
  Se  Se68  1  0.29576733  0.43919539  0.39801070  1
  Se  Se69  1  0.38879551  0.32239977  0.60796033  1
  Se  Se70  1  0.29576733  0.06080461  0.89801070  1
  Se  Se71  1  0.14582828  0.30663223  0.98682707  1
  Se  Se72  1  0.64582828  0.19336777  0.01317293  1
  Se  Se73  1  0.14582828  0.19336777  0.48682707  1
  Se  Se74  1  0.05344104  0.07672288  0.70010317  1
  Se  Se75  1  0.85417172  0.69336777  0.01317293  1
  Se  Se76  1  0.88879551  0.17760023  0.39203967  1
  Se  Se77  1  0.94655896  0.92327712  0.29989683  1
  Se  Se78  1  0.20423267  0.56080461  0.89801070  1
  Se  Se79  1  0.85417172  0.80663223  0.51317293  1
  Se  Se80  1  0.79576733  0.43919539  0.10198930  1
  Se  Se81  1  0.94655896  0.57672288  0.79989683  1
  Se  Se82  1  0.11120449  0.82239977  0.60796033  1
  Se  Se83  1  0.05344104  0.42327712  0.20010317  1
