# generated using pymatgen
data_Ca3(InAs2)2
_symmetry_space_group_name_H-M   'P 1'
_cell_length_a   4.46104598
_cell_length_b   6.87577369
_cell_length_c   16.77995727
_cell_angle_alpha   90.00000000
_cell_angle_beta   90.00000000
_cell_angle_gamma   90.00000000
_symmetry_Int_Tables_number   1
_chemical_formula_structural   Ca3(InAs2)2
_chemical_formula_sum   'Ca6 In4 As8'
_cell_volume   514.69402181
_cell_formula_units_Z   2
loop_
 _symmetry_equiv_pos_site_id
 _symmetry_equiv_pos_as_xyz
  1  'x, y, z'
loop_
 _atom_site_type_symbol
 _atom_site_label
 _atom_site_symmetry_multiplicity
 _atom_site_fract_x
 _atom_site_fract_y
 _atom_site_fract_z
 _atom_site_occupancy
  Ca  Ca0  1  0.00000000  0.27567439  0.80362993  1
  Ca  Ca1  1  0.50000000  0.77567439  0.69637007  1
  Ca  Ca2  1  0.00000000  0.72432561  0.19637007  1
  Ca  Ca3  1  0.50000000  0.22432561  0.30362993  1
  Ca  Ca4  1  0.00000000  0.00000000  0.00000000  1
  Ca  Ca5  1  0.50000000  0.50000000  0.50000000  1
  In  In6  1  0.00000000  0.85993505  0.41170815  1
  In  In7  1  0.50000000  0.35993505  0.08829185  1
  In  In8  1  0.00000000  0.14006495  0.58829185  1
  In  In9  1  0.50000000  0.64006495  0.91170815  1
  As  As10  1  0.50000000  0.24022086  0.92890609  1
  As  As11  1  0.50000000  0.75977914  0.07109391  1
  As  As12  1  0.00000000  0.22849122  0.17265786  1
  As  As13  1  0.00000000  0.25977914  0.42890609  1
  As  As14  1  0.50000000  0.72849122  0.32734214  1
  As  As15  1  0.00000000  0.77150878  0.82734214  1
  As  As16  1  0.00000000  0.74022086  0.57109391  1
  As  As17  1  0.50000000  0.27150878  0.67265786  1
