# generated using pymatgen
data_Y6AgTe2
_symmetry_space_group_name_H-M   'P 1'
_cell_length_a   4.09123421
_cell_length_b   11.62155051
_cell_length_c   22.14953164
_cell_angle_alpha   90.00000000
_cell_angle_beta   90.00000000
_cell_angle_gamma   90.00000000
_symmetry_Int_Tables_number   1
_chemical_formula_structural   Y6AgTe2
_chemical_formula_sum   'Y24 Ag4 Te8'
_cell_volume   1053.13237432
_cell_formula_units_Z   4
loop_
 _symmetry_equiv_pos_site_id
 _symmetry_equiv_pos_as_xyz
  1  'x, y, z'
loop_
 _atom_site_type_symbol
 _atom_site_label
 _atom_site_symmetry_multiplicity
 _atom_site_fract_x
 _atom_site_fract_y
 _atom_site_fract_z
 _atom_site_occupancy
  Y  Y0  1  0.75000000  0.66443118  0.89109070  1
  Y  Y1  1  0.25000000  0.11932525  0.96941265  1
  Y  Y2  1  0.75000000  0.83556882  0.39109070  1
  Y  Y3  1  0.75000000  0.38773391  0.98518983  1
  Y  Y4  1  0.25000000  0.46010760  0.65780117  1
  Y  Y5  1  0.75000000  0.11226609  0.48518983  1
  Y  Y6  1  0.25000000  0.75741615  0.26681317  1
  Y  Y7  1  0.25000000  0.33556882  0.10890930  1
  Y  Y8  1  0.75000000  0.88067475  0.03058735  1
  Y  Y9  1  0.75000000  0.53989240  0.34219883  1
  Y  Y10  1  0.25000000  0.07835168  0.35242333  1
  Y  Y11  1  0.75000000  0.61932525  0.53058735  1
  Y  Y12  1  0.25000000  0.16443118  0.60890930  1
  Y  Y13  1  0.25000000  0.03989240  0.15780117  1
  Y  Y14  1  0.75000000  0.57835168  0.14757667  1
  Y  Y15  1  0.25000000  0.42164832  0.85242333  1
  Y  Y16  1  0.25000000  0.38067475  0.46941265  1
  Y  Y17  1  0.25000000  0.74258385  0.76681317  1
  Y  Y18  1  0.75000000  0.25741615  0.23318683  1
  Y  Y19  1  0.75000000  0.24258385  0.73318683  1
  Y  Y20  1  0.25000000  0.61226609  0.01481017  1
  Y  Y21  1  0.75000000  0.92164832  0.64757667  1
  Y  Y22  1  0.75000000  0.96010760  0.84219883  1
  Y  Y23  1  0.25000000  0.88773391  0.51481017  1
  Ag  Ag24  1  0.75000000  0.14699749  0.07364160  1
  Ag  Ag25  1  0.25000000  0.85300251  0.92635840  1
  Ag  Ag26  1  0.25000000  0.64699749  0.42635840  1
  Ag  Ag27  1  0.75000000  0.35300251  0.57364160  1
  Te  Te28  1  0.25000000  0.02876413  0.73923146  1
  Te  Te29  1  0.25000000  0.77933228  0.12712143  1
  Te  Te30  1  0.25000000  0.47123587  0.23923146  1
  Te  Te31  1  0.75000000  0.97123587  0.26076854  1
  Te  Te32  1  0.75000000  0.52876413  0.76076854  1
  Te  Te33  1  0.75000000  0.27933228  0.37287857  1
  Te  Te34  1  0.25000000  0.72066772  0.62712143  1
  Te  Te35  1  0.75000000  0.22066772  0.87287857  1
