# generated using pymatgen
data_Er(BO2)3
_symmetry_space_group_name_H-M   'P 1'
_cell_length_a   7.41579507
_cell_length_b   12.26217046
_cell_length_c   15.96397277
_cell_angle_alpha   90.00000000
_cell_angle_beta   90.00000000
_cell_angle_gamma   90.00000000
_symmetry_Int_Tables_number   1
_chemical_formula_structural   Er(BO2)3
_chemical_formula_sum   'Er16 B48 O96'
_cell_volume   1451.66380103
_cell_formula_units_Z   16
loop_
 _symmetry_equiv_pos_site_id
 _symmetry_equiv_pos_as_xyz
  1  'x, y, z'
loop_
 _atom_site_type_symbol
 _atom_site_label
 _atom_site_symmetry_multiplicity
 _atom_site_fract_x
 _atom_site_fract_y
 _atom_site_fract_z
 _atom_site_occupancy
  Er  Er0  1  0.75000000  0.00952988  0.12116543  1
  Er  Er1  1  0.75000000  0.43533043  0.32733244  1
  Er  Er2  1  0.25000000  0.50952988  0.37883457  1
  Er  Er3  1  0.75000000  0.76549718  0.62784948  1
  Er  Er4  1  0.25000000  0.26549718  0.87215052  1
  Er  Er5  1  0.75000000  0.49047012  0.62116543  1
  Er  Er6  1  0.25000000  0.91141358  0.54819312  1
  Er  Er7  1  0.75000000  0.41141358  0.95180688  1
  Er  Er8  1  0.25000000  0.99047012  0.87883457  1
  Er  Er9  1  0.75000000  0.73450282  0.12784948  1
  Er  Er10  1  0.75000000  0.06466957  0.82733244  1
  Er  Er11  1  0.75000000  0.08858642  0.45180688  1
  Er  Er12  1  0.25000000  0.23450282  0.37215052  1
  Er  Er13  1  0.25000000  0.58858642  0.04819312  1
  Er  Er14  1  0.25000000  0.56466957  0.67266756  1
  Er  Er15  1  0.25000000  0.93533043  0.17266756  1
  B  B16  1  0.07626075  0.14282121  0.10962818  1
  B  B17  1  0.93109649  0.12855003  0.25833535  1
  B  B18  1  0.42185213  0.51655609  0.84773541  1
  B  B19  1  0.06000243  0.67699312  0.53213479  1
  B  B20  1  0.57343371  0.65393540  0.94342186  1
  B  B21  1  0.43109649  0.87144997  0.74166465  1
  B  B22  1  0.42185213  0.98344391  0.34773541  1
  B  B23  1  0.07031038  0.18524528  0.71774688  1
  B  B24  1  0.06000243  0.82300688  0.03213479  1
  B  B25  1  0.57031038  0.81475472  0.28225312  1
  B  B26  1  0.07031038  0.31475472  0.21774688  1
  B  B27  1  0.07343371  0.34606460  0.05657814  1
  B  B28  1  0.42656629  0.34606460  0.05657814  1
  B  B29  1  0.43999757  0.67699312  0.53213479  1
  B  B30  1  0.42968962  0.31475472  0.21774688  1
  B  B31  1  0.92656629  0.84606460  0.44342186  1
  B  B32  1  0.93109649  0.37144997  0.75833535  1
  B  B33  1  0.42373925  0.14282121  0.10962818  1
  B  B34  1  0.42656629  0.15393540  0.55657814  1
  B  B35  1  0.07814787  0.51655609  0.84773541  1
  B  B36  1  0.07814787  0.98344391  0.34773541  1
  B  B37  1  0.57626075  0.64282121  0.39037182  1
  B  B38  1  0.43999757  0.82300688  0.03213479  1
  B  B39  1  0.92968962  0.68524528  0.78225312  1
  B  B40  1  0.92185213  0.48344391  0.15226459  1
  B  B41  1  0.93999757  0.32300688  0.46786521  1
  B  B42  1  0.56000243  0.32300688  0.46786521  1
  B  B43  1  0.92373925  0.64282121  0.39037182  1
  B  B44  1  0.93999757  0.17699312  0.96786521  1
  B  B45  1  0.43109649  0.62855003  0.24166465  1
  B  B46  1  0.07626075  0.35717879  0.60962818  1
  B  B47  1  0.57031038  0.68524528  0.78225312  1
  B  B48  1  0.06890351  0.87144997  0.74166465  1
  B  B49  1  0.56890351  0.37144997  0.75833535  1
  B  B50  1  0.42968962  0.18524528  0.71774688  1
  B  B51  1  0.57343371  0.84606460  0.44342186  1
  B  B52  1  0.56000243  0.17699312  0.96786521  1
  B  B53  1  0.56890351  0.12855003  0.25833535  1
  B  B54  1  0.57814787  0.48344391  0.15226459  1
  B  B55  1  0.92968962  0.81475472  0.28225312  1
  B  B56  1  0.06890351  0.62855003  0.24166465  1
  B  B57  1  0.57814787  0.01655609  0.65226459  1
  B  B58  1  0.07343371  0.15393540  0.55657814  1
  B  B59  1  0.42373925  0.35717879  0.60962818  1
  B  B60  1  0.92373925  0.85717879  0.89037182  1
  B  B61  1  0.92185213  0.01655609  0.65226459  1
  B  B62  1  0.57626075  0.85717879  0.89037182  1
  B  B63  1  0.92656629  0.65393540  0.94342186  1
  O  O64  1  0.06025753  0.56837994  0.93099565  1
  O  O65  1  0.53425357  0.57676399  0.31451763  1
  O  O66  1  0.25000000  0.14287382  0.74561361  1
  O  O67  1  0.92603457  0.76543671  0.37109609  1
  O  O68  1  0.56586663  0.39956486  0.21823051  1
  O  O69  1  0.93351564  0.06461890  0.33644574  1
  O  O70  1  0.45729270  0.12088931  0.90375960  1
  O  O71  1  0.03425357  0.07676399  0.18548237  1
  O  O72  1  0.06586663  0.60043514  0.78176949  1
  O  O73  1  0.56671084  0.37779956  0.54853589  1
  O  O74  1  0.47796976  0.26975255  0.77716527  1
  O  O75  1  0.97664729  0.79033462  0.52234560  1
  O  O76  1  0.95729270  0.87911069  0.09624040  1
  O  O77  1  0.75000000  0.64287382  0.75438639  1
  O  O78  1  0.93413337  0.39956486  0.21823051  1
  O  O79  1  0.96574643  0.57676399  0.31451763  1
  O  O80  1  0.75000000  0.60065076  0.95149943  1
  O  O81  1  0.54270730  0.87911069  0.09624040  1
  O  O82  1  0.95729270  0.62088931  0.59624040  1
  O  O83  1  0.04270730  0.37911069  0.40375960  1
  O  O84  1  0.93974247  0.43162006  0.06900435  1
  O  O85  1  0.53425357  0.92323601  0.81451763  1
  O  O86  1  0.93974247  0.06837994  0.56900435  1
  O  O87  1  0.52203024  0.76975255  0.72283473  1
  O  O88  1  0.93328916  0.37779956  0.54853589  1
  O  O89  1  0.47664729  0.20966538  0.47765440  1
  O  O90  1  0.93413337  0.10043514  0.71823051  1
  O  O91  1  0.25000000  0.39934924  0.04850057  1
  O  O92  1  0.42603457  0.23456329  0.62890391  1
  O  O93  1  0.02203024  0.26975255  0.77716527  1
  O  O94  1  0.25000000  0.35712618  0.24561361  1
  O  O95  1  0.97796976  0.76975255  0.72283473  1
  O  O96  1  0.52335271  0.70966538  0.02234560  1
  O  O97  1  0.93328916  0.12220044  0.04853589  1
  O  O98  1  0.75000000  0.35993468  0.72388333  1
  O  O99  1  0.56648436  0.06461890  0.33644574  1
  O  O100  1  0.43974247  0.56837994  0.93099565  1
  O  O101  1  0.92603457  0.73456329  0.87109609  1
  O  O102  1  0.25000000  0.64006532  0.27611667  1
  O  O103  1  0.54270730  0.62088931  0.59624040  1
  O  O104  1  0.43351564  0.93538110  0.66355426  1
  O  O105  1  0.52335271  0.79033462  0.52234560  1
  O  O106  1  0.75000000  0.89934924  0.45149943  1
  O  O107  1  0.25000000  0.45723618  0.84149297  1
  O  O108  1  0.02335271  0.29033462  0.97765440  1
  O  O109  1  0.46574643  0.42323601  0.68548237  1
  O  O110  1  0.02335271  0.20966538  0.47765440  1
  O  O111  1  0.25000000  0.85993468  0.77611667  1
  O  O112  1  0.47664729  0.29033462  0.97765440  1
  O  O113  1  0.06671084  0.87779956  0.95146411  1
  O  O114  1  0.93351564  0.43538110  0.83644574  1
  O  O115  1  0.04270730  0.12088931  0.90375960  1
  O  O116  1  0.57396543  0.73456329  0.87109609  1
  O  O117  1  0.96574643  0.92323601  0.81451763  1
  O  O118  1  0.75000000  0.19632014  0.93342519  1
  O  O119  1  0.02203024  0.23024745  0.27716527  1
  O  O120  1  0.56025753  0.06837994  0.56900435  1
  O  O121  1  0.25000000  0.04276382  0.34149297  1
  O  O122  1  0.43328916  0.62220044  0.45146411  1
  O  O123  1  0.06586663  0.89956486  0.28176949  1
  O  O124  1  0.75000000  0.89535816  0.92232013  1
  O  O125  1  0.56025753  0.43162006  0.06900435  1
  O  O126  1  0.46574643  0.07676399  0.18548237  1
  O  O127  1  0.25000000  0.69632014  0.56657481  1
  O  O128  1  0.25000000  0.10065076  0.54850057  1
  O  O129  1  0.43974247  0.93162006  0.43099565  1
  O  O130  1  0.25000000  0.39535816  0.57767987  1
  O  O131  1  0.06648436  0.56461890  0.16355426  1
  O  O132  1  0.47796976  0.23024745  0.27716527  1
  O  O133  1  0.03425357  0.42323601  0.68548237  1
  O  O134  1  0.75000000  0.85712618  0.25438639  1
  O  O135  1  0.42603457  0.26543671  0.12890391  1
  O  O136  1  0.07396543  0.23456329  0.62890391  1
  O  O137  1  0.75000000  0.60464184  0.42232013  1
  O  O138  1  0.07396543  0.26543671  0.12890391  1
  O  O139  1  0.56648436  0.43538110  0.83644574  1
  O  O140  1  0.25000000  0.10464184  0.07767987  1
  O  O141  1  0.06671084  0.62220044  0.45146411  1
  O  O142  1  0.56586663  0.10043514  0.71823051  1
  O  O143  1  0.56671084  0.12220044  0.04853589  1
  O  O144  1  0.25000000  0.80367986  0.06657481  1
  O  O145  1  0.52203024  0.73024745  0.22283473  1
  O  O146  1  0.43328916  0.87779956  0.95146411  1
  O  O147  1  0.75000000  0.54276382  0.15850703  1
  O  O148  1  0.43413337  0.60043514  0.78176949  1
  O  O149  1  0.75000000  0.14006532  0.22388333  1
  O  O150  1  0.75000000  0.95723618  0.65850703  1
  O  O151  1  0.45729270  0.37911069  0.40375960  1
  O  O152  1  0.43413337  0.89956486  0.28176949  1
  O  O153  1  0.97664729  0.70966538  0.02234560  1
  O  O154  1  0.06648436  0.93538110  0.66355426  1
  O  O155  1  0.75000000  0.30367986  0.43342519  1
  O  O156  1  0.43351564  0.56461890  0.16355426  1
  O  O157  1  0.57396543  0.76543671  0.37109609  1
  O  O158  1  0.97796976  0.73024745  0.22283473  1
  O  O159  1  0.06025753  0.93162006  0.43099565  1
