# generated using pymatgen
data_Cs7Co4F15
_symmetry_space_group_name_H-M   'P 1'
_cell_length_a   8.00008690
_cell_length_b   11.13873523
_cell_length_c   11.79552616
_cell_angle_alpha   90.00000000
_cell_angle_beta   92.38819371
_cell_angle_gamma   90.00000000
_symmetry_Int_Tables_number   1
_chemical_formula_structural   Cs7Co4F15
_chemical_formula_sum   'Cs14 Co8 F30'
_cell_volume   1050.19640522
_cell_formula_units_Z   2
loop_
 _symmetry_equiv_pos_site_id
 _symmetry_equiv_pos_as_xyz
  1  'x, y, z'
loop_
 _atom_site_type_symbol
 _atom_site_label
 _atom_site_symmetry_multiplicity
 _atom_site_fract_x
 _atom_site_fract_y
 _atom_site_fract_z
 _atom_site_occupancy
  Cs  Cs0  1  0.15880694  0.34633336  0.80371602  1
  Cs  Cs1  1  0.33005290  0.00167176  0.66579775  1
  Cs  Cs2  1  0.49696165  0.18171002  0.03088652  1
  Cs  Cs3  1  0.66994710  0.50167176  0.83420225  1
  Cs  Cs4  1  0.33005290  0.49832824  0.16579775  1
  Cs  Cs5  1  0.00000000  0.50000000  0.50000000  1
  Cs  Cs6  1  0.84119306  0.84633336  0.69628398  1
  Cs  Cs7  1  0.15880694  0.15366664  0.30371602  1
  Cs  Cs8  1  0.66994710  0.99832824  0.33420225  1
  Cs  Cs9  1  0.84119306  0.65366664  0.19628398  1
  Cs  Cs10  1  0.49696165  0.31828998  0.53088652  1
  Cs  Cs11  1  0.50303835  0.68171002  0.46911348  1
  Cs  Cs12  1  0.00000000  0.00000000  0.00000000  1
  Cs  Cs13  1  0.50303835  0.81828998  0.96911348  1
  Co  Co14  1  0.26150201  0.82768673  0.22627845  1
  Co  Co15  1  0.92307237  0.16214921  0.57190140  1
  Co  Co16  1  0.92307237  0.33785079  0.07190140  1
  Co  Co17  1  0.26150201  0.67231327  0.72627845  1
  Co  Co18  1  0.73849799  0.32768673  0.27372155  1
  Co  Co19  1  0.73849799  0.17231327  0.77372155  1
  Co  Co20  1  0.07692763  0.83785079  0.42809860  1
  Co  Co21  1  0.07692763  0.66214921  0.92809860  1
  F  F22  1  0.31145086  0.90912625  0.39461808  1
  F  F23  1  0.31145086  0.59087375  0.89461808  1
  F  F24  1  0.48937035  0.75269184  0.22165362  1
  F  F25  1  0.66865850  0.02553875  0.85855310  1
  F  F26  1  0.16967591  0.76587249  0.58223213  1
  F  F27  1  0.48937035  0.74730816  0.72165362  1
  F  F28  1  0.51062965  0.25269184  0.27834638  1
  F  F29  1  0.83032409  0.26587249  0.91776787  1
  F  F30  1  0.17269681  0.80987498  0.83504332  1
  F  F31  1  0.51062965  0.24730816  0.77834638  1
  F  F32  1  0.68854914  0.40912625  0.10538192  1
  F  F33  1  0.68854914  0.09087375  0.60538192  1
  F  F34  1  0.33134150  0.52553875  0.64144690  1
  F  F35  1  0.17269681  0.69012502  0.33504332  1
  F  F36  1  0.85233764  0.73606371  0.94478231  1
  F  F37  1  0.82730319  0.19012502  0.16495668  1
  F  F38  1  0.97736437  0.39742499  0.24053937  1
  F  F39  1  0.66865850  0.47446125  0.35855310  1
  F  F40  1  0.14766236  0.26393629  0.05521769  1
  F  F41  1  0.14766236  0.23606371  0.55521769  1
  F  F42  1  0.82730319  0.30987498  0.66495668  1
  F  F43  1  0.33134150  0.97446125  0.14144690  1
  F  F44  1  0.02263563  0.89742499  0.25946063  1
  F  F45  1  0.85233764  0.76393629  0.44478231  1
  F  F46  1  0.83032409  0.23412751  0.41776787  1
  F  F47  1  0.02263563  0.60257501  0.75946063  1
  F  F48  1  0.16967591  0.73412751  0.08223213  1
  F  F49  1  0.00000000  0.00000000  0.50000000  1
  F  F50  1  0.97736437  0.10257501  0.74053937  1
  F  F51  1  0.00000000  0.50000000  0.00000000  1
