# generated using pymatgen
data_Sr2(PPd)3
_symmetry_space_group_name_H-M   'P 1'
_cell_length_a   4.22286325
_cell_length_b   4.28372853
_cell_length_c   34.48579878
_cell_angle_alpha   90.00000000
_cell_angle_beta   90.00000000
_cell_angle_gamma   90.00000000
_symmetry_Int_Tables_number   1
_chemical_formula_structural   Sr2(PPd)3
_chemical_formula_sum   'Sr8 P12 Pd12'
_cell_volume   623.83429810
_cell_formula_units_Z   4
loop_
 _symmetry_equiv_pos_site_id
 _symmetry_equiv_pos_as_xyz
  1  'x, y, z'
loop_
 _atom_site_type_symbol
 _atom_site_label
 _atom_site_symmetry_multiplicity
 _atom_site_fract_x
 _atom_site_fract_y
 _atom_site_fract_z
 _atom_site_occupancy
  Sr  Sr0  1  0.00000000  0.00000000  0.42666530  1
  Sr  Sr1  1  0.50000000  0.00000000  0.67858517  1
  Sr  Sr2  1  0.50000000  0.00000000  0.32141483  1
  Sr  Sr3  1  0.00000000  0.50000000  0.17663678  1
  Sr  Sr4  1  0.50000000  0.50000000  0.92786160  1
  Sr  Sr5  1  0.50000000  0.50000000  0.07213840  1
  Sr  Sr6  1  0.00000000  0.50000000  0.82336322  1
  Sr  Sr7  1  0.00000000  0.00000000  0.57333470  1
  P  P8  1  0.00000000  0.00000000  0.96014817  1
  P  P9  1  0.50000000  0.50000000  0.54032802  1
  P  P10  1  0.50000000  0.50000000  0.45967198  1
  P  P11  1  0.50000000  0.00000000  0.21034746  1
  P  P12  1  0.00000000  0.50000000  0.28707979  1
  P  P13  1  0.00000000  0.50000000  0.71292021  1
  P  P14  1  0.50000000  0.00000000  0.85556954  1
  P  P15  1  0.50000000  0.00000000  0.78965254  1
  P  P16  1  0.00000000  0.50000000  0.64683616  1
  P  P17  1  0.00000000  0.50000000  0.35316384  1
  P  P18  1  0.50000000  0.00000000  0.14443046  1
  P  P19  1  0.00000000  0.00000000  0.03985183  1
  Pd  Pd20  1  0.00000000  0.00000000  0.89055342  1
  Pd  Pd21  1  0.00000000  0.00000000  0.10944658  1
  Pd  Pd22  1  0.00000000  0.00000000  0.75220453  1
  Pd  Pd23  1  0.50000000  0.50000000  0.38897311  1
  Pd  Pd24  1  0.50000000  0.50000000  0.61102689  1
  Pd  Pd25  1  0.00000000  0.00000000  0.24779547  1
  Pd  Pd26  1  0.00000000  0.50000000  0.50000000  1
  Pd  Pd27  1  0.50000000  0.50000000  0.24950374  1
  Pd  Pd28  1  0.50000000  0.00000000  0.00000000  1
  Pd  Pd29  1  0.50000000  0.50000000  0.75049626  1
  Pd  Pd30  1  0.50000000  0.00000000  0.50000000  1
  Pd  Pd31  1  0.00000000  0.50000000  0.00000000  1
