# generated using pymatgen
data_NaEu(PO3)4
_symmetry_space_group_name_H-M   'P 1'
_cell_length_a   7.26535088
_cell_length_b   9.92210449
_cell_length_c   13.20546919
_cell_angle_alpha   90.00000000
_cell_angle_beta   90.00000000
_cell_angle_gamma   90.50378477
_symmetry_Int_Tables_number   1
_chemical_formula_structural   NaEu(PO3)4
_chemical_formula_sum   'Na4 Eu4 P16 O48'
_cell_volume   951.91339420
_cell_formula_units_Z   4
loop_
 _symmetry_equiv_pos_site_id
 _symmetry_equiv_pos_as_xyz
  1  'x, y, z'
loop_
 _atom_site_type_symbol
 _atom_site_label
 _atom_site_symmetry_multiplicity
 _atom_site_fract_x
 _atom_site_fract_y
 _atom_site_fract_z
 _atom_site_occupancy
  Eu  Eu0  1  0.98717987  0.02368302  0.78190830  1
  Eu  Eu1  1  0.51282013  0.47631698  0.28190830  1
  Eu  Eu2  1  0.01282013  0.97631698  0.21809170  1
  Eu  Eu3  1  0.48717987  0.52368302  0.71809170  1
  Na  Na4  1  0.49950499  0.06456290  0.22174655  1
  Na  Na5  1  0.50049501  0.93543710  0.77825345  1
  Na  Na6  1  0.00049501  0.43543710  0.72174655  1
  Na  Na7  1  0.99950499  0.56456290  0.27825345  1
  P  P8  1  0.26876814  0.19837339  0.40956044  1
  P  P9  1  0.64696017  0.80459124  0.37172446  1
  P  P10  1  0.25033854  0.75627401  0.89879463  1
  P  P11  1  0.23123186  0.30162661  0.90956044  1
  P  P12  1  0.12236907  0.73601664  0.61487698  1
  P  P13  1  0.85303983  0.69540876  0.87172446  1
  P  P14  1  0.14696017  0.30459124  0.12827554  1
  P  P15  1  0.74966146  0.24372599  0.10120537  1
  P  P16  1  0.73123186  0.80162661  0.59043956  1
  P  P17  1  0.76876814  0.69837339  0.09043956  1
  P  P18  1  0.87763093  0.26398336  0.38512302  1
  P  P19  1  0.37763093  0.76398336  0.11487698  1
  P  P20  1  0.35303983  0.19540876  0.62827554  1
  P  P21  1  0.75033854  0.25627401  0.60120537  1
  P  P22  1  0.62236907  0.23601664  0.88512302  1
  P  P23  1  0.24966146  0.74372599  0.39879463  1
  O  O24  1  0.69747938  0.10170762  0.85411296  1
  O  O25  1  0.90687783  0.20508480  0.66548264  1
  O  O26  1  0.21893850  0.39447403  0.21116267  1
  O  O27  1  0.30252062  0.89829238  0.14588704  1
  O  O28  1  0.42959749  0.29081780  0.38955125  1
  O  O29  1  0.28575163  0.59455295  0.39266238  1
  O  O30  1  0.91205675  0.70886994  0.58018972  1
  O  O31  1  0.23862407  0.08201576  0.33835222  1
  O  O32  1  0.28292483  0.13325337  0.52183038  1
  O  O33  1  0.31965707  0.34422276  0.63277443  1
  O  O34  1  0.07040251  0.20918220  0.88955125  1
  O  O35  1  0.41205675  0.20886994  0.91981028  1
  O  O36  1  0.80252062  0.39829238  0.35411296  1
  O  O37  1  0.58794325  0.79113006  0.08018972  1
  O  O38  1  0.81965707  0.84422276  0.86722557  1
  O  O39  1  0.68034293  0.65577724  0.36722557  1
  O  O40  1  0.42865219  0.83470954  0.37526538  1
  O  O41  1  0.71707517  0.86674663  0.47816962  1
  O  O42  1  0.71424837  0.40544705  0.60733762  1
  O  O43  1  0.73862407  0.58201576  0.16164778  1
  O  O44  1  0.09312217  0.79491520  0.33451736  1
  O  O45  1  0.28370376  0.70822659  0.01353188  1
  O  O46  1  0.19747938  0.60170762  0.64588704  1
  O  O47  1  0.59312217  0.29491520  0.16548264  1
  O  O48  1  0.28106150  0.10552597  0.71116267  1
  O  O49  1  0.63320495  0.34922402  0.81035211  1
  O  O50  1  0.76137593  0.91798424  0.66164778  1
  O  O51  1  0.21424837  0.90544705  0.89266238  1
  O  O52  1  0.18034293  0.15577724  0.13277443  1
  O  O53  1  0.40687783  0.70508480  0.83451736  1
  O  O54  1  0.57040251  0.70918220  0.61044875  1
  O  O55  1  0.78106150  0.60552597  0.78883733  1
  O  O56  1  0.21629624  0.79177341  0.51353188  1
  O  O57  1  0.92865219  0.33470954  0.12473462  1
  O  O58  1  0.71629624  0.29177341  0.98646812  1
  O  O59  1  0.07134781  0.66529046  0.87526538  1
  O  O60  1  0.78575163  0.09455295  0.10733762  1
  O  O61  1  0.86679505  0.15077598  0.31035211  1
  O  O62  1  0.78292483  0.63325337  0.97816962  1
  O  O63  1  0.71893850  0.89447403  0.28883733  1
  O  O64  1  0.57134781  0.16529046  0.62473462  1
  O  O65  1  0.21707517  0.36674663  0.02183038  1
  O  O66  1  0.92959749  0.79081780  0.11044875  1
  O  O67  1  0.26137593  0.41798424  0.83835222  1
  O  O68  1  0.36679505  0.65077598  0.18964789  1
  O  O69  1  0.78370376  0.20822659  0.48646812  1
  O  O70  1  0.13320495  0.84922402  0.68964789  1
  O  O71  1  0.08794325  0.29113006  0.41981028  1
