# generated using pymatgen
data_Lu(BO2)3
_symmetry_space_group_name_H-M   'P 1'
_cell_length_a   7.37937215
_cell_length_b   12.18230752
_cell_length_c   15.84999228
_cell_angle_alpha   90.00000000
_cell_angle_beta   90.00000000
_cell_angle_gamma   90.00000000
_symmetry_Int_Tables_number   1
_chemical_formula_structural   Lu(BO2)3
_chemical_formula_sum   'Lu16 B48 O96'
_cell_volume   1424.87913224
_cell_formula_units_Z   16
loop_
 _symmetry_equiv_pos_site_id
 _symmetry_equiv_pos_as_xyz
  1  'x, y, z'
loop_
 _atom_site_type_symbol
 _atom_site_label
 _atom_site_symmetry_multiplicity
 _atom_site_fract_x
 _atom_site_fract_y
 _atom_site_fract_z
 _atom_site_occupancy
  Lu  Lu0  1  0.25000000  0.91132218  0.54872913  1
  Lu  Lu1  1  0.75000000  0.41132218  0.95127087  1
  Lu  Lu2  1  0.75000000  0.06331551  0.82653222  1
  Lu  Lu3  1  0.25000000  0.51036725  0.37897837  1
  Lu  Lu4  1  0.75000000  0.08867782  0.45127087  1
  Lu  Lu5  1  0.25000000  0.58867782  0.04872913  1
  Lu  Lu6  1  0.25000000  0.23667544  0.37167124  1
  Lu  Lu7  1  0.75000000  0.48963275  0.62102163  1
  Lu  Lu8  1  0.75000000  0.76332456  0.62832876  1
  Lu  Lu9  1  0.25000000  0.98963275  0.87897837  1
  Lu  Lu10  1  0.25000000  0.56331551  0.67346778  1
  Lu  Lu11  1  0.75000000  0.73667544  0.12832876  1
  Lu  Lu12  1  0.25000000  0.93668449  0.17346778  1
  Lu  Lu13  1  0.25000000  0.26332456  0.87167124  1
  Lu  Lu14  1  0.75000000  0.43668449  0.32653222  1
  Lu  Lu15  1  0.75000000  0.01036725  0.12102163  1
  B  B16  1  0.57623931  0.64215274  0.39025946  1
  B  B17  1  0.57012625  0.81568619  0.28196914  1
  B  B18  1  0.42376069  0.14215274  0.10974054  1
  B  B19  1  0.92987375  0.81568619  0.28196914  1
  B  B20  1  0.42109886  0.51613969  0.84890467  1
  B  B21  1  0.07623931  0.35784726  0.60974054  1
  B  B22  1  0.42655570  0.15403013  0.55559853  1
  B  B23  1  0.92655570  0.65403013  0.94440147  1
  B  B24  1  0.07012625  0.31568619  0.21803086  1
  B  B25  1  0.94104342  0.17551596  0.96680581  1
  B  B26  1  0.07890114  0.98386031  0.34890467  1
  B  B27  1  0.07012625  0.18431381  0.71803086  1
  B  B28  1  0.92109886  0.01613969  0.65109533  1
  B  B29  1  0.43151378  0.87158513  0.74102828  1
  B  B30  1  0.92655570  0.84596987  0.44440147  1
  B  B31  1  0.57890114  0.01613969  0.65109533  1
  B  B32  1  0.42987375  0.31568619  0.21803086  1
  B  B33  1  0.42376069  0.35784726  0.60974054  1
  B  B34  1  0.42655570  0.34596987  0.05559853  1
  B  B35  1  0.92376069  0.64215274  0.39025946  1
  B  B36  1  0.56848622  0.12841487  0.25897172  1
  B  B37  1  0.55895658  0.32448404  0.46680581  1
  B  B38  1  0.42109886  0.98386031  0.34890467  1
  B  B39  1  0.07344430  0.15403013  0.55559853  1
  B  B40  1  0.57344430  0.84596987  0.44440147  1
  B  B41  1  0.57344430  0.65403013  0.94440147  1
  B  B42  1  0.07890114  0.51613969  0.84890467  1
  B  B43  1  0.06848622  0.62841487  0.24102828  1
  B  B44  1  0.05895658  0.67551596  0.53319419  1
  B  B45  1  0.92109886  0.48386031  0.15109533  1
  B  B46  1  0.44104342  0.67551596  0.53319419  1
  B  B47  1  0.42987375  0.18431381  0.71803086  1
  B  B48  1  0.43151378  0.62841487  0.24102828  1
  B  B49  1  0.44104342  0.82448404  0.03319419  1
  B  B50  1  0.93151378  0.37158513  0.75897172  1
  B  B51  1  0.57890114  0.48386031  0.15109533  1
  B  B52  1  0.07344430  0.34596987  0.05559853  1
  B  B53  1  0.57623931  0.85784726  0.89025946  1
  B  B54  1  0.06848622  0.87158513  0.74102828  1
  B  B55  1  0.94104342  0.32448404  0.46680581  1
  B  B56  1  0.92987375  0.68431381  0.78196914  1
  B  B57  1  0.07623931  0.14215274  0.10974054  1
  B  B58  1  0.57012625  0.68431381  0.78196914  1
  B  B59  1  0.55895658  0.17551596  0.96680581  1
  B  B60  1  0.93151378  0.12841487  0.25897172  1
  B  B61  1  0.92376069  0.85784726  0.89025946  1
  B  B62  1  0.56848622  0.37158513  0.75897172  1
  B  B63  1  0.05895658  0.82448404  0.03319419  1
  O  O64  1  0.04515900  0.38082849  0.40271765  1
  O  O65  1  0.92608886  0.76538755  0.37116118  1
  O  O66  1  0.45484100  0.38082849  0.40271765  1
  O  O67  1  0.47601801  0.26960709  0.77808664  1
  O  O68  1  0.52624713  0.78913805  0.52384853  1
  O  O69  1  0.93266798  0.12118513  0.04842511  1
  O  O70  1  0.06279756  0.56935284  0.93246496  1
  O  O71  1  0.56733202  0.12118513  0.04842511  1
  O  O72  1  0.42608886  0.26538755  0.12883882  1
  O  O73  1  0.47375287  0.21086195  0.47615147  1
  O  O74  1  0.53514466  0.57578874  0.31393774  1
  O  O75  1  0.25000000  0.45521049  0.84314784  1
  O  O76  1  0.06733202  0.62118513  0.45157489  1
  O  O77  1  0.43130826  0.60037609  0.78185369  1
  O  O78  1  0.25000000  0.39660841  0.57770165  1
  O  O79  1  0.52398199  0.73039291  0.22191336  1
  O  O80  1  0.02398199  0.26960709  0.77808664  1
  O  O81  1  0.97375287  0.71086195  0.02384853  1
  O  O82  1  0.93130826  0.10037609  0.71814631  1
  O  O83  1  0.03514466  0.07578874  0.18606226  1
  O  O84  1  0.07391114  0.23461245  0.62883882  1
  O  O85  1  0.97601801  0.76960709  0.72191336  1
  O  O86  1  0.43266798  0.62118513  0.45157489  1
  O  O87  1  0.56279756  0.43064716  0.06753504  1
  O  O88  1  0.06869174  0.60037609  0.78185369  1
  O  O89  1  0.75000000  0.90077222  0.45206519  1
  O  O90  1  0.06279756  0.93064716  0.43246496  1
  O  O91  1  0.47375287  0.28913805  0.97615147  1
  O  O92  1  0.75000000  0.36047963  0.72391268  1
  O  O93  1  0.42608886  0.23461245  0.62883882  1
  O  O94  1  0.04515900  0.11917151  0.90271765  1
  O  O95  1  0.75000000  0.64052941  0.75437443  1
  O  O96  1  0.52398199  0.76960709  0.72191336  1
  O  O97  1  0.57391114  0.73461245  0.87116118  1
  O  O98  1  0.25000000  0.04478951  0.34314784  1
  O  O99  1  0.95484100  0.61917151  0.59728235  1
  O  O100  1  0.93720244  0.06935284  0.56753504  1
  O  O101  1  0.93266798  0.37881487  0.54842511  1
  O  O102  1  0.56814674  0.06413593  0.33766098  1
  O  O103  1  0.25000000  0.10339159  0.07770165  1
  O  O104  1  0.06814674  0.56413593  0.16233902  1
  O  O105  1  0.56869174  0.39962391  0.21814631  1
  O  O106  1  0.03514466  0.42421126  0.68606226  1
  O  O107  1  0.02624713  0.21086195  0.47615147  1
  O  O108  1  0.25000000  0.09922778  0.54793481  1
  O  O109  1  0.93185326  0.06413593  0.33766098  1
  O  O110  1  0.96485534  0.92421126  0.81393774  1
  O  O111  1  0.06869174  0.89962391  0.28185369  1
  O  O112  1  0.45484100  0.11917151  0.90271765  1
  O  O113  1  0.95484100  0.88082849  0.09728235  1
  O  O114  1  0.56279756  0.06935284  0.56753504  1
  O  O115  1  0.75000000  0.30503121  0.43179720  1
  O  O116  1  0.43185326  0.93586407  0.66233902  1
  O  O117  1  0.06814674  0.93586407  0.66233902  1
  O  O118  1  0.97601801  0.73039291  0.22191336  1
  O  O119  1  0.02624713  0.28913805  0.97615147  1
  O  O120  1  0.93185326  0.43586407  0.83766098  1
  O  O121  1  0.25000000  0.63952037  0.27608732  1
  O  O122  1  0.75000000  0.13952037  0.22391268  1
  O  O123  1  0.93130826  0.39962391  0.21814631  1
  O  O124  1  0.54515900  0.61917151  0.59728235  1
  O  O125  1  0.25000000  0.69496879  0.56820280  1
  O  O126  1  0.56814674  0.43586407  0.83766098  1
  O  O127  1  0.96485534  0.57578874  0.31393774  1
  O  O128  1  0.75000000  0.54478951  0.15685216  1
  O  O129  1  0.25000000  0.14052941  0.74562557  1
  O  O130  1  0.75000000  0.60339159  0.42229835  1
  O  O131  1  0.53514466  0.92421126  0.81393774  1
  O  O132  1  0.46485534  0.42421126  0.68606226  1
  O  O133  1  0.43720244  0.93064716  0.43246496  1
  O  O134  1  0.25000000  0.40077222  0.04793481  1
  O  O135  1  0.56869174  0.10037609  0.71814631  1
  O  O136  1  0.02398199  0.23039291  0.27808664  1
  O  O137  1  0.47601801  0.23039291  0.27808664  1
  O  O138  1  0.92608886  0.73461245  0.87116118  1
  O  O139  1  0.75000000  0.85947059  0.25437443  1
  O  O140  1  0.43720244  0.56935284  0.93246496  1
  O  O141  1  0.56733202  0.37881487  0.54842511  1
  O  O142  1  0.25000000  0.80503121  0.06820280  1
  O  O143  1  0.43185326  0.56413593  0.16233902  1
  O  O144  1  0.43266798  0.87881487  0.95157489  1
  O  O145  1  0.52624713  0.71086195  0.02384853  1
  O  O146  1  0.57391114  0.76538755  0.37116118  1
  O  O147  1  0.75000000  0.19496879  0.93179720  1
  O  O148  1  0.75000000  0.59922778  0.95206519  1
  O  O149  1  0.54515900  0.88082849  0.09728235  1
  O  O150  1  0.07391114  0.26538755  0.12883882  1
  O  O151  1  0.06733202  0.87881487  0.95157489  1
  O  O152  1  0.75000000  0.95521049  0.65685216  1
  O  O153  1  0.93720244  0.43064716  0.06753504  1
  O  O154  1  0.25000000  0.35947059  0.24562557  1
  O  O155  1  0.75000000  0.89660841  0.92229835  1
  O  O156  1  0.46485534  0.07578874  0.18606226  1
  O  O157  1  0.97375287  0.78913805  0.52384853  1
  O  O158  1  0.25000000  0.86047963  0.77608732  1
  O  O159  1  0.43130826  0.89962391  0.28185369  1
