# generated using pymatgen
data_ZrN6O17
_symmetry_space_group_name_H-M   'P 1'
_cell_length_a   13.97890794
_cell_length_b   13.97890792
_cell_length_c   16.63674532
_cell_angle_alpha   114.84225715
_cell_angle_beta   114.84225708
_cell_angle_gamma   90.00000201
_symmetry_Int_Tables_number   1
_chemical_formula_structural   ZrN6O17
_chemical_formula_sum   'Zr8 N48 O136'
_cell_volume   2614.96339175
_cell_formula_units_Z   8
loop_
 _symmetry_equiv_pos_site_id
 _symmetry_equiv_pos_as_xyz
  1  'x, y, z'
loop_
 _atom_site_type_symbol
 _atom_site_label
 _atom_site_symmetry_multiplicity
 _atom_site_fract_x
 _atom_site_fract_y
 _atom_site_fract_z
 _atom_site_occupancy
  Zr  Zr0  1  0.78346194  0.21419530  0.16929157  1
  Zr  Zr1  1  0.61417037  0.54490373  0.83070843  1
  Zr  Zr2  1  0.71419530  0.88582963  0.66929157  1
  Zr  Zr3  1  0.21653806  0.78580470  0.83070843  1
  Zr  Zr4  1  0.95509627  0.28346194  0.66929157  1
  Zr  Zr5  1  0.04490373  0.71653806  0.33070843  1
  Zr  Zr6  1  0.38582963  0.45509627  0.16929157  1
  Zr  Zr7  1  0.28580470  0.11417037  0.33070843  1
  N  N8  1  0.00650610  0.49276602  0.81911326  1
  N  N9  1  0.38360575  0.33525446  0.45516237  1
  N  N10  1  0.21732502  0.75204611  0.29777090  1
  N  N11  1  0.91955412  0.95427521  0.70222910  1
  N  N12  1  0.85087235  0.77690730  0.24354066  1
  N  N13  1  0.88009209  0.11639425  0.04483763  1
  N  N14  1  0.72309270  0.10733169  0.25645934  1
  N  N15  1  0.54572479  0.71732502  0.79777090  1
  N  N16  1  0.60733169  0.03336664  0.75645934  1
  N  N17  1  0.42660212  0.87650078  0.97938861  1
  N  N18  1  0.99276602  0.31260716  0.31911326  1
  N  N19  1  0.21118743  0.71950176  0.07711760  1
  N  N20  1  0.08044588  0.04572479  0.29777090  1
  N  N21  1  0.99349390  0.50723398  0.18088674  1
  N  N22  1  0.78049824  0.63406984  0.42288240  1
  N  N23  1  0.27690730  0.89266831  0.74354066  1
  N  N24  1  0.32634724  0.50650610  0.31911326  1
  N  N25  1  0.21950176  0.36593016  0.57711760  1
  N  N26  1  0.64238416  0.28881257  0.42288240  1
  N  N27  1  0.45427521  0.28267498  0.20222910  1
  N  N28  1  0.83525446  0.57155662  0.95516237  1
  N  N29  1  0.74795389  0.41955412  0.20222910  1
  N  N30  1  0.62349922  0.94721351  0.52061139  1
  N  N31  1  0.18739284  0.17365276  0.18088674  1
  N  N32  1  0.44721351  0.39711217  0.02061139  1
  N  N33  1  0.00723398  0.68739284  0.68088674  1
  N  N34  1  0.55278649  0.60288783  0.97938861  1
  N  N35  1  0.81260716  0.82634724  0.81911326  1
  N  N36  1  0.07155662  0.61990791  0.45516237  1
  N  N37  1  0.11990791  0.88360575  0.95516237  1
  N  N38  1  0.89711217  0.07339788  0.52061139  1
  N  N39  1  0.35761584  0.71118743  0.57711760  1
  N  N40  1  0.67365276  0.49349390  0.68088674  1
  N  N41  1  0.37650078  0.05278649  0.47938861  1
  N  N42  1  0.46663336  0.35087235  0.74354066  1
  N  N43  1  0.13406984  0.14238416  0.92288240  1
  N  N44  1  0.57339788  0.12349922  0.02061139  1
  N  N45  1  0.10288783  0.92660212  0.47938861  1
  N  N46  1  0.14912765  0.22309270  0.75645934  1
  N  N47  1  0.78881257  0.28049824  0.92288240  1
  N  N48  1  0.39266831  0.96663336  0.24354066  1
  N  N49  1  0.53336664  0.64912765  0.25645934  1
  N  N50  1  0.78267498  0.24795389  0.70222910  1
  N  N51  1  0.16474554  0.42844338  0.04483763  1
  N  N52  1  0.25204611  0.58044588  0.79777090  1
  N  N53  1  0.92844338  0.38009209  0.54483763  1
  N  N54  1  0.86593016  0.85761584  0.07711760  1
  N  N55  1  0.61639425  0.66474554  0.54483763  1
  O  O56  1  0.30380823  0.94484615  0.71092061  1
  O  O57  1  0.44484615  0.90711238  0.21092061  1
  O  O58  1  0.12847777  0.01912189  0.54414867  1
  O  O59  1  0.87661683  0.08716156  0.10855138  1
  O  O60  1  0.76806545  0.47861019  0.89144862  1
  O  O61  1  0.25415017  0.93571610  0.81810996  1
  O  O62  1  0.78418680  0.87177640  0.07373801  1
  O  O63  1  0.41567090  0.02502678  0.54414867  1
  O  O64  1  0.14066295  0.19468266  0.11202316  1
  O  O65  1  0.55918256  0.58025998  0.29078466  1
  O  O66  1  0.20196160  0.28418680  0.57373801  1
  O  O67  1  0.94707875  0.33417675  0.24476847  1
  O  O68  1  0.92351665  0.56690781  0.18690719  1
  O  O69  1  0.05129942  0.15181554  0.91903449  1
  O  O70  1  0.79803840  0.71581320  0.42626199  1
  O  O71  1  0.40404516  0.14876822  0.49214330  1
  O  O72  1  0.79155503  0.65196735  0.95203334  1
  O  O73  1  0.35123178  0.41190186  0.00785670  1
  O  O74  1  0.58432910  0.97497322  0.45585133  1
  O  O75  1  0.74242347  0.34915506  0.11888231  1
  O  O76  1  0.26339054  0.11999938  0.18690719  1
  O  O77  1  0.39934789  0.80170580  0.88888348  1
  O  O78  1  0.92897818  0.58066289  0.01131218  1
  O  O79  1  0.62822360  0.21044879  0.42626199  1
  O  O80  1  0.47497322  0.37152223  0.95585133  1
  O  O81  1  0.73160210  0.21052469  0.29078466  1
  O  O82  1  0.73660946  0.88000062  0.81309281  1
  O  O83  1  0.08265950  0.35933705  0.38797684  1
  O  O84  1  0.13226493  0.73278105  0.08096551  1
  O  O85  1  0.49901456  0.61638054  0.73437731  1
  O  O86  1  0.56395979  0.38239386  0.81810996  1
  O  O87  1  0.34818446  0.63226493  0.58096551  1
  O  O88  1  0.08233400  0.93064929  0.01131218  1
  O  O89  1  0.15084494  0.12354116  0.38111769  1
  O  O90  1  0.91734050  0.64066295  0.61202316  1
  O  O91  1  0.55515385  0.09288762  0.78907939  1
  O  O92  1  0.76721895  0.55129942  0.41903449  1
  O  O93  1  0.69619177  0.05515385  0.28907939  1
  O  O94  1  0.85933705  0.80531734  0.88797684  1
  O  O95  1  0.71052469  0.05918256  0.79078466  1
  O  O96  1  0.64876822  0.58809814  0.99214330  1
  O  O97  1  0.97861019  0.62338317  0.39144862  1
  O  O98  1  0.28955121  0.70196160  0.07373801  1
  O  O99  1  0.84803265  0.33952170  0.54796666  1
  O  O100  1  0.76463725  0.38200323  0.26562269  1
  O  O101  1  0.29107194  0.76010281  0.27871118  1
  O  O102  1  0.11638054  0.73536275  0.23437731  1
  O  O103  1  0.65662492  0.09595484  0.00785670  1
  O  O104  1  0.88361946  0.26463725  0.76562269  1
  O  O105  1  0.08066289  0.58233400  0.51131218  1
  O  O106  1  0.28947531  0.94081744  0.20921534  1
  O  O107  1  0.93309219  0.23660946  0.31309281  1
  O  O108  1  0.02138981  0.37661683  0.60855138  1
  O  O109  1  0.07648335  0.43309219  0.81309281  1
  O  O110  1  0.91282232  0.10065211  0.61111652  1
  O  O111  1  0.61999938  0.42351665  0.68690719  1
  O  O112  1  0.52502678  0.62847777  0.04414867  1
  O  O113  1  0.43064929  0.42897818  0.51131218  1
  O  O114  1  0.08717768  0.89934789  0.38888348  1
  O  O115  1  0.23193455  0.52138981  0.10855138  1
  O  O116  1  0.62354116  0.73027276  0.88111769  1
  O  O117  1  0.48139163  0.20892806  0.22128882  1
  O  O118  1  0.20844497  0.34803265  0.04796666  1
  O  O119  1  0.69993401  0.70844497  0.54796666  1
  O  O120  1  0.34337508  0.90404516  0.99214330  1
  O  O121  1  0.83952170  0.19993401  0.04796666  1
  O  O122  1  0.02863979  0.58265950  0.88797684  1
  O  O123  1  0.07102182  0.41933711  0.98868782  1
  O  O124  1  0.12338317  0.91283844  0.89144862  1
  O  O125  1  0.23392554  0.19619177  0.78907939  1
  O  O126  1  0.01236076  0.98139163  0.72128882  1
  O  O127  1  0.25757653  0.65084494  0.88111769  1
  O  O128  1  0.40711238  0.26607446  0.71092061  1
  O  O129  1  0.26839790  0.78947531  0.70921534  1
  O  O130  1  0.29768972  0.41059172  0.24476847  1
  O  O131  1  0.51046441  0.41282232  0.11111652  1
  O  O132  1  0.38000062  0.57648335  0.31309281  1
  O  O133  1  0.70892806  0.23989719  0.72128882  1
  O  O134  1  0.51860837  0.79107194  0.77871118  1
  O  O135  1  0.37177640  0.78955121  0.57373801  1
  O  O136  1  0.87152223  0.98087811  0.45585133  1
  O  O137  1  0.91059172  0.44707875  0.74476847  1
  O  O138  1  0.83417675  0.79768972  0.74476847  1
  O  O139  1  0.91974002  0.76839790  0.20921534  1
  O  O140  1  0.48953559  0.58717768  0.88888348  1
  O  O141  1  0.69829420  0.01046441  0.61111652  1
  O  O142  1  0.74584983  0.06428390  0.18189004  1
  O  O143  1  0.71044879  0.29803840  0.92626199  1
  O  O144  1  0.16047830  0.80006599  0.95203334  1
  O  O145  1  0.86773507  0.26721895  0.91903449  1
  O  O146  1  0.91933711  0.41766600  0.48868782  1
  O  O147  1  0.23278105  0.44870058  0.58096551  1
  O  O148  1  0.51912189  0.91567090  0.04414867  1
  O  O149  1  0.76607446  0.80380823  0.21092061  1
  O  O150  1  0.43571610  0.06395979  0.31810996  1
  O  O151  1  0.97136021  0.41734050  0.11202316  1
  O  O152  1  0.50098544  0.38361946  0.26562269  1
  O  O153  1  0.30006599  0.29155503  0.45203334  1
  O  O154  1  0.08940828  0.55292125  0.25523153  1
  O  O155  1  0.56935071  0.57102182  0.48868782  1
  O  O156  1  0.94870058  0.84818446  0.08096551  1
  O  O157  1  0.98763924  0.01860837  0.27871118  1
  O  O158  1  0.16582325  0.20231028  0.25523153  1
  O  O159  1  0.84915506  0.87645884  0.61888231  1
  O  O160  1  0.44081744  0.41974002  0.70921534  1
  O  O161  1  0.76972724  0.24242347  0.61888231  1
  O  O162  1  0.60065211  0.19829420  0.11111652  1
  O  O163  1  0.88200323  0.00098544  0.76562269  1
  O  O164  1  0.70231028  0.58940828  0.75523153  1
  O  O165  1  0.26010281  0.48763924  0.77871118  1
  O  O166  1  0.48087811  0.08432910  0.95585133  1
  O  O167  1  0.08025998  0.23160210  0.79078466  1
  O  O168  1  0.06690781  0.76339054  0.68690719  1
  O  O169  1  0.91190186  0.15662492  0.50785670  1
  O  O170  1  0.11799677  0.99901456  0.23437731  1
  O  O171  1  0.05292125  0.66582325  0.75523153  1
  O  O172  1  0.59288762  0.73392554  0.28907939  1
  O  O173  1  0.23027276  0.75757653  0.38111769  1
  O  O174  1  0.30170580  0.98953559  0.38888348  1
  O  O175  1  0.30531734  0.52863979  0.38797684  1
  O  O176  1  0.88239386  0.75415017  0.31810996  1
  O  O177  1  0.73989719  0.51236076  0.22128882  1
  O  O178  1  0.56428390  0.93604021  0.68189004  1
  O  O179  1  0.69468266  0.47136021  0.61202316  1
  O  O180  1  0.91766600  0.06935071  0.98868782  1
  O  O181  1  0.23536275  0.61799677  0.73437731  1
  O  O182  1  0.43604021  0.61760614  0.18189004  1
  O  O183  1  0.15196735  0.66047830  0.45203334  1
  O  O184  1  0.41283844  0.26806545  0.39144862  1
  O  O185  1  0.21581320  0.12822360  0.92626199  1
  O  O186  1  0.58716156  0.73193455  0.60855138  1
  O  O187  1  0.59595484  0.85123178  0.50785670  1
  O  O188  1  0.37645884  0.26972724  0.11888231  1
  O  O189  1  0.08809814  0.84337508  0.49214330  1
  O  O190  1  0.65181554  0.36773507  0.41903449  1
  O  O191  1  0.11760614  0.24584983  0.68189004  1
