# generated using pymatgen
data_Y3Al19Ni5
_symmetry_space_group_name_H-M   'P 1'
_cell_length_a   4.10928830
_cell_length_b   8.28932564
_cell_length_c   27.26328902
_cell_angle_alpha   90.04072242
_cell_angle_beta   89.96945549
_cell_angle_gamma   104.32763498
_symmetry_Int_Tables_number   1
_chemical_formula_structural   Y3Al19Ni5
_chemical_formula_sum   'Y6 Al38 Ni10'
_cell_volume   899.79029001
_cell_formula_units_Z   2
loop_
 _symmetry_equiv_pos_site_id
 _symmetry_equiv_pos_as_xyz
  1  'x, y, z'
loop_
 _atom_site_type_symbol
 _atom_site_label
 _atom_site_symmetry_multiplicity
 _atom_site_fract_x
 _atom_site_fract_y
 _atom_site_fract_z
 _atom_site_occupancy
  Y  Y0  1  0.38456441  0.77492765  0.74960810  1
  Y  Y1  1  0.16336256  0.33242065  0.63499955  1
  Y  Y2  1  0.60914901  0.22421064  0.25007266  1
  Y  Y3  1  0.83085753  0.66699488  0.36467094  1
  Y  Y4  1  0.16329213  0.33340563  0.86425215  1
  Y  Y5  1  0.83017276  0.66663958  0.13508900  1
  Al  Al6  1  0.59246442  0.18686389  0.46324855  1
  Al  Al7  1  0.92824567  0.86632094  0.03093094  1
  Al  Al8  1  0.06101937  0.13406376  0.96858053  1
  Al  Al9  1  0.23006536  0.46863468  0.97084900  1
  Al  Al10  1  0.46305001  0.92731892  0.39868116  1
  Al  Al11  1  0.57804714  0.15903589  0.70158356  1
  Al  Al12  1  0.40168515  0.81390538  0.53688671  1
  Al  Al13  1  0.22239420  0.44663884  0.19315362  1
  Al  Al14  1  0.03226657  0.07072000  0.17391584  1
  Al  Al15  1  0.18728472  0.38762425  0.74958007  1
  Al  Al16  1  0.21853067  0.44789648  0.30672862  1
  Al  Al17  1  0.20685281  0.41828091  0.08800512  1
  Al  Al18  1  0.37124574  0.74099983  0.86437838  1
  Al  Al19  1  0.77200567  0.55125400  0.69304859  1
  Al  Al20  1  0.53308401  0.07358018  0.89877720  1
  Al  Al21  1  0.96414016  0.92767541  0.67442328  1
  Al  Al22  1  0.78842108  0.58146608  0.58860270  1
  Al  Al23  1  0.41691781  0.84089529  0.29792577  1
  Al  Al24  1  0.23051649  0.46933448  0.52858665  1
  Al  Al25  1  0.20557853  0.41779234  0.41182251  1
  Al  Al26  1  0.76169188  0.53063513  0.47125915  1
  Al  Al27  1  0.62909428  0.26085694  0.13549372  1
  Al  Al28  1  0.76201027  0.53184507  0.02817112  1
  Al  Al29  1  0.79034982  0.58275196  0.91142199  1
  Al  Al30  1  0.96445755  0.92787020  0.82503756  1
  Al  Al31  1  0.58764470  0.18958428  0.03691962  1
  Al  Al32  1  0.77086592  0.55291196  0.80631681  1
  Al  Al33  1  0.36900735  0.74007751  0.63478989  1
  Al  Al34  1  0.80103961  0.61174661  0.24992847  1
  Al  Al35  1  0.41697862  0.84375858  0.20124484  1
  Al  Al36  1  0.57718519  0.15833272  0.79811461  1
  Al  Al37  1  0.53182014  0.07347157  0.60132928  1
  Al  Al38  1  0.62804028  0.26107821  0.36495012  1
  Al  Al39  1  0.40079949  0.81118784  0.96252840  1
  Al  Al40  1  0.03401693  0.07094451  0.32564119  1
  Al  Al41  1  0.06300953  0.13354894  0.53136252  1
  Al  Al42  1  0.45870934  0.92789413  0.10097895  1
  Al  Al43  1  0.93117660  0.86560519  0.46859051  1
  Ni  Ni44  1  0.33839121  0.68272476  0.45791739  1
  Ni  Ni45  1  0.05349574  0.10786910  0.41529329  1
  Ni  Ni46  1  0.65445022  0.31758948  0.54223652  1
  Ni  Ni47  1  0.95003933  0.90906605  0.24971255  1
  Ni  Ni48  1  0.04797745  0.10856731  0.08432878  1
  Ni  Ni49  1  0.94255652  0.89275191  0.91471358  1
  Ni  Ni50  1  0.93966989  0.89218619  0.58504820  1
  Ni  Ni51  1  0.04374684  0.09049257  0.74971285  1
  Ni  Ni52  1  0.65362784  0.31733434  0.95739839  1
  Ni  Ni53  1  0.33703743  0.68328139  0.04193048  1
