# generated using pymatgen
data_SiH6(NF2)2
_symmetry_space_group_name_H-M   'P 1'
_cell_length_a   5.16081749
_cell_length_b   7.35965061
_cell_length_c   6.89962187
_cell_angle_alpha   90.00000000
_cell_angle_beta   92.49416079
_cell_angle_gamma   90.00000000
_symmetry_Int_Tables_number   1
_chemical_formula_structural   SiH6(NF2)2
_chemical_formula_sum   'Si2 H12 N4 F8'
_cell_volume   261.81189215
_cell_formula_units_Z   2
loop_
 _symmetry_equiv_pos_site_id
 _symmetry_equiv_pos_as_xyz
  1  'x, y, z'
loop_
 _atom_site_type_symbol
 _atom_site_label
 _atom_site_symmetry_multiplicity
 _atom_site_fract_x
 _atom_site_fract_y
 _atom_site_fract_z
 _atom_site_occupancy
  Si  Si0  1  0.00000000  0.50000000  0.50000000  1
  Si  Si1  1  0.00000000  0.00000000  0.00000000  1
  H  H2  1  0.41196342  0.51528106  0.69543942  1
  H  H3  1  0.58803658  0.01528106  0.80456058  1
  H  H4  1  0.58803658  0.48471894  0.30456058  1
  H  H5  1  0.41196342  0.98471894  0.19543942  1
  H  H6  1  0.17738646  0.43349255  0.82820573  1
  H  H7  1  0.82261354  0.93349255  0.67179427  1
  H  H8  1  0.82261354  0.56650745  0.17179427  1
  H  H9  1  0.17738646  0.06650745  0.32820573  1
  H  H10  1  0.20050686  0.65724454  0.79178305  1
  H  H11  1  0.79949314  0.15724454  0.70821695  1
  H  H12  1  0.79949314  0.34275546  0.20821695  1
  H  H13  1  0.20050686  0.84275546  0.29178305  1
  N  N14  1  0.22049121  0.53207358  0.72848879  1
  N  N15  1  0.77950879  0.03207358  0.77151121  1
  N  N16  1  0.77950879  0.46792642  0.27151121  1
  N  N17  1  0.22049121  0.96792642  0.22848879  1
  F  F18  1  0.10890144  0.28236297  0.48566315  1
  F  F19  1  0.89109856  0.78236297  0.01433685  1
  F  F20  1  0.89109856  0.71763703  0.51433685  1
  F  F21  1  0.10890144  0.21763703  0.98566315  1
  F  F22  1  0.75519271  0.42716466  0.64148933  1
  F  F23  1  0.24480729  0.92716466  0.85851067  1
  F  F24  1  0.24480729  0.57283534  0.35851067  1
  F  F25  1  0.75519271  0.07283534  0.14148933  1
