# generated using pymatgen
data_Tl2Mo4O13
_symmetry_space_group_name_H-M   'P 1'
_cell_length_a   7.83722126
_cell_length_b   15.71964625
_cell_length_c   19.39629340
_cell_angle_alpha   90.00000000
_cell_angle_beta   90.00000000
_cell_angle_gamma   90.00000000
_symmetry_Int_Tables_number   1
_chemical_formula_structural   Tl2Mo4O13
_chemical_formula_sum   'Tl16 Mo32 O104'
_cell_volume   2389.59126134
_cell_formula_units_Z   8
loop_
 _symmetry_equiv_pos_site_id
 _symmetry_equiv_pos_as_xyz
  1  'x, y, z'
loop_
 _atom_site_type_symbol
 _atom_site_label
 _atom_site_symmetry_multiplicity
 _atom_site_fract_x
 _atom_site_fract_y
 _atom_site_fract_z
 _atom_site_occupancy
  Tl  Tl0  1  0.72444978  0.78569468  0.43626025  1
  Tl  Tl1  1  0.60956918  0.47132807  0.91579957  1
  Tl  Tl2  1  0.27555022  0.28569468  0.06373975  1
  Tl  Tl3  1  0.72444978  0.71430532  0.93626025  1
  Tl  Tl4  1  0.39043082  0.52867193  0.08420043  1
  Tl  Tl5  1  0.89043082  0.52867193  0.41579957  1
  Tl  Tl6  1  0.22444978  0.71430532  0.56373975  1
  Tl  Tl7  1  0.77555022  0.28569468  0.43626025  1
  Tl  Tl8  1  0.10956918  0.02867193  0.08420043  1
  Tl  Tl9  1  0.27555022  0.21430532  0.56373975  1
  Tl  Tl10  1  0.39043082  0.97132807  0.58420043  1
  Tl  Tl11  1  0.60956918  0.02867193  0.41579957  1
  Tl  Tl12  1  0.22444978  0.78569468  0.06373975  1
  Tl  Tl13  1  0.10956918  0.47132807  0.58420043  1
  Tl  Tl14  1  0.89043082  0.97132807  0.91579957  1
  Tl  Tl15  1  0.77555022  0.21430532  0.93626025  1
  Mo  Mo16  1  0.29469093  0.14235435  0.89958611  1
  Mo  Mo17  1  0.10764754  0.06463166  0.38996098  1
  Mo  Mo18  1  0.82727461  0.92826654  0.25546878  1
  Mo  Mo19  1  0.57746558  0.21919738  0.25099617  1
  Mo  Mo20  1  0.89235246  0.56463166  0.11003902  1
  Mo  Mo21  1  0.60764754  0.06463166  0.11003902  1
  Mo  Mo22  1  0.60764754  0.43536834  0.61003902  1
  Mo  Mo23  1  0.32727461  0.57173346  0.74453122  1
  Mo  Mo24  1  0.39235246  0.56463166  0.38996098  1
  Mo  Mo25  1  0.29469093  0.35764565  0.39958611  1
  Mo  Mo26  1  0.20530907  0.64235435  0.89958611  1
  Mo  Mo27  1  0.82727461  0.57173346  0.75546878  1
  Mo  Mo28  1  0.79469093  0.14235435  0.60041389  1
  Mo  Mo29  1  0.89235246  0.93536834  0.61003902  1
  Mo  Mo30  1  0.17272539  0.07173346  0.74453122  1
  Mo  Mo31  1  0.07746558  0.21919738  0.24900383  1
  Mo  Mo32  1  0.39235246  0.93536834  0.88996098  1
  Mo  Mo33  1  0.07746558  0.28080262  0.74900383  1
  Mo  Mo34  1  0.42253442  0.78080262  0.74900383  1
  Mo  Mo35  1  0.17272539  0.42826654  0.24453122  1
  Mo  Mo36  1  0.57746558  0.28080262  0.75099617  1
  Mo  Mo37  1  0.67272539  0.42826654  0.25546878  1
  Mo  Mo38  1  0.67272539  0.07173346  0.75546878  1
  Mo  Mo39  1  0.10764754  0.43536834  0.88996098  1
  Mo  Mo40  1  0.42253442  0.71919738  0.24900383  1
  Mo  Mo41  1  0.92253442  0.78080262  0.75099617  1
  Mo  Mo42  1  0.32727461  0.92826654  0.24453122  1
  Mo  Mo43  1  0.70530907  0.64235435  0.60041389  1
  Mo  Mo44  1  0.79469093  0.35764565  0.10041389  1
  Mo  Mo45  1  0.70530907  0.85764565  0.10041389  1
  Mo  Mo46  1  0.92253442  0.71919738  0.25099617  1
  Mo  Mo47  1  0.20530907  0.85764565  0.39958611  1
  O  O48  1  0.55047268  0.94739268  0.07885062  1
  O  O49  1  0.11884468  0.92474629  0.20894396  1
  O  O50  1  0.05596557  0.34512016  0.67707593  1
  O  O51  1  0.05596557  0.15487984  0.17707593  1
  O  O52  1  0.16501731  0.14260845  0.31754384  1
  O  O53  1  0.71971856  0.47545680  0.16795218  1
  O  O54  1  0.37736928  0.63017945  0.95646297  1
  O  O55  1  0.55047268  0.55260732  0.57885062  1
  O  O56  1  0.26916943  0.41575829  0.95033028  1
  O  O57  1  0.93000509  0.38189582  0.92329460  1
  O  O58  1  0.66501731  0.14260845  0.18245616  1
  O  O59  1  0.94403443  0.65487984  0.32292407  1
  O  O60  1  0.93000509  0.11810418  0.42329460  1
  O  O61  1  0.28028144  0.52454320  0.83204782  1
  O  O62  1  0.23083057  0.91575829  0.95033028  1
  O  O63  1  0.28028144  0.97545680  0.33204782  1
  O  O64  1  0.92073000  0.48874643  0.80456070  1
  O  O65  1  0.44952732  0.44739268  0.42114938  1
  O  O66  1  0.92388366  0.82951488  0.30271955  1
  O  O67  1  0.55596557  0.34512016  0.82292407  1
  O  O68  1  0.09558721  0.73025048  0.93250199  1
  O  O69  1  0.21971856  0.47545680  0.33204782  1
  O  O70  1  0.06999491  0.61810418  0.07670540  1
  O  O71  1  0.19222109  0.18206208  0.81590201  1
  O  O72  1  0.05047268  0.94739268  0.42114938  1
  O  O73  1  0.40441279  0.23025048  0.93250199  1
  O  O74  1  0.07611634  0.32951488  0.19728045  1
  O  O75  1  0.80777891  0.68206208  0.68409799  1
  O  O76  1  0.23083057  0.58424171  0.45033028  1
  O  O77  1  0.76916943  0.08424171  0.04966972  1
  O  O78  1  0.07611634  0.17048512  0.69728045  1
  O  O79  1  0.44952732  0.05260732  0.92114938  1
  O  O80  1  0.73083057  0.91575829  0.54966972  1
  O  O81  1  0.80777891  0.81793792  0.18409799  1
  O  O82  1  0.30777891  0.68206208  0.81590201  1
  O  O83  1  0.12263072  0.13017945  0.95646297  1
  O  O84  1  0.09558721  0.76974952  0.43250199  1
  O  O85  1  0.43000509  0.38189582  0.57670540  1
  O  O86  1  0.62263072  0.13017945  0.54353703  1
  O  O87  1  0.57927000  0.51125357  0.30456070  1
  O  O88  1  0.07927000  0.51125357  0.19543930  1
  O  O89  1  0.69222109  0.18206208  0.68409799  1
  O  O90  1  0.33498269  0.85739155  0.81754384  1
  O  O91  1  0.57611634  0.17048512  0.80271955  1
  O  O92  1  0.62263072  0.36982055  0.04353703  1
  O  O93  1  0.36648181  0.22572176  0.21826602  1
  O  O94  1  0.11884468  0.57525371  0.70894396  1
  O  O95  1  0.87736928  0.86982055  0.04353703  1
  O  O96  1  0.26916943  0.08424171  0.45033028  1
  O  O97  1  0.30777891  0.81793792  0.31590201  1
  O  O98  1  0.36648181  0.27427824  0.71826602  1
  O  O99  1  0.92073000  0.01125357  0.30456070  1
  O  O100  1  0.88115532  0.42474629  0.29105604  1
  O  O101  1  0.94952732  0.44739268  0.07885062  1
  O  O102  1  0.90441279  0.23025048  0.56749801  1
  O  O103  1  0.94403443  0.84512016  0.82292407  1
  O  O104  1  0.43000509  0.11810418  0.07670540  1
  O  O105  1  0.33498269  0.64260845  0.31754384  1
  O  O106  1  0.13351819  0.72572176  0.21826602  1
  O  O107  1  0.55596557  0.15487984  0.32292407  1
  O  O108  1  0.61884468  0.92474629  0.29105604  1
  O  O109  1  0.38115532  0.07525371  0.70894396  1
  O  O110  1  0.94952732  0.05260732  0.57885062  1
  O  O111  1  0.61884468  0.57525371  0.79105604  1
  O  O112  1  0.92388366  0.67048512  0.80271955  1
  O  O113  1  0.12263072  0.36982055  0.45646297  1
  O  O114  1  0.13351819  0.77427824  0.71826602  1
  O  O115  1  0.69222109  0.31793792  0.18409799  1
  O  O116  1  0.06999491  0.88189582  0.57670540  1
  O  O117  1  0.87736928  0.63017945  0.54353703  1
  O  O118  1  0.76916943  0.41575829  0.54966972  1
  O  O119  1  0.56999491  0.61810418  0.42329460  1
  O  O120  1  0.07927000  0.98874643  0.69543930  1
  O  O121  1  0.16501731  0.35739155  0.81754384  1
  O  O122  1  0.42388366  0.82951488  0.19728045  1
  O  O123  1  0.57927000  0.98874643  0.80456070  1
  O  O124  1  0.21971856  0.02454320  0.83204782  1
  O  O125  1  0.59558721  0.76974952  0.06749801  1
  O  O126  1  0.78028144  0.97545680  0.16795218  1
  O  O127  1  0.42073000  0.01125357  0.19543930  1
  O  O128  1  0.38115532  0.42474629  0.20894396  1
  O  O129  1  0.90441279  0.26974952  0.06749801  1
  O  O130  1  0.73083057  0.58424171  0.04966972  1
  O  O131  1  0.86648181  0.27427824  0.78173398  1
  O  O132  1  0.19222109  0.31793792  0.31590201  1
  O  O133  1  0.88115532  0.07525371  0.79105604  1
  O  O134  1  0.44403443  0.84512016  0.67707593  1
  O  O135  1  0.40441279  0.26974952  0.43250199  1
  O  O136  1  0.63351819  0.77427824  0.78173398  1
  O  O137  1  0.86648181  0.22572176  0.28173398  1
  O  O138  1  0.57611634  0.32951488  0.30271955  1
  O  O139  1  0.59558721  0.73025048  0.56749801  1
  O  O140  1  0.37736928  0.86982055  0.45646297  1
  O  O141  1  0.66501731  0.35739155  0.68245616  1
  O  O142  1  0.05047268  0.55260732  0.92114938  1
  O  O143  1  0.42073000  0.48874643  0.69543930  1
  O  O144  1  0.42388366  0.67048512  0.69728045  1
  O  O145  1  0.63351819  0.72572176  0.28173398  1
  O  O146  1  0.83498269  0.64260845  0.18245616  1
  O  O147  1  0.83498269  0.85739155  0.68245616  1
  O  O148  1  0.78028144  0.52454320  0.66795218  1
  O  O149  1  0.71971856  0.02454320  0.66795218  1
  O  O150  1  0.56999491  0.88189582  0.92329460  1
  O  O151  1  0.44403443  0.65487984  0.17707593  1
