# generated using pymatgen
data_Ta8Pb6O25
_symmetry_space_group_name_H-M   'P 1'
_cell_length_a   7.54932973
_cell_length_b   15.07829898
_cell_length_c   13.02089998
_cell_angle_alpha   30.05799288
_cell_angle_beta   54.63412052
_cell_angle_gamma   59.85011081
_symmetry_Int_Tables_number   1
_chemical_formula_structural   Ta8Pb6O25
_chemical_formula_sum   'Ta8 Pb6 O25'
_cell_volume   605.39579871
_cell_formula_units_Z   1
loop_
 _symmetry_equiv_pos_site_id
 _symmetry_equiv_pos_as_xyz
  1  'x, y, z'
loop_
 _atom_site_type_symbol
 _atom_site_label
 _atom_site_symmetry_multiplicity
 _atom_site_fract_x
 _atom_site_fract_y
 _atom_site_fract_z
 _atom_site_occupancy
  Ta  Ta0  1  -0.00007288  0.99810165  0.00298180  1
  Ta  Ta1  1  0.00558019  0.24854803  0.00335592  1
  Ta  Ta2  1  0.50148317  0.99635520  0.00538454  1
  Ta  Ta3  1  0.00452765  0.50408506  0.99403013  1
  Ta  Ta4  1  0.00111588  0.24863863  0.49846881  1
  Ta  Ta5  1  0.00083021  0.75084269  0.99756320  1
  Ta  Ta6  1  0.50159948  0.50564550  0.99158220  1
  Ta  Ta7  1  0.00209307  0.75219434  0.49978055  1
  Pb  Pb8  1  0.49303455  0.23105747  0.03596188  1
  Pb  Pb9  1  0.49911801  0.00456506  0.47823456  1
  Pb  Pb10  1  0.99262325  0.50025206  0.50783895  1
  Pb  Pb11  1  0.50774690  0.24615139  0.49717258  1
  Pb  Pb12  1  0.51230678  0.75127372  0.99198061  1
  Pb  Pb13  1  0.50097535  0.49621886  0.50917736  1
  O  O14  1  0.06984105  0.31660240  0.05434922  1
  O  O15  1  0.69227592  0.00806486  0.05079414  1
  O  O16  1  0.06742074  0.99961966  0.69040872  1
  O  O17  1  0.31497543  0.31182863  0.31250107  1
  O  O18  1  0.07009481  0.19195201  0.68183241  1
  O  O19  1  0.06670861  0.80856684  0.06600200  1
  O  O20  1  0.69241527  0.31763689  0.05564617  1
  O  O21  1  0.67981240  0.49753521  0.07145294  1
  O  O22  1  0.32020592  0.00242465  0.92948012  1
  O  O23  1  0.06752633  0.49991392  0.68042953  1
  O  O24  1  0.37716977  0.49815063  0.37683630  1
  O  O25  1  0.31369819  0.18705735  0.93668539  1
  O  O26  1  0.31366464  0.81146115  0.31098463  1
  O  O27  1  0.05430380  0.68168258  0.69391597  1
  O  O28  1  0.68390376  0.19162509  0.68336337  1
  O  O29  1  0.92915055  0.31670528  0.31315856  1
  O  O30  1  0.68613403  0.81012843  0.06464180  1
  O  O31  1  0.31113346  0.49030345  0.94929654  1
  O  O32  1  0.93605005  0.50060245  0.31648954  1
  O  O33  1  0.31129021  0.68728020  0.93690112  1
  O  O34  1  0.93869103  0.19100209  0.93259759  1
  O  O35  1  0.94867204  0.80933697  0.30961767  1
  O  O36  1  0.68684658  0.69229570  0.68617174  1
  O  O37  1  0.92997314  0.00185167  0.30738384  1
  O  O38  1  0.93007065  0.68527022  0.94387455  1
