# generated using pymatgen
data_Sr2Y2Cu2O7
_symmetry_space_group_name_H-M   'P 1'
_cell_length_a   12.98177616
_cell_length_b   12.98177616
_cell_length_c   12.98177616
_cell_angle_alpha   34.38324815
_cell_angle_beta   155.81228104
_cell_angle_gamma   155.93320765
_symmetry_Int_Tables_number   1
_chemical_formula_structural   Sr2Y2Cu2O7
_chemical_formula_sum   'Sr4 Y4 Cu4 O14'
_cell_volume   365.16793195
_cell_formula_units_Z   2
loop_
 _symmetry_equiv_pos_site_id
 _symmetry_equiv_pos_as_xyz
  1  'x, y, z'
loop_
 _atom_site_type_symbol
 _atom_site_label
 _atom_site_symmetry_multiplicity
 _atom_site_fract_x
 _atom_site_fract_y
 _atom_site_fract_z
 _atom_site_occupancy
  Sr  Sr0  1  0.03541105  0.88280375  0.86898898  1
  Sr  Sr1  1  0.01381478  0.16642108  0.13101102  1
  Sr  Sr2  1  0.03541105  0.66642108  0.65260630  1
  Sr  Sr3  1  0.01381478  0.38280375  0.34739370  1
  Y  Y4  1  0.02213146  0.52213146  0.50000000  1
  Y  Y5  1  0.02213146  0.02213146  -0.00000000  1
  Y  Y6  1  0.53016626  0.74300824  0.28715902  1
  Y  Y7  1  0.45584922  0.24300824  0.71284098  1
  Cu  Cu8  1  0.52538179  0.45777741  0.93273197  1
  Cu  Cu9  1  0.52504443  0.59264981  0.06726803  1
  Cu  Cu10  1  0.52538179  0.09264981  0.56760538  1
  Cu  Cu11  1  0.52504443  0.95777741  0.43239462  1
  O  O12  1  0.01606845  0.83099824  0.68507021  1
  O  O13  1  0.14592703  0.33099724  0.31492979  1
  O  O14  1  0.51462431  0.21266731  0.18705915  1
  O  O15  1  0.02560916  0.32756617  0.81294085  1
  O  O16  1  0.51462431  0.82756617  0.80195701  1
  O  O17  1  0.02560916  0.71266731  0.19804299  1
  O  O18  1  0.53316693  0.71767916  0.69259022  1
  O  O19  1  0.02508994  0.84057671  0.30740978  1
  O  O20  1  0.53316693  0.34057671  0.31548777  1
  O  O21  1  0.02508994  0.21767916  0.68451223  1
  O  O22  1  0.52656518  0.89728376  0.29812828  1
  O  O23  1  0.59915548  0.22843590  0.70187172  1
  O  O24  1  0.52656518  0.72843590  0.12928042  1
  O  O25  1  0.59915548  0.39728376  0.87071958  1
