# generated using pymatgen
data_Ti6AgS12
_symmetry_space_group_name_H-M   'P 1'
_cell_length_a   10.26051178
_cell_length_b   5.92671015
_cell_length_c   8.77077872
_cell_angle_alpha   70.16857631
_cell_angle_beta   54.06605393
_cell_angle_gamma   89.98519420
_symmetry_Int_Tables_number   1
_chemical_formula_structural   Ti6AgS12
_chemical_formula_sum   'Ti6 Ag1 S12'
_cell_volume   392.16115021
_cell_formula_units_Z   1
loop_
 _symmetry_equiv_pos_site_id
 _symmetry_equiv_pos_as_xyz
  1  'x, y, z'
loop_
 _atom_site_type_symbol
 _atom_site_label
 _atom_site_symmetry_multiplicity
 _atom_site_fract_x
 _atom_site_fract_y
 _atom_site_fract_z
 _atom_site_occupancy
  Ti  Ti0  1  0.08086905  0.74298925  0.50510209  1
  Ti  Ti1  1  0.24196757  0.24008419  0.51538214  1
  Ti  Ti2  1  0.41292715  0.74258786  0.50695230  1
  Ti  Ti3  1  0.58432137  0.25575484  0.49743552  1
  Ti  Ti4  1  0.75640436  0.75884656  0.48703988  1
  Ti  Ti5  1  0.91838395  0.25625916  0.49584004  1
  Ag  Ag6  1  0.50007584  0.49944561  0.00145354  1
  S  S7  1  0.03037680  0.69572457  0.27693582  1
  S  S8  1  0.19228912  0.18888122  0.28308896  1
  S  S9  1  0.35784310  0.68981527  0.28474386  1
  S  S10  1  0.13620065  0.80040963  0.72611658  1
  S  S11  1  0.30536793  0.30310315  0.72573423  1
  S  S12  1  0.52432398  0.18825105  0.28403937  1
  S  S13  1  0.69168844  0.69506714  0.27800281  1
  S  S14  1  0.47385236  0.80967802  0.71953963  1
  S  S15  1  0.86132294  0.19928831  0.27660845  1
  S  S16  1  0.64086615  0.30887667  0.71812787  1
  S  S17  1  0.80697679  0.81046628  0.71836198  1
  S  S18  1  0.96840746  0.30375724  0.72455893  1
