# generated using pymatgen
data_Fe3(GeO4)2
_symmetry_space_group_name_H-M   'P 1'
_cell_length_a   8.47158884
_cell_length_b   8.62723675
_cell_length_c   9.31908337
_cell_angle_alpha   117.40875299
_cell_angle_beta   90.00000000
_cell_angle_gamma   90.00000000
_symmetry_Int_Tables_number   1
_chemical_formula_structural   Fe3(GeO4)2
_chemical_formula_sum   'Fe12 Ge8 O32'
_cell_volume   604.64163933
_cell_formula_units_Z   4
loop_
 _symmetry_equiv_pos_site_id
 _symmetry_equiv_pos_as_xyz
  1  'x, y, z'
loop_
 _atom_site_type_symbol
 _atom_site_label
 _atom_site_symmetry_multiplicity
 _atom_site_fract_x
 _atom_site_fract_y
 _atom_site_fract_z
 _atom_site_occupancy
  Fe  Fe0  1  0.11655796  0.70569557  0.36309509  1
  Fe  Fe1  1  0.64070325  0.96196470  0.89011564  1
  Fe  Fe2  1  0.88513991  0.67805255  0.87294428  1
  Fe  Fe3  1  0.61655796  0.79430443  0.13690491  1
  Fe  Fe4  1  0.88344204  0.29430443  0.63690491  1
  Fe  Fe5  1  0.35929675  0.03803530  0.10988436  1
  Fe  Fe6  1  0.38513991  0.82194745  0.62705572  1
  Fe  Fe7  1  0.85929675  0.46196470  0.39011564  1
  Fe  Fe8  1  0.38344204  0.20569557  0.86309509  1
  Fe  Fe9  1  0.11486009  0.32194745  0.12705572  1
  Fe  Fe10  1  0.61486009  0.17805255  0.37294428  1
  Fe  Fe11  1  0.14070325  0.53803530  0.60988436  1
  Ge  Ge12  1  0.75165269  0.38238436  0.01171446  1
  Ge  Ge13  1  0.25165269  0.11761564  0.48828554  1
  Ge  Ge14  1  0.24834731  0.61761564  0.98828554  1
  Ge  Ge15  1  0.74834731  0.88238436  0.51171446  1
  Ge  Ge16  1  0.51971167  0.51341101  0.73339918  1
  Ge  Ge17  1  0.48028833  0.48658899  0.26660082  1
  Ge  Ge18  1  0.01971167  0.98658899  0.76660082  1
  Ge  Ge19  1  0.98028833  0.01341101  0.23339918  1
  O  O20  1  0.37809316  0.58359259  0.63544850  1
  O  O21  1  0.34910555  0.04892188  0.61491753  1
  O  O22  1  0.15089445  0.54892188  0.11491753  1
  O  O23  1  0.12190684  0.08359259  0.13544850  1
  O  O24  1  0.89126921  0.04822998  0.63983002  1
  O  O25  1  0.37292518  0.67754268  0.38471198  1
  O  O26  1  0.09723078  0.45988549  0.37285547  1
  O  O27  1  0.90276922  0.54011451  0.62714453  1
  O  O28  1  0.88070704  0.34297089  0.13987312  1
  O  O29  1  0.65089445  0.95107812  0.38508247  1
  O  O30  1  0.11929296  0.65702911  0.86012688  1
  O  O31  1  0.39126921  0.45177002  0.86016998  1
  O  O32  1  0.62707482  0.32245732  0.61528802  1
  O  O33  1  0.12707482  0.17754268  0.88471198  1
  O  O34  1  0.63126989  0.19854158  0.90151736  1
  O  O35  1  0.86873011  0.69854158  0.40151736  1
  O  O36  1  0.59723078  0.04011451  0.12714453  1
  O  O37  1  0.36873011  0.80145842  0.09848264  1
  O  O38  1  0.61929296  0.84297089  0.63987312  1
  O  O39  1  0.62190684  0.41640741  0.36455150  1
  O  O40  1  0.86035657  0.19521893  0.36815922  1
  O  O41  1  0.36035657  0.30478107  0.13184078  1
  O  O42  1  0.13126989  0.30145842  0.59848264  1
  O  O43  1  0.13964343  0.80478107  0.63184078  1
  O  O44  1  0.87809316  0.91640741  0.86455150  1
  O  O45  1  0.84910555  0.45107812  0.88508247  1
  O  O46  1  0.38070704  0.15702911  0.36012688  1
  O  O47  1  0.10873079  0.95177002  0.36016998  1
  O  O48  1  0.87292518  0.82245732  0.11528802  1
  O  O49  1  0.63964343  0.69521893  0.86815922  1
  O  O50  1  0.40276922  0.95988549  0.87285547  1
  O  O51  1  0.60873079  0.54822998  0.13983002  1
