# generated using pymatgen
data_BaGa2(SiO4)2
_symmetry_space_group_name_H-M   'P 1'
_cell_length_a   8.84834155
_cell_length_b   9.56994228
_cell_length_c   9.56994228
_cell_angle_alpha   88.89247751
_cell_angle_beta   82.26956385
_cell_angle_gamma   82.26956385
_symmetry_Int_Tables_number   1
_chemical_formula_structural   BaGa2(SiO4)2
_chemical_formula_sum   'Ba4 Ga8 Si8 O32'
_cell_volume   795.70162704
_cell_formula_units_Z   4
loop_
 _symmetry_equiv_pos_site_id
 _symmetry_equiv_pos_as_xyz
  1  'x, y, z'
loop_
 _atom_site_type_symbol
 _atom_site_label
 _atom_site_symmetry_multiplicity
 _atom_site_fract_x
 _atom_site_fract_y
 _atom_site_fract_z
 _atom_site_occupancy
  O  O0  1  0.00861198  0.67721301  0.91232818  1
  O  O1  1  0.49138802  0.58767182  0.82278699  1
  O  O2  1  0.99138802  0.32278699  0.08767182  1
  O  O3  1  0.50861198  0.41232818  0.17721301  1
  O  O4  1  0.50510523  0.18052886  0.44074624  1
  O  O5  1  0.99489477  0.05925376  0.31947114  1
  O  O6  1  0.49489477  0.81947114  0.55925376  1
  O  O7  1  0.00510523  0.94074624  0.68052886  1
  O  O8  1  0.10910819  0.54644123  0.18518401  1
  O  O9  1  0.39089181  0.31481599  0.95355877  1
  O  O10  1  0.89089181  0.45355877  0.81481599  1
  O  O11  1  0.60910819  0.68518401  0.04644123  1
  O  O12  1  0.60067061  0.08282732  0.68367179  1
  O  O13  1  0.89932939  0.81632821  0.41717268  1
  O  O14  1  0.39932939  0.91717268  0.31632821  1
  O  O15  1  0.10067061  0.18367179  0.58282732  1
  O  O16  1  0.30384857  0.75467722  0.02061089  1
  O  O17  1  0.19615143  0.47938911  0.74532278  1
  O  O18  1  0.69615143  0.24532278  0.97938911  1
  O  O19  1  0.80384857  0.52061089  0.25467722  1
  O  O20  1  0.99528136  0.13400354  0.86523232  1
  O  O21  1  0.50471864  0.63476768  0.36599646  1
  O  O22  1  0.00471864  0.86599646  0.13476768  1
  O  O23  1  0.49528136  0.36523232  0.63400354  1
  O  O24  1  0.53130059  0.85694907  0.85689163  1
  O  O25  1  0.96869941  0.64310837  0.64305093  1
  O  O26  1  0.46869941  0.14305093  0.14310837  1
  O  O27  1  0.03130059  0.35689163  0.35694907  1
  O  O28  1  0.26568226  0.02620731  0.76215691  1
  O  O29  1  0.23431774  0.73784309  0.47379269  1
  O  O30  1  0.73431774  0.97379269  0.23784309  1
  O  O31  1  0.76568226  0.26215691  0.52620731  1
  Si  Si32  1  0.47837439  0.71432947  0.93845267  1
  Si  Si33  1  0.02162561  0.56154733  0.78567053  1
  Si  Si34  1  0.52162561  0.28567053  0.06154733  1
  Si  Si35  1  0.97837439  0.43845267  0.21432947  1
  Si  Si36  1  0.90476262  0.92663499  0.28517169  1
  Si  Si37  1  0.59523738  0.21482831  0.57336501  1
  Si  Si38  1  0.09523738  0.07336501  0.71482831  1
  Si  Si39  1  0.40476262  0.78517169  0.42663499  1
  Ga  Ga40  1  0.11369580  0.69569117  0.06462532  1
  Ga  Ga41  1  0.38630420  0.43537468  0.80430883  1
  Ga  Ga42  1  0.88630420  0.30430883  0.93537468  1
  Ga  Ga43  1  0.61369580  0.56462532  0.19569117  1
  Ga  Ga44  1  0.53541554  0.04869192  0.29957654  1
  Ga  Ga45  1  0.96458446  0.20042346  0.45130808  1
  Ga  Ga46  1  0.46458446  0.95130808  0.70042346  1
  Ga  Ga47  1  0.03541554  0.79957654  0.54869192  1
  Ba  Ba48  1  0.28557837  0.43613194  0.43478158  1
  Ba  Ba49  1  0.21442163  0.06521842  0.06386806  1
  Ba  Ba50  1  0.71442163  0.56386806  0.56521842  1
  Ba  Ba51  1  0.78557837  0.93478158  0.93613194  1
