# generated using pymatgen
data_Tb(BO2)3
_symmetry_space_group_name_H-M   'P 1'
_cell_length_a   7.44562548
_cell_length_b   12.35736826
_cell_length_c   16.07657408
_cell_angle_alpha   90.00000000
_cell_angle_beta   90.00000000
_cell_angle_gamma   90.00000000
_symmetry_Int_Tables_number   1
_chemical_formula_structural   Tb(BO2)3
_chemical_formula_sum   'Tb16 B48 O96'
_cell_volume   1479.17882940
_cell_formula_units_Z   16
loop_
 _symmetry_equiv_pos_site_id
 _symmetry_equiv_pos_as_xyz
  1  'x, y, z'
loop_
 _atom_site_type_symbol
 _atom_site_label
 _atom_site_symmetry_multiplicity
 _atom_site_fract_x
 _atom_site_fract_y
 _atom_site_fract_z
 _atom_site_occupancy
  Tb  Tb0  1  0.25000000  0.41252248  0.54852953  1
  Tb  Tb1  1  0.75000000  0.23031204  0.12758555  1
  Tb  Tb2  1  0.25000000  0.76968796  0.87241445  1
  Tb  Tb3  1  0.75000000  0.58747752  0.45147047  1
  Tb  Tb4  1  0.25000000  0.49218099  0.87975139  1
  Tb  Tb5  1  0.75000000  0.56651647  0.82789226  1
  Tb  Tb6  1  0.75000000  0.50781901  0.12024861  1
  Tb  Tb7  1  0.25000000  0.73031204  0.37241445  1
  Tb  Tb8  1  0.75000000  0.99218099  0.62024861  1
  Tb  Tb9  1  0.25000000  0.43348353  0.17210774  1
  Tb  Tb10  1  0.75000000  0.93348353  0.32789226  1
  Tb  Tb11  1  0.25000000  0.06651647  0.67210774  1
  Tb  Tb12  1  0.25000000  0.00781901  0.37975139  1
  Tb  Tb13  1  0.75000000  0.91252248  0.95147047  1
  Tb  Tb14  1  0.75000000  0.26968796  0.62758555  1
  Tb  Tb15  1  0.25000000  0.08747752  0.04852953  1
  B  B16  1  0.57280160  0.34496748  0.44273150  1
  B  B17  1  0.06857446  0.12814529  0.24254462  1
  B  B18  1  0.43896891  0.17816213  0.53120076  1
  B  B19  1  0.06857446  0.37185471  0.74254462  1
  B  B20  1  0.42301454  0.48186512  0.34698416  1
  B  B21  1  0.07280160  0.84496748  0.05726850  1
  B  B22  1  0.92321969  0.14357262  0.39030792  1
  B  B23  1  0.42965259  0.68670667  0.71727831  1
  B  B24  1  0.06103109  0.32183787  0.03120076  1
  B  B25  1  0.07034741  0.68670667  0.71727831  1
  B  B26  1  0.43896891  0.32183787  0.03120076  1
  B  B27  1  0.57678031  0.14357262  0.39030792  1
  B  B28  1  0.56103109  0.67816213  0.96879924  1
  B  B29  1  0.92301454  0.98186512  0.15301584  1
  B  B30  1  0.57034741  0.18670667  0.78272169  1
  B  B31  1  0.42321969  0.64357262  0.10969208  1
  B  B32  1  0.93896891  0.67816213  0.96879924  1
  B  B33  1  0.07034741  0.81329333  0.21727831  1
  B  B34  1  0.92965259  0.18670667  0.78272169  1
  B  B35  1  0.92965259  0.31329333  0.28272169  1
  B  B36  1  0.92719840  0.34496748  0.44273150  1
  B  B37  1  0.42301454  0.01813488  0.84698416  1
  B  B38  1  0.56857446  0.87185471  0.75745538  1
  B  B39  1  0.57678031  0.35642738  0.89030792  1
  B  B40  1  0.56857446  0.62814529  0.25745538  1
  B  B41  1  0.43142554  0.37185471  0.74254462  1
  B  B42  1  0.07698546  0.01813488  0.84698416  1
  B  B43  1  0.93896891  0.82183787  0.46879924  1
  B  B44  1  0.42965259  0.81329333  0.21727831  1
  B  B45  1  0.42719840  0.65503252  0.55726850  1
  B  B46  1  0.92719840  0.15503252  0.94273150  1
  B  B47  1  0.07678031  0.85642738  0.60969208  1
  B  B48  1  0.56103109  0.82183787  0.46879924  1
  B  B49  1  0.92301454  0.51813488  0.65301584  1
  B  B50  1  0.07678031  0.64357262  0.10969208  1
  B  B51  1  0.57698546  0.98186512  0.15301584  1
  B  B52  1  0.57280160  0.15503252  0.94273150  1
  B  B53  1  0.57034741  0.31329333  0.28272169  1
  B  B54  1  0.42719840  0.84496748  0.05726850  1
  B  B55  1  0.92321969  0.35642738  0.89030792  1
  B  B56  1  0.06103109  0.17816213  0.53120076  1
  B  B57  1  0.93142554  0.87185471  0.75745538  1
  B  B58  1  0.93142554  0.62814529  0.25745538  1
  B  B59  1  0.43142554  0.12814529  0.24254462  1
  B  B60  1  0.07698546  0.48186512  0.34698416  1
  B  B61  1  0.07280160  0.65503252  0.55726850  1
  B  B62  1  0.57698546  0.51813488  0.65301584  1
  B  B63  1  0.42321969  0.85642738  0.60969208  1
  O  O64  1  0.75000000  0.80293322  0.43553362  1
  O  O65  1  0.75000000  0.35417501  0.25549947  1
  O  O66  1  0.07263389  0.76522095  0.12894917  1
  O  O67  1  0.56354295  0.93535724  0.83527581  1
  O  O68  1  0.25000000  0.19706678  0.56446638  1
  O  O69  1  0.47954740  0.79076807  0.97921103  1
  O  O70  1  0.05717921  0.06817438  0.92986050  1
  O  O71  1  0.43537445  0.37740775  0.95161806  1
  O  O72  1  0.25000000  0.89295021  0.57790584  1
  O  O73  1  0.54062695  0.37614475  0.09585630  1
  O  O74  1  0.75000000  0.39295021  0.92209416  1
  O  O75  1  0.56462555  0.62259225  0.04838194  1
  O  O76  1  0.43660592  0.39851743  0.28196876  1
  O  O77  1  0.56462555  0.87740775  0.54838194  1
  O  O78  1  0.75000000  0.03856183  0.15906676  1
  O  O79  1  0.25000000  0.96143817  0.84093324  1
  O  O80  1  0.52045260  0.29076807  0.52078897  1
  O  O81  1  0.48068920  0.73028086  0.27615850  1
  O  O82  1  0.55717921  0.93182562  0.07013950  1
  O  O83  1  0.56339408  0.89851743  0.21803124  1
  O  O84  1  0.25000000  0.36294924  0.77551446  1
  O  O85  1  0.93645705  0.56464276  0.33527581  1
  O  O86  1  0.01931080  0.73028086  0.27615850  1
  O  O87  1  0.07263389  0.73477905  0.62894917  1
  O  O88  1  0.06339408  0.10148257  0.78196876  1
  O  O89  1  0.47954740  0.70923193  0.47921103  1
  O  O90  1  0.93660592  0.89851743  0.21803124  1
  O  O91  1  0.93537445  0.62259225  0.04838194  1
  O  O92  1  0.03495028  0.57787933  0.18488287  1
  O  O93  1  0.93660592  0.60148257  0.71803124  1
  O  O94  1  0.04062695  0.87614475  0.40414370  1
  O  O95  1  0.43645705  0.06464276  0.16472419  1
  O  O96  1  0.25000000  0.60362489  0.54801766  1
  O  O97  1  0.53495028  0.07787933  0.31511713  1
  O  O98  1  0.01931080  0.76971914  0.77615850  1
  O  O99  1  0.25000000  0.53856183  0.34093324  1
  O  O100  1  0.45937305  0.62385525  0.90414370  1
  O  O101  1  0.57263389  0.23477905  0.87105083  1
  O  O102  1  0.25000000  0.30293322  0.06446638  1
  O  O103  1  0.93645705  0.93535724  0.83527581  1
  O  O104  1  0.54062695  0.12385525  0.59585630  1
  O  O105  1  0.75000000  0.86294924  0.72448554  1
  O  O106  1  0.25000000  0.89637511  0.04801766  1
  O  O107  1  0.42736611  0.76522095  0.12894917  1
  O  O108  1  0.51931080  0.23028086  0.22384150  1
  O  O109  1  0.95937305  0.12385525  0.59585630  1
  O  O110  1  0.95937305  0.37614475  0.09585630  1
  O  O111  1  0.98068920  0.26971914  0.72384150  1
  O  O112  1  0.75000000  0.69706678  0.93553362  1
  O  O113  1  0.94282079  0.93182562  0.07013950  1
  O  O114  1  0.94282079  0.56817438  0.57013950  1
  O  O115  1  0.52045260  0.20923193  0.02078897  1
  O  O116  1  0.75000000  0.10362489  0.95198234  1
  O  O117  1  0.43645705  0.43535724  0.66472419  1
  O  O118  1  0.98068920  0.23028086  0.22384150  1
  O  O119  1  0.44282079  0.43182562  0.42986050  1
  O  O120  1  0.06462555  0.12259225  0.45161806  1
  O  O121  1  0.96504972  0.42212067  0.81511713  1
  O  O122  1  0.92736611  0.26522095  0.37105083  1
  O  O123  1  0.25000000  0.13705076  0.27551446  1
  O  O124  1  0.75000000  0.63705076  0.22448554  1
  O  O125  1  0.42736611  0.73477905  0.62894917  1
  O  O126  1  0.46504972  0.57787933  0.18488287  1
  O  O127  1  0.25000000  0.64582499  0.74450053  1
  O  O128  1  0.75000000  0.46143817  0.65906676  1
  O  O129  1  0.97954740  0.29076807  0.52078897  1
  O  O130  1  0.96504972  0.07787933  0.31511713  1
  O  O131  1  0.57263389  0.26522095  0.37105083  1
  O  O132  1  0.75000000  0.39637511  0.45198234  1
  O  O133  1  0.56354295  0.56464276  0.33527581  1
  O  O134  1  0.93537445  0.87740775  0.54838194  1
  O  O135  1  0.43537445  0.12259225  0.45161806  1
  O  O136  1  0.92736611  0.23477905  0.87105083  1
  O  O137  1  0.03495028  0.92212067  0.68488287  1
  O  O138  1  0.53495028  0.42212067  0.81511713  1
  O  O139  1  0.04062695  0.62385525  0.90414370  1
  O  O140  1  0.97954740  0.20923193  0.02078897  1
  O  O141  1  0.44282079  0.06817438  0.92986050  1
  O  O142  1  0.25000000  0.60704979  0.07790584  1
  O  O143  1  0.43660592  0.10148257  0.78196876  1
  O  O144  1  0.02045260  0.70923193  0.47921103  1
  O  O145  1  0.56339408  0.60148257  0.71803124  1
  O  O146  1  0.05717921  0.43182562  0.42986050  1
  O  O147  1  0.45937305  0.87614475  0.40414370  1
  O  O148  1  0.06339408  0.39851743  0.28196876  1
  O  O149  1  0.02045260  0.79076807  0.97921103  1
  O  O150  1  0.06462555  0.37740775  0.95161806  1
  O  O151  1  0.75000000  0.10704979  0.42209416  1
  O  O152  1  0.46504972  0.92212067  0.68488287  1
  O  O153  1  0.06354295  0.06464276  0.16472419  1
  O  O154  1  0.48068920  0.76971914  0.77615850  1
  O  O155  1  0.06354295  0.43535724  0.66472419  1
  O  O156  1  0.75000000  0.14582499  0.75549947  1
  O  O157  1  0.55717921  0.56817438  0.57013950  1
  O  O158  1  0.51931080  0.26971914  0.72384150  1
  O  O159  1  0.25000000  0.85417501  0.24450053  1
