# generated using pymatgen
data_Ca2Ta2CrO8
_symmetry_space_group_name_H-M   'P 1'
_cell_length_a   5.44978070
_cell_length_b   6.53149230
_cell_length_c   9.96186101
_cell_angle_alpha   105.31237691
_cell_angle_beta   91.70278717
_cell_angle_gamma   91.80542085
_symmetry_Int_Tables_number   1
_chemical_formula_structural   Ca2Ta2CrO8
_chemical_formula_sum   'Ca4 Ta4 Cr2 O16'
_cell_volume   341.57053874
_cell_formula_units_Z   2
loop_
 _symmetry_equiv_pos_site_id
 _symmetry_equiv_pos_as_xyz
  1  'x, y, z'
loop_
 _atom_site_type_symbol
 _atom_site_label
 _atom_site_symmetry_multiplicity
 _atom_site_fract_x
 _atom_site_fract_y
 _atom_site_fract_z
 _atom_site_occupancy
  Ca  Ca0  1  0.75579037  0.45940750  0.58398863  1
  Ca  Ca1  1  0.74524731  0.87855205  0.42419874  1
  Ca  Ca2  1  0.24708836  0.54362301  0.41739639  1
  Ca  Ca3  1  0.25751608  0.12319640  0.57747995  1
  Ta  Ta4  1  0.75038709  0.27403141  0.23030593  1
  Ta  Ta5  1  0.76175223  0.01499344  0.77064830  1
  Ta  Ta6  1  0.25349108  0.72716625  0.77086967  1
  Ta  Ta7  1  0.24187514  0.98677462  0.23000632  1
  Cr  Cr8  1  0.74583444  0.65044894  0.00437304  1
  Cr  Cr9  1  0.26074073  0.34901362  0.99586061  1
  O  O10  1  0.08513167  0.22024778  0.14632261  1
  O  O11  1  0.43450939  0.01689306  0.85428273  1
  O  O12  1  0.91878662  0.78092463  0.85430069  1
  O  O13  1  0.56876246  0.98514037  0.14630022  1
  O  O14  1  0.59852469  0.42190402  0.10978542  1
  O  O15  1  0.94719779  0.24993212  0.87499898  1
  O  O16  1  0.40812916  0.57909174  0.89002320  1
  O  O17  1  0.05946407  0.75030593  0.12505986  1
  O  O18  1  0.48432174  0.26056282  0.36774005  1
  O  O19  1  0.01983505  0.87349824  0.63454045  1
  O  O20  1  0.33835785  0.85478302  0.37492270  1
  O  O21  1  0.16064166  0.46618552  0.63001285  1
  O  O22  1  0.66468043  0.14832615  0.62659568  1
  O  O23  1  0.84233528  0.53549336  0.37105848  1
  O  O24  1  0.98165105  0.12721202  0.36552832  1
  O  O25  1  0.51774426  0.74205196  0.63271518  1
