# generated using pymatgen
data_Na3Ca10Mn7V12O48
_symmetry_space_group_name_H-M   'P 1'
_cell_length_a   11.04160185
_cell_length_b   11.04037473
_cell_length_c   11.08457434
_cell_angle_alpha   109.41680539
_cell_angle_beta   109.55827186
_cell_angle_gamma   109.28444519
_symmetry_Int_Tables_number   1
_chemical_formula_structural   Na3Ca10Mn7V12O48
_chemical_formula_sum   'Na3 Ca10 Mn7 V12 O48'
_cell_volume   1042.16042285
_cell_formula_units_Z   1
loop_
 _symmetry_equiv_pos_site_id
 _symmetry_equiv_pos_as_xyz
  1  'x, y, z'
loop_
 _atom_site_type_symbol
 _atom_site_label
 _atom_site_symmetry_multiplicity
 _atom_site_fract_x
 _atom_site_fract_y
 _atom_site_fract_z
 _atom_site_occupancy
  Na  Na0  1  0.12448838  0.37506708  0.75021653  1
  Na  Na1  1  0.62275531  0.87241362  0.74456325  1
  Na  Na2  1  0.37493678  0.12685764  0.25298986  1
  Ca  Ca3  1  0.24957889  0.87055184  0.61834176  1
  Ca  Ca4  1  0.13121330  0.25462886  0.37797874  1
  Ca  Ca5  1  0.36690200  0.74380424  0.12490865  1
  Ca  Ca6  1  0.25016659  0.37634442  0.12656637  1
  Ca  Ca7  1  0.74695496  0.62526909  0.87229533  1
  Ca  Ca8  1  0.62911797  0.25017246  0.87169193  1
  Ca  Ca9  1  0.87319127  0.75245213  0.62575644  1
  Ca  Ca10  1  0.49989176  0.99884785  0.99969771  1
  Ca  Ca11  1  0.75275267  0.12685995  0.38270893  1
  Ca  Ca12  1  0.87999847  0.62521044  0.25320694  1
  Mn  Mn13  1  0.00456446  0.50266934  0.50157786  1
  Mn  Mn14  1  0.00343290  0.49927670  0.00084070  1
  Mn  Mn15  1  0.49861207  0.99651963  0.50036642  1
  Mn  Mn16  1  -0.00005434  0.00049230  0.99958735  1
  Mn  Mn17  1  0.49622885  0.50044005  0.49833389  1
  Mn  Mn18  1  0.49708641  0.49926150  0.99708619  1
  Mn  Mn19  1  0.00102549  0.00287857  0.50286230  1
  V  V20  1  0.11918193  0.74688868  0.87433907  1
  V  V21  1  0.12583006  0.87616371  0.24978328  1
  V  V22  1  0.37313566  0.62029734  0.74584010  1
  V  V23  1  0.24710735  0.12596854  0.87091570  1
  V  V24  1  0.24913731  0.62437935  0.37339325  1
  V  V25  1  0.37652503  0.25083190  0.62674192  1
  V  V26  1  0.62509622  0.74937035  0.37299801  1
  V  V27  1  0.75407689  0.87362898  0.13055840  1
  V  V28  1  0.62646512  0.37853585  0.25399832  1
  V  V29  1  0.74988095  0.37544966  0.62592453  1
  V  V30  1  0.87440240  0.12409926  0.74944824  1
  V  V31  1  0.88087141  0.25540699  0.12727261  1
  O  O32  1  0.10120178  0.98185234  0.69179609  1
  O  O33  1  0.11451031  0.60280844  0.90690853  1
  O  O34  1  0.01199963  0.29946376  0.89774017  1
  O  O35  1  0.08786157  0.71198359  0.69634345  1
  O  O36  1  0.09026944  0.88037647  0.39502285  1
  O  O37  1  0.09888182  0.62510921  0.41280524  1
  O  O38  1  0.19577709  0.47868696  0.59836871  1
  O  O39  1  0.39602356  0.79342874  0.77526251  1
  O  O40  1  0.28956111  0.30597688  0.91061307  1
  O  O41  1  0.38546494  0.59872585  0.89884522  1
  O  O42  1  0.30253376  0.90430733  0.28842515  1
  O  O43  1  0.02049236  0.21326879  0.12294298  1
  O  O44  1  0.19599751  0.20635237  0.58817131  1
  O  O45  1  0.21203964  0.58389671  0.18497996  1
  O  O46  1  0.39209433  0.81099290  0.51638187  1
  O  O47  1  0.29498414  0.88876581  0.01578712  1
  O  O48  1  0.28729726  0.47415987  0.37254711  1
  O  O49  1  0.11508696  0.01481138  0.21106011  1
  O  O50  1  0.51646818  0.61294285  0.71252347  1
  O  O51  1  0.39396107  0.09589186  0.87191650  1
  O  O52  1  0.51811205  0.39510992  0.80776959  1
  O  O53  1  0.38184469  0.29181073  0.48900542  1
  O  O54  1  0.41099694  0.10543734  0.62027656  1
  O  O55  1  0.79162568  0.88101964  0.99176074  1
  O  O56  1  0.20808061  0.11802330  0.00911481  1
  O  O57  1  0.58946823  0.89469487  0.37861510  1
  O  O58  1  0.62128344  0.70825832  0.51110110  1
  O  O59  1  0.48520917  0.60531150  0.19373641  1
  O  O60  1  0.60878947  0.90538204  0.13063557  1
  O  O61  1  0.48584297  0.38720035  0.28831845  1
  O  O62  1  0.88409897  0.98393767  0.78812911  1
  O  O63  1  0.70980827  0.51633079  0.61979793  1
  O  O64  1  0.70620377  0.11286919  0.98550748  1
  O  O65  1  0.60851861  0.19578388  0.49095140  1
  O  O66  1  0.78919173  0.41267799  0.80706848  1
  O  O67  1  0.80553065  0.78918831  0.40788401  1
  O  O68  1  0.97588731  0.78564506  0.87653957  1
  O  O69  1  0.69776908  0.09807170  0.71181570  1
  O  O70  1  0.62147707  0.40884087  0.10587900  1
  O  O71  1  0.71518151  0.69313557  0.09303840  1
  O  O72  1  0.60364760  0.20563306  0.22575438  1
  O  O73  1  0.80547546  0.52216112  0.39893872  1
  O  O74  1  0.89179249  0.38097401  0.58718082  1
  O  O75  1  0.90225362  0.11474873  0.59951197  1
  O  O76  1  0.90971732  0.28735802  0.30371888  1
  O  O77  1  0.98430711  0.69669505  0.10468759  1
  O  O78  1  0.88179169  0.40091521  0.09384972  1
  O  O79  1  0.89903350  0.01794530  0.30818104  1
