# generated using pymatgen
data_Tm2TiO5
_symmetry_space_group_name_H-M   'P 1'
_cell_length_a   10.36467824
_cell_length_b   11.18992356
_cell_length_c   3.65200176
_cell_angle_alpha   90.00000000
_cell_angle_beta   90.00000000
_cell_angle_gamma   90.00000000
_symmetry_Int_Tables_number   1
_chemical_formula_structural   Tm2TiO5
_chemical_formula_sum   'Tm8 Ti4 O20'
_cell_volume   423.55900793
_cell_formula_units_Z   4
loop_
 _symmetry_equiv_pos_site_id
 _symmetry_equiv_pos_as_xyz
  1  'x, y, z'
loop_
 _atom_site_type_symbol
 _atom_site_label
 _atom_site_symmetry_multiplicity
 _atom_site_fract_x
 _atom_site_fract_y
 _atom_site_fract_z
 _atom_site_occupancy
  Tm  Tm0  1  0.11492319  0.72406430  0.25000000  1
  Tm  Tm1  1  0.13467214  0.05695475  0.25000000  1
  Tm  Tm2  1  0.36532786  0.55695475  0.75000000  1
  Tm  Tm3  1  0.38507681  0.22406430  0.75000000  1
  Tm  Tm4  1  0.61492319  0.77593570  0.25000000  1
  Tm  Tm5  1  0.63467214  0.44304525  0.25000000  1
  Tm  Tm6  1  0.86532786  0.94304525  0.75000000  1
  Tm  Tm7  1  0.88507681  0.27593570  0.75000000  1
  Ti  Ti8  1  0.17603807  0.38052028  0.25000000  1
  Ti  Ti9  1  0.32396193  0.88052028  0.75000000  1
  Ti  Ti10  1  0.67603807  0.11947972  0.25000000  1
  Ti  Ti11  1  0.82396193  0.61947972  0.75000000  1
  O  O12  1  0.00779512  0.10440776  0.75000000  1
  O  O13  1  0.00803509  0.34211905  0.25000000  1
  O  O14  1  0.22532931  0.54477243  0.25000000  1
  O  O15  1  0.24411803  0.38373561  0.75000000  1
  O  O16  1  0.24123837  0.72741191  0.75000000  1
  O  O17  1  0.25876163  0.22741191  0.25000000  1
  O  O18  1  0.25588197  0.88373561  0.25000000  1
  O  O19  1  0.27467069  0.04477243  0.75000000  1
  O  O20  1  0.49196491  0.84211905  0.75000000  1
  O  O21  1  0.49220488  0.60440776  0.25000000  1
  O  O22  1  0.50779512  0.39559224  0.75000000  1
  O  O23  1  0.50803509  0.15788095  0.25000000  1
  O  O24  1  0.72532931  0.95522757  0.25000000  1
  O  O25  1  0.74411803  0.11626439  0.75000000  1
  O  O26  1  0.74123837  0.77258809  0.75000000  1
  O  O27  1  0.75876163  0.27258809  0.25000000  1
  O  O28  1  0.75588197  0.61626439  0.25000000  1
  O  O29  1  0.77467069  0.45522757  0.75000000  1
  O  O30  1  0.99196491  0.65788095  0.75000000  1
  O  O31  1  0.99220488  0.89559224  0.25000000  1
