# generated using pymatgen
data_Co7(SbO6)2
_symmetry_space_group_name_H-M   'P 1'
_cell_length_a   6.15798783
_cell_length_b   18.43167701
_cell_length_c   16.13932082
_cell_angle_alpha   19.07623403
_cell_angle_beta   55.91912176
_cell_angle_gamma   60.46953246
_symmetry_Int_Tables_number   1
_chemical_formula_structural   Co7(SbO6)2
_chemical_formula_sum   'Co14 Sb4 O24'
_cell_volume   491.28787814
_cell_formula_units_Z   2
loop_
 _symmetry_equiv_pos_site_id
 _symmetry_equiv_pos_as_xyz
  1  'x, y, z'
loop_
 _atom_site_type_symbol
 _atom_site_label
 _atom_site_symmetry_multiplicity
 _atom_site_fract_x
 _atom_site_fract_y
 _atom_site_fract_z
 _atom_site_occupancy
  Co  Co0  1  0.02528329  0.00888510  0.98693778  1
  Co  Co1  1  0.00010927  0.34956727  0.98852499  1
  Co  Co2  1  0.25006543  0.23160345  0.26422301  1
  Co  Co3  1  0.01599771  0.68144267  0.98549780  1
  Co  Co4  1  0.60464942  0.11489064  0.14139402  1
  Co  Co5  1  0.22284916  0.57322065  0.26486308  1
  Co  Co6  1  0.64525858  0.46673498  0.11108346  1
  Co  Co7  1  0.62222559  0.13220330  0.62406966  1
  Co  Co8  1  0.62415672  0.29071884  0.62624843  1
  Co  Co9  1  0.23394488  0.90042264  0.26648701  1
  Co  Co10  1  0.62431345  0.79081700  0.12605168  1
  Co  Co11  1  0.62653350  0.44973532  0.62799739  1
  Co  Co12  1  0.12525439  0.79046338  0.62662326  1
  Co  Co13  1  0.62549207  0.79046449  0.62649297  1
  Sb  Sb14  1  0.12306953  0.13417092  0.61846594  1
  Sb  Sb15  1  0.12602602  0.44768809  0.63349735  1
  Sb  Sb16  1  0.60980885  0.62145803  0.63118611  1
  Sb  Sb17  1  0.64013330  0.96039022  0.62090647  1
  O  O18  1  0.38004970  0.01376834  0.39806554  1
  O  O19  1  0.38454350  0.19578354  0.39627022  1
  O  O20  1  0.37605676  0.35647502  0.38716008  1
  O  O21  1  0.85798157  0.03485226  0.39266611  1
  O  O22  1  0.84420866  0.19520539  0.39525348  1
  O  O23  1  0.41127965  0.04664180  0.86516361  1
  O  O24  1  0.35869532  0.53752239  0.38998097  1
  O  O25  1  0.35893664  0.67202790  0.40938271  1
  O  O26  1  0.35448892  0.22056267  0.86455082  1
  O  O27  1  0.89457183  0.36132208  0.38740667  1
  O  O28  1  0.88970784  0.04408416  0.86227082  1
  O  O29  1  0.83693934  0.53494383  0.38719676  1
  O  O30  1  0.40559714  0.38639666  0.85717683  1
  O  O31  1  0.39045032  0.85772141  0.39109561  1
  O  O32  1  0.39293560  0.54629922  0.86009245  1
  O  O33  1  0.87262710  0.22542576  0.86495568  1
  O  O34  1  0.86901866  0.68177006  0.41034187  1
  O  O35  1  0.86539104  0.38600785  0.85578517  1
  O  O36  1  0.83464556  0.85457312  0.39791523  1
  O  O37  1  0.41539838  0.72707833  0.85438189  1
  O  O38  1  0.38000820  0.90022854  0.84160530  1
  O  O39  1  0.87061318  0.56716932  0.85507521  1
  O  O40  1  0.85927860  0.72394822  0.86128746  1
  O  O41  1  0.89020035  0.90985112  0.84254010  1
