# generated using pymatgen
data_YTa3O9
_symmetry_space_group_name_H-M   'P 1'
_cell_length_a   5.31756726
_cell_length_b   7.54442321
_cell_length_c   8.31815903
_cell_angle_alpha   90.00000000
_cell_angle_beta   92.62064602
_cell_angle_gamma   90.00000000
_symmetry_Int_Tables_number   1
_chemical_formula_structural   YTa3O9
_chemical_formula_sum   'Y2 Ta6 O18'
_cell_volume   333.35871440
_cell_formula_units_Z   2
loop_
 _symmetry_equiv_pos_site_id
 _symmetry_equiv_pos_as_xyz
  1  'x, y, z'
loop_
 _atom_site_type_symbol
 _atom_site_label
 _atom_site_symmetry_multiplicity
 _atom_site_fract_x
 _atom_site_fract_y
 _atom_site_fract_z
 _atom_site_occupancy
  Y  Y0  1  0.03681843  0.75000000  0.43534435  1
  Y  Y1  1  0.96318157  0.25000000  0.56465565  1
  Ta  Ta2  1  0.00000000  0.00000000  0.00000000  1
  Ta  Ta3  1  0.00000000  0.50000000  0.00000000  1
  Ta  Ta4  1  0.46983383  0.50607315  0.69548516  1
  Ta  Ta5  1  0.46983383  0.99392685  0.69548516  1
  Ta  Ta6  1  0.53016617  0.00607315  0.30451484  1
  Ta  Ta7  1  0.53016617  0.49392685  0.30451484  1
  O  O8  1  0.09068148  0.75000000  0.97875489  1
  O  O9  1  0.14904529  0.06367343  0.78488130  1
  O  O10  1  0.14904529  0.43632657  0.78488130  1
  O  O11  1  0.25768195  0.04134008  0.46800100  1
  O  O12  1  0.25768195  0.45865992  0.46800100  1
  O  O13  1  0.34059910  0.75000000  0.65611719  1
  O  O14  1  0.32455552  0.05025553  0.12147472  1
  O  O15  1  0.32455552  0.44974447  0.12147472  1
  O  O16  1  0.42320001  0.75000000  0.31569496  1
  O  O17  1  0.57679999  0.25000000  0.68430504  1
  O  O18  1  0.67544448  0.94974447  0.87852528  1
  O  O19  1  0.67544448  0.55025553  0.87852528  1
  O  O20  1  0.65940090  0.25000000  0.34388281  1
  O  O21  1  0.74231805  0.95865992  0.53199900  1
  O  O22  1  0.74231805  0.54134008  0.53199900  1
  O  O23  1  0.85095471  0.93632657  0.21511870  1
  O  O24  1  0.85095471  0.56367343  0.21511870  1
  O  O25  1  0.90931852  0.25000000  0.02124511  1
