# generated using pymatgen
data_Rb3CoNCl4O3
_symmetry_space_group_name_H-M   'P 1'
_cell_length_a   9.61565867
_cell_length_b   10.27788413
_cell_length_c   12.79562760
_cell_angle_alpha   90.00000000
_cell_angle_beta   90.00000000
_cell_angle_gamma   90.00000000
_symmetry_Int_Tables_number   1
_chemical_formula_structural   Rb3CoNCl4O3
_chemical_formula_sum   'Rb12 Co4 N4 Cl16 O12'
_cell_volume   1264.57428996
_cell_formula_units_Z   4
loop_
 _symmetry_equiv_pos_site_id
 _symmetry_equiv_pos_as_xyz
  1  'x, y, z'
loop_
 _atom_site_type_symbol
 _atom_site_label
 _atom_site_symmetry_multiplicity
 _atom_site_fract_x
 _atom_site_fract_y
 _atom_site_fract_z
 _atom_site_occupancy
  Rb  Rb0  1  0.88186116  0.50479606  0.68083079  1
  Rb  Rb1  1  0.38186116  0.99520394  0.81916921  1
  Rb  Rb2  1  0.91514062  0.25000000  0.96679205  1
  Rb  Rb3  1  0.88186116  0.99520394  0.68083079  1
  Rb  Rb4  1  0.61813884  0.49520394  0.18083079  1
  Rb  Rb5  1  0.11813884  0.49520394  0.31916921  1
  Rb  Rb6  1  0.08485938  0.75000000  0.03320795  1
  Rb  Rb7  1  0.61813884  0.00479606  0.18083079  1
  Rb  Rb8  1  0.58485938  0.75000000  0.46679205  1
  Rb  Rb9  1  0.41514062  0.25000000  0.53320795  1
  Rb  Rb10  1  0.11813884  0.00479606  0.31916921  1
  Rb  Rb11  1  0.38186116  0.50479606  0.81916921  1
  Co  Co12  1  0.67951068  0.75000000  0.90846281  1
  Co  Co13  1  0.17951068  0.75000000  0.59153719  1
  Co  Co14  1  0.82048932  0.25000000  0.40846281  1
  Co  Co15  1  0.32048932  0.25000000  0.09153719  1
  N  N16  1  0.65943558  0.25000000  0.72550193  1
  N  N17  1  0.84056442  0.75000000  0.22550193  1
  N  N18  1  0.15943558  0.25000000  0.77449807  1
  N  N19  1  0.34056442  0.75000000  0.27449807  1
  Cl  Cl20  1  0.19835963  0.43421316  0.05427604  1
  Cl  Cl21  1  0.87344170  0.25000000  0.23307355  1
  Cl  Cl22  1  0.80164037  0.56578684  0.94572396  1
  Cl  Cl23  1  0.30164037  0.93421316  0.55427604  1
  Cl  Cl24  1  0.30164037  0.56578684  0.55427604  1
  Cl  Cl25  1  0.69835963  0.43421316  0.44572396  1
  Cl  Cl26  1  0.19835963  0.06578684  0.05427604  1
  Cl  Cl27  1  0.52507762  0.25000000  0.99945207  1
  Cl  Cl28  1  0.80164037  0.93421316  0.94572396  1
  Cl  Cl29  1  0.69835963  0.06578684  0.44572396  1
  Cl  Cl30  1  0.47492238  0.75000000  0.00054793  1
  Cl  Cl31  1  0.37344170  0.25000000  0.26692645  1
  Cl  Cl32  1  0.02507762  0.25000000  0.50054793  1
  Cl  Cl33  1  0.97492238  0.75000000  0.49945207  1
  Cl  Cl34  1  0.62655830  0.75000000  0.73307355  1
  Cl  Cl35  1  0.12655830  0.75000000  0.76692645  1
  O  O36  1  0.59900534  0.14285443  0.70675296  1
  O  O37  1  0.59900534  0.35714557  0.70675296  1
  O  O38  1  0.90099466  0.64285443  0.20675296  1
  O  O39  1  0.28329579  0.25000000  0.73960333  1
  O  O40  1  0.71670421  0.75000000  0.26039667  1
  O  O41  1  0.09900534  0.14285443  0.79324704  1
  O  O42  1  0.21670421  0.75000000  0.23960333  1
  O  O43  1  0.78329579  0.25000000  0.76039667  1
  O  O44  1  0.40099466  0.64285443  0.29324704  1
  O  O45  1  0.90099466  0.85714557  0.20675296  1
  O  O46  1  0.40099466  0.85714557  0.29324704  1
  O  O47  1  0.09900534  0.35714557  0.79324704  1
