# generated using pymatgen
data_VP(H2O3)2
_symmetry_space_group_name_H-M   'P 1'
_cell_length_a   5.33993038
_cell_length_b   9.98106731
_cell_length_c   8.83480920
_cell_angle_alpha   89.99999234
_cell_angle_beta   91.60168324
_cell_angle_gamma   89.99999992
_symmetry_Int_Tables_number   1
_chemical_formula_structural   VP(H2O3)2
_chemical_formula_sum   'V4 P4 H16 O24'
_cell_volume   470.69549275
_cell_formula_units_Z   4
loop_
 _symmetry_equiv_pos_site_id
 _symmetry_equiv_pos_as_xyz
  1  'x, y, z'
loop_
 _atom_site_type_symbol
 _atom_site_label
 _atom_site_symmetry_multiplicity
 _atom_site_fract_x
 _atom_site_fract_y
 _atom_site_fract_z
 _atom_site_occupancy
  V  V0  1  0.09215816  0.82344829  0.19735063  1
  V  V1  1  0.59216465  0.67655461  0.69735924  1
  V  V2  1  0.90784184  0.17655171  0.80264937  1
  V  V3  1  0.40783535  0.32344539  0.30264076  1
  P  P4  1  0.59091099  0.64381411  0.31991578  1
  P  P5  1  0.09091093  0.85618589  0.81991580  1
  P  P6  1  0.40908901  0.35618589  0.68008422  1
  P  P7  1  0.90908907  0.14381411  0.18008420  1
  H  H8  1  0.34143451  0.03890207  0.22440072  1
  H  H9  1  0.84143444  0.46109793  0.72440073  1
  H  H10  1  0.65856549  0.96109793  0.77559928  1
  H  H11  1  0.15856556  0.53890207  0.27559927  1
  H  H12  1  0.57172524  0.94342222  0.16862915  1
  H  H13  1  0.07172534  0.55657779  0.66862919  1
  H  H14  1  0.42827476  0.05657778  0.83137085  1
  H  H15  1  0.92827466  0.44342221  0.33137081  1
  H  H16  1  0.21016185  0.84212668  0.50062410  1
  H  H17  1  0.71016176  0.65787333  0.00062411  1
  H  H18  1  0.78983815  0.15787332  0.49937590  1
  H  H19  1  0.28983824  0.34212667  0.99937589  1
  H  H20  1  0.91536397  0.83544052  0.47563554  1
  H  H21  1  0.41536407  0.66455946  0.97563554  1
  H  H22  1  0.08463603  0.16455948  0.52436446  1
  H  H23  1  0.58463593  0.33544054  0.02436446  1
  O  O24  1  0.32764878  0.66554731  0.24169322  1
  O  O25  1  0.82764885  0.83445261  0.74169350  1
  O  O26  1  0.67235122  0.33445269  0.75830678  1
  O  O27  1  0.17235115  0.16554739  0.25830650  1
  O  O28  1  0.61148616  0.71929219  0.47256715  1
  O  O29  1  0.11148604  0.78070786  0.97256702  1
  O  O30  1  0.38851384  0.28070781  0.52743285  1
  O  O31  1  0.88851396  0.21929214  0.02743298  1
  O  O32  1  0.79382959  0.69747864  0.21340631  1
  O  O33  1  0.29382970  0.80252119  0.71340649  1
  O  O34  1  0.20617041  0.30252136  0.78659369  1
  O  O35  1  0.70617030  0.19747881  0.28659351  1
  O  O36  1  0.62765502  0.48997216  0.34222251  1
  O  O37  1  0.12765488  0.01002781  0.84222241  1
  O  O38  1  0.37234498  0.51002784  0.65777749  1
  O  O39  1  0.87234512  0.98997219  0.15777759  1
  O  O40  1  0.39017063  0.94563290  0.19292500  1
  O  O41  1  0.89017035  0.55436727  0.69292511  1
  O  O42  1  0.60982937  0.05436710  0.80707500  1
  O  O43  1  0.10982965  0.44563273  0.30707489  1
  O  O44  1  0.07279496  0.86208310  0.42740261  1
  O  O45  1  0.57279515  0.63791689  0.92740247  1
  O  O46  1  0.92720504  0.13791690  0.57259739  1
  O  O47  1  0.42720485  0.36208311  0.07259753  1
