# generated using pymatgen
data_FeAg(SeO3)2
_symmetry_space_group_name_H-M   'P 1'
_cell_length_a   5.36774916
_cell_length_b   7.77060250
_cell_length_c   14.16388405
_cell_angle_alpha   90.00000000
_cell_angle_beta   90.00000000
_cell_angle_gamma   90.00000000
_symmetry_Int_Tables_number   1
_chemical_formula_structural   FeAg(SeO3)2
_chemical_formula_sum   'Fe4 Ag4 Se8 O24'
_cell_volume   590.78474003
_cell_formula_units_Z   4
loop_
 _symmetry_equiv_pos_site_id
 _symmetry_equiv_pos_as_xyz
  1  'x, y, z'
loop_
 _atom_site_type_symbol
 _atom_site_label
 _atom_site_symmetry_multiplicity
 _atom_site_fract_x
 _atom_site_fract_y
 _atom_site_fract_z
 _atom_site_occupancy
  Fe  Fe0  1  0.28987458  0.69459011  0.12607548  1
  Fe  Fe1  1  0.78987458  0.19459011  0.37392452  1
  Fe  Fe2  1  0.21012542  0.69459011  0.62607548  1
  Fe  Fe3  1  0.71012542  0.19459011  0.87392452  1
  Ag  Ag4  1  0.86768416  0.18365987  0.62112383  1
  Ag  Ag5  1  0.63231584  0.18365987  0.12112383  1
  Ag  Ag6  1  0.36768416  0.68365987  0.87887617  1
  Ag  Ag7  1  0.13231584  0.68365987  0.37887617  1
  Se  Se8  1  0.30245108  0.01254712  0.47275407  1
  Se  Se9  1  0.27107568  0.37396610  0.27812584  1
  Se  Se10  1  0.80245108  0.51254712  0.02724593  1
  Se  Se11  1  0.22892432  0.37396610  0.77812584  1
  Se  Se12  1  0.19754892  0.01254712  0.97275407  1
  Se  Se13  1  0.72892432  0.87396610  0.72187416  1
  Se  Se14  1  0.77107568  0.87396610  0.22187416  1
  Se  Se15  1  0.69754892  0.51254712  0.52724593  1
  O  O16  1  0.58812096  0.68072269  0.03657364  1
  O  O17  1  0.74400389  0.44986585  0.91228715  1
  O  O18  1  0.51247712  0.70502720  0.71445943  1
  O  O19  1  0.01247712  0.20502720  0.78554057  1
  O  O20  1  0.57780671  0.12768835  0.48803904  1
  O  O21  1  0.49677646  0.76286702  0.23857324  1
  O  O22  1  0.91187904  0.68072269  0.53657364  1
  O  O23  1  0.00322354  0.76286702  0.73857324  1
  O  O24  1  0.48752288  0.20502720  0.28554057  1
  O  O25  1  0.33118242  0.43946569  0.16369760  1
  O  O26  1  0.42219329  0.62768835  0.51196096  1
  O  O27  1  0.24400389  0.94986585  0.58771285  1
  O  O28  1  0.99677646  0.26286702  0.26142676  1
  O  O29  1  0.66881758  0.93946569  0.83630240  1
  O  O30  1  0.98752288  0.70502720  0.21445943  1
  O  O31  1  0.75599611  0.44986585  0.41228715  1
  O  O32  1  0.08812096  0.18072269  0.46342636  1
  O  O33  1  0.07780671  0.62768835  0.01196096  1
  O  O34  1  0.83118242  0.93946569  0.33630240  1
  O  O35  1  0.41187904  0.18072269  0.96342636  1
  O  O36  1  0.92219329  0.12768835  0.98803904  1
  O  O37  1  0.16881758  0.43946569  0.66369760  1
  O  O38  1  0.50322354  0.26286702  0.76142676  1
  O  O39  1  0.25599611  0.94986585  0.08771285  1
