# generated using pymatgen
data_Na2B3HO6
_symmetry_space_group_name_H-M   'P 1'
_cell_length_a   8.77616262
_cell_length_b   12.01714904
_cell_length_c   9.53377077
_cell_angle_alpha   90.00000000
_cell_angle_beta   95.96429410
_cell_angle_gamma   90.00000000
_symmetry_Int_Tables_number   1
_chemical_formula_structural   Na2B3HO6
_chemical_formula_sum   'Na16 B24 H8 O48'
_cell_volume   1000.03114243
_cell_formula_units_Z   8
loop_
 _symmetry_equiv_pos_site_id
 _symmetry_equiv_pos_as_xyz
  1  'x, y, z'
loop_
 _atom_site_type_symbol
 _atom_site_label
 _atom_site_symmetry_multiplicity
 _atom_site_fract_x
 _atom_site_fract_y
 _atom_site_fract_z
 _atom_site_occupancy
  Na  Na0  1  0.58955087  0.34342519  0.93050865  1
  Na  Na1  1  0.41044913  0.84342519  0.56949135  1
  Na  Na2  1  0.41044913  0.65657481  0.06949135  1
  Na  Na3  1  0.58955087  0.15657481  0.43050865  1
  Na  Na4  1  0.08806395  0.11772209  0.94212070  1
  Na  Na5  1  0.91193605  0.61772209  0.55787930  1
  Na  Na6  1  0.91193605  0.88227791  0.05787930  1
  Na  Na7  1  0.08806395  0.38227791  0.44212070  1
  Na  Na8  1  0.43293985  0.13490601  0.06703904  1
  Na  Na9  1  0.56706015  0.63490601  0.43296096  1
  Na  Na10  1  0.56706015  0.86509399  0.93296096  1
  Na  Na11  1  0.43293985  0.36509399  0.56703904  1
  Na  Na12  1  0.97523446  0.35161647  0.96359927  1
  Na  Na13  1  0.02476554  0.85161647  0.53640073  1
  Na  Na14  1  0.02476554  0.64838353  0.03640073  1
  Na  Na15  1  0.97523446  0.14838353  0.46359927  1
  B  B16  1  0.68700534  0.01368121  0.20666310  1
  B  B17  1  0.31299466  0.51368121  0.29333690  1
  B  B18  1  0.31299466  0.98631879  0.79333690  1
  B  B19  1  0.68700534  0.48631879  0.70666310  1
  B  B20  1  0.85483813  0.18014748  0.18165937  1
  B  B21  1  0.14516187  0.68014748  0.31834063  1
  B  B22  1  0.14516187  0.81985252  0.81834063  1
  B  B23  1  0.85483813  0.31985252  0.68165937  1
  B  B24  1  0.73584697  0.09350505  0.95669623  1
  B  B25  1  0.26415303  0.59350505  0.54330377  1
  B  B26  1  0.26415303  0.90649495  0.04330377  1
  B  B27  1  0.73584697  0.40649495  0.45669623  1
  B  B28  1  0.81662019  0.04309331  0.71948826  1
  B  B29  1  0.18337981  0.54309331  0.78051174  1
  B  B30  1  0.18337981  0.95690669  0.28051174  1
  B  B31  1  0.81662019  0.45690669  0.21948826  1
  B  B32  1  0.54721823  0.09259167  0.73624130  1
  B  B33  1  0.45278177  0.59259167  0.76375870  1
  B  B34  1  0.45278177  0.90740833  0.26375870  1
  B  B35  1  0.54721823  0.40740833  0.23624130  1
  B  B36  1  0.28583965  0.16771299  0.65121743  1
  B  B37  1  0.71416035  0.66771299  0.84878257  1
  B  B38  1  0.71416035  0.83228701  0.34878257  1
  B  B39  1  0.28583965  0.33228701  0.15121743  1
  H  H40  1  0.06488942  0.24676491  0.18470497  1
  H  H41  1  0.93511058  0.74676491  0.31529503  1
  H  H42  1  0.93511058  0.75323509  0.81529503  1
  H  H43  1  0.06488942  0.25323509  0.68470497  1
  H  H44  1  0.03901111  0.02846076  0.68279118  1
  H  H45  1  0.96098889  0.52846076  0.81720882  1
  H  H46  1  0.96098889  0.97153924  0.31720882  1
  H  H47  1  0.03901111  0.47153924  0.18279118  1
  O  O48  1  0.77724078  0.91723888  0.27156721  1
  O  O49  1  0.22275922  0.41723888  0.22843279  1
  O  O50  1  0.22275922  0.08276112  0.72843279  1
  O  O51  1  0.77724078  0.58276112  0.77156721  1
  O  O52  1  0.53295304  0.01457626  0.25019872  1
  O  O53  1  0.46704696  0.51457626  0.24980128  1
  O  O54  1  0.46704696  0.98542374  0.74980128  1
  O  O55  1  0.53295304  0.48542374  0.75019872  1
  O  O56  1  0.76894961  0.11748187  0.26499441  1
  O  O57  1  0.23105039  0.61748187  0.23500559  1
  O  O58  1  0.23105039  0.88251813  0.73500559  1
  O  O59  1  0.76894961  0.38251813  0.76499441  1
  O  O60  1  0.69449373  0.00762123  0.05444145  1
  O  O61  1  0.30550627  0.50762123  0.44555855  1
  O  O62  1  0.30550627  0.99237877  0.94555855  1
  O  O63  1  0.69449373  0.49237877  0.55444145  1
  O  O64  1  0.97784432  0.23892661  0.24913029  1
  O  O65  1  0.02215568  0.73892661  0.25086971  1
  O  O66  1  0.02215568  0.76107339  0.75086971  1
  O  O67  1  0.97784432  0.26107339  0.74913029  1
  O  O68  1  0.83033981  0.18297249  0.03683712  1
  O  O69  1  0.16966019  0.68297249  0.46316288  1
  O  O70  1  0.16966019  0.81702751  0.96316288  1
  O  O71  1  0.83033981  0.31702751  0.53683712  1
  O  O72  1  0.60443265  0.14398955  0.87337258  1
  O  O73  1  0.39556735  0.64398955  0.62662742  1
  O  O74  1  0.39556735  0.85601045  0.12662742  1
  O  O75  1  0.60443265  0.35601045  0.37337258  1
  O  O76  1  0.84467227  0.03867554  0.86375612  1
  O  O77  1  0.15532773  0.53867554  0.63624388  1
  O  O78  1  0.15532773  0.96132446  0.13624388  1
  O  O79  1  0.84467227  0.46132446  0.36375612  1
  O  O80  1  0.93355549  0.01706383  0.63564702  1
  O  O81  1  0.06644451  0.51706383  0.86435298  1
  O  O82  1  0.06644451  0.98293617  0.36435298  1
  O  O83  1  0.93355549  0.48293617  0.13564702  1
  O  O84  1  0.67824902  0.07144865  0.65069597  1
  O  O85  1  0.32175098  0.57144865  0.84930403  1
  O  O86  1  0.32175098  0.92855135  0.34930403  1
  O  O87  1  0.67824902  0.42855135  0.15069597  1
  O  O88  1  0.44499954  0.17357162  0.65159302  1
  O  O89  1  0.55500046  0.67357162  0.84840698  1
  O  O90  1  0.55500046  0.82642838  0.34840698  1
  O  O91  1  0.44499954  0.32642838  0.15159302  1
  O  O92  1  0.19366740  0.24467085  0.58319756  1
  O  O93  1  0.80633260  0.74467085  0.91680244  1
  O  O94  1  0.80633260  0.75532915  0.41680244  1
  O  O95  1  0.19366740  0.25532915  0.08319756  1
