# generated using pymatgen
data_Ba(NaSi2)2
_symmetry_space_group_name_H-M   'P 1'
_cell_length_a   11.09020960
_cell_length_b   11.09020960
_cell_length_c   11.09020960
_cell_angle_alpha   128.85616433
_cell_angle_beta   70.89368482
_cell_angle_gamma   134.42336101
_symmetry_Int_Tables_number   1
_chemical_formula_structural   Ba(NaSi2)2
_chemical_formula_sum   'Ba4 Na8 Si16'
_cell_volume   743.11546035
_cell_formula_units_Z   4
loop_
 _symmetry_equiv_pos_site_id
 _symmetry_equiv_pos_as_xyz
  1  'x, y, z'
loop_
 _atom_site_type_symbol
 _atom_site_label
 _atom_site_symmetry_multiplicity
 _atom_site_fract_x
 _atom_site_fract_y
 _atom_site_fract_z
 _atom_site_occupancy
  Ba  Ba0  1  0.99979307  0.99979307  0.00000000  1
  Ba  Ba1  1  0.16396886  0.58053131  0.08343755  1
  Ba  Ba2  1  0.49709377  0.08053131  0.91656245  1
  Ba  Ba3  1  0.99979307  0.49979307  0.50000000  1
  Na  Na4  1  0.50321445  0.00321445  0.50000000  1
  Na  Na5  1  0.50321445  0.50321445  0.00000000  1
  Na  Na6  1  0.22828862  0.03464177  0.25878510  1
  Na  Na7  1  0.77585667  0.53464177  0.30635316  1
  Na  Na8  1  0.80345424  0.92421394  0.37924030  1
  Na  Na9  1  0.54497364  0.42421394  0.62075970  1
  Na  Na10  1  0.77585667  0.96950351  0.74121490  1
  Na  Na11  1  0.22828862  0.46950351  0.69364684  1
  Si  Si12  1  0.80318258  0.18836421  0.11481837  1
  Si  Si13  1  0.54413550  0.08203638  0.21995579  1
  Si  Si14  1  0.86208059  0.58203638  0.03790088  1
  Si  Si15  1  0.86208059  0.32418071  0.78004421  1
  Si  Si16  1  0.45177431  0.43272324  0.26328588  1
  Si  Si17  1  0.67925110  0.97464835  0.20460375  1
  Si  Si18  1  0.30516298  0.52798759  0.27717539  1
  Si  Si19  1  0.19292519  0.32380403  0.36912116  1
  Si  Si20  1  0.77004460  0.47464835  0.79539625  1
  Si  Si21  1  0.25081220  0.02798759  0.72282461  1
  Si  Si22  1  0.95468187  0.82380403  0.63087884  1
  Si  Si23  1  0.45177431  0.68848843  0.51905108  1
  Si  Si24  1  0.16943836  0.18848843  0.73671412  1
  Si  Si25  1  0.54413550  0.82418071  0.96209912  1
  Si  Si26  1  0.16943836  0.93272324  0.48094892  1
  Si  Si27  1  0.07354583  0.68836421  0.88518163  1
