# generated using pymatgen
data_SrLaMnMoO6
_symmetry_space_group_name_H-M   'P 1'
_cell_length_a   5.71237962
_cell_length_b   5.78148974
_cell_length_c   8.17927681
_cell_angle_alpha   90.00000000
_cell_angle_beta   90.26049350
_cell_angle_gamma   90.00000000
_symmetry_Int_Tables_number   1
_chemical_formula_structural   SrLaMnMoO6
_chemical_formula_sum   'Sr2 La2 Mn2 Mo2 O12'
_cell_volume   270.12652909
_cell_formula_units_Z   2
loop_
 _symmetry_equiv_pos_site_id
 _symmetry_equiv_pos_as_xyz
  1  'x, y, z'
loop_
 _atom_site_type_symbol
 _atom_site_label
 _atom_site_symmetry_multiplicity
 _atom_site_fract_x
 _atom_site_fract_y
 _atom_site_fract_z
 _atom_site_occupancy
  Sr  Sr0  1  0.99550088  0.04035535  0.24959291  1
  Sr  Sr1  1  0.49550088  0.45964465  0.74959291  1
  La  La2  1  0.50752121  0.54890839  0.24097642  1
  La  La3  1  0.00752121  0.95109161  0.74097642  1
  Mn  Mn4  1  0.00015166  0.49567877  0.49779070  1
  Mn  Mn5  1  0.50015166  0.00432123  0.99779070  1
  Mo  Mo6  1  0.00144502  0.49803384  0.99991257  1
  Mo  Mo7  1  0.50144502  0.00196616  0.49991257  1
  O  O8  1  0.09682739  0.47775992  0.24180857  1
  O  O9  1  0.20629520  0.19368602  0.54877400  1
  O  O10  1  0.17659327  0.21226270  0.95324020  1
  O  O11  1  0.30312088  0.73430527  0.54745054  1
  O  O12  1  0.28624303  0.69672833  0.96242746  1
  O  O13  1  0.42630147  0.96665426  0.25802664  1
  O  O14  1  0.59682739  0.02224008  0.74180857  1
  O  O15  1  0.70629520  0.30631398  0.04877400  1
  O  O16  1  0.67659327  0.28773730  0.45324020  1
  O  O17  1  0.80312088  0.76569473  0.04745054  1
  O  O18  1  0.78624303  0.80327167  0.46242746  1
  O  O19  1  0.92630147  0.53334574  0.75802664  1
