# generated using pymatgen
data_Cs4U2V2O13
_symmetry_space_group_name_H-M   'P 1'
_cell_length_a   7.38924919
_cell_length_b   8.56287898
_cell_length_c   13.73813404
_cell_angle_alpha   90.00000000
_cell_angle_beta   90.00000000
_cell_angle_gamma   89.99996107
_symmetry_Int_Tables_number   1
_chemical_formula_structural   Cs4U2V2O13
_chemical_formula_sum   'Cs8 U4 V4 O26'
_cell_volume   869.25634248
_cell_formula_units_Z   2
loop_
 _symmetry_equiv_pos_site_id
 _symmetry_equiv_pos_as_xyz
  1  'x, y, z'
loop_
 _atom_site_type_symbol
 _atom_site_label
 _atom_site_symmetry_multiplicity
 _atom_site_fract_x
 _atom_site_fract_y
 _atom_site_fract_z
 _atom_site_occupancy
  Cs  Cs0  1  0.52126892  0.74999938  0.05239695  1
  Cs  Cs1  1  0.47873108  0.25000062  0.94760305  1
  Cs  Cs2  1  0.87049613  0.25000131  0.75000000  1
  Cs  Cs3  1  0.12950387  0.74999869  0.25000000  1
  Cs  Cs4  1  0.77238752  0.74999936  0.75000000  1
  Cs  Cs5  1  0.47873108  0.25000062  0.55239695  1
  Cs  Cs6  1  0.52126892  0.74999938  0.44760305  1
  Cs  Cs7  1  0.22761248  0.25000064  0.25000000  1
  U  U8  1  0.00000000  0.50000000  0.00000000  1
  U  U9  1  0.00000000  0.00000000  0.50000000  1
  U  U10  1  0.00000000  0.50000000  0.50000000  1
  U  U11  1  0.00000000  0.00000000  0.00000000  1
  V  V12  1  0.28701178  0.54426396  0.75000000  1
  V  V13  1  0.28700996  0.95573580  0.75000000  1
  V  V14  1  0.71298822  0.45573604  0.25000000  1
  V  V15  1  0.71299004  0.04426420  0.25000000  1
  O  O16  1  0.16060214  0.49993382  0.85360189  1
  O  O17  1  0.97962463  0.25000410  0.51231548  1
  O  O18  1  0.47924747  0.05930411  0.75000000  1
  O  O19  1  0.78175076  0.51995104  0.93019685  1
  O  O20  1  0.83939525  -0.00006811  0.14639975  1
  O  O21  1  0.83939525  -0.00006811  0.35360025  1
  O  O22  1  0.16060214  0.49993382  0.64639811  1
  O  O23  1  0.16060475  1.00006811  0.64639975  1
  O  O24  1  0.78173315  0.98004721  0.93019127  1
  O  O25  1  0.21824924  0.48004896  0.06980315  1
  O  O26  1  0.83939786  0.50006618  0.14639811  1
  O  O27  1  0.02037537  0.74999590  0.48768452  1
  O  O28  1  0.21826685  0.01995279  0.06980873  1
  O  O29  1  0.83939786  0.50006618  0.35360189  1
  O  O30  1  0.35106776  0.74999659  0.75000000  1
  O  O31  1  0.02037537  0.74999590  0.01231548  1
  O  O32  1  0.78173315  0.98004721  0.56980873  1
  O  O33  1  0.16060475  1.00006811  0.85360025  1
  O  O34  1  0.52075633  0.55930312  0.25000000  1
  O  O35  1  0.78175076  0.51995104  0.56980315  1
  O  O36  1  0.64893224  0.25000341  0.25000000  1
  O  O37  1  0.97962463  0.25000410  0.98768452  1
  O  O38  1  0.21824924  0.48004896  0.43019685  1
  O  O39  1  0.21826685  0.01995279  0.43019127  1
  O  O40  1  0.52075253  0.94069589  0.25000000  1
  O  O41  1  0.47924367  0.44069688  0.75000000  1
