# generated using pymatgen
data_ErP4HO12
_symmetry_space_group_name_H-M   'P 1'
_cell_length_a   9.68892205
_cell_length_b   7.22254891
_cell_length_c   13.79612998
_cell_angle_alpha   90.00000000
_cell_angle_beta   100.82201123
_cell_angle_gamma   90.00000000
_symmetry_Int_Tables_number   1
_chemical_formula_structural   ErP4HO12
_chemical_formula_sum   'Er4 P16 H4 O48'
_cell_volume   948.26534224
_cell_formula_units_Z   4
loop_
 _symmetry_equiv_pos_site_id
 _symmetry_equiv_pos_as_xyz
  1  'x, y, z'
loop_
 _atom_site_type_symbol
 _atom_site_label
 _atom_site_symmetry_multiplicity
 _atom_site_fract_x
 _atom_site_fract_y
 _atom_site_fract_z
 _atom_site_occupancy
  Er  Er0  1  0.94107404  0.05672232  0.27108342  1
  Er  Er1  1  0.55892596  0.55672232  0.72891658  1
  Er  Er2  1  0.05892596  0.94327768  0.72891658  1
  Er  Er3  1  0.44107404  0.44327768  0.27108342  1
  P  P4  1  0.70601670  0.78523905  0.38656736  1
  P  P5  1  0.79398330  0.28523905  0.61343264  1
  P  P6  1  0.29398330  0.21476095  0.61343264  1
  P  P7  1  0.20601670  0.71476095  0.38656736  1
  P  P8  1  0.78793638  0.39663104  0.40528753  1
  P  P9  1  0.71206362  0.89663104  0.59471247  1
  P  P10  1  0.21206362  0.60336896  0.59471247  1
  P  P11  1  0.28793638  0.10336896  0.40528753  1
  P  P12  1  0.87516594  0.68114357  0.09874455  1
  P  P13  1  0.62483406  0.18114357  0.90125545  1
  P  P14  1  0.12483406  0.31885643  0.90125545  1
  P  P15  1  0.37516594  0.81885643  0.09874455  1
  P  P16  1  0.69145098  0.34680675  0.10440777  1
  P  P17  1  0.80854902  0.84680675  0.89559223  1
  P  P18  1  0.30854902  0.65319325  0.89559223  1
  P  P19  1  0.19145098  0.15319325  0.10440777  1
  H  H20  1  0.56363977  0.85302155  0.20441926  1
  H  H21  1  0.93636023  0.35302155  0.79558074  1
  H  H22  1  0.43636023  0.14697845  0.79558074  1
  H  H23  1  0.06363977  0.64697845  0.20441926  1
  O  O24  1  0.63232686  0.36003154  0.38288692  1
  O  O25  1  0.86767314  0.86003154  0.61711308  1
  O  O26  1  0.36767314  0.63996846  0.61711308  1
  O  O27  1  0.13232686  0.13996846  0.38288692  1
  O  O28  1  0.79046394  0.94792435  0.36245712  1
  O  O29  1  0.70953606  0.44792435  0.63754288  1
  O  O30  1  0.20953606  0.05207565  0.63754288  1
  O  O31  1  0.29046394  0.55207565  0.36245712  1
  O  O32  1  0.90140925  0.77089574  0.99790173  1
  O  O33  1  0.59859075  0.27089574  0.00209827  1
  O  O34  1  0.09859075  0.22910426  0.00209827  1
  O  O35  1  0.40140925  0.72910426  0.99790173  1
  O  O36  1  0.82694942  0.81755137  0.16574913  1
  O  O37  1  0.67305058  0.31755137  0.83425087  1
  O  O38  1  0.17305058  0.18244863  0.83425087  1
  O  O39  1  0.32694942  0.68244863  0.16574913  1
  O  O40  1  0.58303209  0.72432978  0.30833570  1
  O  O41  1  0.91696791  0.22432978  0.69166430  1
  O  O42  1  0.41696791  0.27567022  0.69166430  1
  O  O43  1  0.08303209  0.77567022  0.30833570  1
  O  O44  1  0.64438748  0.82420295  0.48500053  1
  O  O45  1  0.85561252  0.32420295  0.51499947  1
  O  O46  1  0.35561252  0.17579705  0.51499947  1
  O  O47  1  0.14438748  0.67579705  0.48500053  1
  O  O48  1  0.88012969  0.32588284  0.33768367  1
  O  O49  1  0.61987031  0.82588284  0.66231633  1
  O  O50  1  0.11987031  0.67411716  0.66231633  1
  O  O51  1  0.38012969  0.17411716  0.33768367  1
  O  O52  1  0.58920310  0.41941845  0.16362982  1
  O  O53  1  0.91079690  0.91941845  0.83637018  1
  O  O54  1  0.41079690  0.58058155  0.83637018  1
  O  O55  1  0.08920310  0.08058155  0.16362982  1
  O  O56  1  0.76562654  0.52238610  0.05994167  1
  O  O57  1  0.73437346  0.02238610  0.94005833  1
  O  O58  1  0.23437346  0.47761390  0.94005833  1
  O  O59  1  0.26562654  0.97761390  0.05994167  1
  O  O60  1  0.80003353  0.20852522  0.14581027  1
  O  O61  1  0.69996647  0.70852522  0.85418973  1
  O  O62  1  0.19996647  0.79147478  0.85418973  1
  O  O63  1  0.30003353  0.29147478  0.14581027  1
  O  O64  1  0.81489730  0.61759459  0.41724799  1
  O  O65  1  0.68510270  0.11759459  0.58275201  1
  O  O66  1  0.18510270  0.38240541  0.58275201  1
  O  O67  1  0.31489730  0.88240541  0.41724799  1
  O  O68  1  0.51673982  0.91770458  0.14131403  1
  O  O69  1  0.98326018  0.41770458  0.85868597  1
  O  O70  1  0.48326018  0.08229542  0.85868597  1
  O  O71  1  0.01673982  0.58229542  0.14131403  1
