# generated using pymatgen
data_MnH2(SeO4)2
_symmetry_space_group_name_H-M   'P 1'
_cell_length_a   7.01165430
_cell_length_b   10.71948420
_cell_length_c   10.02582934
_cell_angle_alpha   90.00000000
_cell_angle_beta   110.41133024
_cell_angle_gamma   90.00000000
_symmetry_Int_Tables_number   1
_chemical_formula_structural   MnH2(SeO4)2
_chemical_formula_sum   'Mn4 H8 Se8 O32'
_cell_volume   706.24114387
_cell_formula_units_Z   4
loop_
 _symmetry_equiv_pos_site_id
 _symmetry_equiv_pos_as_xyz
  1  'x, y, z'
loop_
 _atom_site_type_symbol
 _atom_site_label
 _atom_site_symmetry_multiplicity
 _atom_site_fract_x
 _atom_site_fract_y
 _atom_site_fract_z
 _atom_site_occupancy
  Mn  Mn0  1  0.86968073  0.47100872  0.69862223  1
  Mn  Mn1  1  0.13031927  0.97100872  0.80137777  1
  Mn  Mn2  1  0.13031927  0.52899128  0.30137777  1
  Mn  Mn3  1  0.86968073  0.02899128  0.19862223  1
  H  H4  1  0.32161939  0.21936014  0.71301909  1
  H  H5  1  0.67838061  0.71936014  0.78698091  1
  H  H6  1  0.67838061  0.78063986  0.28698091  1
  H  H7  1  0.32161939  0.28063986  0.21301909  1
  H  H8  1  0.69199569  0.45600469  0.09823944  1
  H  H9  1  0.30800431  0.95600469  0.40176056  1
  H  H10  1  0.30800431  0.54399531  0.90176056  1
  H  H11  1  0.69199569  0.04399531  0.59823944  1
  Se  Se12  1  0.34395850  0.42048569  0.64827075  1
  Se  Se13  1  0.65604150  0.92048569  0.85172925  1
  Se  Se14  1  0.65604150  0.57951431  0.35172925  1
  Se  Se15  1  0.34395850  0.07951431  0.14827075  1
  Se  Se16  1  0.87234511  0.31811665  0.01502109  1
  Se  Se17  1  0.12765489  0.81811665  0.48497891  1
  Se  Se18  1  0.12765489  0.68188335  0.98497891  1
  Se  Se19  1  0.87234511  0.18188335  0.51502109  1
  O  O20  1  0.20433177  0.47356873  0.74222407  1
  O  O21  1  0.79566823  0.97356873  0.75777593  1
  O  O22  1  0.79566823  0.52643127  0.25777593  1
  O  O23  1  0.20433177  0.02643127  0.24222407  1
  O  O24  1  0.55028093  0.50486930  0.67673303  1
  O  O25  1  0.44971907  0.00486930  0.82326697  1
  O  O26  1  0.44971907  0.49513070  0.32326697  1
  O  O27  1  0.55028093  0.99513070  0.17673303  1
  O  O28  1  0.19971733  0.39756565  0.48003989  1
  O  O29  1  0.80028267  0.89756565  0.01996011  1
  O  O30  1  0.80028267  0.60243435  0.51996011  1
  O  O31  1  0.19971733  0.10243435  0.98003989  1
  O  O32  1  0.43960212  0.27362660  0.71864426  1
  O  O33  1  0.56039788  0.77362660  0.78135574  1
  O  O34  1  0.56039788  0.72637340  0.28135574  1
  O  O35  1  0.43960212  0.22637340  0.21864426  1
  O  O36  1  0.91097211  0.33185885  0.86276909  1
  O  O37  1  0.08902789  0.83185885  0.63723091  1
  O  O38  1  0.08902789  0.66814115  0.13723091  1
  O  O39  1  0.91097211  0.16814115  0.36276909  1
  O  O40  1  0.79921800  0.17561220  0.03805542  1
  O  O41  1  0.20078200  0.67561220  0.46194458  1
  O  O42  1  0.20078200  0.82438780  0.96194458  1
  O  O43  1  0.79921800  0.32438780  0.53805542  1
  O  O44  1  0.07249088  0.36586912  0.15451205  1
  O  O45  1  0.92750912  0.86586912  0.34548795  1
  O  O46  1  0.92750912  0.63413088  0.84548795  1
  O  O47  1  0.07249088  0.13413088  0.65451205  1
  O  O48  1  0.67013670  0.42007316  0.00055407  1
  O  O49  1  0.32986330  0.92007316  0.49944593  1
  O  O50  1  0.32986330  0.57992684  0.99944593  1
  O  O51  1  0.67013670  0.07992684  0.50055407  1
