# generated using pymatgen
data_Ca3Ga2Si(SnO6)2
_symmetry_space_group_name_H-M   'P 1'
_cell_length_a   10.93377743
_cell_length_b   10.93377715
_cell_length_c   10.93377709
_cell_angle_alpha   110.23991271
_cell_angle_beta   109.08824665
_cell_angle_gamma   109.08824840
_symmetry_Int_Tables_number   1
_chemical_formula_structural   Ca3Ga2Si(SnO6)2
_chemical_formula_sum   'Ca12 Ga8 Si4 Sn8 O48'
_cell_volume   1006.07428166
_cell_formula_units_Z   4
loop_
 _symmetry_equiv_pos_site_id
 _symmetry_equiv_pos_as_xyz
  1  'x, y, z'
loop_
 _atom_site_type_symbol
 _atom_site_label
 _atom_site_symmetry_multiplicity
 _atom_site_fract_x
 _atom_site_fract_y
 _atom_site_fract_z
 _atom_site_occupancy
  Ca  Ca0  1  0.25000000  0.87500000  0.62500000  1
  Ca  Ca1  1  0.12460806  0.37460806  0.75000000  1
  Ca  Ca2  1  0.12460806  0.25000000  0.37460806  1
  Ca  Ca3  1  0.25000000  0.37500000  0.12500000  1
  Ca  Ca4  1  0.62460806  0.87460806  0.75000000  1
  Ca  Ca5  1  0.37539194  0.75000000  0.12539194  1
  Ca  Ca6  1  0.62460806  0.25000000  0.87460806  1
  Ca  Ca7  1  0.75000000  0.62500000  0.87500000  1
  Ca  Ca8  1  0.37539194  0.12539194  0.25000000  1
  Ca  Ca9  1  0.87539194  0.75000000  0.62539194  1
  Ca  Ca10  1  0.87539194  0.62539194  0.25000000  1
  Ca  Ca11  1  0.75000000  0.12500000  0.37500000  1
  Ga  Ga12  1  0.12562627  0.75000000  0.87562627  1
  Ga  Ga13  1  0.12562627  0.87562627  0.25000000  1
  Ga  Ga14  1  0.37437373  0.62437373  0.75000000  1
  Ga  Ga15  1  0.37437373  0.25000000  0.62437373  1
  Ga  Ga16  1  0.62562627  0.75000000  0.37562627  1
  Ga  Ga17  1  0.62562627  0.37562627  0.25000000  1
  Ga  Ga18  1  0.87437373  0.12437373  0.75000000  1
  Ga  Ga19  1  0.87437373  0.25000000  0.12437373  1
  Si  Si20  1  0.25000000  0.12500000  0.87500000  1
  Si  Si21  1  0.25000000  0.62500000  0.37500000  1
  Si  Si22  1  0.75000000  0.87500000  0.12500000  1
  Si  Si23  1  0.75000000  0.37500000  0.62500000  1
  Sn  Sn24  1  0.00000000  0.50000000  0.00000000  1
  Sn  Sn25  1  0.50000000  0.00000000  0.50000000  1
  Sn  Sn26  1  0.00000000  0.00000000  0.00000000  1
  Sn  Sn27  1  0.50000000  0.50000000  0.50000000  1
  Sn  Sn28  1  0.50000000  0.50000000  0.00000000  1
  Sn  Sn29  1  0.50000000  0.00000000  0.00000000  1
  Sn  Sn30  1  0.00000000  0.00000000  0.50000000  1
  Sn  Sn31  1  0.00000000  0.50000000  0.50000000  1
  O  O32  1  0.11140768  0.99569137  0.70087146  1
  O  O33  1  0.02779881  0.31949009  0.90440257  1
  O  O34  1  0.12489141  0.59948924  0.92100724  1
  O  O35  1  0.08491248  0.70830872  0.68050991  1
  O  O36  1  0.08491248  0.87660376  0.40440257  1
  O  O37  1  0.11140768  0.61571632  0.41053622  1
  O  O38  1  0.17848199  0.47459783  0.59948924  1
  O  O39  1  0.41508752  0.81949009  0.79169128  1
  O  O40  1  0.37510859  0.57899276  0.90051076  1
  O  O41  1  0.29481990  0.29912854  0.91053622  1
  O  O42  1  0.32151801  0.92100724  0.29611583  1
  O  O43  1  0.02779881  0.20830872  0.12339624  1
  O  O44  1  0.17848199  0.20388417  0.57899276  1
  O  O45  1  0.20518010  0.58946378  0.20087146  1
  O  O46  1  0.38859232  0.79912854  0.50430863  1
  O  O47  1  0.29481990  0.49569137  0.38428368  1
  O  O48  1  0.32151801  0.90051076  0.02540217  1
  O  O49  1  0.12489141  0.02540217  0.20388417  1
  O  O50  1  0.38859232  0.08946378  0.88428368  1
  O  O51  1  0.52779881  0.62339624  0.70830872  1
  O  O52  1  0.52779881  0.40440257  0.81949009  1
  O  O53  1  0.37510859  0.29611583  0.47459783  1
  O  O54  1  0.58491248  0.90440257  0.37660376  1
  O  O55  1  0.20518010  0.11571632  0.00430863  1
  O  O56  1  0.79481990  0.88428368  0.99569137  1
  O  O57  1  0.41508752  0.09559743  0.62339624  1
  O  O58  1  0.62489141  0.70388417  0.52540217  1
  O  O59  1  0.47220119  0.59559743  0.18050991  1
  O  O60  1  0.47220119  0.37660376  0.29169128  1
  O  O61  1  0.61140768  0.91053622  0.11571632  1
  O  O62  1  0.87510859  0.97459783  0.79611583  1
  O  O63  1  0.67848199  0.09948924  0.97459783  1
  O  O64  1  0.70518010  0.50430863  0.61571632  1
  O  O65  1  0.61140768  0.20087146  0.49569137  1
  O  O66  1  0.79481990  0.41053622  0.79912854  1
  O  O67  1  0.82151801  0.79611583  0.42100724  1
  O  O68  1  0.97220119  0.79169128  0.87660376  1
  O  O69  1  0.67848199  0.07899276  0.70388417  1
  O  O70  1  0.62489141  0.42100724  0.09948924  1
  O  O71  1  0.70518010  0.70087146  0.08946378  1
  O  O72  1  0.58491248  0.18050991  0.20830872  1
  O  O73  1  0.82151801  0.52540217  0.40051076  1
  O  O74  1  0.88859232  0.38428368  0.58946378  1
  O  O75  1  0.91508752  0.12339624  0.59559743  1
  O  O76  1  0.91508752  0.29169128  0.31949009  1
  O  O77  1  0.87510859  0.40051076  0.07899276  1
  O  O78  1  0.97220119  0.68050991  0.09559743  1
  O  O79  1  0.88859232  0.00430863  0.29912854  1
