# generated using pymatgen
data_Hf(MoO4)2
_symmetry_space_group_name_H-M   'P 1'
_cell_length_a   10.23590622
_cell_length_b   10.23590578
_cell_length_c   12.06327457
_cell_angle_alpha   90.00000000
_cell_angle_beta   90.00000000
_cell_angle_gamma   120.00000142
_symmetry_Int_Tables_number   1
_chemical_formula_structural   Hf(MoO4)2
_chemical_formula_sum   'Hf6 Mo12 O48'
_cell_volume   1094.58228782
_cell_formula_units_Z   6
loop_
 _symmetry_equiv_pos_site_id
 _symmetry_equiv_pos_as_xyz
  1  'x, y, z'
loop_
 _atom_site_type_symbol
 _atom_site_label
 _atom_site_symmetry_multiplicity
 _atom_site_fract_x
 _atom_site_fract_y
 _atom_site_fract_z
 _atom_site_occupancy
  Hf  Hf0  1  0.66666700  0.33333300  0.48413273  1
  Hf  Hf1  1  0.66666700  0.33333300  0.01586727  1
  Hf  Hf2  1  0.33333300  0.66666700  0.98413273  1
  Hf  Hf3  1  0.00000000  0.00000000  0.00000000  1
  Hf  Hf4  1  0.00000000  0.00000000  0.50000000  1
  Hf  Hf5  1  0.33333300  0.66666700  0.51586727  1
  Mo  Mo6  1  0.66928450  0.66175918  0.85320420  1
  Mo  Mo7  1  0.00752532  0.66928450  0.14679580  1
  Mo  Mo8  1  0.99247468  0.33071550  0.85320420  1
  Mo  Mo9  1  0.33071550  0.99247468  0.35320420  1
  Mo  Mo10  1  0.99247468  0.66175918  0.64679580  1
  Mo  Mo11  1  0.00752532  0.33824082  0.35320420  1
  Mo  Mo12  1  0.33824082  0.00752532  0.85320420  1
  Mo  Mo13  1  0.33071550  0.33824082  0.14679580  1
  Mo  Mo14  1  0.66928450  0.00752532  0.64679580  1
  Mo  Mo15  1  0.66175918  0.99247468  0.14679580  1
  Mo  Mo16  1  0.66175918  0.66928450  0.35320420  1
  Mo  Mo17  1  0.33824082  0.33071550  0.64679580  1
  O  O18  1  0.49948320  0.32982165  0.11520282  1
  O  O19  1  0.49948320  0.16966155  0.38479718  1
  O  O20  1  0.33958988  0.50193630  0.07980375  1
  O  O21  1  0.32187851  0.35121527  0.28967218  1
  O  O22  1  0.83588767  0.83086049  0.40207461  1
  O  O23  1  0.35121527  0.02933676  0.71032782  1
  O  O24  1  0.83086049  0.83588767  0.90207461  1
  O  O25  1  0.67017835  0.16966155  0.11520282  1
  O  O26  1  0.83588767  0.00502718  0.09792539  1
  O  O27  1  0.66041012  0.16234642  0.57980375  1
  O  O28  1  0.83765358  0.33958988  0.92019625  1
  O  O29  1  0.67812149  0.64878473  0.71032782  1
  O  O30  1  0.16913951  0.16411233  0.09792539  1
  O  O31  1  0.02933676  0.67812149  0.28967218  1
  O  O32  1  0.97066324  0.64878473  0.78967218  1
  O  O33  1  0.32982165  0.49948320  0.61520282  1
  O  O34  1  0.16411233  0.16913951  0.59792539  1
  O  O35  1  0.35121527  0.32187851  0.78967218  1
  O  O36  1  0.83086049  0.99497282  0.59792539  1
  O  O37  1  0.32187851  0.97066324  0.21032782  1
  O  O38  1  0.49806370  0.66041012  0.42019625  1
  O  O39  1  0.00502718  0.16913951  0.90207461  1
  O  O40  1  0.97066324  0.32187851  0.71032782  1
  O  O41  1  0.16411233  0.99497282  0.90207461  1
  O  O42  1  0.83765358  0.49806370  0.57980375  1
  O  O43  1  0.64878473  0.67812149  0.21032782  1
  O  O44  1  0.00502718  0.83588767  0.59792539  1
  O  O45  1  0.67017835  0.50051680  0.38479718  1
  O  O46  1  0.16234642  0.50193630  0.42019625  1
  O  O47  1  0.50051680  0.83033845  0.61520282  1
  O  O48  1  0.16234642  0.66041012  0.07980375  1
  O  O49  1  0.33958988  0.83765358  0.42019625  1
  O  O50  1  0.50193630  0.33958988  0.57980375  1
  O  O51  1  0.50193630  0.16234642  0.92019625  1
  O  O52  1  0.16966155  0.49948320  0.88479718  1
  O  O53  1  0.99497282  0.16411233  0.40207461  1
  O  O54  1  0.50051680  0.67017835  0.88479718  1
  O  O55  1  0.83033845  0.32982165  0.38479718  1
  O  O56  1  0.16966155  0.67017835  0.61520282  1
  O  O57  1  0.66041012  0.49806370  0.92019625  1
  O  O58  1  0.32982165  0.83033845  0.88479718  1
  O  O59  1  0.67812149  0.02933676  0.78967218  1
  O  O60  1  0.64878473  0.97066324  0.28967218  1
  O  O61  1  0.83033845  0.50051680  0.11520282  1
  O  O62  1  0.16913951  0.00502718  0.40207461  1
  O  O63  1  0.49806370  0.83765358  0.07980375  1
  O  O64  1  0.02933676  0.35121527  0.21032782  1
  O  O65  1  0.99497282  0.83086049  0.09792539  1
