# generated using pymatgen
data_SnPHO4
_symmetry_space_group_name_H-M   'P 1'
_cell_length_a   4.67031343
_cell_length_b   13.77258388
_cell_length_c   5.89274374
_cell_angle_alpha   90.00000000
_cell_angle_beta   98.64566177
_cell_angle_gamma   90.00000000
_symmetry_Int_Tables_number   1
_chemical_formula_structural   SnPHO4
_chemical_formula_sum   'Sn4 P4 H4 O16'
_cell_volume   374.72772139
_cell_formula_units_Z   4
loop_
 _symmetry_equiv_pos_site_id
 _symmetry_equiv_pos_as_xyz
  1  'x, y, z'
loop_
 _atom_site_type_symbol
 _atom_site_label
 _atom_site_symmetry_multiplicity
 _atom_site_fract_x
 _atom_site_fract_y
 _atom_site_fract_z
 _atom_site_occupancy
  Sn  Sn0  1  0.05149174  0.34299700  0.60835389  1
  Sn  Sn1  1  0.94850826  0.84299700  0.89164611  1
  Sn  Sn2  1  0.94850826  0.65700300  0.39164611  1
  Sn  Sn3  1  0.05149174  0.15700300  0.10835389  1
  P  P4  1  0.57170322  0.34937375  0.06320117  1
  P  P5  1  0.42829678  0.84937375  0.43679883  1
  P  P6  1  0.42829678  0.65062625  0.93679883  1
  P  P7  1  0.57170322  0.15062625  0.56320117  1
  H  H8  1  0.41203131  0.01356270  0.70147651  1
  H  H9  1  0.58796869  0.51356270  0.79852349  1
  H  H10  1  0.58796869  0.98643730  0.29852349  1
  H  H11  1  0.41203131  0.48643730  0.20147651  1
  O  O12  1  0.30359446  0.28727093  0.95643115  1
  O  O13  1  0.69640554  0.78727093  0.54356885  1
  O  O14  1  0.69640554  0.71272907  0.04356885  1
  O  O15  1  0.30359446  0.21272907  0.45643115  1
  O  O16  1  0.48064487  0.41826062  0.25690190  1
  O  O17  1  0.51935513  0.91826062  0.24309810  1
  O  O18  1  0.51935513  0.58173938  0.74309810  1
  O  O19  1  0.48064487  0.08173938  0.75690190  1
  O  O20  1  0.68195193  0.40926259  0.87558529  1
  O  O21  1  0.31804807  0.90926259  0.62441471  1
  O  O22  1  0.31804807  0.59073741  0.12441471  1
  O  O23  1  0.68195193  0.09073741  0.37558529  1
  O  O24  1  0.80326533  0.28271200  0.20013881  1
  O  O25  1  0.19673467  0.78271200  0.29986119  1
  O  O26  1  0.19673467  0.71728800  0.79986119  1
  O  O27  1  0.80326533  0.21728800  0.70013881  1
