# generated using pymatgen
data_Sm2(MnBi2)3
_symmetry_space_group_name_H-M   'P 1'
_cell_length_a   4.46192769
_cell_length_b   10.31655571
_cell_length_c   13.33044523
_cell_angle_alpha   106.53413024
_cell_angle_beta   90.00000000
_cell_angle_gamma   90.00000000
_symmetry_Int_Tables_number   1
_chemical_formula_structural   Sm2(MnBi2)3
_chemical_formula_sum   'Sm4 Mn6 Bi12'
_cell_volume   588.25030341
_cell_formula_units_Z   2
loop_
 _symmetry_equiv_pos_site_id
 _symmetry_equiv_pos_as_xyz
  1  'x, y, z'
loop_
 _atom_site_type_symbol
 _atom_site_label
 _atom_site_symmetry_multiplicity
 _atom_site_fract_x
 _atom_site_fract_y
 _atom_site_fract_z
 _atom_site_occupancy
  Sm  Sm0  1  0.25000000  0.06551484  0.32086623  1
  Sm  Sm1  1  0.75000000  0.25294390  0.98241314  1
  Sm  Sm2  1  0.75000000  0.93448516  0.67913377  1
  Sm  Sm3  1  0.25000000  0.74705610  0.01758686  1
  Mn  Mn4  1  0.25000000  0.46395197  0.76236110  1
  Mn  Mn5  1  0.25000000  0.70198501  0.28630458  1
  Mn  Mn6  1  0.25000000  0.46142705  0.33944989  1
  Mn  Mn7  1  0.75000000  0.29801499  0.71369542  1
  Mn  Mn8  1  0.75000000  0.53604803  0.23763890  1
  Mn  Mn9  1  0.75000000  0.53857295  0.66055011  1
  Bi  Bi10  1  0.25000000  0.47612722  0.10721200  1
  Bi  Bi11  1  0.75000000  0.91773931  0.92128175  1
  Bi  Bi12  1  0.75000000  0.62096689  0.46233631  1
  Bi  Bi13  1  0.25000000  0.37903311  0.53766369  1
  Bi  Bi14  1  0.25000000  0.08226069  0.07871825  1
  Bi  Bi15  1  0.75000000  0.27162380  0.25538122  1
  Bi  Bi16  1  0.25000000  0.88225626  0.48892765  1
  Bi  Bi17  1  0.75000000  0.82567901  0.21053124  1
  Bi  Bi18  1  0.25000000  0.17432099  0.78946876  1
  Bi  Bi19  1  0.75000000  0.11774374  0.51107235  1
  Bi  Bi20  1  0.75000000  0.52387278  0.89278800  1
  Bi  Bi21  1  0.25000000  0.72837620  0.74461878  1
