# generated using pymatgen
data_Tb2TiO5
_symmetry_space_group_name_H-M   'P 1'
_cell_length_a   3.73880960
_cell_length_b   10.50094085
_cell_length_c   11.33766671
_cell_angle_alpha   90.00000000
_cell_angle_beta   90.00000000
_cell_angle_gamma   90.00000000
_symmetry_Int_Tables_number   1
_chemical_formula_structural   Tb2TiO5
_chemical_formula_sum   'Tb8 Ti4 O20'
_cell_volume   445.12834198
_cell_formula_units_Z   4
loop_
 _symmetry_equiv_pos_site_id
 _symmetry_equiv_pos_as_xyz
  1  'x, y, z'
loop_
 _atom_site_type_symbol
 _atom_site_label
 _atom_site_symmetry_multiplicity
 _atom_site_fract_x
 _atom_site_fract_y
 _atom_site_fract_z
 _atom_site_occupancy
  Tb  Tb0  1  0.75000000  0.36381460  0.55623122  1
  Tb  Tb1  1  0.75000000  0.86381460  0.94376878  1
  Tb  Tb2  1  0.25000000  0.63618540  0.44376878  1
  Tb  Tb3  1  0.25000000  0.13618540  0.05623122  1
  Tb  Tb4  1  0.25000000  0.11329297  0.72322162  1
  Tb  Tb5  1  0.25000000  0.61329297  0.77677838  1
  Tb  Tb6  1  0.75000000  0.88670703  0.27677838  1
  Tb  Tb7  1  0.75000000  0.38670703  0.22322162  1
  Ti  Ti8  1  0.75000000  0.32316948  0.87968438  1
  Ti  Ti9  1  0.75000000  0.82316948  0.62031562  1
  Ti  Ti10  1  0.25000000  0.67683052  0.12031562  1
  Ti  Ti11  1  0.25000000  0.17683052  0.37968438  1
  O  O12  1  0.75000000  0.27460359  0.04210039  1
  O  O13  1  0.75000000  0.77460359  0.45789961  1
  O  O14  1  0.25000000  0.72539641  0.95789961  1
  O  O15  1  0.25000000  0.22539641  0.54210039  1
  O  O16  1  0.75000000  0.00613571  0.10450134  1
  O  O17  1  0.75000000  0.50613571  0.39549866  1
  O  O18  1  0.25000000  0.99386429  0.89549866  1
  O  O19  1  0.25000000  0.49386429  0.60450134  1
  O  O20  1  0.75000000  0.23751231  0.38278797  1
  O  O21  1  0.75000000  0.73751231  0.11721203  1
  O  O22  1  0.25000000  0.76248769  0.61721203  1
  O  O23  1  0.25000000  0.26248769  0.88278797  1
  O  O24  1  0.75000000  0.48885039  0.84335553  1
  O  O25  1  0.75000000  0.98885039  0.65664447  1
  O  O26  1  0.25000000  0.51114961  0.15664447  1
  O  O27  1  0.25000000  0.01114961  0.34335553  1
  O  O28  1  0.75000000  0.23969999  0.72923857  1
  O  O29  1  0.75000000  0.73969999  0.77076143  1
  O  O30  1  0.25000000  0.76030001  0.27076143  1
  O  O31  1  0.25000000  0.26030001  0.22923857  1
