# generated using pymatgen
data_Cs3Nb2AsSe11
_symmetry_space_group_name_H-M   'P 1'
_cell_length_a   10.43520916
_cell_length_b   10.62076071
_cell_length_c   10.62076126
_cell_angle_alpha   85.08424034
_cell_angle_beta   84.68275518
_cell_angle_gamma   84.68275504
_symmetry_Int_Tables_number   1
_chemical_formula_structural   Cs3Nb2AsSe11
_chemical_formula_sum   'Cs6 Nb4 As2 Se22'
_cell_volume   1163.45429894
_cell_formula_units_Z   2
loop_
 _symmetry_equiv_pos_site_id
 _symmetry_equiv_pos_as_xyz
  1  'x, y, z'
loop_
 _atom_site_type_symbol
 _atom_site_label
 _atom_site_symmetry_multiplicity
 _atom_site_fract_x
 _atom_site_fract_y
 _atom_site_fract_z
 _atom_site_occupancy
  Cs  Cs0  1  0.34518147  0.64482605  0.79871714  1
  Cs  Cs1  1  0.84518147  0.79871714  0.64482605  1
  Cs  Cs2  1  0.60359787  0.04462626  0.18126437  1
  Cs  Cs3  1  0.10359787  0.18126437  0.04462626  1
  Cs  Cs4  1  0.43256744  0.44105588  0.28720255  1
  Cs  Cs5  1  0.93256744  0.28720255  0.44105588  1
  Nb  Nb6  1  0.83061184  0.54198426  0.08064100  1
  Nb  Nb7  1  0.01639352  0.79160870  0.19468787  1
  Nb  Nb8  1  0.33061184  0.08064100  0.54198426  1
  Nb  Nb9  1  0.51639352  0.19468787  0.79160870  1
  As  As10  1  0.77252401  0.41154291  0.74779463  1
  As  As11  1  0.27252401  0.74779463  0.41154291  1
  Se  Se12  1  0.67485119  0.56392994  0.89302681  1
  Se  Se13  1  0.07389873  0.86335068  0.95646212  1
  Se  Se14  1  0.08887260  0.62152102  0.38876006  1
  Se  Se15  1  0.58073300  0.10875110  0.53169278  1
  Se  Se16  1  0.76456576  0.19341952  0.82901065  1
  Se  Se17  1  0.01481514  0.51264819  0.90065022  1
  Se  Se18  1  0.58887260  0.38876006  0.62152102  1
  Se  Se19  1  0.26456576  0.82901065  0.19341952  1
  Se  Se20  1  0.77507470  0.33610194  0.15670983  1
  Se  Se21  1  0.93602420  0.96966356  0.30568900  1
  Se  Se22  1  0.43602420  0.30568900  0.96966356  1
  Se  Se23  1  0.51481514  0.90065022  0.51264819  1
  Se  Se24  1  0.31839557  0.30145772  0.65007836  1
  Se  Se25  1  0.08073300  0.53169278  0.10875110  1
  Se  Se26  1  0.85756881  0.81303488  0.01585150  1
  Se  Se27  1  0.35756881  0.01585150  0.81303488  1
  Se  Se28  1  0.27507470  0.15670983  0.33610194  1
  Se  Se29  1  0.13686415  0.17644304  0.69159544  1
  Se  Se30  1  0.63686415  0.69159544  0.17644304  1
  Se  Se31  1  0.57389873  0.95646212  0.86335068  1
  Se  Se32  1  0.81839557  0.65007836  0.30145772  1
  Se  Se33  1  0.17485119  0.89302681  0.56392994  1
