# generated using pymatgen
data_K6Zr3H8(OF)12
_symmetry_space_group_name_H-M   'P 1'
_cell_length_a   14.72626774
_cell_length_b   13.96767822
_cell_length_c   11.04814320
_cell_angle_alpha   90.00000000
_cell_angle_beta   90.00000000
_cell_angle_gamma   90.00000000
_symmetry_Int_Tables_number   1
_chemical_formula_structural   K6Zr3H8(OF)12
_chemical_formula_sum   'K24 Zr12 H32 O48 F48'
_cell_volume   2272.51212089
_cell_formula_units_Z   4
loop_
 _symmetry_equiv_pos_site_id
 _symmetry_equiv_pos_as_xyz
  1  'x, y, z'
loop_
 _atom_site_type_symbol
 _atom_site_label
 _atom_site_symmetry_multiplicity
 _atom_site_fract_x
 _atom_site_fract_y
 _atom_site_fract_z
 _atom_site_occupancy
  K  K0  1  0.89151091  0.45809447  0.13270073  1
  K  K1  1  0.39151091  0.04190553  0.36729927  1
  K  K2  1  0.10848909  0.95809447  0.86729927  1
  K  K3  1  0.60848909  0.54190553  0.63270073  1
  K  K4  1  0.10848909  0.54190553  0.86729927  1
  K  K5  1  0.60848909  0.95809447  0.63270073  1
  K  K6  1  0.89151091  0.04190553  0.13270073  1
  K  K7  1  0.39151091  0.45809447  0.36729927  1
  K  K8  1  0.82263598  0.89557318  0.43143214  1
  K  K9  1  0.32263598  0.60442682  0.06856786  1
  K  K10  1  0.17736402  0.39557318  0.56856786  1
  K  K11  1  0.67736402  0.10442682  0.93143214  1
  K  K12  1  0.17736402  0.10442682  0.56856786  1
  K  K13  1  0.67736402  0.39557318  0.93143214  1
  K  K14  1  0.82263598  0.60442682  0.43143214  1
  K  K15  1  0.32263598  0.89557318  0.06856786  1
  K  K16  1  0.61162809  0.88032166  0.18954141  1
  K  K17  1  0.11162809  0.61967834  0.31045859  1
  K  K18  1  0.38837191  0.38032166  0.81045859  1
  K  K19  1  0.88837191  0.11967834  0.68954141  1
  K  K20  1  0.38837191  0.11967834  0.81045859  1
  K  K21  1  0.88837191  0.38032166  0.68954141  1
  K  K22  1  0.61162809  0.61967834  0.18954141  1
  K  K23  1  0.11162809  0.88032166  0.31045859  1
  Zr  Zr24  1  0.59625020  0.25000000  0.63097361  1
  Zr  Zr25  1  0.09625020  0.25000000  0.86902639  1
  Zr  Zr26  1  0.40374980  0.75000000  0.36902639  1
  Zr  Zr27  1  0.90374980  0.75000000  0.13097361  1
  Zr  Zr28  1  0.66379466  0.10976848  0.33359260  1
  Zr  Zr29  1  0.16379466  0.39023152  0.16640740  1
  Zr  Zr30  1  0.33620534  0.60976848  0.66640740  1
  Zr  Zr31  1  0.83620534  0.89023152  0.83359260  1
  Zr  Zr32  1  0.33620534  0.89023152  0.66640740  1
  Zr  Zr33  1  0.83620534  0.60976848  0.83359260  1
  Zr  Zr34  1  0.66379466  0.39023152  0.33359260  1
  Zr  Zr35  1  0.16379466  0.10976848  0.16640740  1
  H  H36  1  0.80169306  0.25000000  0.17314386  1
  H  H37  1  0.30169306  0.25000000  0.32685614  1
  H  H38  1  0.19830694  0.75000000  0.82685614  1
  H  H39  1  0.69830694  0.75000000  0.67314386  1
  H  H40  1  0.86547332  0.25000000  0.94756117  1
  H  H41  1  0.36547332  0.25000000  0.55243883  1
  H  H42  1  0.13452668  0.75000000  0.05243883  1
  H  H43  1  0.63452668  0.75000000  0.44756117  1
  H  H44  1  0.99938598  0.06516062  0.41038870  1
  H  H45  1  0.49938598  0.43483938  0.08961130  1
  H  H46  1  0.00061402  0.56516062  0.58961130  1
  H  H47  1  0.50061402  0.93483938  0.91038870  1
  H  H48  1  0.00061402  0.93483938  0.58961130  1
  H  H49  1  0.50061402  0.56516062  0.91038870  1
  H  H50  1  0.99938598  0.43483938  0.41038870  1
  H  H51  1  0.49938598  0.06516062  0.08961130  1
  H  H52  1  0.85346532  0.19383189  0.43736753  1
  H  H53  1  0.35346532  0.30616811  0.06263247  1
  H  H54  1  0.14653468  0.69383189  0.56263247  1
  H  H55  1  0.64653468  0.80616811  0.93736753  1
  H  H56  1  0.14653468  0.80616811  0.56263247  1
  H  H57  1  0.64653468  0.69383189  0.93736753  1
  H  H58  1  0.85346532  0.30616811  0.43736753  1
  H  H59  1  0.35346532  0.19383189  0.06263247  1
  H  H60  1  0.00068054  0.25000000  0.47931054  1
  H  H61  1  0.50068054  0.25000000  0.02068946  1
  H  H62  1  0.99931946  0.75000000  0.52068946  1
  H  H63  1  0.49931946  0.75000000  0.97931054  1
  H  H64  1  0.58429513  0.25000000  0.10851210  1
  H  H65  1  0.08429513  0.25000000  0.39148790  1
  H  H66  1  0.41570487  0.75000000  0.89148790  1
  H  H67  1  0.91570487  0.75000000  0.60851210  1
  O  O68  1  0.57216100  0.13916004  0.48862559  1
  O  O69  1  0.07216100  0.36083996  0.01137441  1
  O  O70  1  0.42783900  0.63916004  0.51137441  1
  O  O71  1  0.92783900  0.86083996  0.98862559  1
  O  O72  1  0.42783900  0.86083996  0.51137441  1
  O  O73  1  0.92783900  0.63916004  0.98862559  1
  O  O74  1  0.57216100  0.36083996  0.48862559  1
  O  O75  1  0.07216100  0.13916004  0.01137441  1
  O  O76  1  0.67084777  0.14111964  0.52632024  1
  O  O77  1  0.17084777  0.35888036  0.97367976  1
  O  O78  1  0.32915223  0.64111964  0.47367976  1
  O  O79  1  0.82915223  0.85888036  0.02632024  1
  O  O80  1  0.32915223  0.85888036  0.47367976  1
  O  O81  1  0.82915223  0.64111964  0.02632024  1
  O  O82  1  0.67084777  0.35888036  0.52632024  1
  O  O83  1  0.17084777  0.14111964  0.97367976  1
  O  O84  1  0.72191002  0.25000000  0.28353723  1
  O  O85  1  0.22191002  0.25000000  0.21646277  1
  O  O86  1  0.27808998  0.75000000  0.71646277  1
  O  O87  1  0.77808998  0.75000000  0.78353723  1
  O  O88  1  0.62170436  0.25000000  0.25843338  1
  O  O89  1  0.12170436  0.25000000  0.24156662  1
  O  O90  1  0.37829564  0.75000000  0.74156662  1
  O  O91  1  0.87829564  0.75000000  0.75843338  1
  O  O92  1  0.81084981  0.25000000  0.00199341  1
  O  O93  1  0.31084981  0.25000000  0.49800659  1
  O  O94  1  0.18915019  0.75000000  0.99800659  1
  O  O95  1  0.68915019  0.75000000  0.50199341  1
  O  O96  1  0.85714436  0.25000000  0.12103493  1
  O  O97  1  0.35714436  0.25000000  0.37896507  1
  O  O98  1  0.14285564  0.75000000  0.87896507  1
  O  O99  1  0.64285564  0.75000000  0.62103493  1
  O  O100  1  0.96931801  0.04017310  0.48538736  1
  O  O101  1  0.46931801  0.45982690  0.01461264  1
  O  O102  1  0.03068199  0.54017310  0.51461264  1
  O  O103  1  0.53068199  0.95982690  0.98538736  1
  O  O104  1  0.03068199  0.95982690  0.51461264  1
  O  O105  1  0.53068199  0.54017310  0.98538736  1
  O  O106  1  0.96931801  0.45982690  0.48538736  1
  O  O107  1  0.46931801  0.04017310  0.01461264  1
  O  O108  1  0.87997783  0.25000000  0.47976405  1
  O  O109  1  0.37997783  0.25000000  0.02023595  1
  O  O110  1  0.12002217  0.75000000  0.52023595  1
  O  O111  1  0.62002217  0.75000000  0.97976405  1
  O  O112  1  0.56805262  0.25000000  0.02153434  1
  O  O113  1  0.06805262  0.25000000  0.47846566  1
  O  O114  1  0.43194738  0.75000000  0.97846566  1
  O  O115  1  0.93194738  0.75000000  0.52153434  1
  F  F116  1  0.80464600  0.09232813  0.36697085  1
  F  F117  1  0.30464600  0.40767187  0.13302915  1
  F  F118  1  0.19535400  0.59232813  0.63302915  1
  F  F119  1  0.69535400  0.90767187  0.86697085  1
  F  F120  1  0.19535400  0.90767187  0.63302915  1
  F  F121  1  0.69535400  0.59232813  0.86697085  1
  F  F122  1  0.80464600  0.40767187  0.36697085  1
  F  F123  1  0.30464600  0.09232813  0.13302915  1
  F  F124  1  0.70871891  0.05800015  0.16653348  1
  F  F125  1  0.20871891  0.44199985  0.33346652  1
  F  F126  1  0.29128109  0.55800015  0.83346652  1
  F  F127  1  0.79128109  0.94199985  0.66653348  1
  F  F128  1  0.29128109  0.94199985  0.83346652  1
  F  F129  1  0.79128109  0.55800015  0.66653348  1
  F  F130  1  0.70871891  0.44199985  0.16653348  1
  F  F131  1  0.20871891  0.05800015  0.33346652  1
  F  F132  1  0.84187187  0.03185015  0.89052495  1
  F  F133  1  0.34187187  0.46814985  0.60947505  1
  F  F134  1  0.15812813  0.53185015  0.10947505  1
  F  F135  1  0.65812813  0.96814985  0.39052495  1
  F  F136  1  0.15812813  0.96814985  0.10947505  1
  F  F137  1  0.65812813  0.53185015  0.39052495  1
  F  F138  1  0.84187187  0.46814985  0.89052495  1
  F  F139  1  0.34187187  0.03185015  0.60947505  1
  F  F140  1  0.54108152  0.07101538  0.24499546  1
  F  F141  1  0.04108152  0.42898462  0.25500454  1
  F  F142  1  0.45891848  0.57101538  0.75500454  1
  F  F143  1  0.95891848  0.92898462  0.74499546  1
  F  F144  1  0.45891848  0.92898462  0.75500454  1
  F  F145  1  0.95891848  0.57101538  0.74499546  1
  F  F146  1  0.54108152  0.42898462  0.24499546  1
  F  F147  1  0.04108152  0.07101538  0.25500454  1
  F  F148  1  0.56968045  0.13743251  0.74871564  1
  F  F149  1  0.06968045  0.36256749  0.75128436  1
  F  F150  1  0.43031955  0.63743251  0.25128436  1
  F  F151  1  0.93031955  0.86256749  0.24871564  1
  F  F152  1  0.43031955  0.86256749  0.25128436  1
  F  F153  1  0.93031955  0.63743251  0.24871564  1
  F  F154  1  0.56968045  0.36256749  0.74871564  1
  F  F155  1  0.06968045  0.13743251  0.75128436  1
  F  F156  1  0.95028151  0.25000000  0.86045598  1
  F  F157  1  0.45028151  0.25000000  0.63954402  1
  F  F158  1  0.04971849  0.75000000  0.13954402  1
  F  F159  1  0.54971849  0.75000000  0.36045598  1
  F  F160  1  0.71944703  0.25000000  0.72820282  1
  F  F161  1  0.21944703  0.25000000  0.77179718  1
  F  F162  1  0.28055297  0.75000000  0.27179718  1
  F  F163  1  0.78055297  0.75000000  0.22820282  1
