# generated using pymatgen
data_Sr20FeCo9(MoO6)10
_symmetry_space_group_name_H-M   'P 1'
_cell_length_a   11.29307417
_cell_length_b   28.20413802
_cell_length_c   9.78391524
_cell_angle_alpha   30.21186818
_cell_angle_beta   106.64675135
_cell_angle_gamma   89.85890521
_symmetry_Int_Tables_number   1
_chemical_formula_structural   Sr20FeCo9(MoO6)10
_chemical_formula_sum   'Sr20 Fe1 Co9 Mo10 O60'
_cell_volume   1284.57140645
_cell_formula_units_Z   1
loop_
 _symmetry_equiv_pos_site_id
 _symmetry_equiv_pos_as_xyz
  1  'x, y, z'
loop_
 _atom_site_type_symbol
 _atom_site_label
 _atom_site_symmetry_multiplicity
 _atom_site_fract_x
 _atom_site_fract_y
 _atom_site_fract_z
 _atom_site_occupancy
  Sr  Sr0  1  0.12416731  0.15067198  0.49690191  1
  Sr  Sr1  1  0.12368237  0.35122874  0.49636365  1
  Sr  Sr2  1  0.12510883  0.55091611  0.49773618  1
  Sr  Sr3  1  0.12613277  0.74940774  0.50209883  1
  Sr  Sr4  1  0.12442335  0.94923454  0.50133483  1
  Sr  Sr5  1  0.37452656  0.05083654  0.49848463  1
  Sr  Sr6  1  0.37399104  0.25101285  0.49641604  1
  Sr  Sr7  1  0.37509769  0.45031568  0.49869401  1
  Sr  Sr8  1  0.37469721  0.64973427  0.49970582  1
  Sr  Sr9  1  0.37544767  0.84940650  0.50138762  1
  Sr  Sr10  1  0.62455233  0.15059350  0.49861238  1
  Sr  Sr11  1  0.62530279  0.35026573  0.50029418  1
  Sr  Sr12  1  0.62490231  0.54968432  0.50130599  1
  Sr  Sr13  1  0.62600896  0.74898715  0.50358396  1
  Sr  Sr14  1  0.62547344  0.94916346  0.50151537  1
  Sr  Sr15  1  0.87557665  0.05076546  0.49866517  1
  Sr  Sr16  1  0.87386723  0.25059226  0.49790117  1
  Sr  Sr17  1  0.87489117  0.44908389  0.50226382  1
  Sr  Sr18  1  0.87631763  0.64877126  0.50363635  1
  Sr  Sr19  1  0.87583269  0.84932802  0.50309809  1
  Fe  Fe20  1  0.00000000  0.00000000  0.00000000  1
  Co  Co21  1  0.00013790  0.20009363  0.00046503  1
  Co  Co22  1  0.99982506  0.39999077  -0.00006872  1
  Co  Co23  1  0.99986210  0.79990637  0.99953497  1
  Co  Co24  1  0.50024077  0.20031194  -0.00014418  1
  Co  Co25  1  0.50000000  0.00000000  0.00000000  1
  Co  Co26  1  0.50023542  0.40007413  0.99866787  1
  Co  Co27  1  0.49976458  0.59992587  0.00133213  1
  Co  Co28  1  0.49975923  0.79968806  0.00014418  1
  Co  Co29  1  0.00017494  0.60000923  0.00006872  1
  Mo  Mo30  1  0.25039958  0.10038719  0.99981868  1
  Mo  Mo31  1  0.25005603  0.29991186  0.00050729  1
  Mo  Mo32  1  0.25038211  0.49998784  0.99996822  1
  Mo  Mo33  1  0.25102234  0.69896053  0.00300668  1
  Mo  Mo34  1  0.25083287  0.89986750  0.00020483  1
  Mo  Mo35  1  0.74916713  0.10013250  -0.00020483  1
  Mo  Mo36  1  0.74897766  0.30103947  0.99699332  1
  Mo  Mo37  1  0.74961789  0.50001216  0.00003178  1
  Mo  Mo38  1  0.74994397  0.70008814  -0.00050729  1
  Mo  Mo39  1  0.74960042  0.89961281  0.00018132  1
  O  O40  1  0.13003778  0.04373252  0.52122564  1
  O  O41  1  0.12953946  0.24380839  0.51946695  1
  O  O42  1  0.12975222  0.44438408  0.51882310  1
  O  O43  1  0.12978040  0.64407165  0.51975860  1
  O  O44  1  0.12502000  0.85007076  0.49985323  1
  O  O45  1  0.11137909  0.14101181  0.00053636  1
  O  O46  1  0.11179107  0.34079796  0.00169400  1
  O  O47  1  0.11147515  0.54105275  0.00117695  1
  O  O48  1  0.10914196  0.74317476  0.99629459  1
  O  O49  1  0.11093437  0.94233155  0.00057336  1
  O  O50  1  0.14363559  0.04401854  0.00067754  1
  O  O51  1  0.14767057  0.24345063  0.00349826  1
  O  O52  1  0.14679104  0.44441536  0.00078071  1
  O  O53  1  0.14574287  0.64607833  0.99683792  1
  O  O54  1  0.14563709  0.84528027  0.00075681  1
  O  O55  1  0.37135156  0.15416201  0.48605483  1
  O  O56  1  0.37108573  0.35441975  0.48497718  1
  O  O57  1  0.37062735  0.75529671  0.48316617  1
  O  O58  1  0.37200850  0.55351970  0.48842339  1
  O  O59  1  0.37045458  0.95493608  0.48283974  1
  O  O60  1  0.35266881  0.35384976  0.00322416  1
  O  O61  1  0.35295496  0.15475748  0.00093865  1
  O  O62  1  0.35235789  0.55468304  0.00059105  1
  O  O63  1  0.35179483  0.75627283  0.99604252  1
  O  O64  1  0.35246513  0.95533116  0.00011819  1
  O  O65  1  0.38844278  0.25756981  0.00241390  1
  O  O66  1  0.38639340  0.05821107  0.00091435  1
  O  O67  1  0.38887693  0.65894178  0.99718847  1
  O  O68  1  0.38872675  0.45779415  0.00183305  1
  O  O69  1  0.38852630  0.85873023  0.00015495  1
  O  O70  1  0.62937265  0.24470329  0.51683383  1
  O  O71  1  0.62954542  0.04506392  0.51716026  1
  O  O72  1  0.62799150  0.44648030  0.51157661  1
  O  O73  1  0.62891427  0.64558025  0.51502282  1
  O  O74  1  0.62864844  0.84583799  0.51394517  1
  O  O75  1  0.61147370  0.14126977  -0.00015495  1
  O  O76  1  0.61127325  0.54220585  0.99816695  1
  O  O77  1  0.61155722  0.74243019  0.99758610  1
  O  O78  1  0.61112307  0.34105822  0.00281153  1
  O  O79  1  0.61360660  0.94178893  0.99908565  1
  O  O80  1  0.64753487  0.04466884  -0.00011819  1
  O  O81  1  0.64820517  0.24372717  0.00395748  1
  O  O82  1  0.64764211  0.44531696  0.99940895  1
  O  O83  1  0.64733119  0.64615024  0.99677584  1
  O  O84  1  0.64704504  0.84524252  0.99906135  1
  O  O85  1  0.87498000  0.14992924  0.50014677  1
  O  O86  1  0.87021960  0.35592835  0.48024140  1
  O  O87  1  0.87024778  0.55561592  0.48117690  1
  O  O88  1  0.87046054  0.75619161  0.48053305  1
  O  O89  1  0.86996222  0.95626748  0.47877436  1
  O  O90  1  0.85436291  0.15471973  0.99924319  1
  O  O91  1  0.85425713  0.35392167  0.00316208  1
  O  O92  1  0.85320896  0.55558464  0.99921929  1
  O  O93  1  0.85232943  0.75654937  0.99650174  1
  O  O94  1  0.85636441  0.95598146  0.99932246  1
  O  O95  1  0.88906563  0.05766845  0.99942664  1
  O  O96  1  0.89085804  0.25682524  0.00370541  1
  O  O97  1  0.88852485  0.45894725  0.99882305  1
  O  O98  1  0.88820893  0.65920204  0.99830600  1
  O  O99  1  0.88862091  0.85898819  0.99946364  1
