# generated using pymatgen
data_La2Cu2O5
_symmetry_space_group_name_H-M   'P 1'
_cell_length_a   5.36951423
_cell_length_b   5.55995766
_cell_length_c   8.94342391
_cell_angle_alpha   108.10989339
_cell_angle_beta   107.46922149
_cell_angle_gamma   90.00000000
_symmetry_Int_Tables_number   1
_chemical_formula_structural   La2Cu2O5
_chemical_formula_sum   'La4 Cu4 O10'
_cell_volume   240.78285117
_cell_formula_units_Z   2
loop_
 _symmetry_equiv_pos_site_id
 _symmetry_equiv_pos_as_xyz
  1  'x, y, z'
loop_
 _atom_site_type_symbol
 _atom_site_label
 _atom_site_symmetry_multiplicity
 _atom_site_fract_x
 _atom_site_fract_y
 _atom_site_fract_z
 _atom_site_occupancy
  La  La0  1  0.61920345  0.12566102  0.22767608  1
  La  La1  1  0.39152737  0.87433898  0.77232392  1
  La  La2  1  0.11920345  0.60201505  0.22767608  1
  La  La3  1  0.89152737  0.39798495  0.77232392  1
  Cu  Cu4  1  0.00995648  -0.00000000  -0.00000000  1
  Cu  Cu5  1  0.50995648  0.50000000  -0.00000000  1
  Cu  Cu6  1  0.22780724  0.21509314  0.50000000  1
  Cu  Cu7  1  0.72780724  0.78490686  0.50000000  1
  O  O8  1  0.24552089  0.24317892  0.97676824  1
  O  O9  1  0.26875264  0.75682108  0.02323176  1
  O  O10  1  0.74552089  0.23358932  0.97676824  1
  O  O11  1  0.76875264  0.76641068  0.02323176  1
  O  O12  1  0.16627139  0.19775949  0.27395597  1
  O  O13  1  0.89231542  0.80224051  0.72604403  1
  O  O14  1  0.66627139  0.57619648  0.27395597  1
  O  O15  1  0.39231542  0.42380352  0.72604403  1
  O  O16  1  0.84264511  0.14909874  0.50000000  1
  O  O17  1  0.34264511  0.85090126  0.50000000  1
