# generated using pymatgen
data_La2Mg3H48(NO5)12
_symmetry_space_group_name_H-M   'P 1'
_cell_length_a   13.28748390
_cell_length_b   13.28748390
_cell_length_c   13.28748386
_cell_angle_alpha   49.46804385
_cell_angle_beta   49.46804384
_cell_angle_gamma   49.46804443
_symmetry_Int_Tables_number   1
_chemical_formula_structural   La2Mg3H48(NO5)12
_chemical_formula_sum   'La2 Mg3 H48 N12 O60'
_cell_volume   1245.64642673
_cell_formula_units_Z   1
loop_
 _symmetry_equiv_pos_site_id
 _symmetry_equiv_pos_as_xyz
  1  'x, y, z'
loop_
 _atom_site_type_symbol
 _atom_site_label
 _atom_site_symmetry_multiplicity
 _atom_site_fract_x
 _atom_site_fract_y
 _atom_site_fract_z
 _atom_site_occupancy
  La  La0  1  0.75007736  0.75007736  0.75007736  1
  La  La1  1  0.24992264  0.24992264  0.24992264  1
  Mg  Mg2  1  0.00000000  0.00000000  0.00000000  1
  Mg  Mg3  1  0.57206041  0.57206041  0.57206041  1
  Mg  Mg4  1  0.42793959  0.42793959  0.42793959  1
  H  H5  1  0.81910547  0.13031566  0.87349147  1
  H  H6  1  0.13031566  0.87349147  0.81910547  1
  H  H7  1  0.87349147  0.81910547  0.13031566  1
  H  H8  1  0.18089453  0.86968434  0.12650853  1
  H  H9  1  0.86968434  0.12650853  0.18089453  1
  H  H10  1  0.12650853  0.18089453  0.86968434  1
  H  H11  1  0.74195506  0.20354819  0.97946399  1
  H  H12  1  0.20354819  0.97946399  0.74195506  1
  H  H13  1  0.97946399  0.74195506  0.20354819  1
  H  H14  1  0.25804494  0.79645181  0.02053601  1
  H  H15  1  0.79645181  0.02053601  0.25804494  1
  H  H16  1  0.02053601  0.25804494  0.79645181  1
  H  H17  1  0.84392543  0.54207543  0.43860257  1
  H  H18  1  0.54207543  0.43860257  0.84392543  1
  H  H19  1  0.43860257  0.84392543  0.54207543  1
  H  H20  1  0.15607457  0.45792457  0.56139743  1
  H  H21  1  0.45792457  0.56139743  0.15607457  1
  H  H22  1  0.56139743  0.15607457  0.45792457  1
  H  H23  1  0.75008324  0.69396928  0.45108956  1
  H  H24  1  0.69396928  0.45108956  0.75008324  1
  H  H25  1  0.45108956  0.75008324  0.69396928  1
  H  H26  1  0.24991676  0.30603072  0.54891044  1
  H  H27  1  0.30603072  0.54891044  0.24991676  1
  H  H28  1  0.54891044  0.24991676  0.30603072  1
  H  H29  1  0.73440873  0.36766100  0.45789975  1
  H  H30  1  0.36766100  0.45789975  0.73440873  1
  H  H31  1  0.45789975  0.73440873  0.36766100  1
  H  H32  1  0.26559127  0.63233900  0.54210025  1
  H  H33  1  0.63233900  0.54210025  0.26559127  1
  H  H34  1  0.54210025  0.26559127  0.63233900  1
  H  H35  1  0.74999918  0.29418855  0.60335494  1
  H  H36  1  0.29418855  0.60335494  0.74999918  1
  H  H37  1  0.60335494  0.74999918  0.29418855  1
  H  H38  1  0.25000082  0.70581145  0.39664506  1
  H  H39  1  0.70581145  0.39664506  0.25000082  1
  H  H40  1  0.39664506  0.25000082  0.70581145  1
  H  H41  1  0.93634620  0.08992330  0.65946916  1
  H  H42  1  0.08992330  0.65946916  0.93634620  1
  H  H43  1  0.65946916  0.93634620  0.08992330  1
  H  H44  1  0.06365380  0.91007670  0.34053084  1
  H  H45  1  0.91007670  0.34053084  0.06365380  1
  H  H46  1  0.34053084  0.06365380  0.91007670  1
  H  H47  1  0.78785305  0.07281314  0.75379998  1
  H  H48  1  0.07281314  0.75379998  0.78785305  1
  H  H49  1  0.75379998  0.78785305  0.07281314  1
  H  H50  1  0.21214695  0.92718686  0.24620002  1
  H  H51  1  0.92718686  0.24620002  0.21214695  1
  H  H52  1  0.24620002  0.21214695  0.92718686  1
  N  N53  1  0.48519222  0.94594837  0.66712318  1
  N  N54  1  0.94594837  0.66712318  0.48519222  1
  N  N55  1  0.66712318  0.48519222  0.94594837  1
  N  N56  1  0.51480778  0.05405163  0.33287682  1
  N  N57  1  0.05405163  0.33287682  0.51480778  1
  N  N58  1  0.33287682  0.51480778  0.05405163  1
  N  N59  1  0.83490152  0.01333063  0.54654816  1
  N  N60  1  0.01333063  0.54654816  0.83490152  1
  N  N61  1  0.54654816  0.83490152  0.01333063  1
  N  N62  1  0.16509848  0.98666937  0.45345184  1
  N  N63  1  0.98666937  0.45345184  0.16509848  1
  N  N64  1  0.45345184  0.16509848  0.98666937  1
  O  O65  1  0.51315071  0.81240418  0.74666982  1
  O  O66  1  0.81240418  0.74666982  0.51315071  1
  O  O67  1  0.74666982  0.51315071  0.81240418  1
  O  O68  1  0.48684929  0.18759582  0.25333018  1
  O  O69  1  0.18759582  0.25333018  0.48684929  1
  O  O70  1  0.25333018  0.48684929  0.18759582  1
  O  O71  1  0.37795106  0.02790745  0.63622027  1
  O  O72  1  0.02790745  0.63622027  0.37795107  1
  O  O73  1  0.63622027  0.37795106  0.02790745  1
  O  O74  1  0.62204894  0.97209255  0.36377973  1
  O  O75  1  0.97209255  0.36377973  0.62204893  1
  O  O76  1  0.36377973  0.62204894  0.97209255  1
  O  O77  1  0.57377007  0.99377490  0.61839739  1
  O  O78  1  0.99377490  0.61839739  0.57377007  1
  O  O79  1  0.61839739  0.57377007  0.99377490  1
  O  O80  1  0.42622993  0.00622510  0.38160261  1
  O  O81  1  0.00622510  0.38160261  0.42622993  1
  O  O82  1  0.38160261  0.42622993  0.00622510  1
  O  O83  1  0.75634867  0.98632076  0.68093869  1
  O  O84  1  0.98632076  0.68093869  0.75634867  1
  O  O85  1  0.68093869  0.75634867  0.98632076  1
  O  O86  1  0.24365133  0.01367924  0.31906131  1
  O  O87  1  0.01367924  0.31906131  0.24365133  1
  O  O88  1  0.31906131  0.24365133  0.01367924  1
  O  O89  1  0.86265127  0.12243825  0.46270380  1
  O  O90  1  0.12243825  0.46270380  0.86265127  1
  O  O91  1  0.46270380  0.86265127  0.12243825  1
  O  O92  1  0.13734873  0.87756175  0.53729620  1
  O  O93  1  0.87756175  0.53729620  0.13734873  1
  O  O94  1  0.53729620  0.13734873  0.87756175  1
  O  O95  1  0.88355281  0.92212326  0.50211126  1
  O  O96  1  0.92212326  0.50211126  0.88355281  1
  O  O97  1  0.50211126  0.88355281  0.92212326  1
  O  O98  1  0.11644719  0.07787674  0.49788874  1
  O  O99  1  0.07787674  0.49788874  0.11644719  1
  O  O100  1  0.49788874  0.11644719  0.07787674  1
  O  O101  1  0.82134785  0.12201918  0.95155327  1
  O  O102  1  0.12201918  0.95155327  0.82134785  1
  O  O103  1  0.95155327  0.82134785  0.12201918  1
  O  O104  1  0.17865215  0.87798082  0.04844673  1
  O  O105  1  0.87798082  0.04844673  0.17865215  1
  O  O106  1  0.04844673  0.17865215  0.87798082  1
  O  O107  1  0.74962065  0.62467398  0.44491285  1
  O  O108  1  0.62467398  0.44491285  0.74962065  1
  O  O109  1  0.44491285  0.74962065  0.62467398  1
  O  O110  1  0.25037935  0.37532602  0.55508715  1
  O  O111  1  0.37532602  0.55508715  0.25037935  1
  O  O112  1  0.55508715  0.25037935  0.37532602  1
  O  O113  1  0.54266366  0.69395019  0.38136047  1
  O  O114  1  0.69395019  0.38136047  0.54266366  1
  O  O115  1  0.38136047  0.54266366  0.69395019  1
  O  O116  1  0.45733634  0.30604981  0.61863953  1
  O  O117  1  0.30604981  0.61863953  0.45733634  1
  O  O118  1  0.61863953  0.45733634  0.30604981  1
  O  O119  1  0.83589849  0.12474669  0.72651040  1
  O  O120  1  0.12474669  0.72651040  0.83589849  1
  O  O121  1  0.72651040  0.83589849  0.12474669  1
  O  O122  1  0.16410151  0.87525331  0.27348960  1
  O  O123  1  0.87525331  0.27348960  0.16410151  1
  O  O124  1  0.27348960  0.16410151  0.87525331  1
