# generated using pymatgen
data_Ba3SiO
_symmetry_space_group_name_H-M   'P 1'
_cell_length_a   7.53670993
_cell_length_b   7.82169961
_cell_length_c   10.86420851
_cell_angle_alpha   90.00000000
_cell_angle_beta   90.00000000
_cell_angle_gamma   90.00000000
_symmetry_Int_Tables_number   1
_chemical_formula_structural   Ba3SiO
_chemical_formula_sum   'Ba12 Si4 O4'
_cell_volume   640.44380013
_cell_formula_units_Z   4
loop_
 _symmetry_equiv_pos_site_id
 _symmetry_equiv_pos_as_xyz
  1  'x, y, z'
loop_
 _atom_site_type_symbol
 _atom_site_label
 _atom_site_symmetry_multiplicity
 _atom_site_fract_x
 _atom_site_fract_y
 _atom_site_fract_z
 _atom_site_occupancy
  Ba  Ba0  1  0.07964775  0.47974845  0.25000000  1
  Ba  Ba1  1  0.20376945  0.20118420  0.54201587  1
  Ba  Ba2  1  0.20376945  0.20118420  0.95798413  1
  Ba  Ba3  1  0.29623055  0.70118420  0.54201587  1
  Ba  Ba4  1  0.29623055  0.70118420  0.95798413  1
  Ba  Ba5  1  0.42035225  0.97974845  0.25000000  1
  Ba  Ba6  1  0.57964775  0.02025155  0.75000000  1
  Ba  Ba7  1  0.70376945  0.29881580  0.04201587  1
  Ba  Ba8  1  0.70376945  0.29881580  0.45798413  1
  Ba  Ba9  1  0.79623055  0.79881580  0.04201587  1
  Ba  Ba10  1  0.79623055  0.79881580  0.45798413  1
  Ba  Ba11  1  0.92035225  0.52025155  0.75000000  1
  Si  Si12  1  0.01730946  0.94704843  0.75000000  1
  Si  Si13  1  0.48269054  0.44704843  0.75000000  1
  Si  Si14  1  0.51730946  0.55295157  0.25000000  1
  Si  Si15  1  0.98269054  0.05295157  0.25000000  1
  O  O16  1  0.00000000  0.50000000  0.00000000  1
  O  O17  1  0.00000000  0.50000000  0.50000000  1
  O  O18  1  0.50000000  0.00000000  0.00000000  1
  O  O19  1  0.50000000  0.00000000  0.50000000  1
