# generated using pymatgen
data_Na3Al2P2O8F3
_symmetry_space_group_name_H-M   'P 1'
_cell_length_a   12.54009618
_cell_length_b   8.87748343
_cell_length_c   6.86272288
_cell_angle_alpha   129.92295655
_cell_angle_beta   117.02103610
_cell_angle_gamma   44.93342862
_symmetry_Int_Tables_number   1
_chemical_formula_structural   Na3Al2P2O8F3
_chemical_formula_sum   'Na6 Al4 P4 O16 F6'
_cell_volume   413.81890533
_cell_formula_units_Z   2
loop_
 _symmetry_equiv_pos_site_id
 _symmetry_equiv_pos_as_xyz
  1  'x, y, z'
loop_
 _atom_site_type_symbol
 _atom_site_label
 _atom_site_symmetry_multiplicity
 _atom_site_fract_x
 _atom_site_fract_y
 _atom_site_fract_z
 _atom_site_occupancy
  Na  Na0  1  0.98914686  0.28478818  0.99636902  1
  Na  Na1  1  0.22188982  0.29007039  0.00077108  1
  Na  Na2  1  0.35562887  0.50559423  0.99900453  1
  Na  Na3  1  0.72188982  0.26614996  0.99922892  1
  Na  Na4  1  0.48914686  0.73691810  0.00363098  1
  Na  Na5  1  0.85562887  0.78314803  0.00099547  1
  Al  Al6  1  0.00445016  0.17167569  0.35926829  1
  Al  Al7  1  0.00468079  0.81141969  0.64143698  1
  Al  Al8  1  0.50468079  0.17921873  0.35856302  1
  Al  Al9  1  0.50445016  0.81942498  0.64073171  1
  P  P10  1  0.24839469  0.24922323  0.49574785  1
  P  P11  1  0.24949572  0.75272273  0.50501556  1
  P  P12  1  0.74839469  0.25398740  0.50425215  1
  P  P13  1  0.74949572  0.74828582  0.49498444  1
  O  O14  1  0.14774052  0.16697673  0.32186887  1
  O  O15  1  0.34846627  0.13816131  0.67232493  1
  O  O16  1  0.15409896  0.53276671  0.67795298  1
  O  O17  1  0.34812302  0.16368987  0.32188400  1
  O  O18  1  0.14914674  0.84079376  0.67760235  1
  O  O19  1  0.34927029  0.46663608  0.32617795  1
  O  O20  1  0.15507123  0.85820106  0.32525524  1
  O  O21  1  0.34913562  0.83961636  0.68043614  1
  O  O22  1  0.65409896  0.15903538  0.32204702  1
  O  O23  1  0.84812302  0.14006309  0.67811600  1
  O  O24  1  0.64774052  0.53754223  0.67813113  1
  O  O25  1  0.84846627  0.16490615  0.32767507  1
  O  O26  1  0.65507123  0.83165748  0.67474476  1
  O  O27  1  0.84913562  0.46211240  0.31956386  1
  O  O28  1  0.64914674  0.86091176  0.32239765  1
  O  O29  1  0.84927029  0.83482334  0.67382205  1
  F  F30  1  0.99608993  0.00417703  0.00018578  1
  F  F31  1  0.00446144  0.34433117  0.71007817  1
  F  F32  1  0.00540907  0.63675261  0.29110667  1
  F  F33  1  0.49608993  0.00364411  0.99981422  1
  F  F34  1  0.50540907  0.35242926  0.70889333  1
  F  F35  1  0.50446144  0.64674596  0.28992183  1
