# generated using pymatgen
data_CaLaMnMoO6
_symmetry_space_group_name_H-M   'P 1'
_cell_length_a   5.62755497
_cell_length_b   5.74815049
_cell_length_c   8.08252721
_cell_angle_alpha   90.00000000
_cell_angle_beta   90.47732002
_cell_angle_gamma   90.00000000
_symmetry_Int_Tables_number   1
_chemical_formula_structural   CaLaMnMoO6
_chemical_formula_sum   'Ca2 La2 Mn2 Mo2 O12'
_cell_volume   261.44478338
_cell_formula_units_Z   2
loop_
 _symmetry_equiv_pos_site_id
 _symmetry_equiv_pos_as_xyz
  1  'x, y, z'
loop_
 _atom_site_type_symbol
 _atom_site_label
 _atom_site_symmetry_multiplicity
 _atom_site_fract_x
 _atom_site_fract_y
 _atom_site_fract_z
 _atom_site_occupancy
  Ca  Ca0  1  0.48914567  0.44373696  0.25290988  1
  Ca  Ca1  1  0.98914567  0.05626304  0.75290988  1
  La  La2  1  0.00982548  0.94634347  0.24495013  1
  La  La3  1  0.50982548  0.55365653  0.74495013  1
  Mn  Mn4  1  0.00045556  0.49755526  0.00009224  1
  Mn  Mn5  1  0.50045556  0.00244474  0.50009224  1
  Mo  Mo6  1  0.50051398  0.00163178  0.99867094  1
  Mo  Mo7  1  0.00051398  0.49836822  0.49867094  1
  O  O8  1  0.09758488  0.46447063  0.74183500  1
  O  O9  1  0.18269171  0.21670103  0.44673937  1
  O  O10  1  0.20573167  0.19090209  0.05018836  1
  O  O11  1  0.29715173  0.68770365  0.44999414  1
  O  O12  1  0.31964330  0.71945680  0.05639762  1
  O  O13  1  0.39725602  0.96910780  0.75822232  1
  O  O14  1  0.59758488  0.03552937  0.24183500  1
  O  O15  1  0.68269171  0.28329897  0.94673937  1
  O  O16  1  0.70573167  0.30909791  0.55018836  1
  O  O17  1  0.79715173  0.81229635  0.94999414  1
  O  O18  1  0.81964330  0.78054320  0.55639762  1
  O  O19  1  0.89725602  0.53089220  0.25822232  1
