# generated using pymatgen
data_AsN2F7
_symmetry_space_group_name_H-M   'P 1'
_cell_length_a   26.26649748
_cell_length_b   5.33782828
_cell_length_c   5.33782828
_cell_angle_alpha   65.94315279
_cell_angle_beta   89.37069033
_cell_angle_gamma   89.37069333
_symmetry_Int_Tables_number   1
_chemical_formula_structural   AsN2F7
_chemical_formula_sum   'As5 N10 F35'
_cell_volume   683.33269506
_cell_formula_units_Z   5
loop_
 _symmetry_equiv_pos_site_id
 _symmetry_equiv_pos_as_xyz
  1  'x, y, z'
loop_
 _atom_site_type_symbol
 _atom_site_label
 _atom_site_symmetry_multiplicity
 _atom_site_fract_x
 _atom_site_fract_y
 _atom_site_fract_z
 _atom_site_occupancy
  As  As0  1  0.09996183  0.00005594  0.00005594  1
  As  As1  1  0.29997438  0.00002080  0.00002080  1
  As  As2  1  0.49982693  0.00033643  0.00033643  1
  As  As3  1  0.69981969  0.00034265  0.00034265  1
  As  As4  1  0.89982868  0.00030202  0.00030202  1
  N  N5  1  0.01478771  0.37585337  0.37585337  1
  N  N6  1  0.18520817  0.62404792  0.62404792  1
  N  N7  1  0.19849880  0.50500892  0.50500892  1
  N  N8  1  0.40144360  0.49509313  0.49509313  1
  N  N9  1  0.41478697  0.37586984  0.37586984  1
  N  N10  1  0.60143885  0.49509153  0.49509153  1
  N  N11  1  0.61478454  0.37585486  0.37585486  1
  N  N12  1  0.80143784  0.49509654  0.49509654  1
  N  N13  1  0.81478345  0.37587353  0.37587353  1
  N  N14  1  0.00143724  0.49509167  0.49509167  1
  F  F15  1  0.05033652  0.86826033  0.86826033  1
  F  F16  1  0.06714525  0.32142271  0.88566421  1
  F  F17  1  0.06714525  0.88566421  0.32142271  1
  F  F18  1  0.13286996  0.11438906  0.67857611  1
  F  F19  1  0.13286996  0.67857611  0.11438906  1
  F  F20  1  0.14966821  0.13180244  0.13180244  1
  F  F21  1  0.21543953  0.37254949  0.37254949  1
  F  F22  1  0.25034911  0.86835374  0.86835374  1
  F  F23  1  0.26722716  0.32080861  0.88587018  1
  F  F24  1  0.26722716  0.88587018  0.32080861  1
  F  F25  1  0.33280688  0.11415723  0.67913102  1
  F  F26  1  0.33280688  0.67913102  0.11415723  1
  F  F27  1  0.34967286  0.13166940  0.13166940  1
  F  F28  1  0.38454640  0.62746430  0.62746430  1
  F  F29  1  0.45028995  0.86832317  0.86832317  1
  F  F30  1  0.46704737  0.32189055  0.88555174  1
  F  F31  1  0.46704737  0.88555174  0.32189055  1
  F  F32  1  0.53271657  0.11408324  0.67963452  1
  F  F33  1  0.53271657  0.67963452  0.11408324  1
  F  F34  1  0.54960346  0.13175328  0.13175328  1
  F  F35  1  0.58453257  0.62743902  0.62743901  1
  F  F36  1  0.65028492  0.86830956  0.86830956  1
  F  F37  1  0.66704778  0.32191513  0.88554742  1
  F  F38  1  0.66704778  0.88554742  0.32191513  1
  F  F39  1  0.73270852  0.11408300  0.67963960  1
  F  F40  1  0.73270852  0.67963960  0.11408300  1
  F  F41  1  0.74960442  0.13174183  0.13174183  1
  F  F42  1  0.78453403  0.62746079  0.62746079  1
  F  F43  1  0.85028617  0.86830173  0.86830173  1
  F  F44  1  0.86706107  0.32188238  0.88554326  1
  F  F45  1  0.86706107  0.88554326  0.32188238  1
  F  F46  1  0.93270974  0.11406761  0.67960439  1
  F  F47  1  0.93270974  0.67960439  0.11406761  1
  F  F48  1  0.94961974  0.13171767  0.13171767  1
  F  F49  1  0.98453284  0.62745215  0.62745215  1
