# generated using pymatgen
data_ZrH12C2(NF)6
_symmetry_space_group_name_H-M   'P 1'
_cell_length_a   8.29086927
_cell_length_b   10.06212875
_cell_length_c   8.39229358
_cell_angle_alpha   100.47051775
_cell_angle_beta   115.66450783
_cell_angle_gamma   102.47003299
_symmetry_Int_Tables_number   1
_chemical_formula_structural   ZrH12C2(NF)6
_chemical_formula_sum   'Zr2 H24 C4 N12 F12'
_cell_volume   585.25021489
_cell_formula_units_Z   2
loop_
 _symmetry_equiv_pos_site_id
 _symmetry_equiv_pos_as_xyz
  1  'x, y, z'
loop_
 _atom_site_type_symbol
 _atom_site_label
 _atom_site_symmetry_multiplicity
 _atom_site_fract_x
 _atom_site_fract_y
 _atom_site_fract_z
 _atom_site_occupancy
  Zr  Zr0  1  0.52050334  0.84525461  0.85730863  1
  Zr  Zr1  1  0.47949666  0.15474539  0.14269137  1
  H  H2  1  0.71975976  0.58420456  0.98798853  1
  H  H3  1  0.28024024  0.41579544  0.01201147  1
  H  H4  1  0.75054991  0.43987571  0.07678099  1
  H  H5  1  0.24945009  0.56012429  0.92321901  1
  H  H6  1  0.72228429  0.22395388  0.67902314  1
  H  H7  1  0.27771571  0.77604612  0.32097686  1
  H  H8  1  0.74715187  0.23116442  0.89953836  1
  H  H9  1  0.25284813  0.76883558  0.10046164  1
  H  H10  1  0.65398602  0.88372850  0.33604703  1
  H  H11  1  0.34601398  0.11627150  0.66395297  1
  H  H12  1  0.64464336  0.88411355  0.53958176  1
  H  H13  1  0.35535664  0.11588645  0.46041824  1
  H  H14  1  0.91523112  0.89108852  0.80295728  1
  H  H15  1  0.08476888  0.10891148  0.19704272  1
  H  H16  1  0.07999880  0.82324573  0.76758481  1
  H  H17  1  0.92000120  0.17675427  0.23241519  1
  H  H18  1  0.67246071  0.55863933  0.68986258  1
  H  H19  1  0.32753929  0.44136067  0.31013742  1
  H  H20  1  0.68677524  0.40952742  0.56407692  1
  H  H21  1  0.31322476  0.59047258  0.43592308  1
  H  H22  1  0.90980482  0.18135885  0.51488836  1
  H  H23  1  0.09019518  0.81864115  0.48511164  1
  H  H24  1  0.87452742  0.80368707  0.29137761  1
  H  H25  1  0.12547258  0.19631293  0.70862239  1
  C  C26  1  0.87291116  0.84225716  0.53626834  1
  C  C27  1  0.12708884  0.15774284  0.46373166  1
  C  C28  1  0.73552154  0.41355958  0.82460412  1
  C  C29  1  0.26447846  0.58644042  0.17539588  1
  N  N30  1  0.25811869  0.51277530  0.02233255  1
  N  N31  1  0.74188131  0.48722470  0.97766745  1
  N  N32  1  0.75286457  0.28258606  0.80757914  1
  N  N33  1  0.24713543  0.71741394  0.19242086  1
  N  N34  1  0.29533092  0.13740716  0.54028754  1
  N  N35  1  0.70466908  0.86259284  0.45971246  1
  N  N36  1  0.95771391  0.84739914  0.71466098  1
  N  N37  1  0.04228609  0.15260086  0.28533902  1
  N  N38  1  0.72193584  0.47342560  0.69105424  1
  N  N39  1  0.27806416  0.52657440  0.30894576  1
  N  N40  1  0.05011636  0.18883143  0.57123125  1
  N  N41  1  0.94988364  0.81116857  0.42876875  1
  F  F42  1  0.25383198  0.01505484  0.12995224  1
  F  F43  1  0.74616802  0.98494516  0.87004776  1
  F  F44  1  0.58954387  0.97240253  0.13760031  1
  F  F45  1  0.41045613  0.02759747  0.86239969  1
  F  F46  1  0.53922267  0.67401437  0.70104562  1
  F  F47  1  0.46077733  0.32598563  0.29895438  1
  F  F48  1  0.35196126  0.83536262  0.57852021  1
  F  F49  1  0.64803874  0.16463738  0.42147979  1
  F  F50  1  0.27480693  0.73547388  0.84690356  1
  F  F51  1  0.72519307  0.26452612  0.15309644  1
  F  F52  1  0.68850887  0.76295010  0.05120937  1
  F  F53  1  0.31149113  0.23704990  0.94879063  1
