# generated using pymatgen
data_Nb25S48
_symmetry_space_group_name_H-M   'P 1'
_cell_length_a   13.19039361
_cell_length_b   45.47024623
_cell_length_c   25.52293397
_cell_angle_alpha   13.44472157
_cell_angle_beta   25.93049708
_cell_angle_gamma   25.52049760
_symmetry_Int_Tables_number   1
_chemical_formula_structural   Nb25S48
_chemical_formula_sum   'Nb25 S48'
_cell_volume   1497.26358644
_cell_formula_units_Z   1
loop_
 _symmetry_equiv_pos_site_id
 _symmetry_equiv_pos_as_xyz
  1  'x, y, z'
loop_
 _atom_site_type_symbol
 _atom_site_label
 _atom_site_symmetry_multiplicity
 _atom_site_fract_x
 _atom_site_fract_y
 _atom_site_fract_z
 _atom_site_occupancy
  Nb  Nb0  1  0.00615924  -0.00099730  0.99973139  1
  Nb  Nb1  1  0.50291206  0.00100015  0.99719771  1
  Nb  Nb2  1  0.41327798  0.16325652  0.00794745  1
  Nb  Nb3  1  0.33822977  0.33312130  -0.00065327  1
  Nb  Nb4  1  0.91590730  0.16480674  0.00467271  1
  Nb  Nb5  1  0.41487788  0.16845670  0.49797472  1
  Nb  Nb6  1  0.24330616  0.50099550  0.99764259  1
  Nb  Nb7  1  0.83968589  0.33098580  0.00071881  1
  Nb  Nb8  1  0.33994388  0.33741141  0.49007756  1
  Nb  Nb9  1  0.17638118  0.66503161  -0.00123315  1
  Nb  Nb10  1  0.91258082  0.16978838  0.49758949  1
  Nb  Nb11  1  0.74222170  0.50326840  -0.00054055  1
  Nb  Nb12  1  0.24069862  0.50036275  0.50481113  1
  Nb  Nb13  1  0.07487925  0.83188551  0.00813604  1
  Nb  Nb14  1  0.83311488  0.33614842  0.49529201  1
  Nb  Nb15  1  0.66851996  0.66650092  -0.00022713  1
  Nb  Nb16  1  0.16558948  0.66711744  0.50162244  1
  Nb  Nb17  1  0.74728338  0.49852756  0.50542770  1
  Nb  Nb18  1  0.57830118  0.83391564  0.00267158  1
  Nb  Nb19  1  0.25593103  0.66664575  0.59159801  1
  Nb  Nb20  1  0.07951014  0.83143403  0.50160353  1
  Nb  Nb21  1  0.66336211  0.66641221  0.49872336  1
  Nb  Nb22  1  0.58132759  0.82970539  0.50857920  1
  Nb  Nb23  1  0.50381120  0.99794462  0.50261207  1
  Nb  Nb24  1  0.00952869  0.99697681  0.50083627  1
  S  S25  1  0.29936433  0.99745150  0.29293344  1
  S  S26  1  0.37787620  0.99771936  0.37785667  1
  S  S27  1  0.21089815  0.16686476  0.29241051  1
  S  S28  1  0.78654908  0.00335404  0.28837139  1
  S  S29  1  0.29261090  0.16527093  0.37633354  1
  S  S30  1  0.88132880  0.99482222  0.37969226  1
  S  S31  1  0.12320734  0.33053328  0.29684928  1
  S  S32  1  0.29481193  0.99925131  0.79272567  1
  S  S33  1  0.71365675  0.16296834  0.29739935  1
  S  S34  1  0.20935383  0.33680291  0.36630359  1
  S  S35  1  0.37757397  0.00370763  0.86740475  1
  S  S36  1  0.79503282  0.16632514  0.37266024  1
  S  S37  1  0.03674732  0.50044571  0.29525288  1
  S  S38  1  0.20969087  0.17001754  0.78750228  1
  S  S39  1  0.79605674  0.00299644  0.78577570  1
  S  S40  1  0.62874610  0.33515495  0.28767880  1
  S  S41  1  0.12153069  0.50000900  0.37634883  1
  S  S42  1  0.29383337  0.16579774  0.87401606  1
  S  S43  1  0.70962177  0.33446925  0.37296772  1
  S  S44  1  0.87396598  0.00179637  0.87349100  1
  S  S45  1  0.13102994  0.33060697  0.79425915  1
  S  S46  1  0.71360321  0.16536352  0.79328222  1
  S  S47  1  0.53441809  0.49901488  0.29901685  1
  S  S48  1  0.20868164  0.33151561  0.87843726  1
  S  S49  1  0.03144196  0.66579793  0.38056151  1
  S  S50  1  0.79193559  0.16771362  0.87179929  1
  S  S51  1  0.62146527  0.49996423  0.37638596  1
  S  S52  1  0.04436261  0.50013224  0.79409720  1
  S  S53  1  0.45742550  0.66638603  0.29539653  1
  S  S54  1  0.62659993  0.33384809  0.79161148  1
  S  S55  1  0.12709161  0.50234418  0.87254318  1
  S  S56  1  0.71249609  0.33074663  0.87837480  1
  S  S57  1  0.54177253  0.66616004  0.37900439  1
  S  S58  1  0.55473574  0.48860373  0.80246531  1
  S  S59  1  0.37759061  0.84429218  0.26839024  1
  S  S60  1  0.96142541  0.66739004  0.28880033  1
  S  S61  1  0.04427561  0.66565159  0.87227268  1
  S  S62  1  0.61702812  0.50089301  0.87305775  1
  S  S63  1  0.45243746  0.83055583  0.37937785  1
  S  S64  1  0.45813634  0.66695086  0.79172408  1
  S  S65  1  0.87776295  0.83221664  0.29520050  1
  S  S66  1  0.53713400  0.66672794  0.87817674  1
  S  S67  1  0.96167335  0.83172659  0.37922226  1
  S  S68  1  0.36858899  0.83490797  0.79488916  1
  S  S69  1  0.92809503  0.66741935  0.80190653  1
  S  S70  1  0.45451322  0.83241534  0.87808279  1
  S  S71  1  0.87238475  0.83264659  0.79642365  1
  S  S72  1  0.95460413  0.83336267  0.87578371  1
