# generated using pymatgen
data_KAs
_symmetry_space_group_name_H-M   'P 1'
_cell_length_a   6.56130699
_cell_length_b   6.80348931
_cell_length_c   11.76160068
_cell_angle_alpha   90.00000000
_cell_angle_beta   90.00000000
_cell_angle_gamma   90.00000000
_symmetry_Int_Tables_number   1
_chemical_formula_structural   KAs
_chemical_formula_sum   'K8 As8'
_cell_volume   525.03528993
_cell_formula_units_Z   8
loop_
 _symmetry_equiv_pos_site_id
 _symmetry_equiv_pos_as_xyz
  1  'x, y, z'
loop_
 _atom_site_type_symbol
 _atom_site_label
 _atom_site_symmetry_multiplicity
 _atom_site_fract_x
 _atom_site_fract_y
 _atom_site_fract_z
 _atom_site_occupancy
  K  K0  1  0.08371158  0.60195071  0.96100705  1
  K  K1  1  0.58371158  0.39804929  0.53899295  1
  K  K2  1  0.41628842  0.10195071  0.03899295  1
  K  K3  1  0.91628842  0.89804929  0.46100705  1
  K  K4  1  0.34962456  0.85633079  0.66909570  1
  K  K5  1  0.84962456  0.14366921  0.83090430  1
  K  K6  1  0.15037544  0.35633079  0.33090430  1
  K  K7  1  0.65037544  0.64366921  0.16909570  1
  As  As8  1  0.84285893  0.68515042  0.71689848  1
  As  As9  1  0.34285893  0.31484958  0.78310152  1
  As  As10  1  0.65714107  0.18515042  0.28310152  1
  As  As11  1  0.15714107  0.81484958  0.21689848  1
  As  As12  1  0.58215575  0.56947863  0.86164394  1
  As  As13  1  0.08215575  0.43052137  0.63835606  1
  As  As14  1  0.91784425  0.06947863  0.13835606  1
  As  As15  1  0.41784425  0.93052137  0.36164394  1
