# generated using pymatgen
data_Sr2CrClO4
_symmetry_space_group_name_H-M   'P 1'
_cell_length_a   6.61654272
_cell_length_b   7.56652448
_cell_length_c   11.58551524
_cell_angle_alpha   90.00000000
_cell_angle_beta   90.00000000
_cell_angle_gamma   90.00000000
_symmetry_Int_Tables_number   1
_chemical_formula_structural   Sr2CrClO4
_chemical_formula_sum   'Sr8 Cr4 Cl4 O16'
_cell_volume   580.01992819
_cell_formula_units_Z   4
loop_
 _symmetry_equiv_pos_site_id
 _symmetry_equiv_pos_as_xyz
  1  'x, y, z'
loop_
 _atom_site_type_symbol
 _atom_site_label
 _atom_site_symmetry_multiplicity
 _atom_site_fract_x
 _atom_site_fract_y
 _atom_site_fract_z
 _atom_site_occupancy
  Sr  Sr0  1  0.13626119  0.46525725  0.25000000  1
  Sr  Sr1  1  0.62231838  0.25000000  0.00000000  1
  Sr  Sr2  1  0.37768162  0.75000000  0.00000000  1
  Sr  Sr3  1  0.62231838  0.25000000  0.50000000  1
  Sr  Sr4  1  0.13626119  0.03474275  0.75000000  1
  Sr  Sr5  1  0.86373881  0.96525725  0.25000000  1
  Sr  Sr6  1  0.86373881  0.53474275  0.75000000  1
  Sr  Sr7  1  0.37768162  0.75000000  0.50000000  1
  Cr  Cr8  1  0.87535222  0.75000000  0.50000000  1
  Cr  Cr9  1  0.12464778  0.25000000  0.00000000  1
  Cr  Cr10  1  0.87535222  0.75000000  0.00000000  1
  Cr  Cr11  1  0.12464778  0.25000000  0.50000000  1
  Cl  Cl12  1  0.51685938  0.82313913  0.75000000  1
  Cl  Cl13  1  0.48314062  0.32313913  0.75000000  1
  Cl  Cl14  1  0.51685938  0.67686087  0.25000000  1
  Cl  Cl15  1  0.48314062  0.17686087  0.25000000  1
  O  O16  1  0.03394876  0.73087438  0.38161840  1
  O  O17  1  0.96605124  0.26912562  0.61838160  1
  O  O18  1  0.28413696  0.07672030  0.96783328  1
  O  O19  1  0.96605124  0.23087438  0.11838160  1
  O  O20  1  0.71586304  0.57672030  0.96783328  1
  O  O21  1  0.71586304  0.92327970  0.03216672  1
  O  O22  1  0.03394876  0.76912562  0.61838160  1
  O  O23  1  0.96605124  0.23087438  0.38161840  1
  O  O24  1  0.71586304  0.92327970  0.46783328  1
  O  O25  1  0.96605124  0.26912562  0.88161840  1
  O  O26  1  0.28413696  0.42327970  0.03216672  1
  O  O27  1  0.71586304  0.57672030  0.53216672  1
  O  O28  1  0.28413696  0.42327970  0.46783328  1
  O  O29  1  0.03394876  0.73087438  0.11838160  1
  O  O30  1  0.28413696  0.07672030  0.53216672  1
  O  O31  1  0.03394876  0.76912562  0.88161840  1
