# generated using pymatgen
data_SrCa7Mn6(FeO12)2
_symmetry_space_group_name_H-M   'P 1'
_cell_length_a   7.67731991
_cell_length_b   7.67731991
_cell_length_c   7.63125881
_cell_angle_alpha   90.00000000
_cell_angle_beta   90.00000000
_cell_angle_gamma   89.99417648
_symmetry_Int_Tables_number   1
_chemical_formula_structural   SrCa7Mn6(FeO12)2
_chemical_formula_sum   'Sr1 Ca7 Mn6 Fe2 O24'
_cell_volume   449.79586232
_cell_formula_units_Z   1
loop_
 _symmetry_equiv_pos_site_id
 _symmetry_equiv_pos_as_xyz
  1  'x, y, z'
loop_
 _atom_site_type_symbol
 _atom_site_label
 _atom_site_symmetry_multiplicity
 _atom_site_fract_x
 _atom_site_fract_y
 _atom_site_fract_z
 _atom_site_occupancy
  Sr  Sr0  1  0.74991629  0.25008371  0.75000000  1
  Ca  Ca1  1  0.25027196  0.25025492  0.25000000  1
  Ca  Ca2  1  0.25019839  0.25028637  0.75000000  1
  Ca  Ca3  1  0.25020334  0.74979666  0.25000000  1
  Ca  Ca4  1  0.25026261  0.74973739  0.75000000  1
  Ca  Ca5  1  0.74975091  0.25024909  0.25000000  1
  Ca  Ca6  1  0.74974508  0.74972804  0.25000000  1
  Ca  Ca7  1  0.74971363  0.74980161  0.75000000  1
  Mn  Mn8  1  0.00059548  0.50047923  0.00054947  1
  Mn  Mn9  1  0.00059548  0.50047923  0.49945053  1
  Mn  Mn10  1  0.49952077  0.99940452  0.00054947  1
  Mn  Mn11  1  0.49952077  0.99940452  0.49945053  1
  Mn  Mn12  1  0.49949286  0.50050714  0.00053302  1
  Mn  Mn13  1  0.49949286  0.50050714  0.49946698  1
  Fe  Fe14  1  0.00060925  0.99939075  0.00053021  1
  Fe  Fe15  1  0.00060925  0.99939075  0.49946979  1
  O  O16  1  0.25361509  0.99955884  0.00045428  1
  O  O17  1  0.25361509  0.99955884  0.49954572  1
  O  O18  1  0.25058295  0.50027352  0.00029367  1
  O  O19  1  0.25058295  0.50027352  0.49970633  1
  O  O20  1  0.74637280  0.99753095  0.00241348  1
  O  O21  1  0.74637280  0.99753095  0.49758652  1
  O  O22  1  0.74941121  0.50273757  0.00266902  1
  O  O23  1  0.74941121  0.50273757  0.49733098  1
  O  O24  1  0.00246905  0.25362720  0.00241348  1
  O  O25  1  0.00246905  0.25362720  0.49758652  1
  O  O26  1  0.00044116  0.74638491  0.00045428  1
  O  O27  1  0.00044116  0.74638491  0.49954572  1
  O  O28  1  0.49726243  0.25058879  0.00266902  1
  O  O29  1  0.49726243  0.25058879  0.49733098  1
  O  O30  1  0.49972648  0.74941705  0.00029367  1
  O  O31  1  0.49972648  0.74941705  0.49970633  1
  O  O32  1  0.00044561  0.99955439  0.25000000  1
  O  O33  1  0.00230857  0.99769143  0.75000000  1
  O  O34  1  0.00024364  0.50042925  0.25000000  1
  O  O35  1  0.00261975  0.50254988  0.75000000  1
  O  O36  1  0.49957075  0.99975636  0.25000000  1
  O  O37  1  0.49745012  0.99738025  0.75000000  1
  O  O38  1  0.49973201  0.50026799  0.25000000  1
  O  O39  1  0.49736825  0.50263175  0.75000000  1
