# generated using pymatgen
data_NdReMoO8
_symmetry_space_group_name_H-M   'P 1'
_cell_length_a   6.27926528
_cell_length_b   9.97673386
_cell_length_c   12.46693064
_cell_angle_alpha   90.00000000
_cell_angle_beta   96.34813179
_cell_angle_gamma   90.00000000
_symmetry_Int_Tables_number   1
_chemical_formula_structural   NdReMoO8
_chemical_formula_sum   'Nd4 Re4 Mo4 O32'
_cell_volume   776.22147388
_cell_formula_units_Z   4
loop_
 _symmetry_equiv_pos_site_id
 _symmetry_equiv_pos_as_xyz
  1  'x, y, z'
loop_
 _atom_site_type_symbol
 _atom_site_label
 _atom_site_symmetry_multiplicity
 _atom_site_fract_x
 _atom_site_fract_y
 _atom_site_fract_z
 _atom_site_occupancy
  Nd  Nd0  1  0.80132282  0.23808939  0.62505148  1
  Nd  Nd1  1  0.30132282  0.26191061  0.12505148  1
  Nd  Nd2  1  0.19867718  0.76191061  0.37494852  1
  Nd  Nd3  1  0.69867718  0.73808939  0.87494852  1
  Re  Re4  1  0.77932880  0.98892638  0.15497618  1
  Re  Re5  1  0.22067120  0.01107362  0.84502382  1
  Re  Re6  1  0.72067120  0.48892638  0.34502382  1
  Re  Re7  1  0.27932880  0.51107362  0.65497618  1
  Mo  Mo8  1  0.76207237  0.33639405  0.92040854  1
  Mo  Mo9  1  0.23792763  0.66360595  0.07959146  1
  Mo  Mo10  1  0.26207237  0.16360595  0.42040854  1
  Mo  Mo11  1  0.73792763  0.83639405  0.57959146  1
  O  O12  1  0.55199605  0.07396306  0.19099693  1
  O  O13  1  0.73296777  0.22017200  0.80934721  1
  O  O14  1  0.77723161  0.42104564  0.47463365  1
  O  O15  1  0.72276839  0.92104564  0.02536635  1
  O  O16  1  0.44800395  0.92603694  0.80900307  1
  O  O17  1  0.71372562  0.50248912  0.86943586  1
  O  O18  1  0.49276799  0.39867369  0.65341720  1
  O  O19  1  0.78627438  0.00248912  0.63056414  1
  O  O20  1  0.07342851  0.20432019  0.51293986  1
  O  O21  1  0.52755334  0.17755101  0.48844579  1
  O  O22  1  0.22276839  0.57895436  0.52536635  1
  O  O23  1  0.34802086  0.63833719  0.74893021  1
  O  O24  1  0.65197914  0.36166281  0.25106979  1
  O  O25  1  0.27723161  0.07895436  0.97463365  1
  O  O26  1  0.94800395  0.57396306  0.30900307  1
  O  O27  1  0.84802086  0.86166281  0.24893021  1
  O  O28  1  0.76703223  0.72017200  0.69065279  1
  O  O29  1  0.57342851  0.29567981  0.01293986  1
  O  O30  1  0.05199605  0.42603694  0.69099693  1
  O  O31  1  0.23296777  0.27982800  0.30934721  1
  O  O32  1  0.50723201  0.60132631  0.34658280  1
  O  O33  1  0.15197914  0.13833719  0.75106979  1
  O  O34  1  0.02755334  0.32244899  0.98844579  1
  O  O35  1  0.28627438  0.49751088  0.13056414  1
  O  O36  1  0.97244666  0.67755101  0.01155421  1
  O  O37  1  0.47244666  0.82244899  0.51155421  1
  O  O38  1  0.42657149  0.70432019  0.98706014  1
  O  O39  1  0.92657149  0.79567981  0.48706014  1
  O  O40  1  0.00723201  0.89867369  0.84658280  1
  O  O41  1  0.21372562  0.99751088  0.36943586  1
  O  O42  1  0.99276799  0.10132631  0.15341720  1
  O  O43  1  0.26703223  0.77982800  0.19065279  1
