# generated using pymatgen
data_CsSb3F16
_symmetry_space_group_name_H-M   'P 1'
_cell_length_a   7.89392014
_cell_length_b   16.33296253
_cell_length_c   22.46846793
_cell_angle_alpha   90.00000000
_cell_angle_beta   90.00000000
_cell_angle_gamma   90.00000000
_symmetry_Int_Tables_number   1
_chemical_formula_structural   CsSb3F16
_chemical_formula_sum   'Cs8 Sb24 F128'
_cell_volume   2896.88432735
_cell_formula_units_Z   8
loop_
 _symmetry_equiv_pos_site_id
 _symmetry_equiv_pos_as_xyz
  1  'x, y, z'
loop_
 _atom_site_type_symbol
 _atom_site_label
 _atom_site_symmetry_multiplicity
 _atom_site_fract_x
 _atom_site_fract_y
 _atom_site_fract_z
 _atom_site_occupancy
  Cs  Cs0  1  0.96365178  0.41078721  0.50355565  1
  Cs  Cs1  1  0.44683937  0.14472006  0.75580744  1
  Cs  Cs2  1  0.55316063  0.64472006  0.24419256  1
  Cs  Cs3  1  0.03634822  0.91078721  0.49644435  1
  Cs  Cs4  1  0.55316063  0.14472006  0.25580744  1
  Cs  Cs5  1  0.44683937  0.64472006  0.74419256  1
  Cs  Cs6  1  0.96365178  0.91078721  0.99644435  1
  Cs  Cs7  1  0.03634822  0.41078721  0.00355565  1
  Sb  Sb8  1  0.45157026  0.86183052  0.86918327  1
  Sb  Sb9  1  0.54842974  0.86183052  0.36918327  1
  Sb  Sb10  1  0.95321329  0.68473381  0.61808060  1
  Sb  Sb11  1  0.04678671  0.68473381  0.11808060  1
  Sb  Sb12  1  0.04678671  0.18473381  0.38191940  1
  Sb  Sb13  1  0.03372559  0.63890019  0.38791866  1
  Sb  Sb14  1  0.62145052  0.13792077  0.47878766  1
  Sb  Sb15  1  0.51004142  0.42077905  0.85827196  1
  Sb  Sb16  1  0.13508954  0.92003821  0.27220623  1
  Sb  Sb17  1  0.03372559  0.13890019  0.11208134  1
  Sb  Sb18  1  0.62145052  0.63792077  0.02121234  1
  Sb  Sb19  1  0.13508954  0.42003821  0.22779377  1
  Sb  Sb20  1  0.37854948  0.63792077  0.52121234  1
  Sb  Sb21  1  0.48995858  0.92077905  0.14172804  1
  Sb  Sb22  1  0.86491046  0.42003821  0.72779377  1
  Sb  Sb23  1  0.54842974  0.36183052  0.13081673  1
  Sb  Sb24  1  0.96627441  0.63890019  0.88791866  1
  Sb  Sb25  1  0.48995858  0.42077905  0.35827196  1
  Sb  Sb26  1  0.37854948  0.13792077  0.97878766  1
  Sb  Sb27  1  0.96627441  0.13890019  0.61208134  1
  Sb  Sb28  1  0.45157026  0.36183052  0.63081673  1
  Sb  Sb29  1  0.51004142  0.92077905  0.64172804  1
  Sb  Sb30  1  0.86491046  0.92003821  0.77220623  1
  Sb  Sb31  1  0.95321329  0.18473381  0.88191940  1
  F  F32  1  0.31859625  0.32177161  0.69518860  1
  F  F33  1  0.74686382  0.52016209  0.71793386  1
  F  F34  1  0.84921463  0.67469267  0.05400766  1
  F  F35  1  0.22367542  0.69601059  0.17429932  1
  F  F36  1  0.42436936  0.60452503  0.98135336  1
  F  F37  1  0.95198481  0.46878903  0.26772227  1
  F  F38  1  0.89440038  0.63181601  0.17167239  1
  F  F39  1  0.93460948  0.52326871  0.88484686  1
  F  F40  1  0.95787507  0.42303915  0.65030542  1
  F  F41  1  0.83656133  0.23678748  0.94533493  1
  F  F42  1  0.57563064  0.10452503  0.01864664  1
  F  F43  1  0.35057902  0.36725208  0.19522388  1
  F  F44  1  0.74588164  0.13965386  0.55742243  1
  F  F45  1  0.11621404  0.08041157  0.41033154  1
  F  F46  1  0.06658368  0.31152216  0.24168563  1
  F  F47  1  0.08157153  0.12093982  0.53918062  1
  F  F48  1  0.34164820  0.39501468  0.42186810  1
  F  F49  1  0.53240673  0.25311820  0.62128095  1
  F  F50  1  0.56360603  0.03362584  0.63385460  1
  F  F51  1  0.42436936  0.10452503  0.51864664  1
  F  F52  1  0.68910787  0.92798090  0.09471889  1
  F  F53  1  0.71871381  0.85408415  0.42818511  1
  F  F54  1  0.65835180  0.89501468  0.57813190  1
  F  F55  1  0.93341632  0.31152216  0.74168563  1
  F  F56  1  0.37965891  0.90169559  0.42250914  1
  F  F57  1  0.53274899  0.13767531  0.40057962  1
  F  F58  1  0.59904895  0.97072711  0.34594739  1
  F  F59  1  0.04801519  0.96878903  0.73227773  1
  F  F60  1  0.77632458  0.69601059  0.67429932  1
  F  F61  1  0.46759327  0.25311820  0.12128095  1
  F  F62  1  0.81389063  0.65255495  0.82355173  1
  F  F63  1  0.68140375  0.82177161  0.30481140  1
  F  F64  1  0.40095105  0.97072711  0.84594739  1
  F  F65  1  0.35057902  0.86725208  0.30477612  1
  F  F66  1  0.64942098  0.86725208  0.80477612  1
  F  F67  1  0.93614336  0.78590352  0.13423358  1
  F  F68  1  0.16327084  0.64240358  0.83962830  1
  F  F69  1  0.03717617  0.25336019  0.09683586  1
  F  F70  1  0.40095105  0.47072711  0.65405261  1
  F  F71  1  0.65835180  0.39501468  0.92186810  1
  F  F72  1  0.31089213  0.42798090  0.90528111  1
  F  F73  1  0.26273181  0.90982287  0.19394283  1
  F  F74  1  0.91842847  0.12093982  0.03918062  1
  F  F75  1  0.59411992  0.94899358  0.21508766  1
  F  F76  1  0.73726819  0.90982287  0.69394283  1
  F  F77  1  0.04212493  0.42303915  0.15030542  1
  F  F78  1  0.06385664  0.28590352  0.86576642  1
  F  F79  1  0.18610937  0.65255495  0.32355173  1
  F  F80  1  0.53240673  0.75311820  0.87871905  1
  F  F81  1  0.51579708  0.30797170  0.33935118  1
  F  F82  1  0.25411836  0.63965386  0.44257757  1
  F  F83  1  0.46725101  0.13767531  0.90057962  1
  F  F84  1  0.89440038  0.13181601  0.32832761  1
  F  F85  1  0.10559962  0.13181601  0.82832761  1
  F  F86  1  0.04212493  0.92303915  0.34969458  1
  F  F87  1  0.28128619  0.85408415  0.92818511  1
  F  F88  1  0.93460948  0.02326871  0.61515314  1
  F  F89  1  0.88378596  0.08041157  0.91033154  1
  F  F90  1  0.40588008  0.94899358  0.71508766  1
  F  F91  1  0.06385664  0.78590352  0.63423358  1
  F  F92  1  0.28128619  0.35408415  0.57181489  1
  F  F93  1  0.95787507  0.92303915  0.84969458  1
  F  F94  1  0.48420292  0.80797170  0.66064882  1
  F  F95  1  0.59411992  0.44899358  0.28491234  1
  F  F96  1  0.96282383  0.25336019  0.59683586  1
  F  F97  1  0.15078537  0.67469267  0.55400766  1
  F  F98  1  0.93341632  0.81152216  0.75831437  1
  F  F99  1  0.74588164  0.63965386  0.94257757  1
  F  F100  1  0.68910787  0.42798090  0.40528111  1
  F  F101  1  0.71196098  0.03072213  0.47188559  1
  F  F102  1  0.06539052  0.52326871  0.38484686  1
  F  F103  1  0.91842847  0.62093982  0.46081938  1
  F  F104  1  0.46759327  0.75311820  0.37871905  1
  F  F105  1  0.43639397  0.03362584  0.13385460  1
  F  F106  1  0.71871381  0.35408415  0.07181489  1
  F  F107  1  0.04801519  0.46878903  0.76772227  1
  F  F108  1  0.25313618  0.52016209  0.21793386  1
  F  F109  1  0.57563064  0.60452503  0.48135336  1
  F  F110  1  0.11621404  0.58041157  0.08966846  1
  F  F111  1  0.28803902  0.53072213  0.52811441  1
  F  F112  1  0.06539052  0.02326871  0.11515314  1
  F  F113  1  0.77632458  0.19601059  0.82570068  1
  F  F114  1  0.25313618  0.02016209  0.28206614  1
  F  F115  1  0.03717617  0.75336019  0.40316414  1
  F  F116  1  0.83672916  0.64240358  0.33962830  1
  F  F117  1  0.37965891  0.40169559  0.07749086  1
  F  F118  1  0.62034109  0.90169559  0.92250914  1
  F  F119  1  0.48420292  0.30797170  0.83935118  1
  F  F120  1  0.74686382  0.02016209  0.78206614  1
  F  F121  1  0.56360603  0.53362584  0.86614540  1
  F  F122  1  0.31089213  0.92798090  0.59471889  1
  F  F123  1  0.93614336  0.28590352  0.36576642  1
  F  F124  1  0.10559962  0.63181601  0.67167239  1
  F  F125  1  0.22367542  0.19601059  0.32570068  1
  F  F126  1  0.46725101  0.63767531  0.59942038  1
  F  F127  1  0.96282383  0.75336019  0.90316414  1
  F  F128  1  0.64942098  0.36725208  0.69522388  1
  F  F129  1  0.81389063  0.15255495  0.67644827  1
  F  F130  1  0.26273181  0.40982287  0.30605717  1
  F  F131  1  0.51579708  0.80797170  0.16064882  1
  F  F132  1  0.59904895  0.47072711  0.15405261  1
  F  F133  1  0.84921463  0.17469267  0.44599234  1
  F  F134  1  0.08157153  0.62093982  0.96081938  1
  F  F135  1  0.16327084  0.14240358  0.66037170  1
  F  F136  1  0.34164820  0.89501468  0.07813190  1
  F  F137  1  0.73726819  0.40982287  0.80605717  1
  F  F138  1  0.95198481  0.96878903  0.23227773  1
  F  F139  1  0.15078537  0.17469267  0.94599234  1
  F  F140  1  0.06658368  0.81152216  0.25831437  1
  F  F141  1  0.16343867  0.23678748  0.44533493  1
  F  F142  1  0.62034109  0.40169559  0.57749086  1
  F  F143  1  0.83656133  0.73678748  0.55466507  1
  F  F144  1  0.31859625  0.82177161  0.80481140  1
  F  F145  1  0.41272935  0.75121401  0.50970279  1
  F  F146  1  0.40588008  0.44899358  0.78491234  1
  F  F147  1  0.28803902  0.03072213  0.97188559  1
  F  F148  1  0.53274899  0.63767531  0.09942038  1
  F  F149  1  0.41272935  0.25121401  0.99029721  1
  F  F150  1  0.58727065  0.25121401  0.49029721  1
  F  F151  1  0.43639397  0.53362584  0.36614540  1
  F  F152  1  0.16343867  0.73678748  0.05466507  1
  F  F153  1  0.83672916  0.14240358  0.16037170  1
  F  F154  1  0.68140375  0.32177161  0.19518860  1
  F  F155  1  0.25411836  0.13965386  0.05742243  1
  F  F156  1  0.71196098  0.53072213  0.02811441  1
  F  F157  1  0.18610937  0.15255495  0.17644827  1
  F  F158  1  0.88378596  0.58041157  0.58966846  1
  F  F159  1  0.58727065  0.75121401  0.00970279  1
