# generated using pymatgen
data_MnSb2Pb5O11
_symmetry_space_group_name_H-M   'P 1'
_cell_length_a   7.44740022
_cell_length_b   7.44740002
_cell_length_c   11.14171780
_cell_angle_alpha   90.00000000
_cell_angle_beta   90.00000000
_cell_angle_gamma   103.51264224
_symmetry_Int_Tables_number   1
_chemical_formula_structural   MnSb2Pb5O11
_chemical_formula_sum   'Mn2 Sb4 Pb10 O22'
_cell_volume   600.85548221
_cell_formula_units_Z   2
loop_
 _symmetry_equiv_pos_site_id
 _symmetry_equiv_pos_as_xyz
  1  'x, y, z'
loop_
 _atom_site_type_symbol
 _atom_site_label
 _atom_site_symmetry_multiplicity
 _atom_site_fract_x
 _atom_site_fract_y
 _atom_site_fract_z
 _atom_site_occupancy
  Mn  Mn0  1  0.58772646  0.41227354  0.75000000  1
  Mn  Mn1  1  0.41227354  0.58772646  0.25000000  1
  Sb  Sb2  1  0.67532118  0.67532118  0.00000000  1
  Sb  Sb3  1  0.67532118  0.67532118  0.50000000  1
  Sb  Sb4  1  0.32467882  0.32467882  0.00000000  1
  Sb  Sb5  1  0.32467882  0.32467882  0.50000000  1
  Pb  Pb6  1  0.00131994  0.99868006  0.25000000  1
  Pb  Pb7  1  0.77980945  0.22019055  0.97536539  1
  Pb  Pb8  1  0.22019055  0.77980945  0.02463461  1
  Pb  Pb9  1  0.05922379  0.48984766  0.75000000  1
  Pb  Pb10  1  0.48984766  0.05922379  0.25000000  1
  Pb  Pb11  1  0.22019055  0.77980945  0.47536539  1
  Pb  Pb12  1  0.51015234  0.94077621  0.75000000  1
  Pb  Pb13  1  0.99868006  0.00131994  0.75000000  1
  Pb  Pb14  1  0.94077621  0.51015234  0.25000000  1
  Pb  Pb15  1  0.77980945  0.22019055  0.52463461  1
  O  O16  1  0.19953565  0.47630612  0.10801110  1
  O  O17  1  0.47630612  0.19953565  0.89198890  1
  O  O18  1  0.19953565  0.47630612  0.39198890  1
  O  O19  1  0.26146657  0.10725929  0.39260229  1
  O  O20  1  0.10725929  0.26146657  0.89260229  1
  O  O21  1  0.89274071  0.73853343  0.10739771  1
  O  O22  1  0.43846324  0.56153676  0.89829181  1
  O  O23  1  0.73853343  0.89274071  0.89260229  1
  O  O24  1  0.10725929  0.26146657  0.60739771  1
  O  O25  1  0.73853343  0.89274071  0.60739771  1
  O  O26  1  0.43846324  0.56153676  0.60170819  1
  O  O27  1  0.20160987  0.79839013  0.25000000  1
  O  O28  1  0.52369388  0.80046435  0.10801110  1
  O  O29  1  0.56153676  0.43846324  0.39829181  1
  O  O30  1  0.52369388  0.80046435  0.39198890  1
  O  O31  1  0.79839013  0.20160987  0.75000000  1
  O  O32  1  0.47630612  0.19953565  0.60801110  1
  O  O33  1  0.89274071  0.73853343  0.39260229  1
  O  O34  1  0.26146657  0.10725929  0.10739771  1
  O  O35  1  0.56153676  0.43846324  0.10170819  1
  O  O36  1  0.80046435  0.52369388  0.89198890  1
  O  O37  1  0.80046435  0.52369388  0.60801110  1
