# generated using pymatgen
data_MgIr
_symmetry_space_group_name_H-M   'P 1'
_cell_length_a   12.36168112
_cell_length_b   12.36168145
_cell_length_c   16.90591367
_cell_angle_alpha   90.00000000
_cell_angle_beta   90.00000000
_cell_angle_gamma   97.54794245
_symmetry_Int_Tables_number   1
_chemical_formula_structural   MgIr
_chemical_formula_sum   'Mg76 Ir76'
_cell_volume   2561.02784597
_cell_formula_units_Z   76
loop_
 _symmetry_equiv_pos_site_id
 _symmetry_equiv_pos_as_xyz
  1  'x, y, z'
loop_
 _atom_site_type_symbol
 _atom_site_label
 _atom_site_symmetry_multiplicity
 _atom_site_fract_x
 _atom_site_fract_y
 _atom_site_fract_z
 _atom_site_occupancy
  Mg  Mg0  1  0.64171674  0.39164236  0.83045112  1
  Mg  Mg1  1  0.10508527  0.84007215  0.83742710  1
  Mg  Mg2  1  0.62542714  0.16929136  0.40542496  1
  Mg  Mg3  1  0.87457286  0.33070864  0.90542496  1
  Mg  Mg4  1  0.96542270  0.70229217  0.23115025  1
  Mg  Mg5  1  0.54883357  0.54883357  0.93422229  1
  Mg  Mg6  1  0.76233996  0.76233996  0.99737476  1
  Mg  Mg7  1  0.24680110  0.24680110  0.82365226  1
  Mg  Mg8  1  0.45496481  0.20933625  0.06126881  1
  Mg  Mg9  1  0.46542270  0.20229217  0.26884975  1
  Mg  Mg10  1  0.65992785  0.39491473  0.33742710  1
  Mg  Mg11  1  0.83070864  0.37457286  0.59457504  1
  Mg  Mg12  1  0.99728234  0.53920192  0.83504111  1
  Mg  Mg13  1  0.37457286  0.83070864  0.59457504  1
  Mg  Mg14  1  0.53457730  0.79770783  0.73115025  1
  Mg  Mg15  1  0.84007215  0.10508527  0.83742710  1
  Mg  Mg16  1  0.36000171  0.81640606  0.07513481  1
  Mg  Mg17  1  0.13999829  0.68359394  0.57513481  1
  Mg  Mg18  1  0.95116643  0.95116643  0.43422229  1
  Mg  Mg19  1  0.15992785  0.89491473  0.16257290  1
  Mg  Mg20  1  0.60835764  0.35828326  0.16954888  1
  Mg  Mg21  1  0.54503519  0.79066375  0.93873119  1
  Mg  Mg22  1  0.20933625  0.45496481  0.06126881  1
  Mg  Mg23  1  0.12542714  0.66929136  0.09457504  1
  Mg  Mg24  1  0.23766004  0.23766004  0.00262524  1
  Mg  Mg25  1  0.96079808  0.50271766  0.33504111  1
  Mg  Mg26  1  0.50271766  0.96079808  0.33504111  1
  Mg  Mg27  1  0.60508527  0.34007215  0.66257290  1
  Mg  Mg28  1  0.86000171  0.31640606  0.42486519  1
  Mg  Mg29  1  0.43770354  0.43770354  0.56754227  1
  Mg  Mg30  1  0.79066375  0.54503519  0.93873119  1
  Mg  Mg31  1  0.29066375  0.04503519  0.56126881  1
  Mg  Mg32  1  0.70933625  0.95496481  0.43873119  1
  Mg  Mg33  1  0.08514595  0.08514595  0.26532517  1
  Mg  Mg34  1  0.91485405  0.91485405  0.73467483  1
  Mg  Mg35  1  0.68359394  0.13999829  0.57513481  1
  Mg  Mg36  1  0.29770783  0.03457730  0.76884975  1
  Mg  Mg37  1  0.18359394  0.63999829  0.92486519  1
  Mg  Mg38  1  0.56229646  0.56229646  0.43245773  1
  Mg  Mg39  1  0.33070864  0.87457286  0.90542496  1
  Mg  Mg40  1  0.46079808  0.00271766  0.16495889  1
  Mg  Mg41  1  0.95496481  0.70933625  0.43873119  1
  Mg  Mg42  1  0.39491473  0.65992785  0.33742710  1
  Mg  Mg43  1  0.26233996  0.26233996  0.50262524  1
  Mg  Mg44  1  0.89164236  0.14171674  0.66954888  1
  Mg  Mg45  1  0.74680110  0.74680110  0.67634774  1
  Mg  Mg46  1  0.04883357  0.04883357  0.56577771  1
  Mg  Mg47  1  0.45116643  0.45116643  0.06577771  1
  Mg  Mg48  1  0.35828326  0.60835764  0.16954888  1
  Mg  Mg49  1  0.49728234  0.03920192  0.66495889  1
  Mg  Mg50  1  0.81640606  0.36000171  0.07513481  1
  Mg  Mg51  1  0.03920192  0.49728234  0.66495889  1
  Mg  Mg52  1  0.31640606  0.86000171  0.42486519  1
  Mg  Mg53  1  0.79770783  0.53457730  0.73115025  1
  Mg  Mg54  1  0.10835764  0.85828326  0.33045112  1
  Mg  Mg55  1  0.16929136  0.62542714  0.40542496  1
  Mg  Mg56  1  0.75319890  0.75319890  0.17634774  1
  Mg  Mg57  1  0.85828326  0.10835764  0.33045112  1
  Mg  Mg58  1  0.66929136  0.12542714  0.09457504  1
  Mg  Mg59  1  0.53920192  0.99728234  0.83504111  1
  Mg  Mg60  1  0.73766004  0.73766004  0.49737476  1
  Mg  Mg61  1  0.00271766  0.46079808  0.16495889  1
  Mg  Mg62  1  0.39164236  0.64171674  0.83045112  1
  Mg  Mg63  1  0.20229217  0.46542270  0.26884975  1
  Mg  Mg64  1  0.63999829  0.18359394  0.92486519  1
  Mg  Mg65  1  0.34007215  0.60508527  0.66257290  1
  Mg  Mg66  1  0.93770354  0.93770354  0.93245773  1
  Mg  Mg67  1  0.89491473  0.15992785  0.16257290  1
  Mg  Mg68  1  0.41485405  0.41485405  0.76532517  1
  Mg  Mg69  1  0.06229646  0.06229646  0.06754227  1
  Mg  Mg70  1  0.70229217  0.96542270  0.23115025  1
  Mg  Mg71  1  0.58514595  0.58514595  0.23467483  1
  Mg  Mg72  1  0.04503519  0.29066375  0.56126881  1
  Mg  Mg73  1  0.03457730  0.29770783  0.76884975  1
  Mg  Mg74  1  0.14171674  0.89164236  0.66954888  1
  Mg  Mg75  1  0.25319890  0.25319890  0.32365226  1
  Ir  Ir76  1  0.95992908  0.82363047  0.08699848  1
  Ir  Ir77  1  0.76912319  0.62526703  0.33775911  1
  Ir  Ir78  1  0.88481292  0.61612512  0.08758290  1
  Ir  Ir79  1  0.98158566  0.70626963  0.71399833  1
  Ir  Ir80  1  0.82363047  0.95992908  0.08699848  1
  Ir  Ir81  1  0.51841434  0.79373037  0.21399833  1
  Ir  Ir82  1  0.32956053  0.82956053  0.25000000  1
  Ir  Ir83  1  0.54007092  0.67636953  0.58699848  1
  Ir  Ir84  1  0.73087681  0.87473297  0.83775911  1
  Ir  Ir85  1  0.62526703  0.76912319  0.33775911  1
  Ir  Ir86  1  0.33464230  0.33464230  0.17002496  1
  Ir  Ir87  1  0.61518708  0.88387488  0.58758290  1
  Ir  Ir88  1  0.36273351  0.63726649  0.50000000  1
  Ir  Ir89  1  0.82304962  0.32304962  0.75000000  1
  Ir  Ir90  1  0.67043947  0.17043947  0.75000000  1
  Ir  Ir91  1  0.12584658  0.87415342  0.50000000  1
  Ir  Ir92  1  0.01730461  0.29509738  0.04217032  1
  Ir  Ir93  1  0.45205335  0.31859748  0.91585631  1
  Ir  Ir94  1  0.37415342  0.62584658  0.00000000  1
  Ir  Ir95  1  0.13726649  0.86273351  0.00000000  1
  Ir  Ir96  1  0.79509738  0.51730461  0.45782968  1
  Ir  Ir97  1  0.87415342  0.12584658  0.50000000  1
  Ir  Ir98  1  0.93192769  0.93192769  0.21799862  1
  Ir  Ir99  1  0.83464230  0.83464230  0.32997504  1
  Ir  Ir100  1  0.38481292  0.11612512  0.41241710  1
  Ir  Ir101  1  0.11518708  0.38387488  0.91241710  1
  Ir  Ir102  1  0.31859748  0.45205335  0.91585631  1
  Ir  Ir103  1  0.81859748  0.95205335  0.58414369  1
  Ir  Ir104  1  0.67636953  0.54007092  0.58699848  1
  Ir  Ir105  1  0.29373037  0.01841434  0.28600167  1
  Ir  Ir106  1  0.04794665  0.18140252  0.41585631  1
  Ir  Ir107  1  0.17695038  0.67695038  0.25000000  1
  Ir  Ir108  1  0.18140252  0.04794665  0.41585631  1
  Ir  Ir109  1  0.50000000  0.00000000  0.50000000  1
  Ir  Ir110  1  0.16535770  0.16535770  0.67002496  1
  Ir  Ir111  1  0.43192769  0.43192769  0.28200138  1
  Ir  Ir112  1  0.54794665  0.68140252  0.08414369  1
  Ir  Ir113  1  0.66535770  0.66535770  0.82997504  1
  Ir  Ir114  1  0.68140252  0.54794665  0.08414369  1
  Ir  Ir115  1  0.17636953  0.04007092  0.91300152  1
  Ir  Ir116  1  0.87473297  0.73087681  0.83775911  1
  Ir  Ir117  1  0.48269539  0.20490262  0.54217032  1
  Ir  Ir118  1  0.45992908  0.32363047  0.41300152  1
  Ir  Ir119  1  0.01841434  0.29373037  0.28600167  1
  Ir  Ir120  1  0.51730461  0.79509738  0.45782968  1
  Ir  Ir121  1  0.67695038  0.17695038  0.25000000  1
  Ir  Ir122  1  0.20626963  0.48158566  0.78600167  1
  Ir  Ir123  1  0.26912319  0.12526703  0.16224089  1
  Ir  Ir124  1  0.82956053  0.32956053  0.25000000  1
  Ir  Ir125  1  0.37473297  0.23087681  0.66224089  1
  Ir  Ir126  1  0.29509738  0.01730461  0.04217032  1
  Ir  Ir127  1  0.88387488  0.61518708  0.58758290  1
  Ir  Ir128  1  0.61612512  0.88481292  0.08758290  1
  Ir  Ir129  1  0.70490262  0.98269539  0.95782968  1
  Ir  Ir130  1  0.23087681  0.37473297  0.66224089  1
  Ir  Ir131  1  0.50000000  0.00000000  0.00000000  1
  Ir  Ir132  1  0.00000000  0.50000000  0.00000000  1
  Ir  Ir133  1  0.38387488  0.11518708  0.91241710  1
  Ir  Ir134  1  0.70626963  0.98158566  0.71399833  1
  Ir  Ir135  1  0.11612512  0.38481292  0.41241710  1
  Ir  Ir136  1  0.20490262  0.48269539  0.54217032  1
  Ir  Ir137  1  0.06807231  0.06807231  0.78200138  1
  Ir  Ir138  1  0.48158566  0.20626963  0.78600167  1
  Ir  Ir139  1  0.32363047  0.45992908  0.41300152  1
  Ir  Ir140  1  0.98269539  0.70490262  0.95782968  1
  Ir  Ir141  1  0.95205335  0.81859748  0.58414369  1
  Ir  Ir142  1  0.86273351  0.13726649  0.00000000  1
  Ir  Ir143  1  0.63726649  0.36273351  0.50000000  1
  Ir  Ir144  1  0.79373037  0.51841434  0.21399833  1
  Ir  Ir145  1  0.00000000  0.50000000  0.50000000  1
  Ir  Ir146  1  0.04007092  0.17636953  0.91300152  1
  Ir  Ir147  1  0.62584658  0.37415342  0.00000000  1
  Ir  Ir148  1  0.17043947  0.67043947  0.75000000  1
  Ir  Ir149  1  0.32304962  0.82304962  0.75000000  1
  Ir  Ir150  1  0.56807231  0.56807231  0.71799862  1
  Ir  Ir151  1  0.12526703  0.26912319  0.16224089  1
