# generated using pymatgen
data_CsRe3(S2Br)2
_symmetry_space_group_name_H-M   'P 1'
_cell_length_a   6.47086826
_cell_length_b   9.53525430
_cell_length_c   18.92505062
_cell_angle_alpha   90.00067114
_cell_angle_beta   89.99989400
_cell_angle_gamma   103.97796579
_symmetry_Int_Tables_number   1
_chemical_formula_structural   CsRe3(S2Br)2
_chemical_formula_sum   'Cs4 Re12 S16 Br8'
_cell_volume   1133.12445933
_cell_formula_units_Z   4
loop_
 _symmetry_equiv_pos_site_id
 _symmetry_equiv_pos_as_xyz
  1  'x, y, z'
loop_
 _atom_site_type_symbol
 _atom_site_label
 _atom_site_symmetry_multiplicity
 _atom_site_fract_x
 _atom_site_fract_y
 _atom_site_fract_z
 _atom_site_occupancy
  Cs  Cs0  1  0.00826395  0.55856009  0.30992613  1
  Cs  Cs1  1  0.49173514  0.94144305  0.80992714  1
  Cs  Cs2  1  0.50826080  0.05855623  0.19007323  1
  Cs  Cs3  1  0.99173653  0.44144210  0.69007367  1
  Re  Re4  1  0.79145700  0.07193321  0.50582909  1
  Re  Re5  1  0.01939391  0.34492344  0.94222447  1
  Re  Re6  1  0.20856566  0.92807242  0.49417100  1
  Re  Re7  1  0.53548802  0.89541241  0.41961581  1
  Re  Re8  1  0.03547796  0.39541411  0.08038618  1
  Re  Re9  1  0.29152144  0.57195050  0.99416827  1
  Re  Re10  1  0.96451907  0.60458617  0.91961186  1
  Re  Re11  1  0.51940737  0.84493435  0.55777410  1
  Re  Re12  1  0.46450942  0.10459083  0.58038875  1
  Re  Re13  1  0.70848551  0.42804791  0.00582839  1
  Re  Re14  1  0.48060238  0.15507486  0.44222599  1
  Re  Re15  1  0.98060738  0.65506971  0.05777414  1
  S  S16  1  0.75513560  0.02233295  0.63088725  1
  S  S17  1  0.71588931  0.38646030  0.88017802  1
  S  S18  1  0.24486091  0.97766913  0.36911220  1
  S  S19  1  0.21982712  0.80493708  0.97430394  1
  S  S20  1  0.81253467  0.81592149  0.48373078  1
  S  S21  1  0.74486428  0.47766756  0.13088732  1
  S  S22  1  0.28017230  0.69506530  0.47430423  1
  S  S23  1  0.25513157  0.52233070  0.86911286  1
  S  S24  1  0.71982690  0.30493596  0.52569447  1
  S  S25  1  0.78411280  0.11353746  0.38017741  1
  S  S26  1  0.78016997  0.19506281  0.02569563  1
  S  S27  1  0.18745972  0.18407599  0.51626786  1
  S  S28  1  0.28411506  0.61353710  0.11982305  1
  S  S29  1  0.31253977  0.31591757  0.01627001  1
  S  S30  1  0.68746022  0.68408144  0.98373225  1
  S  S31  1  0.21588141  0.88646214  0.61982377  1
  Br  Br32  1  0.53966973  0.63223944  0.63891157  1
  Br  Br33  1  0.46032826  0.36775870  0.36108837  1
  Br  Br34  1  0.96032905  0.86775683  0.13891224  1
  Br  Br35  1  0.57760806  0.75813889  0.30411579  1
  Br  Br36  1  0.07760805  0.25814013  0.19588408  1
  Br  Br37  1  0.92238843  0.74186007  0.80411617  1
  Br  Br38  1  0.42238877  0.24186010  0.69588451  1
  Br  Br39  1  0.03966651  0.13223948  0.86108804  1
