# generated using pymatgen
data_YbCoO3
_symmetry_space_group_name_H-M   'P 1'
_cell_length_a   5.18592460
_cell_length_b   5.38854688
_cell_length_c   7.39165028
_cell_angle_alpha   90.00000000
_cell_angle_beta   90.00000000
_cell_angle_gamma   90.00000000
_symmetry_Int_Tables_number   1
_chemical_formula_structural   YbCoO3
_chemical_formula_sum   'Yb4 Co4 O12'
_cell_volume   206.55669432
_cell_formula_units_Z   4
loop_
 _symmetry_equiv_pos_site_id
 _symmetry_equiv_pos_as_xyz
  1  'x, y, z'
loop_
 _atom_site_type_symbol
 _atom_site_label
 _atom_site_symmetry_multiplicity
 _atom_site_fract_x
 _atom_site_fract_y
 _atom_site_fract_z
 _atom_site_occupancy
  Yb  Yb0  1  0.98367946  0.06107450  0.25000000  1
  Yb  Yb1  1  0.51632054  0.56107450  0.25000000  1
  Yb  Yb2  1  0.48367946  0.43892550  0.75000000  1
  Yb  Yb3  1  0.01632054  0.93892550  0.75000000  1
  Co  Co4  1  0.50000000  0.00000000  0.50000000  1
  Co  Co5  1  0.00000000  0.50000000  0.00000000  1
  Co  Co6  1  0.00000000  0.50000000  0.50000000  1
  Co  Co7  1  0.50000000  0.00000000  0.00000000  1
  O  O8  1  0.29978795  0.70325062  0.53979699  1
  O  O9  1  0.42130230  0.98743521  0.25000000  1
  O  O10  1  0.20021205  0.20325062  0.96020301  1
  O  O11  1  0.07869770  0.48743521  0.25000000  1
  O  O12  1  0.79978795  0.79674938  0.03979699  1
  O  O13  1  0.92130230  0.51256479  0.75000000  1
  O  O14  1  0.70021205  0.29674938  0.46020301  1
  O  O15  1  0.57869770  0.01256479  0.75000000  1
  O  O16  1  0.20021205  0.20325062  0.53979699  1
  O  O17  1  0.79978795  0.79674938  0.46020301  1
  O  O18  1  0.29978795  0.70325062  0.96020301  1
  O  O19  1  0.70021205  0.29674938  0.03979699  1
