# generated using pymatgen
data_Na4Be2Si6Sn(HO5)4
_symmetry_space_group_name_H-M   'P 1'
_cell_length_a   11.13947734
_cell_length_b   11.13947734
_cell_length_c   12.15722447
_cell_angle_alpha   64.38400601
_cell_angle_beta   115.61599399
_cell_angle_gamma   140.62922248
_symmetry_Int_Tables_number   1
_chemical_formula_structural   Na4Be2Si6Sn(HO5)4
_chemical_formula_sum   'Na8 Be4 Si12 Sn2 H8 O40'
_cell_volume   850.09247093
_cell_formula_units_Z   2
loop_
 _symmetry_equiv_pos_site_id
 _symmetry_equiv_pos_as_xyz
  1  'x, y, z'
loop_
 _atom_site_type_symbol
 _atom_site_label
 _atom_site_symmetry_multiplicity
 _atom_site_fract_x
 _atom_site_fract_y
 _atom_site_fract_z
 _atom_site_occupancy
  Na  Na0  1  0.79160066  0.30496526  0.26505907  1
  Na  Na1  1  0.30496526  0.79160066  0.23494093  1
  Na  Na2  1  0.20839934  0.69503474  0.73494093  1
  Na  Na3  1  0.69503474  0.20839934  0.76505907  1
  Na  Na4  1  0.79140449  0.68572617  0.19765181  1
  Na  Na5  1  0.68572617  0.79140449  0.30234819  1
  Na  Na6  1  0.20859551  0.31427383  0.80234819  1
  Na  Na7  1  0.31427383  0.20859551  0.69765181  1
  Be  Be8  1  0.39701119  0.39701119  0.25000000  1
  Be  Be9  1  0.60298881  0.60298881  0.75000000  1
  Be  Be10  1  0.08446528  0.08446528  0.25000000  1
  Be  Be11  1  0.91553472  0.91553472  0.75000000  1
  Si  Si12  1  0.34199737  0.54909325  0.00280303  1
  Si  Si13  1  0.54909325  0.34199737  0.49719697  1
  Si  Si14  1  0.65800263  0.45090675  0.99719697  1
  Si  Si15  1  0.45090675  0.65800263  0.50280303  1
  Si  Si16  1  0.14036265  0.37319780  0.30581736  1
  Si  Si17  1  0.37319780  0.14036265  0.19418264  1
  Si  Si18  1  0.85963735  0.62680220  0.69418264  1
  Si  Si19  1  0.62680220  0.85963735  0.80581736  1
  Si  Si20  1  0.06550610  0.85565278  0.99352190  1
  Si  Si21  1  0.85565278  0.06550610  0.50647810  1
  Si  Si22  1  0.93449390  0.14434722  0.00647810  1
  Si  Si23  1  0.14434722  0.93449390  0.49352190  1
  Sn  Sn24  1  0.00000000  0.50000000  0.00000000  1
  Sn  Sn25  1  0.50000000  0.00000000  0.50000000  1
  H  H26  1  0.03738347  0.66002050  0.39344648  1
  H  H27  1  0.66002050  0.03738347  0.10655352  1
  H  H28  1  0.96261653  0.33997950  0.60655352  1
  H  H29  1  0.33997950  0.96261653  0.89344648  1
  H  H30  1  0.83016962  0.45750677  0.41180999  1
  H  H31  1  0.45750677  0.83016962  0.08819001  1
  H  H32  1  0.16983038  0.54249323  0.58819001  1
  H  H33  1  0.54249323  0.16983038  0.91180999  1
  O  O34  1  0.56585652  0.47722677  0.36632070  1
  O  O35  1  0.47722677  0.56585652  0.13367930  1
  O  O36  1  0.43414348  0.52277323  0.63367930  1
  O  O37  1  0.52277323  0.43414348  0.86632070  1
  O  O38  1  0.13876941  0.77225982  0.99432012  1
  O  O39  1  0.77225982  0.13876941  0.50567988  1
  O  O40  1  0.86123059  0.22774018  0.00567988  1
  O  O41  1  0.22774018  0.86123059  0.49432012  1
  O  O42  1  0.07286202  0.46949248  0.19288055  1
  O  O43  1  0.46949248  0.07286202  0.30711945  1
  O  O44  1  0.92713798  0.53050752  0.80711945  1
  O  O45  1  0.53050752  0.92713798  0.69288055  1
  O  O46  1  0.00204251  0.91819811  0.36754667  1
  O  O47  1  0.91819811  0.00204251  0.13245333  1
  O  O48  1  0.99795749  0.08180189  0.63245333  1
  O  O49  1  0.08180189  0.99795749  0.86754667  1
  O  O50  1  0.84459200  0.67415705  0.02669872  1
  O  O51  1  0.67415705  0.84459200  0.47330128  1
  O  O52  1  0.15540800  0.32584295  0.97330128  1
  O  O53  1  0.32584295  0.15540800  0.52669872  1
  O  O54  1  0.26457168  0.63665735  0.98461019  1
  O  O55  1  0.63665735  0.26457168  0.51538981  1
  O  O56  1  0.73542832  0.36334265  0.01538981  1
  O  O57  1  0.36334265  0.73542832  0.48461019  1
  O  O58  1  0.91655801  0.55186929  0.34961480  1
  O  O59  1  0.55186929  0.91655801  0.15038520  1
  O  O60  1  0.08344199  0.44813071  0.65038520  1
  O  O61  1  0.44813071  0.08344199  0.84961480  1
  O  O62  1  0.18782090  0.29438054  0.26440332  1
  O  O63  1  0.29438054  0.18782090  0.23559668  1
  O  O64  1  0.81217910  0.70561946  0.73559668  1
  O  O65  1  0.70561946  0.81217910  0.76440332  1
  O  O66  1  0.33650715  0.54429862  0.38641362  1
  O  O67  1  0.54429862  0.33650715  0.11358638  1
  O  O68  1  0.66349285  0.45570138  0.61358638  1
  O  O69  1  0.45570138  0.66349285  0.88641362  1
  O  O70  1  0.96295924  0.19729089  0.38436297  1
  O  O71  1  0.19729089  0.96295924  0.11563703  1
  O  O72  1  0.03704076  0.80270911  0.61563703  1
  O  O73  1  0.80270911  0.03704076  0.88436297  1
