# generated using pymatgen
data_HoBO3
_symmetry_space_group_name_H-M   'P 1'
_cell_length_a   6.58141950
_cell_length_b   6.58141950
_cell_length_c   8.84418175
_cell_angle_alpha   90.00000000
_cell_angle_beta   90.00000000
_cell_angle_gamma   120.06052988
_symmetry_Int_Tables_number   1
_chemical_formula_structural   HoBO3
_chemical_formula_sum   'Ho6 B6 O18'
_cell_volume   331.56006864
_cell_formula_units_Z   6
loop_
 _symmetry_equiv_pos_site_id
 _symmetry_equiv_pos_as_xyz
  1  'x, y, z'
loop_
 _atom_site_type_symbol
 _atom_site_label
 _atom_site_symmetry_multiplicity
 _atom_site_fract_x
 _atom_site_fract_y
 _atom_site_fract_z
 _atom_site_occupancy
  Ho  Ho0  1  0.17116822  0.82883178  0.50000000  1
  Ho  Ho1  1  0.17116822  0.82883178  0.00000000  1
  Ho  Ho2  1  0.50000000  0.50000000  0.50000000  1
  Ho  Ho3  1  0.50000000  0.50000000  0.00000000  1
  Ho  Ho4  1  0.82883178  0.17116822  0.00000000  1
  Ho  Ho5  1  0.82883178  0.17116822  0.50000000  1
  B  B6  1  0.59316394  0.83379801  0.75000000  1
  B  B7  1  0.16620199  0.40683606  0.25000000  1
  B  B8  1  0.92424979  0.92424979  0.25000000  1
  B  B9  1  0.07575021  0.07575021  0.75000000  1
  B  B10  1  0.83379801  0.59316394  0.75000000  1
  B  B11  1  0.40683606  0.16620199  0.25000000  1
  O  O12  1  0.05190545  0.83389733  0.75000000  1
  O  O13  1  0.16610267  0.94809455  0.25000000  1
  O  O14  1  0.48352338  0.83318124  0.89280232  1
  O  O15  1  0.48352338  0.83318124  0.60719768  1
  O  O16  1  0.16681876  0.51647662  0.39280232  1
  O  O17  1  0.16681876  0.51647662  0.10719768  1
  O  O18  1  0.81604470  0.81604470  0.10564514  1
  O  O19  1  0.38336848  0.38336848  0.25000000  1
  O  O20  1  0.81604470  0.81604470  0.39435486  1
  O  O21  1  0.18395530  0.18395530  0.60564514  1
  O  O22  1  0.18395530  0.18395530  0.89435486  1
  O  O23  1  0.61663152  0.61663152  0.75000000  1
  O  O24  1  0.83318124  0.48352338  0.60719768  1
  O  O25  1  0.51647662  0.16681876  0.10719768  1
  O  O26  1  0.83318124  0.48352338  0.89280232  1
  O  O27  1  0.51647662  0.16681876  0.39280232  1
  O  O28  1  0.83389733  0.05190545  0.75000000  1
  O  O29  1  0.94809455  0.16610267  0.25000000  1
