# generated using pymatgen
data_Na3Mg(BO2)5
_symmetry_space_group_name_H-M   'P 1'
_cell_length_a   7.90472693
_cell_length_b   12.38776891
_cell_length_c   18.32573773
_cell_angle_alpha   90.00000000
_cell_angle_beta   90.00000000
_cell_angle_gamma   90.00000000
_symmetry_Int_Tables_number   1
_chemical_formula_structural   Na3Mg(BO2)5
_chemical_formula_sum   'Na24 Mg8 B40 O80'
_cell_volume   1794.49161646
_cell_formula_units_Z   8
loop_
 _symmetry_equiv_pos_site_id
 _symmetry_equiv_pos_as_xyz
  1  'x, y, z'
loop_
 _atom_site_type_symbol
 _atom_site_label
 _atom_site_symmetry_multiplicity
 _atom_site_fract_x
 _atom_site_fract_y
 _atom_site_fract_z
 _atom_site_occupancy
  Na  Na0  1  0.16980805  0.91537024  0.42011548  1
  Na  Na1  1  0.69049911  0.64777071  0.25324984  1
  Na  Na2  1  0.16980805  0.58462976  0.92011548  1
  Na  Na3  1  0.83019195  0.41537024  0.07988452  1
  Na  Na4  1  0.33019195  0.41537024  0.42011548  1
  Na  Na5  1  0.83019195  0.08462976  0.57988452  1
  Na  Na6  1  0.70860838  0.57251496  0.93221105  1
  Na  Na7  1  0.79139162  0.07251496  0.93221105  1
  Na  Na8  1  0.79139162  0.42748504  0.43221105  1
  Na  Na9  1  0.80950089  0.35222929  0.75324984  1
  Na  Na10  1  0.30950089  0.14777071  0.24675016  1
  Na  Na11  1  0.19049911  0.85222929  0.74675016  1
  Na  Na12  1  0.29139162  0.42748504  0.06778895  1
  Na  Na13  1  0.80950089  0.14777071  0.25324984  1
  Na  Na14  1  0.20860838  0.92748504  0.06778895  1
  Na  Na15  1  0.66980805  0.58462976  0.57988452  1
  Na  Na16  1  0.69049911  0.85222929  0.75324984  1
  Na  Na17  1  0.29139162  0.07251496  0.56778895  1
  Na  Na18  1  0.66980805  0.91537024  0.07988452  1
  Na  Na19  1  0.33019195  0.08462976  0.92011548  1
  Na  Na20  1  0.30950089  0.35222929  0.74675016  1
  Na  Na21  1  0.19049911  0.64777071  0.24675016  1
  Na  Na22  1  0.70860838  0.92748504  0.43221105  1
  Na  Na23  1  0.20860838  0.57251496  0.56778895  1
  Mg  Mg24  1  0.91594204  0.82179828  0.90222191  1
  Mg  Mg25  1  0.41594204  0.82179828  0.59777809  1
  Mg  Mg26  1  0.08405796  0.17820172  0.09777809  1
  Mg  Mg27  1  0.41594204  0.67820172  0.09777809  1
  Mg  Mg28  1  0.91594204  0.67820172  0.40222191  1
  Mg  Mg29  1  0.58405796  0.32179828  0.90222191  1
  Mg  Mg30  1  0.58405796  0.17820172  0.40222191  1
  Mg  Mg31  1  0.08405796  0.32179828  0.59777809  1
  B  B32  1  0.23176305  0.17298827  0.42749802  1
  B  B33  1  0.07852570  0.65342860  0.07341018  1
  B  B34  1  0.48827790  0.47561617  0.19596927  1
  B  B35  1  0.55441738  0.34969429  0.29602924  1
  B  B36  1  0.55441738  0.15030571  0.79602924  1
  B  B37  1  0.05441738  0.15030571  0.70397076  1
  B  B38  1  0.01172210  0.97561617  0.19596927  1
  B  B39  1  0.94558262  0.84969429  0.29602924  1
  B  B40  1  0.55940724  0.28252618  0.16393053  1
  B  B41  1  0.73176305  0.32701173  0.57250198  1
  B  B42  1  0.55940724  0.21747382  0.66393053  1
  B  B43  1  0.42147430  0.34657140  0.57341018  1
  B  B44  1  0.98827790  0.02438383  0.80403073  1
  B  B45  1  0.26823695  0.67298827  0.42749802  1
  B  B46  1  0.44558262  0.65030571  0.70397076  1
  B  B47  1  0.07852570  0.84657140  0.57341018  1
  B  B48  1  0.73176305  0.17298827  0.07250198  1
  B  B49  1  0.51172210  0.97561617  0.30403073  1
  B  B50  1  0.92147430  0.34657140  0.92658982  1
  B  B51  1  0.51172210  0.52438383  0.80403073  1
  B  B52  1  0.57852570  0.84657140  0.92658982  1
  B  B53  1  0.44059276  0.71747382  0.83606947  1
  B  B54  1  0.05441738  0.34969429  0.20397076  1
  B  B55  1  0.23176305  0.32701173  0.92749802  1
  B  B56  1  0.94059276  0.71747382  0.66393053  1
  B  B57  1  0.98827790  0.47561617  0.30403073  1
  B  B58  1  0.76823695  0.67298827  0.07250198  1
  B  B59  1  0.42147430  0.15342860  0.07341018  1
  B  B60  1  0.94558262  0.65030571  0.79602924  1
  B  B61  1  0.92147430  0.15342860  0.42658982  1
  B  B62  1  0.57852570  0.65342860  0.42658982  1
  B  B63  1  0.94059276  0.78252618  0.16393053  1
  B  B64  1  0.26823695  0.82701173  0.92749802  1
  B  B65  1  0.44059276  0.78252618  0.33606947  1
  B  B66  1  0.48827790  0.02438383  0.69596927  1
  B  B67  1  0.44558262  0.84969429  0.20397076  1
  B  B68  1  0.01172210  0.52438383  0.69596927  1
  B  B69  1  0.76823695  0.82701173  0.57250198  1
  B  B70  1  0.05940724  0.28252618  0.33606947  1
  B  B71  1  0.05940724  0.21747382  0.83606947  1
  O  O72  1  0.53744404  0.39821554  0.14468447  1
  O  O73  1  0.71992147  0.25731176  0.63193382  1
  O  O74  1  0.62082670  0.85150174  0.54079540  1
  O  O75  1  0.37917330  0.35150174  0.95920460  1
  O  O76  1  0.06828286  0.23145617  0.75617578  1
  O  O77  1  0.58590012  0.71930653  0.36512940  1
  O  O78  1  0.72163989  0.61634233  0.45784193  1
  O  O79  1  0.08161945  0.37643463  0.95439111  1
  O  O80  1  0.08161945  0.12356537  0.45439111  1
  O  O81  1  0.91409988  0.21930653  0.36512940  1
  O  O82  1  0.12082670  0.64849826  0.45920460  1
  O  O83  1  0.27836011  0.38365767  0.54215807  1
  O  O84  1  0.91838055  0.62356537  0.04560889  1
  O  O85  1  0.28007853  0.74268824  0.36806618  1
  O  O86  1  0.43171714  0.73145617  0.75617578  1
  O  O87  1  0.57656606  0.33156369  0.36787835  1
  O  O88  1  0.51013629  0.45403730  0.27137673  1
  O  O89  1  0.21992147  0.24268824  0.36806618  1
  O  O90  1  0.57446550  0.42863574  0.82355726  1
  O  O91  1  0.56828286  0.23145617  0.74382422  1
  O  O92  1  0.77836011  0.11634233  0.45784193  1
  O  O93  1  0.48986371  0.95403730  0.22862327  1
  O  O94  1  0.41409988  0.21930653  0.13487060  1
  O  O95  1  0.42553450  0.92863574  0.67644274  1
  O  O96  1  0.62082670  0.64849826  0.04079540  1
  O  O97  1  0.22163989  0.61634233  0.04215807  1
  O  O98  1  0.93171714  0.73145617  0.74382422  1
  O  O99  1  0.87917330  0.35150174  0.54079540  1
  O  O100  1  0.92553450  0.92863574  0.82355726  1
  O  O101  1  0.43171714  0.76854383  0.25617578  1
  O  O102  1  0.12082670  0.85150174  0.95920460  1
  O  O103  1  0.57656606  0.16843631  0.86787835  1
  O  O104  1  0.03744404  0.10178446  0.85531553  1
  O  O105  1  0.98986371  0.54596270  0.77137673  1
  O  O106  1  0.01013629  0.04596270  0.72862327  1
  O  O107  1  0.27836011  0.11634233  0.04215807  1
  O  O108  1  0.22163989  0.88365767  0.54215807  1
  O  O109  1  0.93171714  0.76854383  0.24382422  1
  O  O110  1  0.08590012  0.78069347  0.63487060  1
  O  O111  1  0.96255596  0.89821554  0.14468447  1
  O  O112  1  0.08590012  0.71930653  0.13487060  1
  O  O113  1  0.01013629  0.45403730  0.22862327  1
  O  O114  1  0.51013629  0.04596270  0.77137673  1
  O  O115  1  0.07446550  0.07136426  0.17644274  1
  O  O116  1  0.06828286  0.26854383  0.25617578  1
  O  O117  1  0.46255596  0.60178446  0.85531553  1
  O  O118  1  0.92343394  0.66843631  0.86787835  1
  O  O119  1  0.58590012  0.78069347  0.86512940  1
  O  O120  1  0.07446550  0.42863574  0.67644274  1
  O  O121  1  0.42343394  0.83156369  0.13212165  1
  O  O122  1  0.53744404  0.10178446  0.64468447  1
  O  O123  1  0.07656606  0.16843631  0.63212165  1
  O  O124  1  0.42553450  0.57136426  0.17644274  1
  O  O125  1  0.92343394  0.83156369  0.36787835  1
  O  O126  1  0.72163989  0.88365767  0.95784193  1
  O  O127  1  0.21992147  0.25731176  0.86806618  1
  O  O128  1  0.56828286  0.26854383  0.24382422  1
  O  O129  1  0.58161945  0.12356537  0.04560889  1
  O  O130  1  0.37917330  0.14849826  0.45920460  1
  O  O131  1  0.03744404  0.39821554  0.35531553  1
  O  O132  1  0.78007853  0.74268824  0.13193382  1
  O  O133  1  0.57446550  0.07136426  0.32355726  1
  O  O134  1  0.78007853  0.75731176  0.63193382  1
  O  O135  1  0.07656606  0.33156369  0.13212165  1
  O  O136  1  0.58161945  0.37643463  0.54560889  1
  O  O137  1  0.87917330  0.14849826  0.04079540  1
  O  O138  1  0.41838055  0.87643463  0.95439111  1
  O  O139  1  0.42343394  0.66843631  0.63212165  1
  O  O140  1  0.77836011  0.38365767  0.95784193  1
  O  O141  1  0.46255596  0.89821554  0.35531553  1
  O  O142  1  0.71992147  0.24268824  0.13193382  1
  O  O143  1  0.41409988  0.28069347  0.63487060  1
  O  O144  1  0.48986371  0.54596270  0.72862327  1
  O  O145  1  0.92553450  0.57136426  0.32355726  1
  O  O146  1  0.91838055  0.87643463  0.54560889  1
  O  O147  1  0.91409988  0.28069347  0.86512940  1
  O  O148  1  0.96255596  0.60178446  0.64468447  1
  O  O149  1  0.98986371  0.95403730  0.27137673  1
  O  O150  1  0.41838055  0.62356537  0.45439111  1
  O  O151  1  0.28007853  0.75731176  0.86806618  1
