# generated using pymatgen
data_TeMoWSeS2
_symmetry_space_group_name_H-M   'P 1'
_cell_length_a   3.30934217
_cell_length_b   3.30930738
_cell_length_c   37.71398890
_cell_angle_alpha   90.00007839
_cell_angle_beta   90.00000000
_cell_angle_gamma   120.00034030
_symmetry_Int_Tables_number   1
_chemical_formula_structural   TeMoWSeS2
_chemical_formula_sum   'Te2 Mo2 W2 Se2 S4'
_cell_volume   357.69296035
_cell_formula_units_Z   2
loop_
 _symmetry_equiv_pos_site_id
 _symmetry_equiv_pos_as_xyz
  1  'x, y, z'
loop_
 _atom_site_type_symbol
 _atom_site_label
 _atom_site_symmetry_multiplicity
 _atom_site_fract_x
 _atom_site_fract_y
 _atom_site_fract_z
 _atom_site_occupancy
  Te  Te0  1  0.33335548  0.66671195  0.70848198  1
  Te  Te1  1  0.33335594  0.66671288  0.60663156  1
  Mo  Mo2  1  0.33331113  0.66662225  0.09393121  1
  Mo  Mo3  1  0.33330894  0.66661788  0.46961676  1
  W  W4  1  0.66668988  0.33337976  0.28180501  1
  W  W5  1  0.66669089  0.33338177  0.65756591  1
  Se  Se6  1  0.66664000  0.33327901  0.42528171  1
  Se  Se7  1  0.66664731  0.33329363  0.51399083  1
  S  S8  1  0.33335500  0.66671100  0.32242085  1
  S  S9  1  0.66664282  0.33328463  0.05333570  1
  S  S10  1  0.66664673  0.33329247  0.13451877  1
  S  S11  1  0.33335588  0.66671276  0.24116772  1
