# generated using pymatgen
data_Na17(WO3)19
_symmetry_space_group_name_H-M   'P 1'
_cell_length_a   75.53142786
_cell_length_b   16.39168819
_cell_length_c   8.88861496
_cell_angle_alpha   29.75874973
_cell_angle_beta   26.54154419
_cell_angle_gamma   14.01606371
_symmetry_Int_Tables_number   1
_chemical_formula_structural   Na17(WO3)19
_chemical_formula_sum   'Na17 W19 O57'
_cell_volume   1190.98630878
_cell_formula_units_Z   1
loop_
 _symmetry_equiv_pos_site_id
 _symmetry_equiv_pos_as_xyz
  1  'x, y, z'
loop_
 _atom_site_type_symbol
 _atom_site_label
 _atom_site_symmetry_multiplicity
 _atom_site_fract_x
 _atom_site_fract_y
 _atom_site_fract_z
 _atom_site_occupancy
  Na  Na0  1  0.05324824  0.99615762  0.00088548  1
  Na  Na1  1  0.10667089  0.99532519  0.99726903  1
  Na  Na2  1  0.15923743  0.99572571  0.99562548  1
  Na  Na3  1  0.21132939  0.99776103  0.99798819  1
  Na  Na4  1  0.26351323  0.99900036  0.99947112  1
  Na  Na5  1  0.31622861  0.99877670  0.99913794  1
  Na  Na6  1  0.36770072  0.00184484  0.00155794  1
  Na  Na7  1  0.42092476  0.99882206  0.00511482  1
  Na  Na8  1  0.52503731  0.00725539  0.99790676  1
  Na  Na9  1  0.57735194  0.00506088  0.00319128  1
  Na  Na10  1  0.62984261  0.00631760  0.00540829  1
  Na  Na11  1  0.68368528  0.00283115  0.99699882  1
  Na  Na12  1  0.73695078  0.00066393  0.99756870  1
  Na  Na13  1  0.78956399  0.99764165  0.00421570  1
  Na  Na14  1  0.84164066  0.00062430  0.00303199  1
  Na  Na15  1  0.89505665  0.00107988  0.99542253  1
  Na  Na16  1  0.94795144  0.99886816  0.99669647  1
  W  W17  1  0.02600659  0.50321131  0.49691563  1
  W  W18  1  0.07784242  0.50475988  0.50132432  1
  W  W19  1  0.13120359  0.50413296  0.49775484  1
  W  W20  1  0.18359533  0.49932694  0.50461376  1
  W  W21  1  0.23736469  0.49748848  0.50014883  1
  W  W22  1  0.28948994  0.50417974  0.49445692  1
  W  W23  1  0.34256081  0.49555213  0.50281560  1
  W  W24  1  0.39537533  0.49916609  0.49682647  1
  W  W25  1  0.44743373  0.49689438  0.50493645  1
  W  W26  1  0.49899106  0.50477889  0.49991952  1
  W  W27  1  0.55222769  0.50123802  0.49977731  1
  W  W28  1  0.60435273  0.50264071  0.50366057  1
  W  W29  1  0.65746606  0.49976937  0.50326331  1
  W  W30  1  0.71087444  0.49907151  0.50031988  1
  W  W31  1  0.76295256  0.50175718  0.49983686  1
  W  W32  1  0.81666120  0.49905670  0.49367631  1
  W  W33  1  0.86980979  0.49474883  0.49647684  1
  W  W34  1  0.92094561  0.50053577  0.50101910  1
  W  W35  1  0.97470401  0.49447125  0.49981906  1
  O  O36  1  0.02345577  0.51090638  0.00162622  1
  O  O37  1  0.99850911  0.50749488  0.50397384  1
  O  O38  1  0.07879128  0.49255128  0.01350828  1
  O  O39  1  0.05274531  0.49739902  0.50342857  1
  O  O40  1  0.13353237  0.50028613  0.98629849  1
  O  O41  1  0.10730479  0.48805600  0.49890625  1
  O  O42  1  0.02873955  0.98432484  0.50181844  1
  O  O43  1  0.18518437  0.49324407  0.00177033  1
  O  O44  1  0.16126213  0.48931708  0.48923128  1
  O  O45  1  0.07663262  0.01586158  0.49213106  1
  O  O46  1  0.23531048  0.50627035  0.00230464  1
  O  O47  1  0.20852949  0.51489308  0.49386159  1
  O  O48  1  0.12766858  0.01749429  0.50246492  1
  O  O49  1  0.28754186  0.51068277  0.99950100  1
  O  O50  1  0.26028585  0.50645182  0.50939609  1
  O  O51  1  0.33894411  0.50352087  0.01564433  1
  O  O52  1  0.18278501  0.00237577  0.50591097  1
  O  O53  1  0.31194940  0.51224754  0.51258020  1
  O  O54  1  0.23725294  0.99890256  0.50000673  1
  O  O55  1  0.39489258  0.50524795  0.98947103  1
  O  O56  1  0.36843812  0.50158811  0.50249176  1
  O  O57  1  0.44918704  0.49203061  0.00095676  1
  O  O58  1  0.28966031  0.00090002  0.49653135  1
  O  O59  1  0.42151802  0.49332436  0.50099306  1
  O  O60  1  0.49968202  0.49281833  0.01325377  1
  O  O61  1  0.34252376  0.99860002  0.49620722  1
  O  O62  1  0.47576273  0.49127406  0.49741968  1
  O  O63  1  0.55402806  0.49098770  0.99890279  1
  O  O64  1  0.39508561  0.99079751  0.51737399  1
  O  O65  1  0.52790260  0.49485714  0.50492547  1
  O  O66  1  0.60933007  0.48957056  0.98752614  1
  O  O67  1  0.44531533  0.01216144  0.50294655  1
  O  O68  1  0.57835907  0.49753315  0.50175543  1
  O  O69  1  0.50413480  0.98314194  0.48524794  1
  O  O70  1  0.65981915  0.49787667  0.98302995  1
  O  O71  1  0.63490450  0.49067832  0.49186049  1
  O  O72  1  0.55717133  0.98302036  0.49187094  1
  O  O73  1  0.71121828  0.49167217  0.01015078  1
  O  O74  1  0.68437010  0.49918296  0.49490204  1
  O  O75  1  0.76220470  0.50498719  0.99697619  1
  O  O76  1  0.60440992  0.00962015  0.49376618  1
  O  O77  1  0.73874822  0.49623704  0.49038977  1
  O  O78  1  0.81716456  0.50233832  0.98894083  1
  O  O79  1  0.66021907  0.98743686  0.50465458  1
  O  O80  1  0.79047039  0.49292601  0.50457615  1
  O  O81  1  0.86454276  0.51012380  0.01256153  1
  O  O82  1  0.70774926  0.01445905  0.49472638  1
  O  O83  1  0.83574641  0.52281638  0.51413268  1
  O  O84  1  0.91771869  0.51381729  0.01060786  1
  O  O85  1  0.76107767  0.01031866  0.50053653  1
  O  O86  1  0.89746939  0.49165910  0.49987915  1
  O  O87  1  0.97554253  0.49775473  0.98821557  1
  O  O88  1  0.81671342  0.99960975  0.49185337  1
  O  O89  1  0.94677035  0.50232488  0.49472623  1
  O  O90  1  0.86840357  0.99814400  0.50263682  1
  O  O91  1  0.92211452  0.98915044  0.51003117  1
  O  O92  1  0.97373158  0.00019711  0.50356248  1
