# generated using pymatgen
data_Y4H9NO13
_symmetry_space_group_name_H-M   'P 1'
_cell_length_a   9.47365204
_cell_length_b   16.66607822
_cell_length_c   3.66030241
_cell_angle_alpha   90.00000000
_cell_angle_beta   99.94350232
_cell_angle_gamma   90.00000000
_symmetry_Int_Tables_number   1
_chemical_formula_structural   Y4H9NO13
_chemical_formula_sum   'Y8 H18 N2 O26'
_cell_volume   569.23889346
_cell_formula_units_Z   2
loop_
 _symmetry_equiv_pos_site_id
 _symmetry_equiv_pos_as_xyz
  1  'x, y, z'
loop_
 _atom_site_type_symbol
 _atom_site_label
 _atom_site_symmetry_multiplicity
 _atom_site_fract_x
 _atom_site_fract_y
 _atom_site_fract_z
 _atom_site_occupancy
  Y  Y0  1  0.73101253  0.50057210  0.36886133  1
  Y  Y1  1  0.26898747  0.00057210  0.63113867  1
  Y  Y2  1  0.26816389  0.79027364  0.11802607  1
  Y  Y3  1  0.73183611  0.29027364  0.88197393  1
  Y  Y4  1  0.93934153  0.68963659  0.45332363  1
  Y  Y5  1  0.06065847  0.18963659  0.54667637  1
  Y  Y6  1  0.59653259  0.68217188  0.80054093  1
  Y  Y7  1  0.40346741  0.18217188  0.19945907  1
  H  H8  1  0.04232561  0.52395396  0.47917362  1
  H  H9  1  0.95767439  0.02395396  0.52082638  1
  H  H10  1  0.82519546  0.81084523  0.91009475  1
  H  H11  1  0.17480454  0.31084523  0.08990525  1
  H  H12  1  0.48579192  0.51147837  0.73461056  1
  H  H13  1  0.51420808  0.01147837  0.26538944  1
  H  H14  1  0.29336127  0.64932165  0.66526914  1
  H  H15  1  0.70663873  0.14932165  0.33473086  1
  H  H16  1  0.04974438  0.85334838  0.53199504  1
  H  H17  1  0.95025562  0.35334838  0.46800496  1
  H  H18  1  0.13867460  0.62018164  0.04260863  1
  H  H19  1  0.86132540  0.12018164  0.95739137  1
  H  H20  1  0.59372347  0.81911015  0.29053646  1
  H  H21  1  0.40627653  0.31911015  0.70946354  1
  H  H22  1  0.06518570  0.94015865  0.04199673  1
  H  H23  1  0.93481430  0.44015865  0.95800327  1
  H  H24  1  0.46681079  0.86385669  0.67928224  1
  H  H25  1  0.53318921  0.36385669  0.32071776  1
  N  N26  1  0.74681704  0.96084238  0.82527796  1
  N  N27  1  0.25318296  0.46084238  0.17472204  1
  O  O28  1  0.95419780  0.55438248  0.44793315  1
  O  O29  1  0.04580220  0.05438248  0.55206685  1
  O  O30  1  0.71363386  0.63632907  0.35526036  1
  O  O31  1  0.28636614  0.13632907  0.64473964  1
  O  O32  1  0.81766422  0.75164683  0.89947772  1
  O  O33  1  0.18233578  0.25164683  0.10052228  1
  O  O34  1  0.57962719  0.53668944  0.80949856  1
  O  O35  1  0.42037281  0.03668944  0.19050144  1
  O  O36  1  0.34906589  0.69806975  0.66446355  1
  O  O37  1  0.65093411  0.19806975  0.33553645  1
  O  O38  1  0.09242603  0.80022034  0.53595864  1
  O  O39  1  0.90757397  0.30022034  0.46404136  1
  O  O40  1  0.09771066  0.67415310  0.02740994  1
  O  O41  1  0.90228934  0.17415310  0.97259006  1
  O  O42  1  0.53245413  0.77170790  0.25536111  1
  O  O43  1  0.46754587  0.27170790  0.74463889  1
  O  O44  1  0.16856290  0.93192090  0.08405019  1
  O  O45  1  0.83143710  0.43192090  0.91594981  1
  O  O46  1  0.36352632  0.86841225  0.65794681  1
  O  O47  1  0.63647368  0.36841225  0.34205319  1
  O  O48  1  0.85631917  0.91894763  0.95703468  1
  O  O49  1  0.14368083  0.41894763  0.04296532  1
  O  O50  1  0.73466767  0.03208292  0.93476465  1
  O  O51  1  0.26533233  0.53208292  0.06523535  1
  O  O52  1  0.64929434  0.93068609  0.58354417  1
  O  O53  1  0.35070566  0.43068609  0.41645583  1
