# generated using pymatgen
data_Dy3Co29(Si2B5)2
_symmetry_space_group_name_H-M   'P 1'
_cell_length_a   11.13242993
_cell_length_b   11.13242993
_cell_length_c   7.81722581
_cell_angle_alpha   90.00000000
_cell_angle_beta   90.00000000
_cell_angle_gamma   90.00000000
_symmetry_Int_Tables_number   1
_chemical_formula_structural   Dy3Co29(Si2B5)2
_chemical_formula_sum   'Dy6 Co58 Si8 B20'
_cell_volume   968.79658173
_cell_formula_units_Z   2
loop_
 _symmetry_equiv_pos_site_id
 _symmetry_equiv_pos_as_xyz
  1  'x, y, z'
loop_
 _atom_site_type_symbol
 _atom_site_label
 _atom_site_symmetry_multiplicity
 _atom_site_fract_x
 _atom_site_fract_y
 _atom_site_fract_z
 _atom_site_occupancy
  Dy  Dy0  1  0.00000000  0.00000000  0.00000000  1
  Dy  Dy1  1  0.00000000  0.50000000  0.00000000  1
  Dy  Dy2  1  0.25000000  0.75000000  0.50000000  1
  Dy  Dy3  1  0.50000000  0.00000000  0.00000000  1
  Dy  Dy4  1  0.50000000  0.50000000  0.00000000  1
  Dy  Dy5  1  0.75000000  0.25000000  0.50000000  1
  Co  Co6  1  0.02188618  0.25000000  0.47399411  1
  Co  Co7  1  0.07584686  0.58836226  0.33577787  1
  Co  Co8  1  0.07584686  0.91163774  0.33577787  1
  Co  Co9  1  0.08544268  0.25000000  0.97117925  1
  Co  Co10  1  0.08836226  0.57584686  0.66422213  1
  Co  Co11  1  0.08836226  0.92415314  0.66422213  1
  Co  Co12  1  0.13438995  0.13438995  0.24980767  1
  Co  Co13  1  0.13438995  0.36561005  0.24980767  1
  Co  Co14  1  0.13977732  0.75000000  0.11161846  1
  Co  Co15  1  0.13971119  0.13971119  0.69925134  1
  Co  Co16  1  0.13971119  0.36028881  0.69925134  1
  Co  Co17  1  0.25000000  0.08544268  0.97117925  1
  Co  Co18  1  0.25000000  0.02188618  0.47399411  1
  Co  Co19  1  0.25000000  0.25000000  0.46741102  1
  Co  Co20  1  0.25000000  0.63977732  0.88838154  1
  Co  Co21  1  0.25000000  0.86022268  0.88838154  1
  Co  Co22  1  0.25000000  0.41455732  0.97117925  1
  Co  Co23  1  0.25000000  0.47811382  0.47399411  1
  Co  Co24  1  0.36028881  0.13971119  0.69925134  1
  Co  Co25  1  0.36028881  0.36028881  0.69925134  1
  Co  Co26  1  0.36022268  0.75000000  0.11161846  1
  Co  Co27  1  0.36561005  0.13438995  0.24980767  1
  Co  Co28  1  0.36561005  0.36561005  0.24980767  1
  Co  Co29  1  0.41163774  0.57584686  0.66422213  1
  Co  Co30  1  0.41163774  0.92415314  0.66422213  1
  Co  Co31  1  0.41455732  0.25000000  0.97117925  1
  Co  Co32  1  0.42415314  0.58836226  0.33577787  1
  Co  Co33  1  0.42415314  0.91163774  0.33577787  1
  Co  Co34  1  0.47811382  0.25000000  0.47399411  1
  Co  Co35  1  0.52188618  0.75000000  0.52600589  1
  Co  Co36  1  0.57584686  0.08836226  0.66422213  1
  Co  Co37  1  0.57584686  0.41163774  0.66422213  1
  Co  Co38  1  0.58544268  0.75000000  0.02882075  1
  Co  Co39  1  0.58836226  0.07584686  0.33577787  1
  Co  Co40  1  0.58836226  0.42415314  0.33577787  1
  Co  Co41  1  0.63438995  0.63438995  0.75019233  1
  Co  Co42  1  0.63438995  0.86561005  0.75019233  1
  Co  Co43  1  0.63977732  0.25000000  0.88838154  1
  Co  Co44  1  0.63971119  0.63971119  0.30074866  1
  Co  Co45  1  0.63971119  0.86028881  0.30074866  1
  Co  Co46  1  0.75000000  0.91455732  0.02882075  1
  Co  Co47  1  0.75000000  0.97811382  0.52600589  1
  Co  Co48  1  0.75000000  0.13977732  0.11161846  1
  Co  Co49  1  0.75000000  0.36022268  0.11161846  1
  Co  Co50  1  0.75000000  0.52188618  0.52600589  1
  Co  Co51  1  0.75000000  0.58544268  0.02882075  1
  Co  Co52  1  0.75000000  0.75000000  0.53258898  1
  Co  Co53  1  0.86028881  0.63971119  0.30074866  1
  Co  Co54  1  0.86028881  0.86028881  0.30074866  1
  Co  Co55  1  0.86022268  0.25000000  0.88838154  1
  Co  Co56  1  0.86561005  0.63438995  0.75019233  1
  Co  Co57  1  0.86561005  0.86561005  0.75019233  1
  Co  Co58  1  0.91163774  0.07584686  0.33577787  1
  Co  Co59  1  0.91163774  0.42415314  0.33577787  1
  Co  Co60  1  0.91455732  0.75000000  0.02882075  1
  Co  Co61  1  0.92415314  0.08836226  0.66422213  1
  Co  Co62  1  0.92415314  0.41163774  0.66422213  1
  Co  Co63  1  0.97811382  0.75000000  0.52600589  1
  Si  Si64  1  0.06779495  0.75000000  0.82504973  1
  Si  Si65  1  0.25000000  0.56779495  0.17495027  1
  Si  Si66  1  0.25000000  0.93220505  0.17495027  1
  Si  Si67  1  0.43220505  0.75000000  0.82504973  1
  Si  Si68  1  0.56779495  0.25000000  0.17495027  1
  Si  Si69  1  0.75000000  0.06779495  0.82504973  1
  Si  Si70  1  0.75000000  0.43220505  0.82504973  1
  Si  Si71  1  0.93220505  0.25000000  0.17495027  1
  B  B72  1  0.06366726  0.06366726  0.48239466  1
  B  B73  1  0.06366726  0.43633274  0.48239466  1
  B  B74  1  0.00582786  0.75000000  0.26340982  1
  B  B75  1  0.25000000  0.25000000  0.10856886  1
  B  B76  1  0.25000000  0.25000000  0.85118573  1
  B  B77  1  0.25000000  0.50582786  0.73659018  1
  B  B78  1  0.25000000  0.99417214  0.73659018  1
  B  B79  1  0.49417214  0.75000000  0.26340982  1
  B  B80  1  0.43633274  0.06366726  0.48239466  1
  B  B81  1  0.43633274  0.43633274  0.48239466  1
  B  B82  1  0.56366726  0.56366726  0.51760534  1
  B  B83  1  0.56366726  0.93633274  0.51760534  1
  B  B84  1  0.50582786  0.25000000  0.73659018  1
  B  B85  1  0.75000000  0.00582786  0.26340982  1
  B  B86  1  0.75000000  0.49417214  0.26340982  1
  B  B87  1  0.75000000  0.75000000  0.14881427  1
  B  B88  1  0.75000000  0.75000000  0.89143114  1
  B  B89  1  0.99417214  0.25000000  0.73659018  1
  B  B90  1  0.93633274  0.93633274  0.51760534  1
  B  B91  1  0.93633274  0.56366726  0.51760534  1
