# generated using pymatgen
data_Cu4PtO5
_symmetry_space_group_name_H-M   'P 1'
_cell_length_a   2.91117001
_cell_length_b   13.23431366
_cell_length_c   6.03678419
_cell_angle_alpha   97.01204968
_cell_angle_beta   90.00000000
_cell_angle_gamma   90.00000000
_symmetry_Int_Tables_number   1
_chemical_formula_structural   Cu4PtO5
_chemical_formula_sum   'Cu8 Pt2 O10'
_cell_volume   230.84162785
_cell_formula_units_Z   2
loop_
 _symmetry_equiv_pos_site_id
 _symmetry_equiv_pos_as_xyz
  1  'x, y, z'
loop_
 _atom_site_type_symbol
 _atom_site_label
 _atom_site_symmetry_multiplicity
 _atom_site_fract_x
 _atom_site_fract_y
 _atom_site_fract_z
 _atom_site_occupancy
  Cu  Cu0  1  0.50000000  0.09870960  0.39947907  1
  Cu  Cu1  1  0.50000000  0.70159284  0.80192605  1
  Cu  Cu2  1  0.50000000  0.50129040  0.00052093  1
  Cu  Cu3  1  0.50000000  0.89840716  0.59807395  1
  Cu  Cu4  1  0.50000000  0.30000000  0.20000000  1
  Cu  Cu5  1  0.00000000  0.30000000  0.70000000  1
  Cu  Cu6  1  0.00000000  0.70376650  0.29764083  1
  Cu  Cu7  1  0.00000000  0.89623350  0.10235917  1
  Pt  Pt8  1  0.00000000  0.09860654  0.89993818  1
  Pt  Pt9  1  0.00000000  0.50139346  0.50006182  1
  O  O10  1  0.00000000  0.15175213  0.59528138  1
  O  O11  1  0.00000000  0.44824787  0.80471862  1
  O  O12  1  0.00000000  0.04532624  0.20375145  1
  O  O13  1  0.00000000  0.34766233  0.40004713  1
  O  O14  1  0.00000000  0.65484068  0.59830185  1
  O  O15  1  0.00000000  0.94515932  0.80169815  1
  O  O16  1  0.00000000  0.25233767  -0.00004713  1
  O  O17  1  0.00000000  0.55467376  0.19624855  1
  O  O18  1  0.00000000  0.85057578  0.40119234  1
  O  O19  1  0.00000000  0.74942422  0.99880766  1
