# generated using pymatgen
data_Sc2Te3
_symmetry_space_group_name_H-M   'P 1'
_cell_length_a   13.90035930
_cell_length_b   41.70081343
_cell_length_c   27.50227226
_cell_angle_alpha   8.42533765
_cell_angle_beta   14.88607852
_cell_angle_gamma   17.05654863
_symmetry_Int_Tables_number   1
_chemical_formula_structural   Sc2Te3
_chemical_formula_sum   'Sc8 Te12'
_cell_volume   600.06485242
_cell_formula_units_Z   4
loop_
 _symmetry_equiv_pos_site_id
 _symmetry_equiv_pos_as_xyz
  1  'x, y, z'
loop_
 _atom_site_type_symbol
 _atom_site_label
 _atom_site_symmetry_multiplicity
 _atom_site_fract_x
 _atom_site_fract_y
 _atom_site_fract_z
 _atom_site_occupancy
  Sc  Sc0  1  0.00000000  0.00000000  0.00000000  1
  Sc  Sc1  1  0.99565807  0.33512651  0.99945807  1
  Sc  Sc2  1  0.00434193  0.66487349  0.00054193  1
  Sc  Sc3  1  0.41561229  0.33371597  0.41476633  1
  Sc  Sc4  1  0.50128712  0.33336269  0.50116766  1
  Sc  Sc5  1  0.49871288  0.66663731  0.49883234  1
  Sc  Sc6  1  0.58438771  0.66628403  0.58523367  1
  Sc  Sc7  1  0.50000000  0.00000000  0.50000000  1
  Te  Te8  1  0.12239349  0.00213840  0.12259227  1
  Te  Te9  1  0.29167514  0.00224201  0.28833111  1
  Te  Te10  1  0.11861881  0.33125214  0.13067481  1
  Te  Te11  1  0.29134476  0.33117041  0.29449930  1
  Te  Te12  1  0.12844198  0.66684634  0.12253785  1
  Te  Te13  1  0.29370974  0.66678355  0.29025766  1
  Te  Te14  1  0.70629026  0.33321645  0.70974234  1
  Te  Te15  1  0.87155802  0.33315366  0.87746215  1
  Te  Te16  1  0.70865524  0.66882959  0.70550070  1
  Te  Te17  1  0.88138119  0.66874786  0.86932519  1
  Te  Te18  1  0.70832486  0.99775799  0.71166889  1
  Te  Te19  1  0.87760651  0.99786160  0.87740773  1
