# generated using pymatgen
data_SrLaTaMnO6
_symmetry_space_group_name_H-M   'P 1'
_cell_length_a   5.72080443
_cell_length_b   5.87571675
_cell_length_c   8.12486497
_cell_angle_alpha   90.00000000
_cell_angle_beta   89.73281343
_cell_angle_gamma   90.00000000
_symmetry_Int_Tables_number   1
_chemical_formula_structural   SrLaTaMnO6
_chemical_formula_sum   'Sr2 La2 Ta2 Mn2 O12'
_cell_volume   273.10483139
_cell_formula_units_Z   2
loop_
 _symmetry_equiv_pos_site_id
 _symmetry_equiv_pos_as_xyz
  1  'x, y, z'
loop_
 _atom_site_type_symbol
 _atom_site_label
 _atom_site_symmetry_multiplicity
 _atom_site_fract_x
 _atom_site_fract_y
 _atom_site_fract_z
 _atom_site_occupancy
  Sr  Sr0  1  0.01028539  0.04278515  0.25066213  1
  Sr  Sr1  1  0.51028539  0.45721485  0.75066213  1
  La  La2  1  0.48982994  0.54849663  0.24355372  1
  La  La3  1  0.98982994  0.95150337  0.74355372  1
  Ta  Ta4  1  0.99973066  0.49809114  0.99910645  1
  Ta  Ta5  1  0.49973066  0.00190886  0.49910645  1
  Mn  Mn6  1  0.99962158  0.49714500  0.49880451  1
  Mn  Mn7  1  0.49962158  0.00285500  0.99880451  1
  O  O8  1  0.07939856  0.53642223  0.76132964  1
  O  O9  1  0.19983049  0.77025462  0.05093089  1
  O  O10  1  0.22046723  0.80322987  0.46326253  1
  O  O11  1  0.28631645  0.30941266  0.04755753  1
  O  O12  1  0.31653775  0.28707132  0.44643506  1
  O  O13  1  0.39798195  0.02987033  0.73835755  1
  O  O14  1  0.57939856  0.96357777  0.26132964  1
  O  O15  1  0.69983049  0.72974538  0.55093089  1
  O  O16  1  0.72046723  0.69677013  0.96326253  1
  O  O17  1  0.78631645  0.19058734  0.54755753  1
  O  O18  1  0.81653775  0.21292868  0.94643506  1
  O  O19  1  0.89798195  0.47012967  0.23835755  1
