# generated using pymatgen
data_Sr5V3O12F
_symmetry_space_group_name_H-M   'P 1'
_cell_length_a   7.51826634
_cell_length_b   10.14129248
_cell_length_c   10.14121862
_cell_angle_alpha   120.00087766
_cell_angle_beta   90.00000000
_cell_angle_gamma   90.00000000
_symmetry_Int_Tables_number   1
_chemical_formula_structural   Sr5V3O12F
_chemical_formula_sum   'Sr10 V6 O24 F2'
_cell_volume   669.61928238
_cell_formula_units_Z   2
loop_
 _symmetry_equiv_pos_site_id
 _symmetry_equiv_pos_as_xyz
  1  'x, y, z'
loop_
 _atom_site_type_symbol
 _atom_site_label
 _atom_site_symmetry_multiplicity
 _atom_site_fract_x
 _atom_site_fract_y
 _atom_site_fract_z
 _atom_site_occupancy
  Sr  Sr0  1  0.75000000  0.75097305  0.99002331  1
  Sr  Sr1  1  0.75000000  0.00998243  0.76094530  1
  Sr  Sr2  1  0.75000000  0.23904746  0.24903374  1
  Sr  Sr3  1  0.25000000  0.24902695  0.00997669  1
  Sr  Sr4  1  0.25000000  0.99001757  0.23905470  1
  Sr  Sr5  1  0.25000000  0.76095254  0.75096626  1
  Sr  Sr6  1  0.50055034  0.33338714  0.66669211  1
  Sr  Sr7  1  0.00055034  0.66661286  0.33330789  1
  Sr  Sr8  1  0.49944966  0.66661286  0.33330789  1
  Sr  Sr9  1  0.99944966  0.33338714  0.66669211  1
  V  V10  1  0.75000000  0.97000071  0.36845559  1
  V  V11  1  0.75000000  0.63154791  0.60154827  1
  V  V12  1  0.75000000  0.39845360  0.02999649  1
  V  V13  1  0.25000000  0.02999929  0.63154441  1
  V  V14  1  0.25000000  0.36845209  0.39845173  1
  V  V15  1  0.25000000  0.60154640  0.97000351  1
  O  O16  1  0.75000000  0.87358373  0.47153288  1
  O  O17  1  0.75000000  0.52846178  0.40205171  1
  O  O18  1  0.75000000  0.59795302  0.12641494  1
  O  O19  1  0.25000000  0.12641627  0.52846712  1
  O  O20  1  0.25000000  0.47153822  0.59794829  1
  O  O21  1  0.25000000  0.40204698  0.87358506  1
  O  O22  1  0.75000000  0.16844757  0.48422772  1
  O  O23  1  0.75000000  0.51577869  0.68422037  1
  O  O24  1  0.75000000  0.31578694  0.83156474  1
  O  O25  1  0.25000000  0.83155243  0.51577228  1
  O  O26  1  0.25000000  0.48422131  0.31577963  1
  O  O27  1  0.25000000  0.68421306  0.16843526  1
  O  O28  1  0.56665341  0.90899015  0.24908859  1
  O  O29  1  0.56665102  0.75090861  0.65990128  1
  O  O30  1  0.56664757  0.34010163  0.09101332  1
  O  O31  1  0.06665341  0.09100985  0.75091141  1
  O  O32  1  0.06665102  0.24909139  0.34009872  1
  O  O33  1  0.06664757  0.65989837  0.90898668  1
  O  O34  1  0.43334659  0.09100985  0.75091141  1
  O  O35  1  0.43334898  0.24909139  0.34009872  1
  O  O36  1  0.43335243  0.65989837  0.90898668  1
  O  O37  1  0.93334659  0.90899015  0.24908859  1
  O  O38  1  0.93334898  0.75090861  0.65990128  1
  O  O39  1  0.93335243  0.34010163  0.09101332  1
  F  F40  1  0.75000000  0.00000029  0.99999959  1
  F  F41  1  0.25000000  -0.00000029  0.00000041  1
