# generated using pymatgen
data_Sr5V3ClO12
_symmetry_space_group_name_H-M   'P 1'
_cell_length_a   10.45051986
_cell_length_b   10.45051976
_cell_length_c   7.31511411
_cell_angle_alpha   90.00000000
_cell_angle_beta   90.00000000
_cell_angle_gamma   120.00000031
_symmetry_Int_Tables_number   1
_chemical_formula_structural   Sr5V3ClO12
_chemical_formula_sum   'Sr10 V6 Cl2 O24'
_cell_volume   691.87481380
_cell_formula_units_Z   2
loop_
 _symmetry_equiv_pos_site_id
 _symmetry_equiv_pos_as_xyz
  1  'x, y, z'
loop_
 _atom_site_type_symbol
 _atom_site_label
 _atom_site_symmetry_multiplicity
 _atom_site_fract_x
 _atom_site_fract_y
 _atom_site_fract_z
 _atom_site_occupancy
  Sr  Sr0  1  0.00781774  0.75168793  0.75000000  1
  Sr  Sr1  1  0.25612981  0.00781774  0.25000000  1
  Sr  Sr2  1  0.33333300  0.66666700  0.00255647  1
  Sr  Sr3  1  0.66666700  0.33333300  0.50255647  1
  Sr  Sr4  1  0.99218226  0.24831207  0.25000000  1
  Sr  Sr5  1  0.33333300  0.66666700  0.49744353  1
  Sr  Sr6  1  0.24831207  0.25612981  0.75000000  1
  Sr  Sr7  1  0.66666700  0.33333300  0.99744353  1
  Sr  Sr8  1  0.74387019  0.99218226  0.75000000  1
  Sr  Sr9  1  0.75168793  0.74387019  0.25000000  1
  V  V10  1  0.62510499  0.03217480  0.25000000  1
  V  V11  1  0.03217480  0.40706981  0.75000000  1
  V  V12  1  0.59293019  0.62510499  0.75000000  1
  V  V13  1  0.40706981  0.37489501  0.25000000  1
  V  V14  1  0.96782520  0.59293019  0.25000000  1
  V  V15  1  0.37489501  0.96782520  0.75000000  1
  Cl  Cl16  1  0.00000000  0.00000000  0.00000000  1
  Cl  Cl17  1  0.00000000  0.00000000  0.50000000  1
  O  O18  1  0.86900290  0.39873476  0.25000000  1
  O  O19  1  0.33349497  0.49217368  0.25000000  1
  O  O20  1  0.90659399  0.64829934  0.06166917  1
  O  O21  1  0.49217368  0.15867871  0.75000000  1
  O  O22  1  0.35170066  0.25829465  0.06166917  1
  O  O23  1  0.09340601  0.35170066  0.56166917  1
  O  O24  1  0.47026814  0.86900290  0.75000000  1
  O  O25  1  0.25829465  0.90659399  0.93833083  1
  O  O26  1  0.25829465  0.90659399  0.56166917  1
  O  O27  1  0.90659399  0.64829934  0.43833083  1
  O  O28  1  0.60126524  0.47026814  0.25000000  1
  O  O29  1  0.52973186  0.13099710  0.25000000  1
  O  O30  1  0.15867871  0.66650503  0.25000000  1
  O  O31  1  0.74170535  0.09340601  0.43833083  1
  O  O32  1  0.13099710  0.60126524  0.75000000  1
  O  O33  1  0.35170066  0.25829465  0.43833083  1
  O  O34  1  0.09340601  0.35170066  0.93833083  1
  O  O35  1  0.74170535  0.09340601  0.06166917  1
  O  O36  1  0.64829934  0.74170535  0.56166917  1
  O  O37  1  0.39873476  0.52973186  0.75000000  1
  O  O38  1  0.84132129  0.33349497  0.75000000  1
  O  O39  1  0.66650503  0.50782632  0.75000000  1
  O  O40  1  0.64829934  0.74170535  0.93833083  1
  O  O41  1  0.50782632  0.84132129  0.25000000  1
