# generated using pymatgen
data_CdFeSn(PO4)3
_symmetry_space_group_name_H-M   'P 1'
_cell_length_a   8.90330771
_cell_length_b   8.90330772
_cell_length_c   8.90330739
_cell_angle_alpha   58.72860504
_cell_angle_beta   58.72860502
_cell_angle_gamma   58.72860759
_symmetry_Int_Tables_number   1
_chemical_formula_structural   CdFeSn(PO4)3
_chemical_formula_sum   'Cd2 Fe2 Sn2 P6 O24'
_cell_volume   484.54880202
_cell_formula_units_Z   2
loop_
 _symmetry_equiv_pos_site_id
 _symmetry_equiv_pos_as_xyz
  1  'x, y, z'
loop_
 _atom_site_type_symbol
 _atom_site_label
 _atom_site_symmetry_multiplicity
 _atom_site_fract_x
 _atom_site_fract_y
 _atom_site_fract_z
 _atom_site_occupancy
  Cd  Cd0  1  0.99704628  0.99704628  0.99704628  1
  Cd  Cd1  1  0.49704628  0.49704628  0.49704628  1
  Fe  Fe2  1  0.35252615  0.35252615  0.35252615  1
  Fe  Fe3  1  0.85252615  0.85252615  0.85252615  1
  Sn  Sn4  1  0.14640978  0.14640978  0.14640978  1
  Sn  Sn5  1  0.64640978  0.64640978  0.64640978  1
  P  P6  1  0.04501649  0.74877932  0.45999283  1
  P  P7  1  0.45999283  0.04501649  0.74877932  1
  P  P8  1  0.74877932  0.45999283  0.04501649  1
  P  P9  1  0.24877932  0.54501649  0.95999283  1
  P  P10  1  0.54501649  0.95999283  0.24877932  1
  P  P11  1  0.95999283  0.24877932  0.54501649  1
  O  O12  1  0.11850917  0.30082245  0.50552197  1
  O  O13  1  0.30082245  0.50552197  0.11850917  1
  O  O14  1  0.06080035  0.91732937  0.26904567  1
  O  O15  1  0.50552197  0.11850917  0.30082245  1
  O  O16  1  0.00552197  0.80082245  0.61850917  1
  O  O17  1  0.23156939  0.58296393  0.43877021  1
  O  O18  1  0.26904567  0.06080035  0.91732937  1
  O  O19  1  0.43877021  0.23156939  0.58296393  1
  O  O20  1  0.20350029  0.38635357  0.98504278  1
  O  O21  1  0.58296393  0.43877021  0.23156939  1
  O  O22  1  0.08296393  0.73156939  0.93877021  1
  O  O23  1  0.38635357  0.98504278  0.20350029  1
  O  O24  1  0.61850917  0.00552197  0.80082245  1
  O  O25  1  0.91732937  0.26904567  0.06080035  1
  O  O26  1  0.41732937  0.56080035  0.76904567  1
  O  O27  1  0.80082245  0.61850917  0.00552197  1
  O  O28  1  0.56080035  0.76904567  0.41732937  1
  O  O29  1  0.73156939  0.93877021  0.08296393  1
  O  O30  1  0.76904567  0.41732937  0.56080035  1
  O  O31  1  0.98504278  0.20350029  0.38635357  1
  O  O32  1  0.48504278  0.88635357  0.70350029  1
  O  O33  1  0.93877021  0.08296393  0.73156939  1
  O  O34  1  0.70350029  0.48504278  0.88635357  1
  O  O35  1  0.88635357  0.70350029  0.48504278  1
