# generated using pymatgen
data_Cs2TiV3(PO6)3
_symmetry_space_group_name_H-M   'P 1'
_cell_length_a   13.90710884
_cell_length_b   13.90710895
_cell_length_c   9.68810421
_cell_angle_alpha   90.00000000
_cell_angle_beta   90.00000000
_cell_angle_gamma   119.99999975
_symmetry_Int_Tables_number   1
_chemical_formula_structural   Cs2TiV3(PO6)3
_chemical_formula_sum   'Cs8 Ti4 V12 P12 O72'
_cell_volume   1622.71834081
_cell_formula_units_Z   4
loop_
 _symmetry_equiv_pos_site_id
 _symmetry_equiv_pos_as_xyz
  1  'x, y, z'
loop_
 _atom_site_type_symbol
 _atom_site_label
 _atom_site_symmetry_multiplicity
 _atom_site_fract_x
 _atom_site_fract_y
 _atom_site_fract_z
 _atom_site_occupancy
  Cs  Cs0  1  0.00000000  0.00000000  0.09056586  1
  Cs  Cs1  1  0.50000000  0.50000000  0.54947762  1
  Cs  Cs2  1  0.50000000  0.00000000  0.54947762  1
  Cs  Cs3  1  0.00000000  0.50000000  0.04947762  1
  Cs  Cs4  1  0.50000000  0.00000000  0.04947762  1
  Cs  Cs5  1  0.00000000  0.50000000  0.54947762  1
  Cs  Cs6  1  0.00000000  0.00000000  0.59056586  1
  Cs  Cs7  1  0.50000000  0.50000000  0.04947762  1
  Ti  Ti8  1  0.66666700  0.33333300  0.54310072  1
  Ti  Ti9  1  0.33333300  0.66666700  0.04310072  1
  Ti  Ti10  1  0.66666700  0.33333300  0.04310072  1
  Ti  Ti11  1  0.33333300  0.66666700  0.54310072  1
  V  V12  1  0.23446946  0.97395925  0.34036959  1
  V  V13  1  0.97395925  0.23446946  0.84036959  1
  V  V14  1  0.73948980  0.76553054  0.34036959  1
  V  V15  1  0.23446946  0.26051020  0.84036959  1
  V  V16  1  0.76553054  0.02604075  0.34036959  1
  V  V17  1  0.26051020  0.23446946  0.34036959  1
  V  V18  1  0.26051020  0.02604075  0.84036959  1
  V  V19  1  0.02604075  0.26051020  0.34036959  1
  V  V20  1  0.02604075  0.76553054  0.84036959  1
  V  V21  1  0.76553054  0.73948980  0.84036959  1
  V  V22  1  0.97395925  0.73948980  0.34036959  1
  V  V23  1  0.73948980  0.97395925  0.84036959  1
  P  P24  1  0.47403440  0.19917576  0.29327472  1
  P  P25  1  0.72514136  0.52596560  0.29327472  1
  P  P26  1  0.19917576  0.72514136  0.29327472  1
  P  P27  1  0.80082424  0.52596560  0.79327472  1
  P  P28  1  0.27485864  0.80082424  0.79327472  1
  P  P29  1  0.72514136  0.19917576  0.79327472  1
  P  P30  1  0.47403440  0.27485864  0.79327472  1
  P  P31  1  0.19917576  0.47403440  0.79327472  1
  P  P32  1  0.52596560  0.80082424  0.29327472  1
  P  P33  1  0.52596560  0.72514136  0.79327472  1
  P  P34  1  0.80082424  0.27485864  0.29327472  1
  P  P35  1  0.27485864  0.47403440  0.29327472  1
  O  O36  1  0.32172236  0.77458801  0.92444473  1
  O  O37  1  0.26184077  0.23720439  0.50784267  1
  O  O38  1  0.54713436  0.22541199  0.42444473  1
  O  O39  1  0.32128003  0.39287624  0.29277752  1
  O  O40  1  0.78501403  0.87557574  0.79498184  1
  O  O41  1  0.77458801  0.45286564  0.92444473  1
  O  O42  1  0.12442426  0.21498597  0.29498184  1
  O  O43  1  0.26184077  0.02463638  0.00784267  1
  O  O44  1  0.45286564  0.77458801  0.42444473  1
  O  O45  1  0.22541199  0.67827764  0.42444473  1
  O  O46  1  0.67827764  0.45286564  0.42444473  1
  O  O47  1  0.77458801  0.32172236  0.42444473  1
  O  O48  1  0.90943829  0.78501403  0.79498184  1
  O  O49  1  0.02463638  0.76279561  0.00784267  1
  O  O50  1  0.14647046  0.73306336  0.79197273  1
  O  O51  1  0.09056171  0.87557574  0.29498184  1
  O  O52  1  0.73815923  0.97536362  0.00784267  1
  O  O53  1  0.97536362  0.23720439  0.00784267  1
  O  O54  1  0.54750091  0.22537896  0.16303450  1
  O  O55  1  0.67827764  0.22541199  0.92444473  1
  O  O56  1  0.76279561  0.73815923  0.00784267  1
  O  O57  1  0.73306336  0.58659290  0.79197273  1
  O  O58  1  0.54750091  0.32212195  0.66303450  1
  O  O59  1  0.26693664  0.41340710  0.79197273  1
  O  O60  1  0.77462104  0.32212195  0.16303450  1
  O  O61  1  0.45249909  0.77462104  0.16303450  1
  O  O62  1  0.14647046  0.41340710  0.29197273  1
  O  O63  1  0.87557574  0.78501403  0.29498184  1
  O  O64  1  0.32172236  0.54713436  0.42444473  1
  O  O65  1  0.67787805  0.22537896  0.66303450  1
  O  O66  1  0.60712376  0.92840379  0.29277752  1
  O  O67  1  0.39287624  0.32128003  0.79277752  1
  O  O68  1  0.92840379  0.60712376  0.79277752  1
  O  O69  1  0.32212195  0.77462104  0.66303450  1
  O  O70  1  0.07159621  0.39287624  0.79277752  1
  O  O71  1  0.73815923  0.76279561  0.50784267  1
  O  O72  1  0.22541199  0.54713436  0.92444473  1
  O  O73  1  0.26693664  0.85352954  0.29197273  1
  O  O74  1  0.07159621  0.67871997  0.29277752  1
  O  O75  1  0.39287624  0.07159621  0.29277752  1
  O  O76  1  0.60712376  0.67871997  0.79277752  1
  O  O77  1  0.41340710  0.14647046  0.79197273  1
  O  O78  1  0.09056171  0.21498597  0.79498184  1
  O  O79  1  0.21498597  0.12442426  0.79498184  1
  O  O80  1  0.22537896  0.54750091  0.66303450  1
  O  O81  1  0.97536362  0.73815923  0.50784267  1
  O  O82  1  0.32128003  0.92840379  0.79277752  1
  O  O83  1  0.02463638  0.26184077  0.50784267  1
  O  O84  1  0.58659290  0.85352954  0.79197273  1
  O  O85  1  0.67871997  0.60712376  0.29277752  1
  O  O86  1  0.73306336  0.14647046  0.29197273  1
  O  O87  1  0.67871997  0.07159621  0.79277752  1
  O  O88  1  0.67787805  0.45249909  0.16303450  1
  O  O89  1  0.78501403  0.90943829  0.29498184  1
  O  O90  1  0.23720439  0.26184077  0.00784267  1
  O  O91  1  0.85352954  0.26693664  0.79197273  1
  O  O92  1  0.32212195  0.54750091  0.16303450  1
  O  O93  1  0.54713436  0.32172236  0.92444473  1
  O  O94  1  0.90943829  0.12442426  0.29498184  1
  O  O95  1  0.76279561  0.02463638  0.50784267  1
  O  O96  1  0.45286564  0.67827764  0.92444473  1
  O  O97  1  0.41340710  0.26693664  0.29197273  1
  O  O98  1  0.12442426  0.90943829  0.79498184  1
  O  O99  1  0.85352954  0.58659290  0.29197273  1
  O  O100  1  0.92840379  0.32128003  0.29277752  1
  O  O101  1  0.23720439  0.97536362  0.50784267  1
  O  O102  1  0.22537896  0.67787805  0.16303450  1
  O  O103  1  0.45249909  0.67787805  0.66303450  1
  O  O104  1  0.77462104  0.45249909  0.66303450  1
  O  O105  1  0.58659290  0.73306336  0.29197273  1
  O  O106  1  0.21498597  0.09056171  0.29498184  1
  O  O107  1  0.87557574  0.09056171  0.79498184  1
