# generated using pymatgen
data_K5HfIn(MoO4)6
_symmetry_space_group_name_H-M   'P 1'
_cell_length_a   14.19255974
_cell_length_b   14.19255994
_cell_length_c   14.19256013
_cell_angle_alpha   44.60019198
_cell_angle_beta   44.60019113
_cell_angle_gamma   44.60019175
_symmetry_Int_Tables_number   1
_chemical_formula_structural   K5HfIn(MoO4)6
_chemical_formula_sum   'K10 Hf2 In2 Mo12 O48'
_cell_volume   1281.76826640
_cell_formula_units_Z   2
loop_
 _symmetry_equiv_pos_site_id
 _symmetry_equiv_pos_as_xyz
  1  'x, y, z'
loop_
 _atom_site_type_symbol
 _atom_site_label
 _atom_site_symmetry_multiplicity
 _atom_site_fract_x
 _atom_site_fract_y
 _atom_site_fract_z
 _atom_site_occupancy
  K  K0  1  0.14663881  0.14663881  0.14663881  1
  K  K1  1  0.35336119  0.35336119  0.35336119  1
  K  K2  1  0.13590646  0.75000000  0.36409354  1
  K  K3  1  0.36409354  0.13590646  0.75000000  1
  K  K4  1  0.75000000  0.36409354  0.13590646  1
  K  K5  1  0.25000000  0.63590646  0.86409354  1
  K  K6  1  0.63590646  0.86409354  0.25000000  1
  K  K7  1  0.86409354  0.25000000  0.63590646  1
  K  K8  1  0.64663881  0.64663881  0.64663881  1
  K  K9  1  0.85336119  0.85336119  0.85336119  1
  Hf  Hf10  1  0.00000000  0.00000000  0.00000000  1
  Hf  Hf11  1  0.50000000  0.50000000  0.50000000  1
  In  In12  1  0.25000000  0.25000000  0.25000000  1
  In  In13  1  0.75000000  0.75000000  0.75000000  1
  Mo  Mo14  1  0.02203847  0.61871252  0.26217103  1
  Mo  Mo15  1  0.26217103  0.02203847  0.61871252  1
  Mo  Mo16  1  0.61871252  0.26217103  0.02203847  1
  Mo  Mo17  1  0.11871252  0.52203847  0.76217103  1
  Mo  Mo18  1  0.52203847  0.76217103  0.11871252  1
  Mo  Mo19  1  0.23782897  0.88128748  0.47796153  1
  Mo  Mo20  1  0.76217103  0.11871252  0.52203847  1
  Mo  Mo21  1  0.47796153  0.23782897  0.88128748  1
  Mo  Mo22  1  0.88128748  0.47796153  0.23782897  1
  Mo  Mo23  1  0.38128748  0.73782897  0.97796153  1
  Mo  Mo24  1  0.73782897  0.97796153  0.38128748  1
  Mo  Mo25  1  0.97796153  0.38128748  0.73782897  1
  O  O26  1  0.02817346  0.32120883  0.30250994  1
  O  O27  1  0.30250994  0.02817346  0.32120883  1
  O  O28  1  0.32120883  0.30250994  0.02817346  1
  O  O29  1  0.17879117  0.47182654  0.19749006  1
  O  O30  1  0.19749006  0.17879117  0.47182654  1
  O  O31  1  0.47182654  0.19749006  0.17879117  1
  O  O32  1  0.07017789  0.61773085  0.34746831  1
  O  O33  1  0.00442038  0.19879010  0.89597583  1
  O  O34  1  0.34746831  0.07017789  0.61773085  1
  O  O35  1  0.19879010  0.89597583  0.00442038  1
  O  O36  1  0.14292219  0.40657356  0.61132806  1
  O  O37  1  0.61773085  0.34746831  0.07017789  1
  O  O38  1  0.40657356  0.61132806  0.14292219  1
  O  O39  1  0.09342644  0.35707781  0.88867194  1
  O  O40  1  0.61132806  0.14292219  0.40657356  1
  O  O41  1  0.89597583  0.00442038  0.19879010  1
  O  O42  1  0.35707781  0.88867194  0.09342644  1
  O  O43  1  0.30120990  0.49557962  0.60402417  1
  O  O44  1  0.15253169  0.88226915  0.42982211  1
  O  O45  1  0.11773085  0.57017789  0.84746831  1
  O  O46  1  0.49557962  0.60402417  0.30120990  1
  O  O47  1  0.42982211  0.15253169  0.88226915  1
  O  O48  1  0.60402417  0.30120990  0.49557962  1
  O  O49  1  0.88867194  0.09342644  0.35707781  1
  O  O50  1  0.11132806  0.90657356  0.64292219  1
  O  O51  1  0.39597583  0.69879010  0.50442038  1
  O  O52  1  0.57017789  0.84746831  0.11773085  1
  O  O53  1  0.50442038  0.39597583  0.69879010  1
  O  O54  1  0.88226915  0.42982211  0.15253169  1
  O  O55  1  0.84746831  0.11773085  0.57017789  1
  O  O56  1  0.69879010  0.50442038  0.39597583  1
  O  O57  1  0.64292219  0.11132806  0.90657356  1
  O  O58  1  0.10402417  0.99557962  0.80120990  1
  O  O59  1  0.38867194  0.85707781  0.59342644  1
  O  O60  1  0.90657356  0.64292219  0.11132806  1
  O  O61  1  0.59342644  0.38867194  0.85707781  1
  O  O62  1  0.38226915  0.65253169  0.92982211  1
  O  O63  1  0.85707781  0.59342644  0.38867194  1
  O  O64  1  0.80120990  0.10402417  0.99557962  1
  O  O65  1  0.65253169  0.92982211  0.38226915  1
  O  O66  1  0.99557962  0.80120990  0.10402417  1
  O  O67  1  0.92982211  0.38226915  0.65253169  1
  O  O68  1  0.52817346  0.80250994  0.82120883  1
  O  O69  1  0.80250994  0.82120883  0.52817346  1
  O  O70  1  0.82120883  0.52817346  0.80250994  1
  O  O71  1  0.67879117  0.69749006  0.97182654  1
  O  O72  1  0.69749006  0.97182654  0.67879117  1
  O  O73  1  0.97182654  0.67879117  0.69749006  1
