# generated using pymatgen
data_FeP3H5NO10
_symmetry_space_group_name_H-M   'P 1'
_cell_length_a   7.45470763
_cell_length_b   7.45470763
_cell_length_c   9.46556865
_cell_angle_alpha   71.88824950
_cell_angle_beta   108.11175050
_cell_angle_gamma   110.00776482
_symmetry_Int_Tables_number   1
_chemical_formula_structural   FeP3H5NO10
_chemical_formula_sum   'Fe2 P6 H10 N2 O20'
_cell_volume   457.30589410
_cell_formula_units_Z   2
loop_
 _symmetry_equiv_pos_site_id
 _symmetry_equiv_pos_as_xyz
  1  'x, y, z'
loop_
 _atom_site_type_symbol
 _atom_site_label
 _atom_site_symmetry_multiplicity
 _atom_site_fract_x
 _atom_site_fract_y
 _atom_site_fract_z
 _atom_site_occupancy
  Fe  Fe0  1  0.00000000  0.50000000  0.50000000  1
  Fe  Fe1  1  0.50000000  0.00000000  0.00000000  1
  P  P2  1  0.72247578  0.14290744  0.70463839  1
  P  P3  1  0.14290744  0.72247578  0.79536161  1
  P  P4  1  0.27752422  0.85709256  0.29536161  1
  P  P5  1  0.85709256  0.27752422  0.20463839  1
  P  P6  1  0.12402299  0.12402299  0.75000000  1
  P  P7  1  0.87597701  0.87597701  0.25000000  1
  H  H8  1  0.32084360  0.45272806  0.25949895  1
  H  H9  1  0.45272806  0.32084360  0.24050105  1
  H  H10  1  0.67915640  0.54727194  0.74050105  1
  H  H11  1  0.54727194  0.67915640  0.75949895  1
  H  H12  1  0.43445670  0.51009012  0.65614473  1
  H  H13  1  0.51009012  0.43445670  0.84385527  1
  H  H14  1  0.56554330  0.48990988  0.34385527  1
  H  H15  1  0.48990988  0.56554330  0.15614473  1
  H  H16  1  0.00000000  0.50000000  0.00000000  1
  H  H17  1  0.50000000  0.00000000  0.50000000  1
  N  N18  1  0.54359944  0.54359944  0.75000000  1
  N  N19  1  0.45640056  0.45640056  0.25000000  1
  O  O20  1  0.93093675  0.09445325  0.80284246  1
  O  O21  1  0.09445325  0.93093675  0.69715754  1
  O  O22  1  0.06906325  0.90554675  0.19715754  1
  O  O23  1  0.90554675  0.06906325  0.30284246  1
  O  O24  1  0.76924195  0.34591301  0.59759142  1
  O  O25  1  0.34591301  0.76924195  0.90240858  1
  O  O26  1  0.23075805  0.65408699  0.40240858  1
  O  O27  1  0.65408699  0.23075805  0.09759142  1
  O  O28  1  0.61380234  0.97428412  0.62202203  1
  O  O29  1  0.97428412  0.61380234  0.87797797  1
  O  O30  1  0.38619766  0.02571588  0.37797797  1
  O  O31  1  0.02571588  0.38619766  0.12202203  1
  O  O32  1  0.62713925  0.14404074  0.82413032  1
  O  O33  1  0.14404074  0.62713925  0.67586968  1
  O  O34  1  0.37286075  0.85595926  0.17586968  1
  O  O35  1  0.85595926  0.37286075  0.32413032  1
  O  O36  1  0.14537804  0.29114582  0.61029154  1
  O  O37  1  0.29114582  0.14537804  0.88970846  1
  O  O38  1  0.85462196  0.70885418  0.38970846  1
  O  O39  1  0.70885418  0.85462196  0.11029154  1
