# generated using pymatgen
data_Na2Ni2(B4O7)3
_symmetry_space_group_name_H-M   'P 1'
_cell_length_a   4.51148446
_cell_length_b   11.73684707
_cell_length_c   14.52468225
_cell_angle_alpha   80.74002143
_cell_angle_beta   81.15095227
_cell_angle_gamma   78.97869885
_symmetry_Int_Tables_number   1
_chemical_formula_structural   Na2Ni2(B4O7)3
_chemical_formula_sum   'Na4 Ni4 B24 O42'
_cell_volume   739.03148448
_cell_formula_units_Z   2
loop_
 _symmetry_equiv_pos_site_id
 _symmetry_equiv_pos_as_xyz
  1  'x, y, z'
loop_
 _atom_site_type_symbol
 _atom_site_label
 _atom_site_symmetry_multiplicity
 _atom_site_fract_x
 _atom_site_fract_y
 _atom_site_fract_z
 _atom_site_occupancy
  Na  Na0  1  0.69766790  0.70350696  0.00699457  1
  Na  Na1  1  0.59309671  0.20514448  0.50873503  1
  Na  Na2  1  0.30280372  0.29658986  0.99023156  1
  Na  Na3  1  0.40878522  0.79723671  0.49279451  1
  Ni  Ni4  1  0.44494939  0.48833731  0.60630934  1
  Ni  Ni5  1  0.55512972  0.51213772  0.39342800  1
  Ni  Ni6  1  0.46384692  0.98853025  0.10606724  1
  Ni  Ni7  1  0.53854032  0.01287762  0.89362497  1
  B  B8  1  0.93848261  0.11782083  0.99326060  1
  B  B9  1  0.05831995  0.79910139  0.17217105  1
  B  B10  1  0.11263320  0.82657785  0.68069444  1
  B  B11  1  0.97163927  0.29851098  0.67231940  1
  B  B12  1  0.42082579  0.96234205  0.70437327  1
  B  B13  1  0.09276556  0.53758197  0.79562867  1
  B  B14  1  0.91193031  0.46349929  0.20426517  1
  B  B15  1  0.88245117  0.17275031  0.32012126  1
  B  B16  1  0.13263596  0.33444089  0.34421304  1
  B  B17  1  0.37733069  0.32684087  0.18115384  1
  B  B18  1  0.95164357  0.61568617  0.49284350  1
  B  B19  1  0.43876357  0.62272108  0.20046711  1
  B  B20  1  0.04674303  0.38379649  0.50677358  1
  B  B21  1  0.02942656  0.70098400  0.32709876  1
  B  B22  1  0.56467186  0.37813537  0.79868662  1
  B  B23  1  0.18760162  0.83370614  0.84389847  1
  B  B24  1  0.86610873  0.66458454  0.65581844  1
  B  B25  1  0.81312711  0.16556306  0.15650765  1
  B  B26  1  0.26024523  0.87762280  0.29882147  1
  B  B27  1  0.73938301  0.12160534  0.70103952  1
  B  B28  1  0.62378261  0.67180081  0.81899630  1
  B  B29  1  0.57467511  0.03753902  0.29573379  1
  B  B30  1  0.94302656  0.20129301  0.82734488  1
  B  B31  1  0.06374736  0.88366651  0.00670757  1
  O  O32  1  0.24721055  0.36757621  0.42452307  1
  O  O33  1  0.78539698  0.10890695  0.79424779  1
  O  O34  1  0.88773319  0.85425784  0.09293111  1
  O  O35  1  0.31462497  0.45514183  0.83551285  1
  O  O36  1  0.31193537  0.60905106  0.29360496  1
  O  O37  1  0.84630699  0.20711135  0.63683765  1
  O  O38  1  0.40759638  0.73037465  0.87948425  1
  O  O39  1  0.69313795  0.54721147  0.16411618  1
  O  O40  1  0.59859699  0.04540396  0.66456698  1
  O  O41  1  0.04049236  0.13403410  0.07563381  1
  O  O42  1  0.31025612  0.70818393  0.13616409  1
  O  O43  1  0.14790600  0.41219904  0.14272234  1
  O  O44  1  0.68855555  0.39033155  0.70543132  1
  O  O45  1  0.60682004  0.68824842  0.72510522  1
  O  O46  1  0.86604250  0.75020850  0.24961360  1
  O  O47  1  0.74805233  0.42170679  0.50366827  1
  O  O48  1  0.97921405  0.23149993  0.38074670  1
  O  O49  1  0.11392219  0.14795380  0.90695725  1
  O  O50  1  0.32634526  0.92273300  0.00340244  1
  O  O51  1  0.59438798  0.26899248  0.12051580  1
  O  O52  1  0.01463723  0.76877635  0.61967394  1
  O  O53  1  0.96198289  0.86585995  0.92476741  1
  O  O54  1  0.90022021  0.43348455  0.30050083  1
  O  O55  1  0.36418738  0.93299516  0.80053815  1
  O  O56  1  0.13512974  0.25000893  0.74991041  1
  O  O57  1  0.39617218  0.95486296  0.33555552  1
  O  O58  1  0.24985639  0.57749201  0.49615810  1
  O  O59  1  0.10255449  0.56715610  0.69941182  1
  O  O60  1  0.69068168  0.29199438  0.86285541  1
  O  O61  1  0.67521807  0.07959428  0.99599255  1
  O  O62  1  0.39206416  0.30909064  0.27524529  1
  O  O63  1  0.02026600  0.80939470  0.77467935  1
  O  O64  1  0.16609186  0.35323337  0.59306718  1
  O  O65  1  0.75170294  0.63120977  0.57548938  1
  O  O66  1  0.63446617  0.06654975  0.19952548  1
  O  O67  1  0.21729192  0.89039930  0.20541769  1
  O  O68  1  0.15662890  0.79137240  0.36304933  1
  O  O69  1  0.29828610  0.91103460  0.64244726  1
  O  O70  1  0.97869973  0.18890223  0.22630705  1
  O  O71  1  0.69664341  0.08839636  0.35807839  1
  O  O72  1  0.83271326  0.64687891  0.40652949  1
  O  O73  1  0.85520020  0.58735574  0.85746770  1
