# generated using pymatgen
data_Pr20AlSi19N33Cl2O19
_symmetry_space_group_name_H-M   'P 1'
_cell_length_a   10.63147879
_cell_length_b   11.29658813
_cell_length_c   11.70058139
_cell_angle_alpha   90.00000000
_cell_angle_beta   90.00000000
_cell_angle_gamma   89.82384236
_symmetry_Int_Tables_number   1
_chemical_formula_structural   Pr20AlSi19N33Cl2O19
_chemical_formula_sum   'Pr20 Al1 Si19 N33 Cl2 O19'
_cell_volume   1405.22659710
_cell_formula_units_Z   1
loop_
 _symmetry_equiv_pos_site_id
 _symmetry_equiv_pos_as_xyz
  1  'x, y, z'
loop_
 _atom_site_type_symbol
 _atom_site_label
 _atom_site_symmetry_multiplicity
 _atom_site_fract_x
 _atom_site_fract_y
 _atom_site_fract_z
 _atom_site_occupancy
  Pr  Pr0  1  0.99540864  0.99902879  0.83488406  1
  Pr  Pr1  1  0.10635596  0.63548027  0.00000000  1
  Pr  Pr2  1  0.13025400  0.87968162  0.50000000  1
  Pr  Pr3  1  0.13946655  0.39465815  0.23476628  1
  Pr  Pr4  1  0.13946655  0.39465815  0.76523372  1
  Pr  Pr5  1  0.35456907  0.89593089  0.24287255  1
  Pr  Pr6  1  0.35456907  0.89593089  0.75712745  1
  Pr  Pr7  1  0.37767158  0.38001798  0.50000000  1
  Pr  Pr8  1  0.38821024  0.12622244  0.00000000  1
  Pr  Pr9  1  0.50109404  0.50210323  0.82813925  1
  Pr  Pr10  1  0.50109404  0.50210323  0.17186075  1
  Pr  Pr11  1  0.63401495  0.87549005  0.00000000  1
  Pr  Pr12  1  0.63576864  0.62007224  0.50000000  1
  Pr  Pr13  1  0.64676648  0.10473913  0.22857866  1
  Pr  Pr14  1  0.64676648  0.10473913  0.77142134  1
  Pr  Pr15  1  0.85865837  0.59892647  0.23718273  1
  Pr  Pr16  1  0.85865837  0.59892647  0.76281727  1
  Pr  Pr17  1  0.87652568  0.12054539  0.50000000  1
  Pr  Pr18  1  0.87296551  0.37268402  0.00000000  1
  Pr  Pr19  1  0.99540864  0.99902879  0.16511594  1
  Al  Al20  1  0.21813458  0.89200062  0.00000000  1
  Si  Si21  1  0.11504769  0.74257316  0.24888069  1
  Si  Si22  1  0.11504769  0.74257316  0.75111931  1
  Si  Si23  1  0.15104146  0.14292498  0.63585317  1
  Si  Si24  1  0.15104146  0.14292498  0.36414683  1
  Si  Si25  1  0.28856417  0.38747327  0.00000000  1
  Si  Si26  1  0.34906173  0.64298286  0.63366552  1
  Si  Si27  1  0.34906173  0.64298286  0.36633448  1
  Si  Si28  1  0.38431553  0.24292258  0.75292231  1
  Si  Si29  1  0.38431553  0.24292258  0.24707769  1
  Si  Si30  1  0.61378045  0.75712952  0.24576628  1
  Si  Si31  1  0.61378045  0.75712952  0.75423372  1
  Si  Si32  1  0.65219767  0.35430595  0.63562523  1
  Si  Si33  1  0.65219767  0.35430595  0.36437477  1
  Si  Si34  1  0.71889040  0.61398229  0.00000000  1
  Si  Si35  1  0.78324119  0.10803410  0.00000000  1
  Si  Si36  1  0.84764646  0.85590486  0.63471449  1
  Si  Si37  1  0.84764646  0.85590486  0.36528551  1
  Si  Si38  1  0.88601448  0.26147137  0.75577365  1
  Si  Si39  1  0.88601448  0.26147137  0.24422635  1
  N  N40  1  0.02274769  0.19177269  0.28786765  1
  N  N41  1  0.02274769  0.19177269  0.71213235  1
  N  N42  1  0.10439607  0.11018724  0.50000000  1
  N  N43  1  0.16986962  0.81279685  0.12799932  1
  N  N44  1  0.16986962  0.81279685  0.87200068  1
  N  N45  1  0.22788130  0.74434708  0.64500593  1
  N  N46  1  0.22788130  0.74434708  0.35499407  1
  N  N47  1  0.27025960  0.24738216  0.64855339  1
  N  N48  1  0.27025960  0.24738216  0.35144661  1
  N  N49  1  0.33293459  0.31496346  0.12204635  1
  N  N50  1  0.33293459  0.31496346  0.87795365  1
  N  N51  1  0.40015279  0.60638123  0.50000000  1
  N  N52  1  0.47394742  0.69371676  0.28469826  1
  N  N53  1  0.47394742  0.69371676  0.71530174  1
  N  N54  1  0.52304318  0.30533835  0.28614629  1
  N  N55  1  0.52304318  0.30533835  0.71385371  1
  N  N56  1  0.60334432  0.38704091  0.50000000  1
  N  N57  1  0.61802322  0.09823871  0.00000000  1
  N  N58  1  0.66284362  0.68244204  0.12280157  1
  N  N59  1  0.66284362  0.68244204  0.87719843  1
  N  N60  1  0.72557274  0.75527493  0.64860368  1
  N  N61  1  0.72557274  0.75527493  0.35139632  1
  N  N62  1  0.76987857  0.25034912  0.64989923  1
  N  N63  1  0.76987857  0.25034912  0.35010077  1
  N  N64  1  0.83219041  0.18248072  0.12307015  1
  N  N65  1  0.83219041  0.18248072  0.87692985  1
  N  N66  1  0.84537525  0.96550235  0.00000000  1
  N  N67  1  0.87942741  0.59604439  0.00000000  1
  N  N68  1  0.89614862  0.89193935  0.50000000  1
  N  N69  1  0.92087230  0.40086281  0.20072406  1
  N  N70  1  0.92087230  0.40086281  0.79927594  1
  N  N71  1  0.97528511  0.80559555  0.28735896  1
  N  N72  1  0.97528511  0.80559555  0.71264104  1
  Cl  Cl73  1  0.42469358  0.95077255  0.50000000  1
  Cl  Cl74  1  0.92423127  0.54904705  0.50000000  1
  O  O75  1  0.08619436  0.60328226  0.20617815  1
  O  O76  1  0.08619436  0.60328226  0.79382185  1
  O  O77  1  0.13175751  0.41076978  0.00000000  1
  O  O78  1  0.15188418  0.03772913  0.00000000  1
  O  O79  1  0.18221260  0.00861016  0.68947788  1
  O  O80  1  0.18221260  0.00861016  0.31052212  1
  O  O81  1  0.31850540  0.50804408  0.31169469  1
  O  O82  1  0.31850540  0.50804408  0.68830531  1
  O  O83  1  0.34869157  0.52410275  0.00000000  1
  O  O84  1  0.38570690  0.91492927  0.00000000  1
  O  O85  1  0.41623682  0.10413863  0.20543565  1
  O  O86  1  0.41623682  0.10413863  0.79456435  1
  O  O87  1  0.58064388  0.89571436  0.20329420  1
  O  O88  1  0.58064388  0.89571436  0.79670580  1
  O  O89  1  0.65002613  0.47723286  0.00000000  1
  O  O90  1  0.67599041  0.49049628  0.31020653  1
  O  O91  1  0.67599041  0.49049628  0.68979347  1
  O  O92  1  0.81509390  0.99098884  0.68805311  1
  O  O93  1  0.81509390  0.99098884  0.31194689  1
