# generated using pymatgen
data_AsHPb4(ClO)4
_symmetry_space_group_name_H-M   'P 1'
_cell_length_a   14.06576330
_cell_length_b   8.04365074
_cell_length_c   10.98412073
_cell_angle_alpha   90.00000000
_cell_angle_beta   102.64904307
_cell_angle_gamma   90.00000000
_symmetry_Int_Tables_number   1
_chemical_formula_structural   AsHPb4(ClO)4
_chemical_formula_sum   'As4 H4 Pb16 Cl16 O16'
_cell_volume   1212.58257740
_cell_formula_units_Z   4
loop_
 _symmetry_equiv_pos_site_id
 _symmetry_equiv_pos_as_xyz
  1  'x, y, z'
loop_
 _atom_site_type_symbol
 _atom_site_label
 _atom_site_symmetry_multiplicity
 _atom_site_fract_x
 _atom_site_fract_y
 _atom_site_fract_z
 _atom_site_occupancy
  As  As0  1  0.79887777  0.44940020  0.84815141  1
  As  As1  1  0.20112223  0.94940020  0.65184859  1
  As  As2  1  0.20112223  0.55059980  0.15184859  1
  As  As3  1  0.79887777  0.05059980  0.34815141  1
  H  H4  1  0.20090019  0.24518122  0.80683431  1
  H  H5  1  0.79909981  0.74518122  0.69316569  1
  H  H6  1  0.79909981  0.75481878  0.19316569  1
  H  H7  1  0.20090019  0.25481878  0.30683431  1
  Pb  Pb8  1  0.58589940  0.27805981  0.36960014  1
  Pb  Pb9  1  0.41410060  0.77805981  0.13039986  1
  Pb  Pb10  1  0.41410060  0.72194019  0.63039986  1
  Pb  Pb11  1  0.58589940  0.22194019  0.86960014  1
  Pb  Pb12  1  0.81449472  0.40906568  0.15282413  1
  Pb  Pb13  1  0.18550528  0.90906568  0.34717587  1
  Pb  Pb14  1  0.18550528  0.59093432  0.84717587  1
  Pb  Pb15  1  0.81449472  0.09093432  0.65282413  1
  Pb  Pb16  1  0.05540727  0.25977867  0.98564566  1
  Pb  Pb17  1  0.94459273  0.75977867  0.51435434  1
  Pb  Pb18  1  0.94459273  0.74022133  0.01435434  1
  Pb  Pb19  1  0.05540727  0.24022133  0.48564566  1
  Pb  Pb20  1  0.33207278  0.25521686  0.05365551  1
  Pb  Pb21  1  0.66792722  0.75521686  0.44634449  1
  Pb  Pb22  1  0.66792722  0.74478314  0.94634449  1
  Pb  Pb23  1  0.33207278  0.24478314  0.55365551  1
  Cl  Cl24  1  0.21768485  0.94537244  0.06105817  1
  Cl  Cl25  1  0.78231515  0.44537244  0.43894183  1
  Cl  Cl26  1  0.78231515  0.05462756  0.93894183  1
  Cl  Cl27  1  0.21768485  0.55462756  0.56105817  1
  Cl  Cl28  1  0.00173004  0.55910916  0.27948913  1
  Cl  Cl29  1  0.99826996  0.05910916  0.22051087  1
  Cl  Cl30  1  0.99826996  0.44089084  0.72051087  1
  Cl  Cl31  1  0.00173004  0.94089084  0.77948913  1
  Cl  Cl32  1  0.41961301  0.06438490  0.34285633  1
  Cl  Cl33  1  0.58038699  0.56438490  0.15714367  1
  Cl  Cl34  1  0.58038699  0.93561510  0.65714367  1
  Cl  Cl35  1  0.41961301  0.43561510  0.84285633  1
  Cl  Cl36  1  0.59083723  0.39694920  0.62576442  1
  Cl  Cl37  1  0.40916277  0.89694920  0.87423558  1
  Cl  Cl38  1  0.40916277  0.60305080  0.37423558  1
  Cl  Cl39  1  0.59083723  0.10305080  0.12576442  1
  O  O40  1  0.70001216  0.44069636  0.93601998  1
  O  O41  1  0.29998784  0.94069636  0.56398002  1
  O  O42  1  0.29998784  0.55930364  0.06398002  1
  O  O43  1  0.70001216  0.05930364  0.43601998  1
  O  O44  1  0.89786806  0.44334703  0.98830228  1
  O  O45  1  0.10213194  0.94334703  0.51169772  1
  O  O46  1  0.10213194  0.55665297  0.01169772  1
  O  O47  1  0.89786806  0.05665297  0.48830228  1
  O  O48  1  0.79698551  0.67323097  0.83922988  1
  O  O49  1  0.20301449  0.17323097  0.66077012  1
  O  O50  1  0.20301449  0.32676903  0.16077012  1
  O  O51  1  0.79698551  0.82676903  0.33922988  1
  O  O52  1  0.19909964  0.30183145  0.88867424  1
  O  O53  1  0.80090036  0.80183145  0.61132576  1
  O  O54  1  0.80090036  0.69816855  0.11132576  1
  O  O55  1  0.19909964  0.19816855  0.38867424  1
