# generated using pymatgen
data_Fe2P4Pb3O16
_symmetry_space_group_name_H-M   'P 1'
_cell_length_a   9.13490982
_cell_length_b   9.19385217
_cell_length_c   9.46796047
_cell_angle_alpha   90.00000000
_cell_angle_beta   116.97101185
_cell_angle_gamma   90.00000000
_symmetry_Int_Tables_number   1
_chemical_formula_structural   Fe2P4Pb3O16
_chemical_formula_sum   'Fe4 P8 Pb6 O32'
_cell_volume   708.68132288
_cell_formula_units_Z   2
loop_
 _symmetry_equiv_pos_site_id
 _symmetry_equiv_pos_as_xyz
  1  'x, y, z'
loop_
 _atom_site_type_symbol
 _atom_site_label
 _atom_site_symmetry_multiplicity
 _atom_site_fract_x
 _atom_site_fract_y
 _atom_site_fract_z
 _atom_site_occupancy
  Fe  Fe0  1  0.24595273  0.63347148  0.24216821  1
  Fe  Fe1  1  0.75404727  0.13347148  0.25783179  1
  Fe  Fe2  1  0.75404727  0.36652852  0.75783179  1
  Fe  Fe3  1  0.24595273  0.86652852  0.74216821  1
  P  P4  1  0.42591684  0.91112857  0.13918722  1
  P  P5  1  0.97965712  0.36138381  0.15559587  1
  P  P6  1  0.02034288  0.63861619  0.84440413  1
  P  P7  1  0.42591684  0.58887143  0.63918722  1
  P  P8  1  0.57408316  0.08887143  0.86081278  1
  P  P9  1  0.57408316  0.41112857  0.36081278  1
  P  P10  1  0.97965712  0.13861619  0.65559587  1
  P  P11  1  0.02034288  0.86138381  0.34440413  1
  Pb  Pb12  1  0.69781109  0.79338206  0.46776824  1
  Pb  Pb13  1  0.30218891  0.29338206  0.03223176  1
  Pb  Pb14  1  0.30218891  0.20661794  0.53223176  1
  Pb  Pb15  1  0.00000000  0.00000000  0.00000000  1
  Pb  Pb16  1  0.69781109  0.70661794  0.96776824  1
  Pb  Pb17  1  0.00000000  0.50000000  0.50000000  1
  O  O18  1  0.83849351  0.09180747  0.49396493  1
  O  O19  1  0.91077475  0.20585043  0.76543912  1
  O  O20  1  0.38847053  0.04810400  0.76002636  1
  O  O21  1  0.91077475  0.29414957  0.26543912  1
  O  O22  1  0.92157508  0.50404924  0.74765975  1
  O  O23  1  0.38847053  0.45189600  0.26002636  1
  O  O24  1  0.83849351  0.40819253  0.99396493  1
  O  O25  1  0.92157508  0.99595076  0.24765975  1
  O  O26  1  0.59447662  0.28636756  0.25926417  1
  O  O27  1  0.61152947  0.54810400  0.73997364  1
  O  O28  1  0.90456613  0.75167198  0.36946764  1
  O  O29  1  0.16150649  0.59180747  0.00603507  1
  O  O30  1  0.60702599  0.15002955  0.02359804  1
  O  O31  1  0.16150649  0.90819253  0.50603507  1
  O  O32  1  0.07842492  0.49595076  0.25234025  1
  O  O33  1  0.39297401  0.65002955  0.47640196  1
  O  O34  1  0.60702599  0.34997045  0.52359804  1
  O  O35  1  0.09543387  0.24832802  0.63053236  1
  O  O36  1  0.31502875  0.04291940  0.12608058  1
  O  O37  1  0.40552338  0.71363244  0.74073583  1
  O  O38  1  0.90456613  0.74832802  0.86946764  1
  O  O39  1  0.59447662  0.21363244  0.75926417  1
  O  O40  1  0.08922525  0.70585043  0.73456088  1
  O  O41  1  0.09543387  0.25167198  0.13053236  1
  O  O42  1  0.40552338  0.78636756  0.24073583  1
  O  O43  1  0.39297401  0.84997045  0.97640196  1
  O  O44  1  0.68497125  0.54291940  0.37391942  1
  O  O45  1  0.68497125  0.95708060  0.87391942  1
  O  O46  1  0.61152947  0.95189600  0.23997364  1
  O  O47  1  0.08922525  0.79414957  0.23456088  1
  O  O48  1  0.31502875  0.45708060  0.62608058  1
  O  O49  1  0.07842492  0.00404924  0.75234025  1
