# generated using pymatgen
data_MnFeO3
_symmetry_space_group_name_H-M   'P 1'
_cell_length_a   8.27018208
_cell_length_b   8.27018244
_cell_length_c   8.27018254
_cell_angle_alpha   109.70983502
_cell_angle_beta   109.27086440
_cell_angle_gamma   109.43326871
_symmetry_Int_Tables_number   1
_chemical_formula_structural   MnFeO3
_chemical_formula_sum   'Mn8 Fe8 O24'
_cell_volume   435.42848354
_cell_formula_units_Z   8
loop_
 _symmetry_equiv_pos_site_id
 _symmetry_equiv_pos_as_xyz
  1  'x, y, z'
loop_
 _atom_site_type_symbol
 _atom_site_label
 _atom_site_symmetry_multiplicity
 _atom_site_fract_x
 _atom_site_fract_y
 _atom_site_fract_z
 _atom_site_occupancy
  Mn  Mn0  1  0.21813965  0.96813965  0.25000000  1
  Mn  Mn1  1  0.25000000  0.21632052  0.96632052  1
  Mn  Mn2  1  0.28186035  0.53186035  0.75000000  1
  Mn  Mn3  1  0.25000000  0.71632052  0.46632052  1
  Mn  Mn4  1  0.75000000  0.28367948  0.53367948  1
  Mn  Mn5  1  0.75000000  0.78367948  0.03367948  1
  Mn  Mn6  1  0.71813965  0.46813965  0.25000000  1
  Mn  Mn7  1  0.78186035  0.03186035  0.75000000  1
  Fe  Fe8  1  0.00000000  0.00000000  0.50000000  1
  Fe  Fe9  1  0.03999853  0.75000000  0.78999853  1
  Fe  Fe10  1  0.00000000  0.50000000  0.00000000  1
  Fe  Fe11  1  0.46000147  0.25000000  0.71000147  1
  Fe  Fe12  1  0.50000000  0.50000000  0.50000000  1
  Fe  Fe13  1  0.53999853  0.75000000  0.28999853  1
  Fe  Fe14  1  0.50000000  0.00000000  0.00000000  1
  Fe  Fe15  1  0.96000147  0.25000000  0.21000147  1
  O  O16  1  0.05919448  0.50916115  0.78594609  1
  O  O17  1  0.22464868  0.95027509  0.49267529  1
  O  O18  1  0.27535132  0.76802661  0.72562641  1
  O  O19  1  0.22321506  0.27324839  0.71405391  1
  O  O20  1  0.98313635  0.04414306  0.26928453  1
  O  O21  1  0.22514148  0.45585694  0.43899329  1
  O  O22  1  0.04240020  0.26802661  0.99267529  1
  O  O23  1  0.27485852  0.71385181  0.23071547  1
  O  O24  1  0.72321506  0.00916115  0.94996667  1
  O  O25  1  0.55919448  0.77324839  0.55003333  1
  O  O26  1  0.48313635  0.21385181  0.93899329  1
  O  O27  1  0.54240020  0.54972491  0.77437359  1
  O  O28  1  0.45759980  0.45027509  0.22562641  1
  O  O29  1  0.51686365  0.78614819  0.06100671  1
  O  O30  1  0.44080552  0.22675161  0.44996667  1
  O  O31  1  0.27678494  0.99083885  0.05003333  1
  O  O32  1  0.95759980  0.73197339  0.00732471  1
  O  O33  1  0.72514148  0.28614819  0.76928453  1
  O  O34  1  0.77485852  0.54414306  0.56100671  1
  O  O35  1  0.01686365  0.95585694  0.73071547  1
  O  O36  1  0.77678494  0.72675161  0.28594609  1
  O  O37  1  0.72464868  0.23197339  0.27437359  1
  O  O38  1  0.77535132  0.04972491  0.50732471  1
  O  O39  1  0.94080552  0.49083885  0.21405391  1
