# generated using pymatgen
data_Sm3TaO7
_symmetry_space_group_name_H-M   'P 1'
_cell_length_a   6.62449299
_cell_length_b   6.62449299
_cell_length_c   7.65392564
_cell_angle_alpha   90.00000000
_cell_angle_beta   90.00000000
_cell_angle_gamma   109.30353654
_symmetry_Int_Tables_number   1
_chemical_formula_structural   Sm3TaO7
_chemical_formula_sum   'Sm6 Ta2 O14'
_cell_volume   317.00094083
_cell_formula_units_Z   2
loop_
 _symmetry_equiv_pos_site_id
 _symmetry_equiv_pos_as_xyz
  1  'x, y, z'
loop_
 _atom_site_type_symbol
 _atom_site_label
 _atom_site_symmetry_multiplicity
 _atom_site_fract_x
 _atom_site_fract_y
 _atom_site_fract_z
 _atom_site_occupancy
  Sm  Sm0  1  0.00063664  0.46475128  0.49606642  1
  Sm  Sm1  1  0.53524872  0.99936336  0.50393358  1
  Sm  Sm2  1  0.47693393  0.47693393  0.75000000  1
  Sm  Sm3  1  0.52306607  0.52306607  0.25000000  1
  Sm  Sm4  1  0.99936336  0.53524872  0.99606642  1
  Sm  Sm5  1  0.46475128  0.00063664  0.00393358  1
  Ta  Ta6  1  0.00226433  0.00226433  0.25000000  1
  Ta  Ta7  1  0.99773567  0.99773567  0.75000000  1
  O  O8  1  0.06101379  0.93898621  0.00000000  1
  O  O9  1  0.36367181  0.63632819  0.00000000  1
  O  O10  1  0.05915274  0.31026462  0.21469573  1
  O  O11  1  0.68973538  0.94084726  0.78530427  1
  O  O12  1  0.37048483  0.62951517  0.50000000  1
  O  O13  1  0.67896961  0.92265868  0.22298474  1
  O  O14  1  0.07734132  0.32103039  0.77701526  1
  O  O15  1  0.32103039  0.07734132  0.72298474  1
  O  O16  1  0.92265868  0.67896961  0.27701526  1
  O  O17  1  0.62951517  0.37048483  0.00000000  1
  O  O18  1  0.94084726  0.68973538  0.71469573  1
  O  O19  1  0.31026462  0.05915274  0.28530427  1
  O  O20  1  0.63632819  0.36367181  0.50000000  1
  O  O21  1  0.93898621  0.06101379  0.50000000  1
