# generated using pymatgen
data_Ba7Ca2Mn5O20
_symmetry_space_group_name_H-M   'P 1'
_cell_length_a   17.75532594
_cell_length_b   17.75532592
_cell_length_c   17.75532561
_cell_angle_alpha   19.14672791
_cell_angle_beta   19.14672811
_cell_angle_gamma   19.14672899
_symmetry_Int_Tables_number   1
_chemical_formula_structural   Ba7Ca2Mn5O20
_chemical_formula_sum   'Ba7 Ca2 Mn5 O20'
_cell_volume   526.32695111
_cell_formula_units_Z   1
loop_
 _symmetry_equiv_pos_site_id
 _symmetry_equiv_pos_as_xyz
  1  'x, y, z'
loop_
 _atom_site_type_symbol
 _atom_site_label
 _atom_site_symmetry_multiplicity
 _atom_site_fract_x
 _atom_site_fract_y
 _atom_site_fract_z
 _atom_site_occupancy
  Ba  Ba0  1  0.85433247  0.85433247  0.85433247  1
  Ba  Ba1  1  0.14566753  0.14566753  0.14566753  1
  Ba  Ba2  1  0.00000000  0.00000000  0.00000000  1
  Ba  Ba3  1  0.38792289  0.38792289  0.38792289  1
  Ba  Ba4  1  0.77325048  0.77325048  0.77325048  1
  Ba  Ba5  1  0.22674952  0.22674952  0.22674952  1
  Ba  Ba6  1  0.61207711  0.61207711  0.61207711  1
  Ca  Ca7  1  0.07454954  0.07454954  0.07454954  1
  Ca  Ca8  1  0.92545046  0.92545046  0.92545046  1
  Mn  Mn9  1  0.69701376  0.69701376  0.69701376  1
  Mn  Mn10  1  0.30298624  0.30298624  0.30298624  1
  Mn  Mn11  1  0.54943105  0.54943105  0.54943105  1
  Mn  Mn12  1  0.45056895  0.45056895  0.45056895  1
  Mn  Mn13  1  0.50000000  0.50000000  0.50000000  1
  O  O14  1  0.26222095  0.72292407  0.72292407  1
  O  O15  1  0.86716702  0.39209997  0.86716702  1
  O  O16  1  0.72292407  0.26222095  0.72292407  1
  O  O17  1  0.86716702  0.86716702  0.39209997  1
  O  O18  1  0.27707593  0.73777905  0.27707593  1
  O  O19  1  0.81661026  0.37681562  0.37681562  1
  O  O20  1  0.37681562  0.81661026  0.37681562  1
  O  O21  1  0.18338974  0.62318438  0.62318438  1
  O  O22  1  0.72292407  0.72292407  0.26222095  1
  O  O23  1  0.73777905  0.27707593  0.27707593  1
  O  O24  1  0.66477094  0.66477094  0.66477094  1
  O  O25  1  0.60790003  0.13283298  0.13283298  1
  O  O26  1  0.37681562  0.37681562  0.81661026  1
  O  O27  1  0.39209997  0.86716702  0.86716702  1
  O  O28  1  0.13283298  0.13283298  0.60790003  1
  O  O29  1  0.62318438  0.18338974  0.62318438  1
  O  O30  1  0.13283298  0.60790003  0.13283298  1
  O  O31  1  0.33522906  0.33522906  0.33522906  1
  O  O32  1  0.62318438  0.62318438  0.18338974  1
  O  O33  1  0.27707593  0.27707593  0.73777905  1
