# generated using pymatgen
data_TeMoWSeS2
_symmetry_space_group_name_H-M   'P 1'
_cell_length_a   3.30847040
_cell_length_b   3.30835802
_cell_length_c   37.73810422
_cell_angle_alpha   90.00001655
_cell_angle_beta   90.00000000
_cell_angle_gamma   120.00111615
_symmetry_Int_Tables_number   1
_chemical_formula_structural   TeMoWSeS2
_chemical_formula_sum   'Te2 Mo2 W2 Se2 S4'
_cell_volume   357.72194332
_cell_formula_units_Z   2
loop_
 _symmetry_equiv_pos_site_id
 _symmetry_equiv_pos_as_xyz
  1  'x, y, z'
loop_
 _atom_site_type_symbol
 _atom_site_label
 _atom_site_symmetry_multiplicity
 _atom_site_fract_x
 _atom_site_fract_y
 _atom_site_fract_z
 _atom_site_occupancy
  Te  Te0  1  0.66664860  0.33329619  0.41872069  1
  Te  Te1  1  0.66664851  0.33329603  0.52057021  1
  Mo  Mo2  1  0.33329911  0.66659823  0.09393051  1
  Mo  Mo3  1  0.66668835  0.33337670  0.65757321  1
  W  W4  1  0.33331057  0.66662114  0.46963626  1
  W  W5  1  0.66668849  0.33337698  0.28177525  1
  Se  Se6  1  0.33335115  0.66670330  0.70189522  1
  Se  Se7  1  0.33335091  0.66670282  0.61321320  1
  S  S8  1  0.33335279  0.66670658  0.32239976  1
  S  S9  1  0.66665425  0.33330750  0.05337036  1
  S  S10  1  0.66665421  0.33330741  0.13449142  1
  S  S11  1  0.33335306  0.66670711  0.24117192  1
