# generated using pymatgen
data_Te2MoW3(SeS2)2
_symmetry_space_group_name_H-M   'P 1'
_cell_length_a   3.30989544
_cell_length_b   3.30991965
_cell_length_c   37.81801014
_cell_angle_alpha   89.99981506
_cell_angle_beta   90.00000000
_cell_angle_gamma   119.99975804
_symmetry_Int_Tables_number   1
_chemical_formula_structural   Te2MoW3(SeS2)2
_chemical_formula_sum   'Te2 Mo1 W3 Se2 S4'
_cell_volume   358.80797745
_cell_formula_units_Z   1
loop_
 _symmetry_equiv_pos_site_id
 _symmetry_equiv_pos_as_xyz
  1  'x, y, z'
loop_
 _atom_site_type_symbol
 _atom_site_label
 _atom_site_symmetry_multiplicity
 _atom_site_fract_x
 _atom_site_fract_y
 _atom_site_fract_z
 _atom_site_occupancy
  Te  Te0  1  0.33335067  0.66670234  0.70851332  1
  Te  Te1  1  0.33335181  0.66670462  0.60668873  1
  Mo  Mo2  1  0.33330994  0.66661987  0.09392672  1
  W  W3  1  0.33331149  0.66662298  0.46958470  1
  W  W4  1  0.66669247  0.33338495  0.28179156  1
  W  W5  1  0.66668940  0.33337879  0.65760466  1
  Se  Se6  1  0.66664929  0.33329758  0.42496068  1
  Se  Se7  1  0.66664866  0.33329632  0.51426300  1
  S  S8  1  0.33335337  0.66670773  0.32237803  1
  S  S9  1  0.66664366  0.33328631  0.05346091  1
  S  S10  1  0.66664546  0.33328993  0.13438465  1
  S  S11  1  0.33335378  0.66670857  0.24119104  1
