# generated using pymatgen
data_SrFeSn(PO4)3
_symmetry_space_group_name_H-M   'P 1'
_cell_length_a   9.19380465
_cell_length_b   9.19380444
_cell_length_c   9.19380474
_cell_angle_alpha   55.76947460
_cell_angle_beta   55.76947552
_cell_angle_gamma   55.76947684
_symmetry_Int_Tables_number   1
_chemical_formula_structural   SrFeSn(PO4)3
_chemical_formula_sum   'Sr2 Fe2 Sn2 P6 O24'
_cell_volume   495.59221144
_cell_formula_units_Z   2
loop_
 _symmetry_equiv_pos_site_id
 _symmetry_equiv_pos_as_xyz
  1  'x, y, z'
loop_
 _atom_site_type_symbol
 _atom_site_label
 _atom_site_symmetry_multiplicity
 _atom_site_fract_x
 _atom_site_fract_y
 _atom_site_fract_z
 _atom_site_occupancy
  Sr  Sr0  1  0.00000000  0.00000000  0.00000000  1
  Sr  Sr1  1  0.50000000  0.50000000  0.50000000  1
  Fe  Fe2  1  0.15157951  0.15157951  0.15157951  1
  Fe  Fe3  1  0.84842049  0.84842049  0.84842049  1
  Sn  Sn4  1  0.35062814  0.35062814  0.35062814  1
  Sn  Sn5  1  0.64937186  0.64937186  0.64937186  1
  P  P6  1  0.54063611  0.96054121  0.24543753  1
  P  P7  1  0.03945879  0.75456247  0.45936389  1
  P  P8  1  0.96054121  0.24543753  0.54063611  1
  P  P9  1  0.75456247  0.45936389  0.03945879  1
  P  P10  1  0.45936389  0.03945879  0.75456247  1
  P  P11  1  0.24543753  0.54063611  0.96054121  1
  O  O12  1  0.40655492  0.23239600  0.59357422  1
  O  O13  1  0.59357422  0.40655492  0.23239600  1
  O  O14  1  0.23239600  0.59357422  0.40655492  1
  O  O15  1  0.95530862  0.05790669  0.70783812  1
  O  O16  1  0.52430721  0.11743882  0.28006532  1
  O  O17  1  0.71993468  0.47569279  0.88256118  1
  O  O18  1  0.25311153  0.35893902  0.98332313  1
  O  O19  1  0.40642578  0.59344508  0.76760400  1
  O  O20  1  0.05790669  0.70783812  0.95530862  1
  O  O21  1  0.35893902  0.98332313  0.25311153  1
  O  O22  1  0.47569279  0.88256118  0.71993468  1
  O  O23  1  0.76760400  0.40642578  0.59344508  1
  O  O24  1  0.64106098  0.01667687  0.74688847  1
  O  O25  1  0.59344508  0.76760400  0.40642578  1
  O  O26  1  0.29216188  0.04469138  0.94209331  1
  O  O27  1  0.74688847  0.64106098  0.01667687  1
  O  O28  1  0.94209331  0.29216188  0.04469138  1
  O  O29  1  0.11743882  0.28006532  0.52430721  1
  O  O30  1  0.98332313  0.25311153  0.35893902  1
  O  O31  1  0.01667687  0.74688847  0.64106098  1
  O  O32  1  0.28006532  0.52430721  0.11743882  1
  O  O33  1  0.04469138  0.94209331  0.29216188  1
  O  O34  1  0.88256118  0.71993468  0.47569279  1
  O  O35  1  0.70783812  0.95530862  0.05790669  1
