# generated using pymatgen
data_CuPO4
_symmetry_space_group_name_H-M   'P 1'
_cell_length_a   9.97622438
_cell_length_b   6.02921319
_cell_length_c   5.39035504
_cell_angle_alpha   90.00000000
_cell_angle_beta   90.00000000
_cell_angle_gamma   90.00000000
_symmetry_Int_Tables_number   1
_chemical_formula_structural   CuPO4
_chemical_formula_sum   'Cu4 P4 O16'
_cell_volume   324.22329893
_cell_formula_units_Z   4
loop_
 _symmetry_equiv_pos_site_id
 _symmetry_equiv_pos_as_xyz
  1  'x, y, z'
loop_
 _atom_site_type_symbol
 _atom_site_label
 _atom_site_symmetry_multiplicity
 _atom_site_fract_x
 _atom_site_fract_y
 _atom_site_fract_z
 _atom_site_occupancy
  Cu  Cu0  1  0.18353235  0.75000000  0.35878878  1
  Cu  Cu1  1  0.31646765  0.25000000  0.85878878  1
  Cu  Cu2  1  0.68353235  0.75000000  0.14121122  1
  Cu  Cu3  1  0.81646765  0.25000000  0.64121122  1
  P  P4  1  0.11059668  0.25000000  0.43889115  1
  P  P5  1  0.38940332  0.75000000  0.93889115  1
  P  P6  1  0.61059668  0.25000000  0.06110885  1
  P  P7  1  0.88940332  0.75000000  0.56110885  1
  O  O8  1  0.04487375  0.75000000  0.58496961  1
  O  O9  1  0.14470007  0.25000000  0.71798589  1
  O  O10  1  0.17025487  0.05307097  0.28785879  1
  O  O11  1  0.17025487  0.44692903  0.28785879  1
  O  O12  1  0.32974513  0.55307097  0.78785879  1
  O  O13  1  0.32974513  0.94692903  0.78785879  1
  O  O14  1  0.35529993  0.75000000  0.21798589  1
  O  O15  1  0.45512625  0.25000000  0.08496961  1
  O  O16  1  0.54487375  0.75000000  0.91503039  1
  O  O17  1  0.64470007  0.25000000  0.78201411  1
  O  O18  1  0.67025487  0.05307097  0.21214121  1
  O  O19  1  0.67025487  0.44692903  0.21214121  1
  O  O20  1  0.82974513  0.55307097  0.71214121  1
  O  O21  1  0.82974513  0.94692903  0.71214121  1
  O  O22  1  0.85529993  0.75000000  0.28201411  1
  O  O23  1  0.95512625  0.25000000  0.41503039  1
