# generated using pymatgen
data_P2WO8
_symmetry_space_group_name_H-M   'P 1'
_cell_length_a   5.24559283
_cell_length_b   6.99866837
_cell_length_c   8.51056693
_cell_angle_alpha   100.64752053
_cell_angle_beta   107.94965870
_cell_angle_gamma   90.00000135
_symmetry_Int_Tables_number   1
_chemical_formula_structural   P2WO8
_chemical_formula_sum   'P4 W2 O16'
_cell_volume   291.57417085
_cell_formula_units_Z   2
loop_
 _symmetry_equiv_pos_site_id
 _symmetry_equiv_pos_as_xyz
  1  'x, y, z'
loop_
 _atom_site_type_symbol
 _atom_site_label
 _atom_site_symmetry_multiplicity
 _atom_site_fract_x
 _atom_site_fract_y
 _atom_site_fract_z
 _atom_site_occupancy
  P  P0  1  0.66224206  0.61628041  0.32448411  1
  P  P1  1  0.66390997  0.04618985  0.32781994  1
  P  P2  1  0.33775794  0.38371959  0.67551589  1
  P  P3  1  0.33609003  0.95381015  0.67218006  1
  W  W4  1  0.89334709  0.70042413  0.78669418  1
  W  W5  1  0.10665291  0.29957587  0.21330582  1
  O  O6  1  0.38102270  0.10968635  0.23019421  1
  O  O7  1  0.15082849  0.89031365  0.76980579  1
  O  O8  1  0.37105991  0.18584795  0.74211981  1
  O  O9  1  0.84917151  0.10968635  0.23019421  1
  O  O10  1  0.38431456  0.50618300  0.24007954  1
  O  O11  1  0.14423502  0.49381700  0.75992046  1
  O  O12  1  0.62894009  0.81415205  0.25788019  1
  O  O13  1  0.61897730  0.89031365  0.76980579  1
  O  O14  1  0.75558915  0.11248400  0.51117830  1
  O  O15  1  0.00206557  0.74162072  0.00413113  1
  O  O16  1  0.24368459  0.35864325  0.48736917  1
  O  O17  1  0.75631541  0.64135675  0.51263083  1
  O  O18  1  0.85576498  0.50618300  0.24007954  1
  O  O19  1  0.24441085  0.88751600  0.48882170  1
  O  O20  1  0.61568544  0.49381700  0.75992046  1
  O  O21  1  0.99793443  0.25837928  0.99586887  1
