# generated using pymatgen
data_Cd7Te7Cl8O17
_symmetry_space_group_name_H-M   'P 1'
_cell_length_a   6.81130818
_cell_length_b   14.79659504
_cell_length_c   28.55554112
_cell_angle_alpha   90.00000000
_cell_angle_beta   90.00000000
_cell_angle_gamma   90.00000000
_symmetry_Int_Tables_number   1
_chemical_formula_structural   Cd7Te7Cl8O17
_chemical_formula_sum   'Cd28 Te28 Cl32 O68'
_cell_volume   2877.94647733
_cell_formula_units_Z   4
loop_
 _symmetry_equiv_pos_site_id
 _symmetry_equiv_pos_as_xyz
  1  'x, y, z'
loop_
 _atom_site_type_symbol
 _atom_site_label
 _atom_site_symmetry_multiplicity
 _atom_site_fract_x
 _atom_site_fract_y
 _atom_site_fract_z
 _atom_site_occupancy
  Cd  Cd0  1  0.38910563  0.41010702  0.08225790  1
  Cd  Cd1  1  0.09477331  0.88934147  0.14949177  1
  Cd  Cd2  1  0.10372766  0.92693761  0.01001035  1
  Cd  Cd3  1  0.36256581  0.07810649  0.30811488  1
  Cd  Cd4  1  0.36256581  0.42189351  0.80811488  1
  Cd  Cd5  1  0.09623178  0.90135058  0.73389598  1
  Cd  Cd6  1  0.90376822  0.09864942  0.23389598  1
  Cd  Cd7  1  0.90376822  0.40135058  0.73389598  1
  Cd  Cd8  1  0.38276337  0.07389309  0.44466261  1
  Cd  Cd9  1  0.90522669  0.11065853  0.64949177  1
  Cd  Cd10  1  0.63743419  0.92189351  0.80811488  1
  Cd  Cd11  1  0.89627234  0.42693761  0.01001035  1
  Cd  Cd12  1  0.61089437  0.91010702  0.08225790  1
  Cd  Cd13  1  0.86342117  0.43338182  0.87099134  1
  Cd  Cd14  1  0.10372766  0.57306239  0.51001035  1
  Cd  Cd15  1  0.63743419  0.57810649  0.30811488  1
  Cd  Cd16  1  0.61723663  0.57389309  0.44466261  1
  Cd  Cd17  1  0.86342117  0.06661818  0.37099134  1
  Cd  Cd18  1  0.38276337  0.42610691  0.94466261  1
  Cd  Cd19  1  0.89627234  0.07306239  0.51001035  1
  Cd  Cd20  1  0.38910563  0.08989298  0.58225790  1
  Cd  Cd21  1  0.09477331  0.61065853  0.64949177  1
  Cd  Cd22  1  0.61723663  0.92610691  0.94466261  1
  Cd  Cd23  1  0.13657883  0.93338182  0.87099134  1
  Cd  Cd24  1  0.13657883  0.56661818  0.37099134  1
  Cd  Cd25  1  0.09623178  0.59864942  0.23389598  1
  Cd  Cd26  1  0.90522669  0.38934147  0.14949177  1
  Cd  Cd27  1  0.61089437  0.58989298  0.58225790  1
  Te  Te28  1  0.04102714  0.88123805  0.43380180  1
  Te  Te29  1  0.02634649  0.60445812  0.78521585  1
  Te  Te30  1  0.42439769  0.40707894  0.23541494  1
  Te  Te31  1  0.57804183  0.88859768  0.51859663  1
  Te  Te32  1  0.95897286  0.11876195  0.93380180  1
  Te  Te33  1  0.97365351  0.39554188  0.28521585  1
  Te  Te34  1  0.57560231  0.90707894  0.23541494  1
  Te  Te35  1  0.96420090  0.09560827  0.09919855  1
  Te  Te36  1  0.95897286  0.38123805  0.43380180  1
  Te  Te37  1  0.42815540  0.08131757  0.15184186  1
  Te  Te38  1  0.42195817  0.11140232  0.01859663  1
  Te  Te39  1  0.42195817  0.38859768  0.51859663  1
  Te  Te40  1  0.48975765  0.38043210  0.38142025  1
  Te  Te41  1  0.02634649  0.89554188  0.28521585  1
  Te  Te42  1  0.97365351  0.10445812  0.78521585  1
  Te  Te43  1  0.57184460  0.58131757  0.15184186  1
  Te  Te44  1  0.57184460  0.91868243  0.65184186  1
  Te  Te45  1  0.48975765  0.11956790  0.88142025  1
  Te  Te46  1  0.51024235  0.88043210  0.38142025  1
  Te  Te47  1  0.03579910  0.90439173  0.59919855  1
  Te  Te48  1  0.03579910  0.59560827  0.09919855  1
  Te  Te49  1  0.04102714  0.61876195  0.93380180  1
  Te  Te50  1  0.51024235  0.61956790  0.88142025  1
  Te  Te51  1  0.57560231  0.59292106  0.73541494  1
  Te  Te52  1  0.57804183  0.61140232  0.01859663  1
  Te  Te53  1  0.96420090  0.40439173  0.59919855  1
  Te  Te54  1  0.42815540  0.41868243  0.65184186  1
  Te  Te55  1  0.42439769  0.09292106  0.73541494  1
  Cl  Cl56  1  0.21400538  0.31299277  0.00672746  1
  Cl  Cl57  1  0.21631084  0.30726040  0.74933080  1
  Cl  Cl58  1  0.78599462  0.81299277  0.00672746  1
  Cl  Cl59  1  0.22126396  0.29606278  0.13559195  1
  Cl  Cl60  1  0.71824999  0.18996693  0.56750748  1
  Cl  Cl61  1  0.26283232  0.74394275  0.19079563  1
  Cl  Cl62  1  0.18933067  0.32226476  0.87911779  1
  Cl  Cl63  1  0.21631084  0.19273960  0.24933080  1
  Cl  Cl64  1  0.73716768  0.24394275  0.19079563  1
  Cl  Cl65  1  0.71590849  0.33789506  0.94166020  1
  Cl  Cl66  1  0.28409151  0.83789506  0.94166020  1
  Cl  Cl67  1  0.78368916  0.69273960  0.24933080  1
  Cl  Cl68  1  0.78599462  0.68700723  0.50672746  1
  Cl  Cl69  1  0.31025582  0.67712767  0.31193166  1
  Cl  Cl70  1  0.28175001  0.68996693  0.56750748  1
  Cl  Cl71  1  0.77873604  0.79606278  0.13559195  1
  Cl  Cl72  1  0.71590849  0.16210494  0.44166020  1
  Cl  Cl73  1  0.22126396  0.20393722  0.63559195  1
  Cl  Cl74  1  0.68974418  0.17712767  0.31193166  1
  Cl  Cl75  1  0.68974418  0.32287233  0.81193166  1
  Cl  Cl76  1  0.81066933  0.82226476  0.87911779  1
  Cl  Cl77  1  0.26283232  0.75605725  0.69079563  1
  Cl  Cl78  1  0.18933067  0.17773524  0.37911779  1
  Cl  Cl79  1  0.81066933  0.67773524  0.37911779  1
  Cl  Cl80  1  0.77873604  0.70393722  0.63559195  1
  Cl  Cl81  1  0.78368916  0.80726040  0.74933080  1
  Cl  Cl82  1  0.31025582  0.82287233  0.81193166  1
  Cl  Cl83  1  0.28409151  0.66210494  0.44166020  1
  Cl  Cl84  1  0.71824999  0.31003307  0.06750748  1
  Cl  Cl85  1  0.28175001  0.81003307  0.06750748  1
  Cl  Cl86  1  0.21400538  0.18700723  0.50672746  1
  Cl  Cl87  1  0.73716768  0.25605725  0.69079563  1
  O  O88  1  0.50059315  0.98832819  0.01814957  1
  O  O89  1  0.21206707  0.62177574  0.87749987  1
  O  O90  1  0.83743213  0.58543394  0.99937800  1
  O  O91  1  0.53152142  0.11567536  0.94869022  1
  O  O92  1  0.96711718  0.98132204  0.80592535  1
  O  O93  1  0.39852968  0.95353434  0.15076741  1
  O  O94  1  0.96125840  0.92652312  0.22262937  1
  O  O95  1  0.78793293  0.12177574  0.87749987  1
  O  O96  1  0.39840026  0.96558007  0.72332552  1
  O  O97  1  0.05120055  0.43314267  0.66008545  1
  O  O98  1  0.39852968  0.54646566  0.65076741  1
  O  O99  1  0.16256787  0.41456606  0.49937800  1
  O  O100  1  0.49940685  0.01167181  0.51814957  1
  O  O101  1  0.27949184  0.09706509  0.79456313  1
  O  O102  1  0.49217613  0.50845893  0.37356648  1
  O  O103  1  0.94879945  0.93314267  0.66008545  1
  O  O104  1  0.49940685  0.48832819  0.01814957  1
  O  O105  1  0.65746319  0.43037357  0.27279091  1
  O  O106  1  0.96711718  0.51867796  0.30592535  1
  O  O107  1  0.95755568  0.52649568  0.57832264  1
  O  O108  1  0.34253681  0.93037357  0.27279091  1
  O  O109  1  0.60159974  0.03441993  0.22332552  1
  O  O110  1  0.60147032  0.45353434  0.15076741  1
  O  O111  1  0.34253681  0.56962643  0.77279091  1
  O  O112  1  0.91061451  0.99507858  0.94718131  1
  O  O113  1  0.66494456  0.43305108  0.61341280  1
  O  O114  1  0.91061451  0.50492142  0.44718131  1
  O  O115  1  0.94879945  0.56685733  0.16008545  1
  O  O116  1  0.03874160  0.42652312  0.22262937  1
  O  O117  1  0.60159974  0.46558007  0.72332552  1
  O  O118  1  0.49217613  0.99154107  0.87356648  1
  O  O119  1  0.04244432  0.02649568  0.57832264  1
  O  O120  1  0.50782387  0.49154107  0.87356648  1
  O  O121  1  0.50782387  0.00845893  0.37356648  1
  O  O122  1  0.46847858  0.61567536  0.94869022  1
  O  O123  1  0.72050816  0.90293491  0.29456313  1
  O  O124  1  0.65746319  0.06962643  0.77279091  1
  O  O125  1  0.33505544  0.56694892  0.11341280  1
  O  O126  1  0.66494456  0.06694892  0.11341280  1
  O  O127  1  0.60147032  0.04646566  0.65076741  1
  O  O128  1  0.08938549  0.49507858  0.94718131  1
  O  O129  1  0.03874160  0.07347688  0.72262937  1
  O  O130  1  0.16256787  0.08543394  0.99937800  1
  O  O131  1  0.78793293  0.37822426  0.37749987  1
  O  O132  1  0.39840026  0.53441993  0.22332552  1
  O  O133  1  0.21206707  0.87822426  0.37749987  1
  O  O134  1  0.82828966  0.58737351  0.89340784  1
  O  O135  1  0.28925538  0.40586449  0.58814943  1
  O  O136  1  0.17171034  0.41262649  0.39340784  1
  O  O137  1  0.71074462  0.59413551  0.08814943  1
  O  O138  1  0.33505544  0.93305108  0.61341280  1
  O  O139  1  0.53152142  0.38432464  0.44869022  1
  O  O140  1  0.27949184  0.40293491  0.29456313  1
  O  O141  1  0.46847858  0.88432464  0.44869022  1
  O  O142  1  0.05120055  0.06685733  0.16008545  1
  O  O143  1  0.04244432  0.47350432  0.07832264  1
  O  O144  1  0.72050816  0.59706509  0.79456313  1
  O  O145  1  0.28925538  0.09413551  0.08814943  1
  O  O146  1  0.03288282  0.01867796  0.30592535  1
  O  O147  1  0.83743213  0.91456606  0.49937800  1
  O  O148  1  0.82828966  0.91262649  0.39340784  1
  O  O149  1  0.50059315  0.51167181  0.51814957  1
  O  O150  1  0.96125840  0.57347688  0.72262937  1
  O  O151  1  0.03288282  0.48132204  0.80592535  1
  O  O152  1  0.71074462  0.90586449  0.58814943  1
  O  O153  1  0.17171034  0.08737351  0.89340784  1
  O  O154  1  0.08938549  0.00492142  0.44718131  1
  O  O155  1  0.95755568  0.97350432  0.07832264  1
