# generated using pymatgen
data_CsTaCo(OF2)2
_symmetry_space_group_name_H-M   'P 1'
_cell_length_a   7.57069515
_cell_length_b   7.49710052
_cell_length_c   7.65245699
_cell_angle_alpha   59.95388778
_cell_angle_beta   59.09732133
_cell_angle_gamma   61.04158143
_symmetry_Int_Tables_number   1
_chemical_formula_structural   CsTaCo(OF2)2
_chemical_formula_sum   'Cs2 Ta2 Co2 O4 F8'
_cell_volume   307.16214492
_cell_formula_units_Z   2
loop_
 _symmetry_equiv_pos_site_id
 _symmetry_equiv_pos_as_xyz
  1  'x, y, z'
loop_
 _atom_site_type_symbol
 _atom_site_label
 _atom_site_symmetry_multiplicity
 _atom_site_fract_x
 _atom_site_fract_y
 _atom_site_fract_z
 _atom_site_occupancy
  Cs  Cs0  1  0.37498832  0.37501168  0.37498832  1
  Cs  Cs1  1  0.62791994  0.62208006  0.62791994  1
  Ta  Ta2  1  0.51581001  0.00697016  0.00336217  1
  Ta  Ta3  1  0.00336217  0.97385765  0.51581001  1
  Co  Co4  1  0.99545009  0.00081996  0.00207999  1
  Co  Co5  1  0.00207999  0.50164997  0.99545009  1
  O  O6  1  0.68542888  0.05383144  0.06769358  1
  O  O7  1  0.06769358  0.69304610  0.68542888  1
  O  O8  1  0.29194563  0.95805437  0.29194563  1
  O  O9  1  0.69418731  0.05581269  0.69418731  1
  F  F10  1  0.07680321  0.07920709  0.65823440  1
  F  F11  1  0.06998051  0.68001949  0.06998051  1
  F  F12  1  0.33682670  0.31703304  0.91893022  1
  F  F13  1  0.65823440  0.68575530  0.07680321  1
  F  F14  1  0.92797490  0.31103320  0.31995586  1
  F  F15  1  0.31995586  0.94103605  0.92797490  1
  F  F16  1  0.91893022  0.92721005  0.33682670  1
  F  F17  1  0.93242830  0.31757170  0.93242830  1
