# generated using pymatgen
data_K2Zr2ZnH12(OF2)6
_symmetry_space_group_name_H-M   'P 1'
_cell_length_a   6.72787448
_cell_length_b   13.12904441
_cell_length_c   10.11817277
_cell_angle_alpha   90.00000000
_cell_angle_beta   90.00000000
_cell_angle_gamma   114.15771469
_symmetry_Int_Tables_number   1
_chemical_formula_structural   K2Zr2ZnH12(OF2)6
_chemical_formula_sum   'K4 Zr4 Zn2 H24 O12 F24'
_cell_volume   815.47194829
_cell_formula_units_Z   2
loop_
 _symmetry_equiv_pos_site_id
 _symmetry_equiv_pos_as_xyz
  1  'x, y, z'
loop_
 _atom_site_type_symbol
 _atom_site_label
 _atom_site_symmetry_multiplicity
 _atom_site_fract_x
 _atom_site_fract_y
 _atom_site_fract_z
 _atom_site_occupancy
  K  K0  1  0.39474990  0.91614414  0.28380604  1
  K  K1  1  0.60525010  0.58385586  0.78380604  1
  K  K2  1  0.60525010  0.08385586  0.71619396  1
  K  K3  1  0.39474990  0.41614414  0.21619396  1
  Zr  Zr4  1  0.18652283  0.64869043  0.01522425  1
  Zr  Zr5  1  0.81347717  0.85130957  0.51522425  1
  Zr  Zr6  1  0.81347717  0.35130957  0.98477575  1
  Zr  Zr7  1  0.18652283  0.14869043  0.48477575  1
  Zn  Zn8  1  0.00000000  0.50000000  0.50000000  1
  Zn  Zn9  1  0.00000000  0.00000000  0.00000000  1
  H  H10  1  0.41119473  0.61019770  0.43144493  1
  H  H11  1  0.58880527  0.88980230  0.93144493  1
  H  H12  1  0.58880527  0.38980230  0.56855507  1
  H  H13  1  0.41119473  0.11019770  0.06855507  1
  H  H14  1  0.26098913  0.61761866  0.31419750  1
  H  H15  1  0.73901087  0.88238134  0.81419750  1
  H  H16  1  0.73901087  0.38238134  0.68580250  1
  H  H17  1  0.26098913  0.11761866  0.18580250  1
  H  H18  1  0.86667308  0.77807294  0.06844740  1
  H  H19  1  0.13332692  0.72192706  0.56844740  1
  H  H20  1  0.13332692  0.22192706  0.93155260  1
  H  H21  1  0.86667308  0.27807294  0.43155260  1
  H  H22  1  0.80108765  0.83360122  0.19227345  1
  H  H23  1  0.19891235  0.66639878  0.69227345  1
  H  H24  1  0.19891235  0.16639878  0.80772655  1
  H  H25  1  0.80108765  0.33360122  0.30772655  1
  H  H26  1  0.92032168  0.60998192  0.30396916  1
  H  H27  1  0.07967832  0.89001808  0.80396916  1
  H  H28  1  0.07967832  0.39001808  0.69603084  1
  H  H29  1  0.92032168  0.10998192  0.19603084  1
  H  H30  1  0.77358813  0.61275840  0.42637474  1
  H  H31  1  0.22641187  0.88724160  0.92637474  1
  H  H32  1  0.22641187  0.38724160  0.57362526  1
  H  H33  1  0.77358813  0.11275840  0.07362526  1
  O  O34  1  0.27913448  0.56557518  0.37965685  1
  O  O35  1  0.72086552  0.93442482  0.87965685  1
  O  O36  1  0.72086552  0.43442482  0.62034315  1
  O  O37  1  0.27913448  0.06557518  0.12034315  1
  O  O38  1  0.89620316  0.84920271  0.11301510  1
  O  O39  1  0.10379684  0.65079729  0.61301510  1
  O  O40  1  0.10379684  0.15079729  0.88698490  1
  O  O41  1  0.89620316  0.34920271  0.38698490  1
  O  O42  1  0.82116947  0.56336206  0.37329722  1
  O  O43  1  0.17883053  0.93663794  0.87329722  1
  O  O44  1  0.17883053  0.43663794  0.62670278  1
  O  O45  1  0.82116947  0.06336206  0.12670278  1
  F  F46  1  0.07769396  0.81911562  0.46632939  1
  F  F47  1  0.92230604  0.68088438  0.96632939  1
  F  F48  1  0.92230604  0.18088438  0.53367061  1
  F  F49  1  0.07769396  0.31911562  0.03367061  1
  F  F50  1  0.36075600  0.82498714  0.02561574  1
  F  F51  1  0.63924400  0.67501286  0.52561574  1
  F  F52  1  0.63924400  0.17501286  0.97438426  1
  F  F53  1  0.36075600  0.32498714  0.47438426  1
  F  F54  1  0.42514786  0.60171689  0.06897476  1
  F  F55  1  0.57485214  0.89828311  0.56897476  1
  F  F56  1  0.57485214  0.39828311  0.93102524  1
  F  F57  1  0.42514786  0.10171689  0.43102524  1
  F  F58  1  0.95652612  0.49620500  0.11328760  1
  F  F59  1  0.04347388  0.00379500  0.61328760  1
  F  F60  1  0.04347388  0.50379500  0.88671240  1
  F  F61  1  0.95652612  0.99620500  0.38671240  1
  F  F62  1  0.65866642  0.80590243  0.33471475  1
  F  F63  1  0.34133358  0.69409757  0.83471475  1
  F  F64  1  0.34133358  0.19409757  0.66528525  1
  F  F65  1  0.65866642  0.30590243  0.16528525  1
  F  F66  1  0.15934655  0.68753632  0.21430649  1
  F  F67  1  0.84065345  0.81246368  0.71430649  1
  F  F68  1  0.84065345  0.31246368  0.78569351  1
  F  F69  1  0.15934655  0.18753632  0.28569351  1
