# generated using pymatgen
data_Cs2H4RuNCl5O3
_symmetry_space_group_name_H-M   'P 1'
_cell_length_a   11.94429154
_cell_length_b   7.07213960
_cell_length_c   16.43605584
_cell_angle_alpha   90.00000000
_cell_angle_beta   103.48518038
_cell_angle_gamma   90.00000000
_symmetry_Int_Tables_number   1
_chemical_formula_structural   Cs2H4RuNCl5O3
_chemical_formula_sum   'Cs8 H16 Ru4 N4 Cl20 O12'
_cell_volume   1350.10422563
_cell_formula_units_Z   4
loop_
 _symmetry_equiv_pos_site_id
 _symmetry_equiv_pos_as_xyz
  1  'x, y, z'
loop_
 _atom_site_type_symbol
 _atom_site_label
 _atom_site_symmetry_multiplicity
 _atom_site_fract_x
 _atom_site_fract_y
 _atom_site_fract_z
 _atom_site_occupancy
  Cs  Cs0  1  0.44866927  0.03826465  0.66134056  1
  Cs  Cs1  1  0.55133073  0.53826465  0.83865944  1
  Cs  Cs2  1  0.55133073  0.96173535  0.33865944  1
  Cs  Cs3  1  0.44866927  0.46173535  0.16134056  1
  Cs  Cs4  1  0.84211311  0.15825990  0.92421684  1
  Cs  Cs5  1  0.15788689  0.65825990  0.57578316  1
  Cs  Cs6  1  0.15788689  0.84174010  0.07578316  1
  Cs  Cs7  1  0.84211311  0.34174010  0.42421684  1
  H  H8  1  0.41427344  0.13642397  0.92202178  1
  H  H9  1  0.58572656  0.63642397  0.57797822  1
  H  H10  1  0.58572656  0.86357603  0.07797822  1
  H  H11  1  0.41427344  0.36357603  0.42202178  1
  H  H12  1  0.36963651  0.11467614  0.00743529  1
  H  H13  1  0.63036349  0.61467614  0.49256471  1
  H  H14  1  0.63036349  0.88532386  0.99256471  1
  H  H15  1  0.36963651  0.38532386  0.50743529  1
  H  H16  1  0.72818400  0.24736790  0.70127079  1
  H  H17  1  0.27181600  0.74736790  0.79872921  1
  H  H18  1  0.27181600  0.75263210  0.29872921  1
  H  H19  1  0.72818400  0.25263210  0.20127079  1
  H  H20  1  0.77897785  0.43939655  0.72840615  1
  H  H21  1  0.22102215  0.93939655  0.77159385  1
  H  H22  1  0.22102215  0.56060345  0.27159385  1
  H  H23  1  0.77897785  0.06060345  0.22840615  1
  Ru  Ru24  1  0.20446151  0.34021909  0.90040913  1
  Ru  Ru25  1  0.79553849  0.84021909  0.59959087  1
  Ru  Ru26  1  0.79553849  0.65978091  0.09959087  1
  Ru  Ru27  1  0.20446151  0.15978091  0.40040913  1
  N  N28  1  0.91398603  0.98014368  0.64059514  1
  N  N29  1  0.08601397  0.48014368  0.85940486  1
  N  N30  1  0.08601397  0.01985632  0.35940486  1
  N  N31  1  0.91398603  0.51985632  0.14059514  1
  Cl  Cl32  1  0.16420327  0.16873559  0.53707781  1
  Cl  Cl33  1  0.83579673  0.66873559  0.96292219  1
  Cl  Cl34  1  0.83579673  0.83126441  0.46292219  1
  Cl  Cl35  1  0.16420327  0.33126441  0.03707781  1
  Cl  Cl36  1  0.26447391  0.32653046  0.77182399  1
  Cl  Cl37  1  0.73552609  0.82653046  0.72817601  1
  Cl  Cl38  1  0.73552609  0.67346954  0.22817601  1
  Cl  Cl39  1  0.26447391  0.17346954  0.27182399  1
  Cl  Cl40  1  0.67481937  0.11226112  0.55745245  1
  Cl  Cl41  1  0.32518063  0.61226112  0.94254755  1
  Cl  Cl42  1  0.32518063  0.88773888  0.44254755  1
  Cl  Cl43  1  0.67481937  0.38773888  0.05745245  1
  Cl  Cl44  1  0.89901334  0.54724167  0.63238563  1
  Cl  Cl45  1  0.10098666  0.04724167  0.86761437  1
  Cl  Cl46  1  0.10098666  0.45275833  0.36761437  1
  Cl  Cl47  1  0.89901334  0.95275833  0.13238563  1
  Cl  Cl48  1  0.44700315  0.53063266  0.61835866  1
  Cl  Cl49  1  0.55299685  0.03063266  0.88164134  1
  Cl  Cl50  1  0.55299685  0.46936734  0.38164134  1
  Cl  Cl51  1  0.44700315  0.96936734  0.11835866  1
  O  O52  1  0.35249152  0.17654919  0.95120680  1
  O  O53  1  0.64750848  0.67654919  0.54879320  1
  O  O54  1  0.64750848  0.82345081  0.04879320  1
  O  O55  1  0.35249152  0.32345081  0.45120680  1
  O  O56  1  0.99263530  0.07755950  0.66721407  1
  O  O57  1  0.00736470  0.57755950  0.83278593  1
  O  O58  1  0.00736470  0.92244050  0.33278593  1
  O  O59  1  0.99263530  0.42244050  0.16721407  1
  O  O60  1  0.74070724  0.33348173  0.74917850  1
  O  O61  1  0.25929276  0.83348173  0.75082150  1
  O  O62  1  0.25929276  0.66651827  0.25082150  1
  O  O63  1  0.74070724  0.16651827  0.24917850  1
