# generated using pymatgen
data_Li4Ti5O12
_symmetry_space_group_name_H-M   'P 1'
_cell_length_a   5.96060029
_cell_length_b   17.88791844
_cell_length_c   15.76904091
_cell_angle_alpha   19.10942558
_cell_angle_beta   55.71268779
_cell_angle_gamma   60.28617225
_symmetry_Int_Tables_number   1
_chemical_formula_structural   Li4Ti5O12
_chemical_formula_sum   'Li8 Ti10 O24'
_cell_volume   450.58416121
_cell_formula_units_Z   2
loop_
 _symmetry_equiv_pos_site_id
 _symmetry_equiv_pos_as_xyz
  1  'x, y, z'
loop_
 _atom_site_type_symbol
 _atom_site_label
 _atom_site_symmetry_multiplicity
 _atom_site_fract_x
 _atom_site_fract_y
 _atom_site_fract_z
 _atom_site_occupancy
  Li  Li0  1  0.00285272  0.00508219  0.99591060  1
  Li  Li1  1  0.00209202  0.33487917  0.99795506  1
  Li  Li2  1  0.24581369  0.24374772  0.25600914  1
  Li  Li3  1  0.00077444  0.67218163  0.99478280  1
  Li  Li4  1  0.62404005  0.45651278  0.12591794  1
  Li  Li5  1  0.24738776  0.58181331  0.25104932  1
  Li  Li6  1  0.24574912  0.91694822  0.24825151  1
  Li  Li7  1  0.62256224  0.46088696  0.62337780  1
  Ti  Ti8  1  0.62577064  0.12869189  0.11598822  1
  Ti  Ti9  1  0.14128088  0.13839599  0.60234323  1
  Ti  Ti10  1  0.12520264  0.46223165  0.62057123  1
  Ti  Ti11  1  0.63275803  0.13881812  0.60629393  1
  Ti  Ti12  1  0.62000105  0.28748769  0.63913718  1
  Ti  Ti13  1  0.62711343  0.78871088  0.13215926  1
  Ti  Ti14  1  0.10889613  0.77688764  0.64830803  1
  Ti  Ti15  1  0.62770478  0.62866079  0.61243010  1
  Ti  Ti16  1  0.61659873  0.78102173  0.64026190  1
  Ti  Ti17  1  0.62545354  0.95660176  0.62701232  1
  O  O18  1  0.39293735  0.01569292  0.39025167  1
  O  O19  1  0.37250125  0.18485107  0.41051510  1
  O  O20  1  0.37033864  0.33549229  0.41667775  1
  O  O21  1  0.86523262  0.01380034  0.41165386  1
  O  O22  1  0.83574237  0.18571565  0.41090505  1
  O  O23  1  0.42078825  0.04923779  0.85713233  1
  O  O24  1  0.38432256  0.53646621  0.38896231  1
  O  O25  1  0.37720401  0.69805666  0.37183470  1
  O  O26  1  0.37674811  0.23305543  0.83860590  1
  O  O27  1  0.86962901  0.34577551  0.40913966  1
  O  O28  1  0.83954203  0.54270040  0.37166061  1
  O  O29  1  0.85473298  0.04518753  0.86692628  1
  O  O30  1  0.40987950  0.37506990  0.87761783  1
  O  O31  1  0.39511163  0.87206593  0.38236849  1
  O  O32  1  0.38274106  0.57064607  0.84058838  1
  O  O33  1  0.87091723  0.22291480  0.87352991  1
  O  O34  1  0.87211334  0.68728341  0.40781769  1
  O  O35  1  0.82925370  0.87052306  0.38979659  1
  O  O36  1  0.86675715  0.38227206  0.85833998  1
  O  O37  1  0.41425112  0.73129279  0.83863732  1
  O  O38  1  0.88022204  0.58064572  0.83347582  1
  O  O39  1  0.38721130  0.90230756  0.83867217  1
  O  O40  1  0.87672530  0.72953443  0.84170740  1
  O  O41  1  0.85825555  0.90043135  0.86037463  1
