# generated using pymatgen
data_ThCr(IO5)2
_symmetry_space_group_name_H-M   'P 1'
_cell_length_a   7.48370759
_cell_length_b   9.46468803
_cell_length_c   12.07737951
_cell_angle_alpha   90.00000000
_cell_angle_beta   90.00000000
_cell_angle_gamma   90.00000000
_symmetry_Int_Tables_number   1
_chemical_formula_structural   ThCr(IO5)2
_chemical_formula_sum   'Th4 Cr4 I8 O40'
_cell_volume   855.45235656
_cell_formula_units_Z   4
loop_
 _symmetry_equiv_pos_site_id
 _symmetry_equiv_pos_as_xyz
  1  'x, y, z'
loop_
 _atom_site_type_symbol
 _atom_site_label
 _atom_site_symmetry_multiplicity
 _atom_site_fract_x
 _atom_site_fract_y
 _atom_site_fract_z
 _atom_site_occupancy
  Th  Th0  1  0.78372956  0.02227573  0.82505357  1
  Th  Th1  1  0.71627044  0.97772427  0.32505357  1
  Th  Th2  1  0.21627044  0.52227573  0.67494643  1
  Th  Th3  1  0.28372956  0.47772427  0.17494643  1
  Cr  Cr4  1  0.19465482  0.05412623  0.19671034  1
  Cr  Cr5  1  0.30534518  0.94587377  0.69671034  1
  Cr  Cr6  1  0.80534518  0.55412623  0.30328966  1
  Cr  Cr7  1  0.69465482  0.44587377  0.80328966  1
  I  I8  1  0.72430052  0.26522169  0.08229784  1
  I  I9  1  0.64799873  0.74067093  0.04332962  1
  I  I10  1  0.85200127  0.25932907  0.54332962  1
  I  I11  1  0.14799873  0.75932907  0.95667038  1
  I  I12  1  0.35200127  0.24067093  0.45667038  1
  I  I13  1  0.77569948  0.73477831  0.58229784  1
  I  I14  1  0.22430052  0.23477831  0.91770216  1
  I  I15  1  0.27569948  0.76522169  0.41770216  1
  O  O16  1  0.18265205  0.39742450  0.99401651  1
  O  O17  1  0.50802018  0.82359766  0.42456339  1
  O  O18  1  0.13567409  0.96790400  0.78650381  1
  O  O19  1  0.49003968  0.02618050  0.74622653  1
  O  O20  1  0.24703022  0.98918054  0.07431540  1
  O  O21  1  0.65654830  0.27412652  0.81955406  1
  O  O22  1  0.63567409  0.53209600  0.21349619  1
  O  O23  1  0.27603406  0.69010222  0.27874373  1
  O  O24  1  0.92829879  0.85174068  0.95068584  1
  O  O25  1  0.57626279  0.85060185  0.92697479  1
  O  O26  1  0.36432591  0.03209600  0.28650381  1
  O  O27  1  0.07626279  0.64939815  0.07302521  1
  O  O28  1  0.99003968  0.47381950  0.25377347  1
  O  O29  1  0.07170121  0.35174068  0.54931416  1
  O  O30  1  0.42373721  0.35060185  0.57302521  1
  O  O31  1  0.49197982  0.32359766  0.07543661  1
  O  O32  1  0.86432591  0.46790400  0.71349619  1
  O  O33  1  0.92373721  0.14939815  0.42697479  1
  O  O34  1  0.25296978  0.01081946  0.57431540  1
  O  O35  1  0.50996032  0.52618050  0.75377347  1
  O  O36  1  0.00996032  0.97381950  0.24622653  1
  O  O37  1  0.72396594  0.19010222  0.22125627  1
  O  O38  1  0.00802018  0.67640234  0.57543661  1
  O  O39  1  0.88030264  0.13442761  0.65991825  1
  O  O40  1  0.99197982  0.17640234  0.92456339  1
  O  O41  1  0.81734795  0.89742450  0.50598349  1
  O  O42  1  0.57170121  0.14825932  0.45068584  1
  O  O43  1  0.77603406  0.80989778  0.72125627  1
  O  O44  1  0.34345170  0.77412652  0.68044594  1
  O  O45  1  0.22396594  0.30989778  0.77874373  1
  O  O46  1  0.74703022  0.51081946  0.92568460  1
  O  O47  1  0.68265205  0.10257550  0.00598349  1
  O  O48  1  0.15654830  0.22587348  0.18044594  1
  O  O49  1  0.61969736  0.86557239  0.15991825  1
  O  O50  1  0.42829879  0.64825932  0.04931416  1
  O  O51  1  0.11969736  0.63442761  0.84008175  1
  O  O52  1  0.31734795  0.60257550  0.49401651  1
  O  O53  1  0.84345170  0.72587348  0.31955406  1
  O  O54  1  0.38030264  0.36557239  0.34008175  1
  O  O55  1  0.75296978  0.48918054  0.42568460  1
