# generated using pymatgen
data_AlH18(NO6)3
_symmetry_space_group_name_H-M   'P 1'
_cell_length_a   13.97294433
_cell_length_b   9.66077838
_cell_length_c   10.97491680
_cell_angle_alpha   90.00000000
_cell_angle_beta   95.69311204
_cell_angle_gamma   90.00000000
_symmetry_Int_Tables_number   1
_chemical_formula_structural   AlH18(NO6)3
_chemical_formula_sum   'Al4 H72 N12 O72'
_cell_volume   1474.19124579
_cell_formula_units_Z   4
loop_
 _symmetry_equiv_pos_site_id
 _symmetry_equiv_pos_as_xyz
  1  'x, y, z'
loop_
 _atom_site_type_symbol
 _atom_site_label
 _atom_site_symmetry_multiplicity
 _atom_site_fract_x
 _atom_site_fract_y
 _atom_site_fract_z
 _atom_site_occupancy
  Al  Al0  1  0.00000000  0.50000000  0.50000000  1
  Al  Al1  1  0.00000000  0.00000000  0.00000000  1
  Al  Al2  1  0.50000000  0.50000000  0.00000000  1
  Al  Al3  1  0.50000000  0.00000000  0.50000000  1
  H  H4  1  0.85211829  0.35006639  0.42973927  1
  H  H5  1  0.14788171  0.85006639  0.07026073  1
  H  H6  1  0.14788171  0.64993361  0.57026073  1
  H  H7  1  0.85211829  0.14993361  0.92973927  1
  H  H8  1  0.89646483  0.30013352  0.56804269  1
  H  H9  1  0.10353517  0.80013352  0.93195731  1
  H  H10  1  0.10353517  0.69986648  0.43195731  1
  H  H11  1  0.89646483  0.19986648  0.06804269  1
  H  H12  1  0.94902430  0.58504956  0.27504593  1
  H  H13  1  0.05097570  0.08504956  0.22495407  1
  H  H14  1  0.05097570  0.41495044  0.72495407  1
  H  H15  1  0.94902430  0.91495044  0.77504593  1
  H  H16  1  0.87384319  0.64411079  0.36681801  1
  H  H17  1  0.12615681  0.14411079  0.13318199  1
  H  H18  1  0.12615681  0.35588921  0.63318199  1
  H  H19  1  0.87384319  0.85588921  0.86681801  1
  H  H20  1  0.86471650  0.57635574  0.63035658  1
  H  H21  1  0.13528350  0.07635574  0.86964342  1
  H  H22  1  0.13528350  0.42364426  0.36964342  1
  H  H23  1  0.86471650  0.92364426  0.13035658  1
  H  H24  1  0.94135887  0.70597278  0.61952945  1
  H  H25  1  0.05864113  0.20597278  0.88047055  1
  H  H26  1  0.05864113  0.29402722  0.38047055  1
  H  H27  1  0.94135887  0.79402722  0.11952945  1
  H  H28  1  0.35005637  0.35246243  0.93131710  1
  H  H29  1  0.64994363  0.85246243  0.56868290  1
  H  H30  1  0.64994363  0.64753757  0.06868290  1
  H  H31  1  0.35005637  0.14753757  0.43131710  1
  H  H32  1  0.38761173  0.30979491  0.07353308  1
  H  H33  1  0.61238827  0.80979491  0.42646692  1
  H  H34  1  0.61238827  0.69020509  0.92646692  1
  H  H35  1  0.38761173  0.19020509  0.57353308  1
  H  H36  1  0.43974395  0.59077057  0.77894122  1
  H  H37  1  0.56025605  0.09077057  0.72105878  1
  H  H38  1  0.56025605  0.40922943  0.22105878  1
  H  H39  1  0.43974395  0.90922943  0.27894122  1
  H  H40  1  0.36513909  0.63175944  0.87741144  1
  H  H41  1  0.63486091  0.13175944  0.62258856  1
  H  H42  1  0.63486091  0.36824056  0.12258856  1
  H  H43  1  0.36513909  0.86824056  0.37741144  1
  H  H44  1  0.40361260  0.57964843  0.18265310  1
  H  H45  1  0.59638740  0.07964843  0.31734690  1
  H  H46  1  0.59638740  0.42035157  0.81734690  1
  H  H47  1  0.40361260  0.92035157  0.68265310  1
  H  H48  1  0.44572219  0.71197956  0.11541870  1
  H  H49  1  0.55427781  0.21197956  0.38458130  1
  H  H50  1  0.55427781  0.28802044  0.88458130  1
  H  H51  1  0.44572219  0.78802044  0.61541870  1
  H  H52  1  0.92273678  0.92968958  0.56882922  1
  H  H53  1  0.07726322  0.42968958  0.93117078  1
  H  H54  1  0.07726322  0.07031042  0.43117078  1
  H  H55  1  0.92273678  0.57031042  0.06882922  1
  H  H56  1  0.03228191  0.89822727  0.60994504  1
  H  H57  1  0.96771809  0.39822727  0.89005496  1
  H  H58  1  0.96771809  0.10177273  0.39005496  1
  H  H59  1  0.03228191  0.60177273  0.10994504  1
  H  H60  1  0.39955002  0.93325250  0.07797437  1
  H  H61  1  0.60044998  0.43325250  0.42202563  1
  H  H62  1  0.60044998  0.06674750  0.92202563  1
  H  H63  1  0.39955002  0.56674750  0.57797437  1
  H  H64  1  0.51167972  0.93436248  0.12015125  1
  H  H65  1  0.48832028  0.43436248  0.37984875  1
  H  H66  1  0.48832028  0.06563752  0.87984875  1
  H  H67  1  0.51167972  0.56563752  0.62015125  1
  H  H68  1  0.18261432  0.02481163  0.61227345  1
  H  H69  1  0.81738568  0.52481163  0.88772655  1
  H  H70  1  0.81738568  0.97518837  0.38772655  1
  H  H71  1  0.18261432  0.47518837  0.11227345  1
  H  H72  1  0.18846101  0.91367625  0.51014121  1
  H  H73  1  0.81153899  0.41367625  0.98985879  1
  H  H74  1  0.81153899  0.08632375  0.48985879  1
  H  H75  1  0.18846101  0.58632375  0.01014121  1
  N  N76  1  0.79854884  0.18856139  0.70705150  1
  N  N77  1  0.20145116  0.68856139  0.79294850  1
  N  N78  1  0.20145116  0.81143861  0.29294850  1
  N  N79  1  0.79854884  0.31143861  0.20705150  1
  N  N80  1  0.28490370  0.28709174  0.71952505  1
  N  N81  1  0.71509630  0.78709174  0.78047495  1
  N  N82  1  0.71509630  0.71290826  0.28047495  1
  N  N83  1  0.28490370  0.21290826  0.21952505  1
  N  N84  1  0.30584963  0.99057798  0.87313495  1
  N  N85  1  0.69415037  0.49057798  0.62686505  1
  N  N86  1  0.69415037  0.00942202  0.12686505  1
  N  N87  1  0.30584963  0.50942202  0.37313495  1
  O  O88  1  0.90694840  0.35762402  0.49494812  1
  O  O89  1  0.09305160  0.85762402  0.00505188  1
  O  O90  1  0.09305160  0.64237598  0.50505188  1
  O  O91  1  0.90694840  0.14237598  0.99494812  1
  O  O92  1  0.93237291  0.58486152  0.36233422  1
  O  O93  1  0.06762709  0.08486152  0.13766578  1
  O  O94  1  0.06762709  0.41513848  0.63766578  1
  O  O95  1  0.93237291  0.91513848  0.86233422  1
  O  O96  1  0.92870858  0.60471669  0.60559022  1
  O  O97  1  0.07129142  0.10471669  0.89440978  1
  O  O98  1  0.07129142  0.39528331  0.39440978  1
  O  O99  1  0.92870858  0.89528331  0.10559022  1
  O  O100  1  0.40311187  0.36206877  0.99915150  1
  O  O101  1  0.59688813  0.86206877  0.50084850  1
  O  O102  1  0.59688813  0.63793123  0.00084850  1
  O  O103  1  0.40311187  0.13793123  0.49915150  1
  O  O104  1  0.43042688  0.59134539  0.86856313  1
  O  O105  1  0.56957312  0.09134539  0.63143687  1
  O  O106  1  0.56957312  0.40865461  0.13143687  1
  O  O107  1  0.43042688  0.90865461  0.36856313  1
  O  O108  1  0.43216720  0.61035891  0.10726323  1
  O  O109  1  0.56783280  0.11035891  0.39273677  1
  O  O110  1  0.56783280  0.38964109  0.89273677  1
  O  O111  1  0.43216720  0.88964109  0.60726323  1
  O  O112  1  0.96614016  0.87775820  0.63045776  1
  O  O113  1  0.03385984  0.37775820  0.86954224  1
  O  O114  1  0.03385984  0.12224180  0.36954224  1
  O  O115  1  0.96614016  0.62224180  0.13045776  1
  O  O116  1  0.45102064  0.88523253  0.13137445  1
  O  O117  1  0.54897936  0.38523253  0.36862555  1
  O  O118  1  0.54897936  0.11476747  0.86862555  1
  O  O119  1  0.45102064  0.61476747  0.63137445  1
  O  O120  1  0.14265973  0.97310386  0.54846693  1
  O  O121  1  0.85734027  0.47310386  0.95153307  1
  O  O122  1  0.85734027  0.02689614  0.45153307  1
  O  O123  1  0.14265973  0.52689614  0.04846693  1
  O  O124  1  0.76252092  0.33481654  0.30595264  1
  O  O125  1  0.23747908  0.83481654  0.19404736  1
  O  O126  1  0.23747908  0.66518346  0.69404736  1
  O  O127  1  0.76252092  0.16518346  0.80595264  1
  O  O128  1  0.88703682  0.21471258  0.70531031  1
  O  O129  1  0.11296318  0.71471258  0.79468969  1
  O  O130  1  0.11296318  0.78528742  0.29468969  1
  O  O131  1  0.88703682  0.28528742  0.20531031  1
  O  O132  1  0.25535701  0.68621413  0.89510847  1
  O  O133  1  0.74464299  0.18621413  0.60489153  1
  O  O134  1  0.74464299  0.31378587  0.10489153  1
  O  O135  1  0.25535701  0.81378587  0.39510847  1
  O  O136  1  0.25746333  0.15912823  0.31550153  1
  O  O137  1  0.74253667  0.65912823  0.18449847  1
  O  O138  1  0.74253667  0.84087177  0.68449847  1
  O  O139  1  0.25746333  0.34087177  0.81550153  1
  O  O140  1  0.37354145  0.26118338  0.71310417  1
  O  O141  1  0.62645855  0.76118338  0.78689583  1
  O  O142  1  0.62645855  0.73881662  0.28689583  1
  O  O143  1  0.37354145  0.23881662  0.21310417  1
  O  O144  1  0.77595943  0.74233625  0.37067367  1
  O  O145  1  0.22404057  0.24233625  0.12932633  1
  O  O146  1  0.22404057  0.25766375  0.62932633  1
  O  O147  1  0.77595943  0.75766375  0.87067367  1
  O  O148  1  0.38522175  0.54674968  0.33404238  1
  O  O149  1  0.61477825  0.04674968  0.16595762  1
  O  O150  1  0.61477825  0.45325032  0.66595762  1
  O  O151  1  0.38522175  0.95325032  0.83404238  1
  O  O152  1  0.30233156  0.01292203  0.98577897  1
  O  O153  1  0.69766844  0.51292203  0.51422103  1
  O  O154  1  0.69766844  0.98707797  0.01422103  1
  O  O155  1  0.30233156  0.48707797  0.48577897  1
  O  O156  1  0.23103429  0.00439297  0.79884814  1
  O  O157  1  0.76896571  0.50439297  0.70115186  1
  O  O158  1  0.76896571  0.99560703  0.20115186  1
  O  O159  1  0.23103429  0.49560703  0.29884814  1
