# generated using pymatgen
data_Co6Te3(ClO6)2
_symmetry_space_group_name_H-M   'P 1'
_cell_length_a   8.52094686
_cell_length_b   8.52094686
_cell_length_c   18.73429794
_cell_angle_alpha   90.00000000
_cell_angle_beta   90.00000000
_cell_angle_gamma   90.00000000
_symmetry_Int_Tables_number   1
_chemical_formula_structural   Co6Te3(ClO6)2
_chemical_formula_sum   'Co24 Te12 Cl8 O48'
_cell_volume   1360.23246641
_cell_formula_units_Z   4
loop_
 _symmetry_equiv_pos_site_id
 _symmetry_equiv_pos_as_xyz
  1  'x, y, z'
loop_
 _atom_site_type_symbol
 _atom_site_label
 _atom_site_symmetry_multiplicity
 _atom_site_fract_x
 _atom_site_fract_y
 _atom_site_fract_z
 _atom_site_occupancy
  Co  Co0  1  0.30292263  0.68236806  0.83157376  1
  Co  Co1  1  0.81763194  0.19707737  0.33157376  1
  Co  Co2  1  0.00000000  0.50000000  0.91669126  1
  Co  Co3  1  0.31763194  0.30292263  0.66842624  1
  Co  Co4  1  0.50000000  0.00000000  0.58330874  1
  Co  Co5  1  0.68236806  0.69707737  0.66842624  1
  Co  Co6  1  0.69707737  0.31763194  0.83157376  1
  Co  Co7  1  0.00000000  0.50000000  0.58330874  1
  Co  Co8  1  0.19707737  0.18236806  0.83157376  1
  Co  Co9  1  0.18236806  0.80292263  0.66842624  1
  Co  Co10  1  0.80292263  0.81763194  0.16842624  1
  Co  Co11  1  0.80292263  0.81763194  0.83157376  1
  Co  Co12  1  0.19707737  0.18236806  0.16842624  1
  Co  Co13  1  0.00000000  0.50000000  0.08330874  1
  Co  Co14  1  0.81763194  0.19707737  0.66842624  1
  Co  Co15  1  0.50000000  0.00000000  0.41669126  1
  Co  Co16  1  0.50000000  0.00000000  0.91669126  1
  Co  Co17  1  0.50000000  0.00000000  0.08330874  1
  Co  Co18  1  0.31763194  0.30292263  0.33157376  1
  Co  Co19  1  0.69707737  0.31763194  0.16842624  1
  Co  Co20  1  0.00000000  0.50000000  0.41669126  1
  Co  Co21  1  0.68236806  0.69707737  0.33157376  1
  Co  Co22  1  0.30292263  0.68236806  0.16842624  1
  Co  Co23  1  0.18236806  0.80292263  0.33157376  1
  Te  Te24  1  0.30887327  0.68167962  0.50000000  1
  Te  Te25  1  0.80887327  0.81832038  0.50000000  1
  Te  Te26  1  0.68167962  0.69112673  0.00000000  1
  Te  Te27  1  0.19112673  0.18167962  0.50000000  1
  Te  Te28  1  0.00000000  0.50000000  0.25000000  1
  Te  Te29  1  0.50000000  0.00000000  0.75000000  1
  Te  Te30  1  0.31832038  0.30887327  0.00000000  1
  Te  Te31  1  0.00000000  0.50000000  0.75000000  1
  Te  Te32  1  0.18167962  0.80887327  0.00000000  1
  Te  Te33  1  0.81832038  0.19112673  0.00000000  1
  Te  Te34  1  0.50000000  0.00000000  0.25000000  1
  Te  Te35  1  0.69112673  0.31832038  0.50000000  1
  Cl  Cl36  1  0.00000000  0.00000000  0.85691067  1
  Cl  Cl37  1  0.50000000  0.50000000  0.85691067  1
  Cl  Cl38  1  0.00000000  0.00000000  0.35691067  1
  Cl  Cl39  1  0.00000000  0.00000000  0.14308933  1
  Cl  Cl40  1  0.00000000  0.00000000  0.64308933  1
  Cl  Cl41  1  0.50000000  0.50000000  0.35691067  1
  Cl  Cl42  1  0.50000000  0.50000000  0.14308933  1
  Cl  Cl43  1  0.50000000  0.50000000  0.64308933  1
  O  O44  1  0.35584222  0.90361309  0.50000000  1
  O  O45  1  0.16363341  0.66363341  0.75000000  1
  O  O46  1  0.15877168  0.69045836  0.57560479  1
  O  O47  1  0.38527567  0.89789455  0.17214163  1
  O  O48  1  0.80954164  0.34122832  0.07560479  1
  O  O49  1  0.30954164  0.15877168  0.07560479  1
  O  O50  1  0.65877168  0.80954164  0.57560479  1
  O  O51  1  0.10210545  0.38527567  0.67214163  1
  O  O52  1  0.38527567  0.89789455  0.82785837  1
  O  O53  1  0.14415778  0.40361309  0.50000000  1
  O  O54  1  0.19045836  0.65877168  0.07560479  1
  O  O55  1  0.61472433  0.10210545  0.17214163  1
  O  O56  1  0.11472433  0.39789455  0.17214163  1
  O  O57  1  0.16363341  0.66363341  0.25000000  1
  O  O58  1  0.84122832  0.30954164  0.57560479  1
  O  O59  1  0.69045836  0.84122832  0.07560479  1
  O  O60  1  0.89789455  0.61472433  0.32785837  1
  O  O61  1  0.40361309  0.85584222  0.00000000  1
  O  O62  1  0.83636659  0.33636659  0.25000000  1
  O  O63  1  0.11472433  0.39789455  0.82785837  1
  O  O64  1  0.66363341  0.83636659  0.75000000  1
  O  O65  1  0.34122832  0.19045836  0.57560479  1
  O  O66  1  0.64415778  0.09638691  0.50000000  1
  O  O67  1  0.19045836  0.65877168  0.92439521  1
  O  O68  1  0.39789455  0.88527567  0.32785837  1
  O  O69  1  0.85584222  0.59638691  0.50000000  1
  O  O70  1  0.39789455  0.88527567  0.67214163  1
  O  O71  1  0.65877168  0.80954164  0.42439521  1
  O  O72  1  0.34122832  0.19045836  0.42439521  1
  O  O73  1  0.10210545  0.38527567  0.32785837  1
  O  O74  1  0.69045836  0.84122832  0.92439521  1
  O  O75  1  0.33636659  0.16363341  0.25000000  1
  O  O76  1  0.15877168  0.69045836  0.42439521  1
  O  O77  1  0.84122832  0.30954164  0.42439521  1
  O  O78  1  0.66363341  0.83636659  0.25000000  1
  O  O79  1  0.88527567  0.60210545  0.82785837  1
  O  O80  1  0.89789455  0.61472433  0.67214163  1
  O  O81  1  0.59638691  0.14415778  0.00000000  1
  O  O82  1  0.60210545  0.11472433  0.67214163  1
  O  O83  1  0.80954164  0.34122832  0.92439521  1
  O  O84  1  0.83636659  0.33636659  0.75000000  1
  O  O85  1  0.61472433  0.10210545  0.82785837  1
  O  O86  1  0.33636659  0.16363341  0.75000000  1
  O  O87  1  0.30954164  0.15877168  0.92439521  1
  O  O88  1  0.09638691  0.35584222  0.00000000  1
  O  O89  1  0.90361309  0.64415778  0.00000000  1
  O  O90  1  0.60210545  0.11472433  0.32785837  1
  O  O91  1  0.88527567  0.60210545  0.17214163  1
