# generated using pymatgen
data_MgZr3Tl10(MoO4)12
_symmetry_space_group_name_H-M   'P 1'
_cell_length_a   14.40761616
_cell_length_b   14.40761613
_cell_length_c   14.40761608
_cell_angle_alpha   44.30919871
_cell_angle_beta   44.30919885
_cell_angle_gamma   44.30919784
_symmetry_Int_Tables_number   1
_chemical_formula_structural   MgZr3Tl10(MoO4)12
_chemical_formula_sum   'Mg1 Zr3 Tl10 Mo12 O48'
_cell_volume   1326.30217566
_cell_formula_units_Z   1
loop_
 _symmetry_equiv_pos_site_id
 _symmetry_equiv_pos_as_xyz
  1  'x, y, z'
loop_
 _atom_site_type_symbol
 _atom_site_label
 _atom_site_symmetry_multiplicity
 _atom_site_fract_x
 _atom_site_fract_y
 _atom_site_fract_z
 _atom_site_occupancy
  Mg  Mg0  1  0.49944494  0.49944494  0.49944494  1
  Zr  Zr1  1  0.99949620  0.99949620  0.99949620  1
  Zr  Zr2  1  0.24758734  0.24758734  0.24758734  1
  Zr  Zr3  1  0.75176295  0.75176295  0.75176295  1
  Tl  Tl4  1  0.10543467  0.10543467  0.10543467  1
  Tl  Tl5  1  0.39689802  0.39689802  0.39689802  1
  Tl  Tl6  1  0.11960228  0.49671449  0.88283032  1
  Tl  Tl7  1  0.49671449  0.88283032  0.11960228  1
  Tl  Tl8  1  0.88283032  0.11960228  0.49671449  1
  Tl  Tl9  1  0.60130826  0.60130826  0.60130826  1
  Tl  Tl10  1  0.38971885  0.99680913  0.61293764  1
  Tl  Tl11  1  0.61293764  0.38971885  0.99680913  1
  Tl  Tl12  1  0.99680913  0.61293764  0.38971885  1
  Tl  Tl13  1  0.89298188  0.89298188  0.89298188  1
  Mo  Mo14  1  0.01117643  0.36779055  0.76998108  1
  Mo  Mo15  1  0.36779055  0.76998108  0.01117643  1
  Mo  Mo16  1  0.13681634  0.72227312  0.48904069  1
  Mo  Mo17  1  0.76998108  0.01117643  0.36779055  1
  Mo  Mo18  1  0.48904069  0.13681634  0.72227312  1
  Mo  Mo19  1  0.72227312  0.48904069  0.13681634  1
  Mo  Mo20  1  0.27193590  0.86290400  0.51364060  1
  Mo  Mo21  1  0.51364060  0.27193590  0.86290400  1
  Mo  Mo22  1  0.22408134  0.63181440  0.99167403  1
  Mo  Mo23  1  0.86290400  0.51364060  0.27193590  1
  Mo  Mo24  1  0.63181440  0.99167403  0.22408134  1
  Mo  Mo25  1  0.99167403  0.22408134  0.63181440  1
  O  O26  1  0.04629587  0.35501338  0.25013166  1
  O  O27  1  0.25013166  0.04629587  0.35501338  1
  O  O28  1  0.35501338  0.25013166  0.04629587  1
  O  O29  1  0.14515105  0.25094460  0.45107608  1
  O  O30  1  0.05110274  0.07046101  0.78413438  1
  O  O31  1  0.07046101  0.78413438  0.05110274  1
  O  O32  1  0.25094460  0.45107608  0.14515105  1
  O  O33  1  0.45107608  0.14515105  0.25094460  1
  O  O34  1  0.13287271  0.34513673  0.60574464  1
  O  O35  1  0.78413438  0.05110274  0.07046101  1
  O  O36  1  0.34513673  0.60574464  0.13287271  1
  O  O37  1  0.13764551  0.67706190  0.40238822  1
  O  O38  1  0.10165702  0.36235003  0.81343275  1
  O  O39  1  0.60574464  0.13287271  0.34513673  1
  O  O40  1  0.40238822  0.13764551  0.67706190  1
  O  O41  1  0.36235003  0.81343275  0.10165702  1
  O  O42  1  0.15963686  0.88778854  0.36370874  1
  O  O43  1  0.67706190  0.40238822  0.13764551  1
  O  O44  1  0.28249378  0.57250848  0.54884263  1
  O  O45  1  0.36370874  0.15963686  0.88778854  1
  O  O46  1  0.81343275  0.10165702  0.36235003  1
  O  O47  1  0.54884263  0.28249378  0.57250848  1
  O  O48  1  0.10570419  0.84158987  0.63619307  1
  O  O49  1  0.57250848  0.54884263  0.28249378  1
  O  O50  1  0.42141397  0.71599762  0.45586287  1
  O  O51  1  0.88778854  0.36370874  0.15963686  1
  O  O52  1  0.45586287  0.42141397  0.71599762  1
  O  O53  1  0.18014700  0.63518700  0.90312005  1
  O  O54  1  0.63619307  0.10570419  0.84158987  1
  O  O55  1  0.71599762  0.45586287  0.42141397  1
  O  O56  1  0.31631366  0.86007703  0.60245058  1
  O  O57  1  0.84158987  0.63619307  0.10570419  1
  O  O58  1  0.63518700  0.90312005  0.18014700  1
  O  O59  1  0.60245058  0.31631366  0.86007703  1
  O  O60  1  0.38747715  0.65615589  0.86737639  1
  O  O61  1  0.90312005  0.18014700  0.63518700  1
  O  O62  1  0.86007703  0.60245058  0.31631366  1
  O  O63  1  0.65615589  0.86737639  0.38747715  1
  O  O64  1  0.21438103  0.92339470  0.95372670  1
  O  O65  1  0.86737639  0.38747715  0.65615589  1
  O  O66  1  0.54822222  0.74635849  0.85643860  1
  O  O67  1  0.74635849  0.85643860  0.54822222  1
  O  O68  1  0.92339470  0.95372670  0.21438103  1
  O  O69  1  0.95372670  0.21438103  0.92339470  1
  O  O70  1  0.85643860  0.54822222  0.74635849  1
  O  O71  1  0.64640421  0.95315761  0.74721534  1
  O  O72  1  0.74721534  0.64640421  0.95315761  1
  O  O73  1  0.95315761  0.74721534  0.64640421  1
