# generated using pymatgen
data_Co(BW)2
_symmetry_space_group_name_H-M   'P 1'
_cell_length_a   3.18708776
_cell_length_b   4.52250889
_cell_length_c   4.52250889
_cell_angle_alpha   60.85792902
_cell_angle_beta   69.36836811
_cell_angle_gamma   69.36836815
_symmetry_Int_Tables_number   1
_chemical_formula_structural   Co(BW)2
_chemical_formula_sum   'Co1 B2 W2'
_cell_volume   51.96346735
_cell_formula_units_Z   1
loop_
 _symmetry_equiv_pos_site_id
 _symmetry_equiv_pos_as_xyz
  1  'x, y, z'
loop_
 _atom_site_type_symbol
 _atom_site_label
 _atom_site_symmetry_multiplicity
 _atom_site_fract_x
 _atom_site_fract_y
 _atom_site_fract_z
 _atom_site_occupancy
  B  B0  1  0.50000000  0.70494752  0.29505248  1
  B  B1  1  0.50000000  0.29505248  0.70494752  1
  Co  Co2  1  0.00000000  0.00000000  0.00000000  1
  W  W3  1  0.79961761  0.70038239  0.70038239  1
  W  W4  1  0.20038239  0.29961761  0.29961761  1
