# generated using pymatgen
data_LaSiNi
_symmetry_space_group_name_H-M   'P 1'
_cell_length_a   4.18165423
_cell_length_b   4.18165423
_cell_length_c   7.60797299
_cell_angle_alpha   105.95131880
_cell_angle_beta   105.95131878
_cell_angle_gamma   90.00000003
_symmetry_Int_Tables_number   1
_chemical_formula_structural   LaSiNi
_chemical_formula_sum   'La2 Si2 Ni2'
_cell_volume   122.57603847
_cell_formula_units_Z   2
loop_
 _symmetry_equiv_pos_site_id
 _symmetry_equiv_pos_as_xyz
  1  'x, y, z'
loop_
 _atom_site_type_symbol
 _atom_site_label
 _atom_site_symmetry_multiplicity
 _atom_site_fract_x
 _atom_site_fract_y
 _atom_site_fract_z
 _atom_site_occupancy
  Si  Si0  1  0.16854866  0.66854866  0.33709732  1
  Si  Si1  1  0.41854866  0.41854866  0.83709732  1
  Ni  Ni2  1  0.58723292  0.58723292  0.17446584  1
  Ni  Ni3  1  0.33723292  0.83723292  0.67446584  1
  La  La4  1  0.74821842  0.24821842  0.49643684  1
  La  La5  1  0.99821842  0.99821842  0.99643684  1
