# generated using pymatgen
data_KCo2As2HO8
_symmetry_space_group_name_H-M   'P 1'
_cell_length_a   8.92586702
_cell_length_b   5.07035403
_cell_length_c   16.07218652
_cell_angle_alpha   90.00000000
_cell_angle_beta   96.80902569
_cell_angle_gamma   90.00000000
_symmetry_Int_Tables_number   1
_chemical_formula_structural   KCo2As2HO8
_chemical_formula_sum   'K4 Co8 As8 H4 O32'
_cell_volume   722.25350888
_cell_formula_units_Z   4
loop_
 _symmetry_equiv_pos_site_id
 _symmetry_equiv_pos_as_xyz
  1  'x, y, z'
loop_
 _atom_site_type_symbol
 _atom_site_label
 _atom_site_symmetry_multiplicity
 _atom_site_fract_x
 _atom_site_fract_y
 _atom_site_fract_z
 _atom_site_occupancy
  K  K0  1  0.50000000  0.87517284  0.75000000  1
  K  K1  1  0.50000000  0.12482716  0.25000000  1
  K  K2  1  0.00000000  0.82856730  0.25000000  1
  K  K3  1  0.00000000  0.17143270  0.75000000  1
  Co  Co4  1  0.41589643  0.75624897  0.49537425  1
  Co  Co5  1  0.58410357  0.75624897  0.00462575  1
  Co  Co6  1  0.58410357  0.24375103  0.50462575  1
  Co  Co7  1  0.41589643  0.24375103  0.99537425  1
  Co  Co8  1  0.91834833  0.75604960  0.99979477  1
  Co  Co9  1  0.08165167  0.75604960  0.50020523  1
  Co  Co10  1  0.08165167  0.24395040  0.00020523  1
  Co  Co11  1  0.91834833  0.24395040  0.49979477  1
  As  As12  1  0.27298168  0.73112425  0.10807623  1
  As  As13  1  0.72701832  0.73112425  0.39192377  1
  As  As14  1  0.72701832  0.26887575  0.89192377  1
  As  As15  1  0.27298168  0.26887575  0.60807623  1
  As  As16  1  0.22507904  0.73484500  0.89277834  1
  As  As17  1  0.77492096  0.73484500  0.60722166  1
  As  As18  1  0.77492096  0.26515500  0.10722166  1
  As  As19  1  0.22507904  0.26515500  0.39277834  1
  H  H20  1  0.23577279  0.55899561  0.75633267  1
  H  H21  1  0.76422721  0.55899561  0.74366733  1
  H  H22  1  0.76422721  0.44100439  0.24366733  1
  H  H23  1  0.23577279  0.44100439  0.25633267  1
  O  O24  1  0.29376734  0.69725057  0.21407153  1
  O  O25  1  0.70623266  0.69725057  0.28592847  1
  O  O26  1  0.70623266  0.30274943  0.78592847  1
  O  O27  1  0.29376734  0.30274943  0.71407153  1
  O  O28  1  0.42478247  0.90939650  0.07646461  1
  O  O29  1  0.57521753  0.90939650  0.42353539  1
  O  O30  1  0.57521753  0.09060350  0.92353539  1
  O  O31  1  0.42478247  0.09060350  0.57646461  1
  O  O32  1  0.10612286  0.90332106  0.07569780  1
  O  O33  1  0.89387714  0.90332106  0.42430220  1
  O  O34  1  0.89387714  0.09667894  0.92430220  1
  O  O35  1  0.10612286  0.09667894  0.57569780  1
  O  O36  1  0.26637556  0.41404943  0.06618444  1
  O  O37  1  0.73362444  0.41404943  0.43381556  1
  O  O38  1  0.73362444  0.58595057  0.93381556  1
  O  O39  1  0.26637556  0.58595057  0.56618444  1
  O  O40  1  0.19977523  0.73153442  0.78198974  1
  O  O41  1  0.80022477  0.73153442  0.71801026  1
  O  O42  1  0.80022477  0.26846558  0.21801026  1
  O  O43  1  0.19977523  0.26846558  0.28198974  1
  O  O44  1  0.22708637  0.06497564  0.91786999  1
  O  O45  1  0.77291363  0.06497564  0.58213001  1
  O  O46  1  0.77291363  0.93502436  0.08213001  1
  O  O47  1  0.22708637  0.93502436  0.41786999  1
  O  O48  1  0.39748431  0.58573203  0.92144332  1
  O  O49  1  0.60251569  0.58573203  0.57855668  1
  O  O50  1  0.60251569  0.41426797  0.07855668  1
  O  O51  1  0.39748431  0.41426797  0.42144332  1
  O  O52  1  0.06750763  0.57744234  0.92131740  1
  O  O53  1  0.93249237  0.57744234  0.57868260  1
  O  O54  1  0.93249237  0.42255766  0.07868260  1
  O  O55  1  0.06750763  0.42255766  0.42131740  1
