# generated using pymatgen
data_BaP4O11
_symmetry_space_group_name_H-M   'P 1'
_cell_length_a   9.20042767
_cell_length_b   13.33612198
_cell_length_c   9.55165893
_cell_angle_alpha   90.00000000
_cell_angle_beta   88.58381038
_cell_angle_gamma   90.00000000
_symmetry_Int_Tables_number   1
_chemical_formula_structural   BaP4O11
_chemical_formula_sum   'Ba4 P16 O44'
_cell_volume   1171.61171003
_cell_formula_units_Z   4
loop_
 _symmetry_equiv_pos_site_id
 _symmetry_equiv_pos_as_xyz
  1  'x, y, z'
loop_
 _atom_site_type_symbol
 _atom_site_label
 _atom_site_symmetry_multiplicity
 _atom_site_fract_x
 _atom_site_fract_y
 _atom_site_fract_z
 _atom_site_occupancy
  Ba  Ba0  1  0.22751845  0.47245256  0.73463299  1
  Ba  Ba1  1  0.27248155  0.97245256  0.76536701  1
  Ba  Ba2  1  0.72751845  0.02754744  0.23463299  1
  Ba  Ba3  1  0.77248155  0.52754744  0.26536701  1
  P  P4  1  0.08465320  0.20682781  0.58336039  1
  P  P5  1  0.12706125  0.16711458  0.27740455  1
  P  P6  1  0.20018346  0.49697127  0.32314171  1
  P  P7  1  0.23730865  0.84343338  0.38683759  1
  P  P8  1  0.26269135  0.34343338  0.11316241  1
  P  P9  1  0.29981654  0.99697127  0.17685829  1
  P  P10  1  0.41534680  0.70682781  0.91663961  1
  P  P11  1  0.37293875  0.66711458  0.22259545  1
  P  P12  1  0.62706125  0.33288542  0.77740455  1
  P  P13  1  0.58465320  0.29317219  0.08336039  1
  P  P14  1  0.70018346  0.00302873  0.82314171  1
  P  P15  1  0.73730865  0.65656662  0.88683759  1
  P  P16  1  0.76269135  0.15656662  0.61316241  1
  P  P17  1  0.79981654  0.50302873  0.67685829  1
  P  P18  1  0.87293875  0.83288542  0.72259545  1
  P  P19  1  0.91534680  0.79317219  0.41663961  1
  O  O20  1  0.01045640  0.88334328  0.75191757  1
  O  O21  1  0.04553662  0.47043128  0.30122874  1
  O  O22  1  0.09379128  0.78564467  0.42974912  1
  O  O23  1  0.12554705  0.10285283  0.62042565  1
  O  O24  1  0.13157450  0.29598242  0.66236763  1
  O  O25  1  0.19177616  0.39765879  0.99961741  1
  O  O26  1  0.13387508  0.22853510  0.41862862  1
  O  O27  1  0.15957474  0.25347341  0.16544822  1
  O  O28  1  0.19708251  0.90852244  0.25402770  1
  O  O29  1  0.23406877  0.59626217  0.22098638  1
  O  O30  1  0.26458629  0.51537523  0.46181551  1
  O  O31  1  0.23541371  0.01537523  0.03818449  1
  O  O32  1  0.26593123  0.09626217  0.27901362  1
  O  O33  1  0.30822384  0.89765879  0.50038259  1
  O  O34  1  0.36842550  0.79598242  0.83763237  1
  O  O35  1  0.30291749  0.40852244  0.24597230  1
  O  O36  1  0.37445295  0.60285283  0.87957435  1
  O  O37  1  0.34042526  0.75347341  0.33455178  1
  O  O38  1  0.36612492  0.72853510  0.08137138  1
  O  O39  1  0.40620872  0.28564467  0.07025088  1
  O  O40  1  0.48954360  0.38334328  0.74808243  1
  O  O41  1  0.54553662  0.02956872  0.80122874  1
  O  O42  1  0.45446338  0.97043128  0.19877126  1
  O  O43  1  0.51045640  0.61665672  0.25191757  1
  O  O44  1  0.59379128  0.71435533  0.92974912  1
  O  O45  1  0.63387508  0.27146490  0.91862862  1
  O  O46  1  0.65957474  0.24652659  0.66544822  1
  O  O47  1  0.62554705  0.39714717  0.12042565  1
  O  O48  1  0.69708251  0.59147756  0.75402770  1
  O  O49  1  0.63157450  0.20401758  0.16236763  1
  O  O50  1  0.69177616  0.10234121  0.49961741  1
  O  O51  1  0.73406877  0.90373783  0.72098638  1
  O  O52  1  0.76458629  0.98462477  0.96181551  1
  O  O53  1  0.73541371  0.48462477  0.53818449  1
  O  O54  1  0.76593123  0.40373783  0.77901362  1
  O  O55  1  0.80291749  0.09147756  0.74597230  1
  O  O56  1  0.84042526  0.74652659  0.83455178  1
  O  O57  1  0.86612492  0.77146490  0.58137138  1
  O  O58  1  0.80822384  0.60234121  0.00038259  1
  O  O59  1  0.86842550  0.70401758  0.33763237  1
  O  O60  1  0.87445295  0.89714717  0.37957435  1
  O  O61  1  0.90620872  0.21435533  0.57025088  1
  O  O62  1  0.95446338  0.52956872  0.69877126  1
  O  O63  1  0.98954360  0.11665672  0.24808243  1
