# generated using pymatgen
data_RbLaO2
_symmetry_space_group_name_H-M   'P 1'
_cell_length_a   6.94613860
_cell_length_b   6.94613860
_cell_length_c   6.94613860
_cell_angle_alpha   31.38027404
_cell_angle_beta   31.38027405
_cell_angle_gamma   31.38027402
_symmetry_Int_Tables_number   1
_chemical_formula_structural   RbLaO2
_chemical_formula_sum   'Rb1 La1 O2'
_cell_volume   80.66149723
_cell_formula_units_Z   1
loop_
 _symmetry_equiv_pos_site_id
 _symmetry_equiv_pos_as_xyz
  1  'x, y, z'
loop_
 _atom_site_type_symbol
 _atom_site_label
 _atom_site_symmetry_multiplicity
 _atom_site_fract_x
 _atom_site_fract_y
 _atom_site_fract_z
 _atom_site_occupancy
  O  O0  1  0.77317916  0.77317916  0.77317916  1
  O  O1  1  0.22682084  0.22682084  0.22682084  1
  Rb  Rb2  1  0.00000000  0.00000000  0.00000000  1
  La  La3  1  0.50000000  0.50000000  0.50000000  1
