# generated using pymatgen
data_Na2VAsCO7
_symmetry_space_group_name_H-M   'P 1'
_cell_length_a   9.21440532
_cell_length_b   6.73384416
_cell_length_c   5.37714800
_cell_angle_alpha   90.00000000
_cell_angle_beta   88.91105034
_cell_angle_gamma   90.00000000
_symmetry_Int_Tables_number   1
_chemical_formula_structural   Na2VAsCO7
_chemical_formula_sum   'Na4 V2 As2 C2 O14'
_cell_volume   333.58300849
_cell_formula_units_Z   2
loop_
 _symmetry_equiv_pos_site_id
 _symmetry_equiv_pos_as_xyz
  1  'x, y, z'
loop_
 _atom_site_type_symbol
 _atom_site_label
 _atom_site_symmetry_multiplicity
 _atom_site_fract_x
 _atom_site_fract_y
 _atom_site_fract_z
 _atom_site_occupancy
  Na  Na0  1  0.21988154  0.50093849  0.23599632  1
  Na  Na1  1  0.21988154  0.99906151  0.23599632  1
  Na  Na2  1  0.78011846  0.49906151  0.76400368  1
  Na  Na3  1  0.78011846  0.00093849  0.76400368  1
  V  V4  1  0.34262932  0.75000000  0.78938338  1
  V  V5  1  0.65737068  0.25000000  0.21061662  1
  As  As6  1  0.42418219  0.25000000  0.70653453  1
  As  As7  1  0.57581781  0.75000000  0.29346547  1
  C  C8  1  0.07444876  0.75000000  0.72899874  1
  C  C9  1  0.92555124  0.25000000  0.27100126  1
  O  O10  1  0.05976334  0.25000000  0.30403016  1
  O  O11  1  0.13430727  0.75000000  0.94912916  1
  O  O12  1  0.17211058  0.75000000  0.54224449  1
  O  O13  1  0.32179472  0.04765694  0.79259422  1
  O  O14  1  0.32179472  0.45234306  0.79259422  1
  O  O15  1  0.41106502  0.75000000  0.14499052  1
  O  O16  1  0.45169142  0.25000000  0.38856371  1
  O  O17  1  0.54830858  0.75000000  0.61143629  1
  O  O18  1  0.58893498  0.25000000  0.85500948  1
  O  O19  1  0.67820528  0.54765694  0.20740578  1
  O  O20  1  0.67820528  0.95234306  0.20740578  1
  O  O21  1  0.82788942  0.25000000  0.45775551  1
  O  O22  1  0.86569273  0.25000000  0.05087084  1
  O  O23  1  0.94023666  0.75000000  0.69596984  1
