# generated using pymatgen
data_EuSeO4
_symmetry_space_group_name_H-M   'P 1'
_cell_length_a   7.14361783
_cell_length_b   7.36557145
_cell_length_c   6.92240566
_cell_angle_alpha   90.00000000
_cell_angle_beta   103.73190463
_cell_angle_gamma   90.00000000
_symmetry_Int_Tables_number   1
_chemical_formula_structural   EuSeO4
_chemical_formula_sum   'Eu4 Se4 O16'
_cell_volume   353.82412738
_cell_formula_units_Z   4
loop_
 _symmetry_equiv_pos_site_id
 _symmetry_equiv_pos_as_xyz
  1  'x, y, z'
loop_
 _atom_site_type_symbol
 _atom_site_label
 _atom_site_symmetry_multiplicity
 _atom_site_fract_x
 _atom_site_fract_y
 _atom_site_fract_z
 _atom_site_occupancy
  Eu  Eu0  1  0.21927020  0.15231068  0.40277442  1
  Eu  Eu1  1  0.28072980  0.65231068  0.09722558  1
  Eu  Eu2  1  0.71927020  0.34768932  0.90277442  1
  Eu  Eu3  1  0.78072980  0.84768932  0.59722558  1
  Se  Se4  1  0.19695086  0.16263853  0.88325219  1
  Se  Se5  1  0.30304914  0.66263853  0.61674781  1
  Se  Se6  1  0.69695086  0.33736147  0.38325219  1
  Se  Se7  1  0.80304914  0.83736147  0.11674781  1
  O  O8  1  0.02216933  0.10684858  0.67947490  1
  O  O9  1  0.11237422  0.34441019  0.99190191  1
  O  O10  1  0.11489214  0.70902797  0.71727004  1
  O  O11  1  0.25739995  0.49983336  0.43744961  1
  O  O12  1  0.38510786  0.20902797  0.78272996  1
  O  O13  1  0.24260005  -0.00016664  0.06255039  1
  O  O14  1  0.38762578  0.84441019  0.50809809  1
  O  O15  1  0.47783067  0.60684858  0.82052510  1
  O  O16  1  0.52216933  0.39315142  0.17947490  1
  O  O17  1  0.61237422  0.15558981  0.49190191  1
  O  O18  1  0.75739995  0.00016664  0.93744961  1
  O  O19  1  0.61489214  0.79097203  0.21727004  1
  O  O20  1  0.74260005  0.50016664  0.56255039  1
  O  O21  1  0.88510786  0.29097203  0.28272996  1
  O  O22  1  0.88762578  0.65558981  0.00809809  1
  O  O23  1  0.97783067  0.89315142  0.32052510  1
