# generated using pymatgen
data_Li2CdGeO4
_symmetry_space_group_name_H-M   'P 1'
_cell_length_a   5.24069989
_cell_length_b   5.57503721
_cell_length_c   6.70555514
_cell_angle_alpha   90.00000000
_cell_angle_beta   90.00000000
_cell_angle_gamma   90.00000000
_symmetry_Int_Tables_number   1
_chemical_formula_structural   Li2CdGeO4
_chemical_formula_sum   'Li4 Cd2 Ge2 O8'
_cell_volume   195.91685425
_cell_formula_units_Z   2
loop_
 _symmetry_equiv_pos_site_id
 _symmetry_equiv_pos_as_xyz
  1  'x, y, z'
loop_
 _atom_site_type_symbol
 _atom_site_label
 _atom_site_symmetry_multiplicity
 _atom_site_fract_x
 _atom_site_fract_y
 _atom_site_fract_z
 _atom_site_occupancy
  Li  Li0  1  0.98781531  0.33027927  0.74960966  1
  Li  Li1  1  0.48781531  0.66972073  0.24960966  1
  Li  Li2  1  0.98781531  0.33027927  0.25039034  1
  Li  Li3  1  0.48781531  0.66972073  0.75039034  1
  O  O4  1  0.56338400  0.87171417  0.00000000  1
  O  O5  1  0.14230073  0.20322105  0.00000000  1
  O  O6  1  0.06338400  0.12828583  0.50000000  1
  O  O7  1  0.64230073  0.79677895  0.50000000  1
  O  O8  1  0.10896504  0.66564252  0.71290251  1
  O  O9  1  0.60896504  0.33435748  0.78709749  1
  O  O10  1  0.60896504  0.33435748  0.21290251  1
  O  O11  1  0.10896504  0.66564252  0.28709749  1
  Ge  Ge12  1  0.48193892  0.18452275  0.00000000  1
  Ge  Ge13  1  0.98193892  0.81547725  0.50000000  1
  Cd  Cd14  1  0.49081564  0.17575140  0.50000000  1
  Cd  Cd15  1  0.99081564  0.82424860  0.00000000  1
