# generated using pymatgen
data_Sr2VCO3F5
_symmetry_space_group_name_H-M   'P 1'
_cell_length_a   5.61930486
_cell_length_b   8.96146656
_cell_length_c   13.60763608
_cell_angle_alpha   90.00000000
_cell_angle_beta   98.49934672
_cell_angle_gamma   90.00000000
_symmetry_Int_Tables_number   1
_chemical_formula_structural   Sr2VCO3F5
_chemical_formula_sum   'Sr8 V4 C4 O12 F20'
_cell_volume   677.71697908
_cell_formula_units_Z   4
loop_
 _symmetry_equiv_pos_site_id
 _symmetry_equiv_pos_as_xyz
  1  'x, y, z'
loop_
 _atom_site_type_symbol
 _atom_site_label
 _atom_site_symmetry_multiplicity
 _atom_site_fract_x
 _atom_site_fract_y
 _atom_site_fract_z
 _atom_site_occupancy
  Sr  Sr0  1  0.21183928  0.89295568  0.90503288  1
  Sr  Sr1  1  0.22130725  0.35686927  0.91338461  1
  Sr  Sr2  1  0.27869275  0.85686927  0.58661539  1
  Sr  Sr3  1  0.28816072  0.39295568  0.59496712  1
  Sr  Sr4  1  0.71183928  0.60704432  0.40503288  1
  Sr  Sr5  1  0.72130725  0.14313073  0.41338461  1
  Sr  Sr6  1  0.77869275  0.64313073  0.08661539  1
  Sr  Sr7  1  0.78816072  0.10704432  0.09496712  1
  V  V8  1  0.13235260  0.87188577  0.32985944  1
  V  V9  1  0.36764740  0.37188577  0.17014056  1
  V  V10  1  0.63235260  0.62811423  0.82985944  1
  V  V11  1  0.86764740  0.12811423  0.67014056  1
  C  C12  1  0.18148951  0.37584188  0.36368727  1
  C  C13  1  0.31851049  0.87584188  0.13631273  1
  C  C14  1  0.68148951  0.12415812  0.86368727  1
  C  C15  1  0.81851049  0.62415812  0.63631273  1
  O  O16  1  0.00451745  0.37984050  0.41666217  1
  O  O17  1  0.12984849  0.37057121  0.26839478  1
  O  O18  1  0.09809033  0.87726478  0.09023358  1
  O  O19  1  0.50451745  0.12015950  0.91666217  1
  O  O20  1  0.40190967  0.37726478  0.40976642  1
  O  O21  1  0.37015151  0.87057121  0.23160522  1
  O  O22  1  0.62984849  0.12942879  0.76839478  1
  O  O23  1  0.59809033  0.62273522  0.59023358  1
  O  O24  1  0.49548255  0.87984050  0.08333783  1
  O  O25  1  0.90190967  0.12273522  0.90976642  1
  O  O26  1  0.87015151  0.62942879  0.73160522  1
  O  O27  1  0.99548255  0.62015950  0.58333783  1
  F  F28  1  0.05844168  0.96206797  0.72855954  1
  F  F29  1  0.07111717  0.28316041  0.73651965  1
  F  F30  1  0.09552720  0.12881950  0.56509014  1
  F  F31  1  0.40447280  0.62881950  0.93490986  1
  F  F32  1  0.16400855  0.51258554  0.08580464  1
  F  F33  1  0.31103621  0.71761926  0.41432890  1
  F  F34  1  0.42888283  0.78316041  0.76348035  1
  F  F35  1  0.44155832  0.46206797  0.77144046  1
  F  F36  1  0.18896379  0.21761926  0.08567110  1
  F  F37  1  0.33599145  0.01258554  0.41419536  1
  F  F38  1  0.66400855  0.98741446  0.58580464  1
  F  F39  1  0.81103621  0.78238074  0.91432890  1
  F  F40  1  0.55844168  0.53793203  0.22855954  1
  F  F41  1  0.57111717  0.21683959  0.23651965  1
  F  F42  1  0.68896379  0.28238074  0.58567110  1
  F  F43  1  0.83599145  0.48741446  0.91419536  1
  F  F44  1  0.59552720  0.37118050  0.06509014  1
  F  F45  1  0.90447280  0.87118050  0.43490986  1
  F  F46  1  0.92888283  0.71683959  0.26348035  1
  F  F47  1  0.94155832  0.03793203  0.27144046  1
