# generated using pymatgen
data_Li2FeP2HO8
_symmetry_space_group_name_H-M   'P 1'
_cell_length_a   4.87875046
_cell_length_b   8.11031199
_cell_length_c   7.58557210
_cell_angle_alpha   90.00000000
_cell_angle_beta   104.30797272
_cell_angle_gamma   90.00000000
_symmetry_Int_Tables_number   1
_chemical_formula_structural   Li2FeP2HO8
_chemical_formula_sum   'Li4 Fe2 P4 H2 O16'
_cell_volume   290.83718092
_cell_formula_units_Z   2
loop_
 _symmetry_equiv_pos_site_id
 _symmetry_equiv_pos_as_xyz
  1  'x, y, z'
loop_
 _atom_site_type_symbol
 _atom_site_label
 _atom_site_symmetry_multiplicity
 _atom_site_fract_x
 _atom_site_fract_y
 _atom_site_fract_z
 _atom_site_occupancy
  Li  Li0  1  0.11441412  0.36691830  0.65642974  1
  Li  Li1  1  0.38558588  0.86691830  0.84357026  1
  Li  Li2  1  0.60598370  0.13465753  0.16056455  1
  Li  Li3  1  0.89401630  0.63465753  0.33943545  1
  Fe  Fe4  1  0.99939224  0.99957685  0.49468103  1
  Fe  Fe5  1  0.50060776  0.49957685  0.00531897  1
  P  P6  1  0.13381540  0.34770950  0.26875272  1
  P  P7  1  0.36618460  0.84770950  0.23124728  1
  P  P8  1  0.62840050  0.15628862  0.76089632  1
  P  P9  1  0.87159950  0.65628862  0.73910368  1
  H  H10  1  0.54124767  0.51273444  0.51325003  1
  H  H11  1  0.95875233  0.01273444  0.98674997  1
  O  O12  1  0.11724343  0.54582222  0.84103700  1
  O  O13  1  0.01578277  0.17815303  0.31125719  1
  O  O14  1  0.14904464  0.82325169  0.34846989  1
  O  O15  1  0.26023907  0.44032539  0.44762399  1
  O  O16  1  0.38275657  0.04582222  0.65896300  1
  O  O17  1  0.51614682  0.32238867  0.81198683  1
  O  O18  1  0.23976093  0.94032539  0.05237601  1
  O  O19  1  0.35095536  0.32325169  0.15153011  1
  O  O20  1  0.64495827  0.67673316  0.84659926  1
  O  O21  1  0.75118049  0.06115037  0.94731788  1
  O  O22  1  0.48421723  0.67815303  0.18874281  1
  O  O23  1  0.61641970  0.95419122  0.34099412  1
  O  O24  1  0.74881951  0.56115037  0.55268212  1
  O  O25  1  0.85504173  0.17673316  0.65340074  1
  O  O26  1  0.98385318  0.82238867  0.68801317  1
  O  O27  1  0.88358030  0.45419122  0.15900588  1
