# generated using pymatgen
data_K2NiP4(HO2)8
_symmetry_space_group_name_H-M   'P 1'
_cell_length_a   6.92296536
_cell_length_b   7.38667739
_cell_length_c   7.54640709
_cell_angle_alpha   81.47279817
_cell_angle_beta   73.55587486
_cell_angle_gamma   83.82397947
_symmetry_Int_Tables_number   1
_chemical_formula_structural   K2NiP4(HO2)8
_chemical_formula_sum   'K2 Ni1 P4 H8 O16'
_cell_volume   365.15280267
_cell_formula_units_Z   1
loop_
 _symmetry_equiv_pos_site_id
 _symmetry_equiv_pos_as_xyz
  1  'x, y, z'
loop_
 _atom_site_type_symbol
 _atom_site_label
 _atom_site_symmetry_multiplicity
 _atom_site_fract_x
 _atom_site_fract_y
 _atom_site_fract_z
 _atom_site_occupancy
  K  K0  1  0.10815974  0.73242983  0.29885829  1
  K  K1  1  0.89184026  0.26757017  0.70114171  1
  Ni  Ni2  1  0.50000000  0.50000000  0.50000000  1
  P  P3  1  0.32469147  0.27357440  0.24198032  1
  P  P4  1  0.25030929  0.81081777  0.75790470  1
  P  P5  1  0.74969071  0.18918223  0.24209530  1
  P  P6  1  0.67530853  0.72642560  0.75801968  1
  H  H7  1  0.05099400  0.27493212  0.07254868  1
  H  H8  1  0.24882901  0.04425361  0.46274349  1
  H  H9  1  0.39252537  0.19004734  0.70591641  1
  H  H10  1  0.37984057  0.33118684  0.84950467  1
  H  H11  1  0.62015943  0.66881316  0.15049533  1
  H  H12  1  0.60747463  0.80995266  0.29408359  1
  H  H13  1  0.75117099  0.95574639  0.53725651  1
  H  H14  1  0.94900600  0.72506788  0.92745132  1
  O  O15  1  0.23966690  0.35347024  0.08062666  1
  O  O16  1  0.23389689  0.08218708  0.32885680  1
  O  O17  1  0.07030166  0.78866322  0.93964105  1
  O  O18  1  0.25651509  0.00899711  0.66495649  1
  O  O19  1  0.29626197  0.39283532  0.39532082  1
  O  O20  1  0.25720286  0.66787520  0.63205260  1
  O  O21  1  0.56285983  0.22889038  0.14722136  1
  O  O22  1  0.54246577  0.70437509  0.27408259  1
  O  O23  1  0.45753423  0.29562491  0.72591741  1
  O  O24  1  0.43714017  0.77110962  0.85277864  1
  O  O25  1  0.74279714  0.33212480  0.36794740  1
  O  O26  1  0.70373803  0.60716468  0.60467918  1
  O  O27  1  0.74348491  0.99100289  0.33504351  1
  O  O28  1  0.92969834  0.21133678  0.06035895  1
  O  O29  1  0.76610311  0.91781292  0.67114320  1
  O  O30  1  0.76033310  0.64652976  0.91937334  1
