# generated using pymatgen
data_Li2MnCo3O8
_symmetry_space_group_name_H-M   'P 1'
_cell_length_a   8.11786823
_cell_length_b   8.11350881
_cell_length_c   8.12643922
_cell_angle_alpha   90.07395981
_cell_angle_beta   89.75691130
_cell_angle_gamma   90.04306978
_symmetry_Int_Tables_number   1
_chemical_formula_structural   Li2MnCo3O8
_chemical_formula_sum   'Li8 Mn4 Co12 O32'
_cell_volume   535.23759422
_cell_formula_units_Z   4
loop_
 _symmetry_equiv_pos_site_id
 _symmetry_equiv_pos_as_xyz
  1  'x, y, z'
loop_
 _atom_site_type_symbol
 _atom_site_label
 _atom_site_symmetry_multiplicity
 _atom_site_fract_x
 _atom_site_fract_y
 _atom_site_fract_z
 _atom_site_occupancy
  Li  Li0  1  0.99646205  0.99860655  0.99742114  1
  Li  Li1  1  0.25243012  0.25266594  0.25340312  1
  Li  Li2  1  0.24669514  0.74470371  0.75261921  1
  Li  Li3  1  0.50193579  0.00464642  0.49667923  1
  Li  Li4  1  0.49568623  0.50370532  0.00300784  1
  Li  Li5  1  0.75477840  0.24653413  0.74671324  1
  Li  Li6  1  0.74844132  0.75172106  0.24678082  1
  Li  Li7  1  0.00335784  0.49747820  0.50302302  1
  Mn  Mn8  1  0.12468863  0.87496499  0.37478641  1
  Mn  Mn9  1  0.37068988  0.12875704  0.87346695  1
  Mn  Mn10  1  0.62382272  0.62284029  0.62419211  1
  Mn  Mn11  1  0.87854708  0.37475628  0.12410932  1
  Co  Co12  1  0.12512732  0.12611433  0.62432196  1
  Co  Co13  1  0.12455408  0.37562171  0.87459681  1
  Co  Co14  1  0.12476527  0.62443503  0.12469275  1
  Co  Co15  1  0.37366397  0.37515266  0.62483134  1
  Co  Co16  1  0.37438856  0.62460717  0.37556885  1
  Co  Co17  1  0.37422967  0.87445667  0.12477696  1
  Co  Co18  1  0.62481475  0.37394030  0.37412888  1
  Co  Co19  1  0.62551264  0.12637118  0.12552592  1
  Co  Co20  1  0.62513238  0.87604201  0.87516704  1
  Co  Co21  1  0.87607954  0.12597608  0.37479858  1
  Co  Co22  1  0.87629004  0.87536720  0.62471747  1
  Co  Co23  1  0.87638463  0.62317905  0.87563842  1
  O  O24  1  0.11317762  0.11188432  0.38774692  1
  O  O25  1  0.10810597  0.88497291  0.61423483  1
  O  O26  1  0.10982074  0.61009610  0.88973021  1
  O  O27  1  0.13764366  0.13587810  0.86232262  1
  O  O28  1  0.11266964  0.38726847  0.11345519  1
  O  O29  1  0.14040649  0.36013829  0.63985453  1
  O  O30  1  0.13831547  0.63813332  0.36361324  1
  O  O31  1  0.13934164  0.86290426  0.13697844  1
  O  O32  1  0.36293208  0.13797059  0.63773237  1
  O  O33  1  0.36322903  0.36270834  0.86259687  1
  O  O34  1  0.35991760  0.64422211  0.14019569  1
  O  O35  1  0.38815514  0.61218465  0.61250391  1
  O  O36  1  0.36337176  0.86356795  0.35844554  1
  O  O37  1  0.39155326  0.39019846  0.38875645  1
  O  O38  1  0.38831801  0.10780601  0.11193852  1
  O  O39  1  0.39099778  0.88460389  0.89055370  1
  O  O40  1  0.61536008  0.38681785  0.60965730  1
  O  O41  1  0.61149195  0.61085256  0.38758237  1
  O  O42  1  0.60867929  0.88955963  0.10936795  1
  O  O43  1  0.63571090  0.36365708  0.14225024  1
  O  O44  1  0.61357942  0.10679805  0.88822933  1
  O  O45  1  0.64068723  0.14197594  0.36044184  1
  O  O46  1  0.64113458  0.86418102  0.63751614  1
  O  O47  1  0.63576125  0.64242064  0.86231836  1
  O  O48  1  0.85974254  0.36163282  0.36368595  1
  O  O49  1  0.86120145  0.13806309  0.13803149  1
  O  O50  1  0.85705217  0.86053861  0.85804791  1
  O  O51  1  0.88691183  0.88915613  0.39032799  1
  O  O52  1  0.86256946  0.64031847  0.63866602  1
  O  O53  1  0.88859760  0.10735330  0.60902135  1
  O  O54  1  0.88747506  0.38769324  0.88793466  1
  O  O55  1  0.88761025  0.61194051  0.11143868  1
