# generated using pymatgen
data_La4Al2O9
_symmetry_space_group_name_H-M   'P 1'
_cell_length_a   7.95169656
_cell_length_b   11.13643870
_cell_length_c   11.60357654
_cell_angle_alpha   90.00000000
_cell_angle_beta   109.46775893
_cell_angle_gamma   90.00000000
_symmetry_Int_Tables_number   1
_chemical_formula_structural   La4Al2O9
_chemical_formula_sum   'La16 Al8 O36'
_cell_volume   968.79305284
_cell_formula_units_Z   4
loop_
 _symmetry_equiv_pos_site_id
 _symmetry_equiv_pos_as_xyz
  1  'x, y, z'
loop_
 _atom_site_type_symbol
 _atom_site_label
 _atom_site_symmetry_multiplicity
 _atom_site_fract_x
 _atom_site_fract_y
 _atom_site_fract_z
 _atom_site_occupancy
  La  La0  1  0.02571178  0.08770008  0.80973148  1
  La  La1  1  0.02571178  0.41229992  0.30973148  1
  La  La2  1  0.16296261  0.87577528  0.58383919  1
  La  La3  1  0.33496786  0.37471872  0.92950279  1
  La  La4  1  0.16296261  0.62422472  0.08383919  1
  La  La5  1  0.33496786  0.12528128  0.42950279  1
  La  La6  1  0.47546444  0.60056260  0.70983033  1
  La  La7  1  0.52453556  0.10056260  0.79016967  1
  La  La8  1  0.47546444  0.89943740  0.20983033  1
  La  La9  1  0.52453556  0.39943740  0.29016967  1
  La  La10  1  0.66503214  0.87471872  0.57049721  1
  La  La11  1  0.83703739  0.37577528  0.91616081  1
  La  La12  1  0.66503214  0.62528128  0.07049721  1
  La  La13  1  0.83703739  0.12422472  0.41616081  1
  La  La14  1  0.97428822  0.58770008  0.69026852  1
  La  La15  1  0.97428822  0.91229992  0.19026852  1
  Al  Al16  1  0.22540986  0.31175545  0.62885506  1
  Al  Al17  1  0.35062230  0.81387118  0.88131899  1
  Al  Al18  1  0.22540986  0.18824455  0.12885506  1
  Al  Al19  1  0.35062230  0.68612882  0.38131899  1
  Al  Al20  1  0.64937770  0.31387118  0.61868101  1
  Al  Al21  1  0.77459014  0.81175545  0.87114494  1
  Al  Al22  1  0.64937770  0.18612882  0.11868101  1
  Al  Al23  1  0.77459014  0.68824455  0.37114494  1
  O  O24  1  0.08048500  0.23348139  0.98368547  1
  O  O25  1  0.07642814  0.50282573  0.89379559  1
  O  O26  1  0.08048500  0.26651861  0.48368547  1
  O  O27  1  0.21753898  0.72585752  0.75505809  1
  O  O28  1  0.23055673  0.22762149  0.76163171  1
  O  O29  1  0.07642814  0.99717427  0.39379559  1
  O  O30  1  0.21725650  0.46576077  0.66437547  1
  O  O31  1  0.30136522  0.96527979  0.83274092  1
  O  O32  1  0.21753898  0.77414248  0.25505809  1
  O  O33  1  0.23055673  0.27237851  0.26163171  1
  O  O34  1  0.36148577  0.72868844  0.53109659  1
  O  O35  1  0.21725650  0.03423923  0.16437547  1
  O  O36  1  0.43425635  0.26438555  0.61748052  1
  O  O37  1  0.30136522  0.53472021  0.33274092  1
  O  O38  1  0.56783410  0.49298033  0.89613881  1
  O  O39  1  0.43216590  0.99298033  0.60386119  1
  O  O40  1  0.56574365  0.76438555  0.88251948  1
  O  O41  1  0.63851423  0.22868844  0.96890341  1
  O  O42  1  0.36148577  0.77131156  0.03109659  1
  O  O43  1  0.43425635  0.23561445  0.11748052  1
  O  O44  1  0.56783410  0.00701967  0.39613881  1
  O  O45  1  0.43216590  0.50701967  0.10386119  1
  O  O46  1  0.69863478  0.46527979  0.66725908  1
  O  O47  1  0.56574365  0.73561445  0.38251948  1
  O  O48  1  0.78274350  0.96576077  0.83562453  1
  O  O49  1  0.63851423  0.27131156  0.46890341  1
  O  O50  1  0.76944327  0.72762149  0.73836829  1
  O  O51  1  0.78246102  0.22585752  0.74494191  1
  O  O52  1  0.69863478  0.03472021  0.16725908  1
  O  O53  1  0.78274350  0.53423923  0.33562453  1
  O  O54  1  0.92357186  0.00282573  0.60620441  1
  O  O55  1  0.76944327  0.77237851  0.23836829  1
  O  O56  1  0.78246102  0.27414248  0.24494191  1
  O  O57  1  0.91951500  0.73348139  0.51631453  1
  O  O58  1  0.92357186  0.49717427  0.10620441  1
  O  O59  1  0.91951500  0.76651861  0.01631453  1
