# generated using pymatgen
data_Y9U5O28
_symmetry_space_group_name_H-M   'P 1'
_cell_length_a   7.59571766
_cell_length_b   6.53110089
_cell_length_c   11.88079419
_cell_angle_alpha   80.17594088
_cell_angle_beta   106.99593696
_cell_angle_gamma   106.19354737
_symmetry_Int_Tables_number   1
_chemical_formula_structural   Y9U5O28
_chemical_formula_sum   'Y9 U5 O28'
_cell_volume   538.72965389
_cell_formula_units_Z   1
loop_
 _symmetry_equiv_pos_site_id
 _symmetry_equiv_pos_as_xyz
  1  'x, y, z'
loop_
 _atom_site_type_symbol
 _atom_site_label
 _atom_site_symmetry_multiplicity
 _atom_site_fract_x
 _atom_site_fract_y
 _atom_site_fract_z
 _atom_site_occupancy
  Y  Y0  1  0.49912896  0.99680404  0.00166685  1
  Y  Y1  1  0.92944204  0.43176696  0.14119015  1
  Y  Y2  1  0.85749026  0.85714201  0.28531219  1
  Y  Y3  1  0.28379123  0.28301018  0.42841251  1
  Y  Y4  1  0.35771945  0.85645779  0.28703464  1
  Y  Y5  1  0.71428600  0.71428600  0.57142900  1
  Y  Y6  1  0.14477977  0.14556182  0.71444449  1
  Y  Y7  1  0.07085255  0.57211421  0.85582236  1
  Y  Y8  1  0.57108074  0.57142899  0.85754481  1
  U  U9  1  0.99888051  0.99601593  0.00113345  1
  U  U10  1  0.42969149  0.43255507  0.14172455  1
  U  U11  1  0.78699889  0.28491158  0.42660105  1
  U  U12  1  0.21428600  0.71428600  0.57142900  1
  U  U13  1  0.64157311  0.14366042  0.71625595  1
  O  O14  1  0.59831926  0.36067171  0.04480764  1
  O  O15  1  0.31714218  0.08487210  0.10998097  1
  O  O16  1  0.83025174  0.06790029  0.09804936  1
  O  O17  1  0.11142982  0.34369890  0.03287603  1
  O  O18  1  0.25836130  0.49077765  0.24179838  1
  O  O19  1  0.04066462  0.79489924  0.17254863  1
  O  O20  1  0.47462230  0.22339904  0.31732657  1
  O  O21  1  0.53631580  0.77143544  0.17875292  1
  O  O22  1  0.74240074  0.49251052  0.25374481  1
  O  O23  1  0.95624093  0.22200640  0.32432431  1
  O  O24  1  0.68378655  0.94723108  0.39851877  1
  O  O25  1  0.09103724  0.35523184  0.53196093  1
  O  O26  1  0.38557979  0.63842971  0.47505662  1
  O  O27  1  0.17543417  0.91639277  0.40517822  1
  O  O28  1  0.61194376  0.34465706  0.53166724  1
  O  O29  1  0.33753476  0.07334016  0.61089607  1
  O  O30  1  0.88939702  0.62225857  0.46223190  1
  O  O31  1  0.81662824  0.08391394  0.61118976  1
  O  O32  1  0.74478445  0.48134092  0.74433823  1
  O  O33  1  0.04299221  0.79014129  0.66780038  1
  O  O34  1  0.47233107  0.20656460  0.81853369  1
  O  O35  1  0.53917398  0.80631243  0.68062510  1
  O  O36  1  0.25313683  0.51217823  0.73767878  1
  O  O37  1  0.95394970  0.20517196  0.82553043  1
  O  O38  1  0.89225520  0.65713656  0.96410408  1
  O  O39  1  0.68617026  0.93606148  0.88911219  1
  O  O40  1  0.38790638  0.63367276  0.97030837  1
  O  O41  1  0.17021070  0.93779435  0.90105862  1
