# generated using pymatgen
data_La4Ga2O9
_symmetry_space_group_name_H-M   'P 1'
_cell_length_a   8.00276923
_cell_length_b   11.25720341
_cell_length_c   11.73751585
_cell_angle_alpha   90.00000000
_cell_angle_beta   109.34935400
_cell_angle_gamma   90.00000000
_symmetry_Int_Tables_number   1
_chemical_formula_structural   La4Ga2O9
_chemical_formula_sum   'La16 Ga8 O36'
_cell_volume   997.69138442
_cell_formula_units_Z   4
loop_
 _symmetry_equiv_pos_site_id
 _symmetry_equiv_pos_as_xyz
  1  'x, y, z'
loop_
 _atom_site_type_symbol
 _atom_site_label
 _atom_site_symmetry_multiplicity
 _atom_site_fract_x
 _atom_site_fract_y
 _atom_site_fract_z
 _atom_site_occupancy
  La  La0  1  0.02442503  0.09076428  0.80640524  1
  La  La1  1  0.02442503  0.40923572  0.30640524  1
  La  La2  1  0.16375481  0.87910088  0.58667263  1
  La  La3  1  0.33516133  0.37665805  0.92938690  1
  La  La4  1  0.16375481  0.62089912  0.08667263  1
  La  La5  1  0.33516133  0.12334195  0.42938690  1
  La  La6  1  0.47660038  0.60273912  0.71386270  1
  La  La7  1  0.52339962  0.10273912  0.78613730  1
  La  La8  1  0.47660038  0.89726088  0.21386270  1
  La  La9  1  0.52339962  0.39726088  0.28613730  1
  La  La10  1  0.66483867  0.87665805  0.57061310  1
  La  La11  1  0.83624519  0.37910088  0.91332737  1
  La  La12  1  0.66483867  0.62334195  0.07061310  1
  La  La13  1  0.83624519  0.12089912  0.41332737  1
  La  La14  1  0.97557497  0.59076428  0.69359476  1
  La  La15  1  0.97557497  0.90923572  0.19359476  1
  Ga  Ga16  1  0.22024351  0.31290058  0.62584174  1
  Ga  Ga17  1  0.34455417  0.81555238  0.88454235  1
  Ga  Ga18  1  0.22024351  0.18709942  0.12584174  1
  Ga  Ga19  1  0.34455417  0.68444762  0.38454235  1
  Ga  Ga20  1  0.65544583  0.31555238  0.61545765  1
  Ga  Ga21  1  0.77975649  0.81290058  0.87415826  1
  Ga  Ga22  1  0.65544583  0.18444762  0.11545765  1
  Ga  Ga23  1  0.77975649  0.68709942  0.37415826  1
  O  O24  1  0.07918466  0.23804941  0.97564928  1
  O  O25  1  0.07720635  0.50469923  0.89490970  1
  O  O26  1  0.21374141  0.72550997  0.75103356  1
  O  O27  1  0.23295572  0.22701389  0.76546860  1
  O  O28  1  0.07918466  0.26195059  0.47564928  1
  O  O29  1  0.07720635  0.99530077  0.39490970  1
  O  O30  1  0.29811317  0.97014514  0.82793042  1
  O  O31  1  0.21592244  0.47154108  0.66372537  1
  O  O32  1  0.21374141  0.77449003  0.25103356  1
  O  O33  1  0.23295572  0.27298611  0.26546860  1
  O  O34  1  0.36217194  0.73122832  0.53878609  1
  O  O35  1  0.29811317  0.52985486  0.32793042  1
  O  O36  1  0.43546439  0.25286055  0.61522889  1
  O  O37  1  0.56860362  0.49255567  0.89708323  1
  O  O38  1  0.21592244  0.02845892  0.16372537  1
  O  O39  1  0.43139638  0.99255567  0.60291677  1
  O  O40  1  0.56453561  0.75286055  0.88477111  1
  O  O41  1  0.63782806  0.23122832  0.96121391  1
  O  O42  1  0.36217194  0.76877168  0.03878609  1
  O  O43  1  0.43546439  0.24713945  0.11522889  1
  O  O44  1  0.56860362  0.00744433  0.39708323  1
  O  O45  1  0.78407756  0.97154108  0.83627463  1
  O  O46  1  0.43139638  0.50744433  0.10291677  1
  O  O47  1  0.56453561  0.74713945  0.38477111  1
  O  O48  1  0.70188683  0.47014514  0.67206958  1
  O  O49  1  0.63782806  0.26877168  0.46121391  1
  O  O50  1  0.76704428  0.72701389  0.73453140  1
  O  O51  1  0.78625859  0.22550997  0.74896644  1
  O  O52  1  0.78407756  0.52845892  0.33627463  1
  O  O53  1  0.70188683  0.02985486  0.17206958  1
  O  O54  1  0.92279365  0.00469923  0.60509030  1
  O  O55  1  0.92081534  0.73804941  0.52435072  1
  O  O56  1  0.76704428  0.77298611  0.23453140  1
  O  O57  1  0.78625859  0.27449003  0.24896644  1
  O  O58  1  0.92279365  0.49530077  0.10509030  1
  O  O59  1  0.92081534  0.76195059  0.02435072  1
