# generated using pymatgen
data_Mn7(P2O7)4
_symmetry_space_group_name_H-M   'P 1'
_cell_length_a   6.60516284
_cell_length_b   6.60516284
_cell_length_c   23.95444305
_cell_angle_alpha   90.00000000
_cell_angle_beta   90.00000000
_cell_angle_gamma   82.14998648
_symmetry_Int_Tables_number   1
_chemical_formula_structural   Mn7(P2O7)4
_chemical_formula_sum   'Mn14 P16 O56'
_cell_volume   1035.29513150
_cell_formula_units_Z   2
loop_
 _symmetry_equiv_pos_site_id
 _symmetry_equiv_pos_as_xyz
  1  'x, y, z'
loop_
 _atom_site_type_symbol
 _atom_site_label
 _atom_site_symmetry_multiplicity
 _atom_site_fract_x
 _atom_site_fract_y
 _atom_site_fract_z
 _atom_site_occupancy
  Mn  Mn0  1  0.07247630  0.92752370  0.00000000  1
  Mn  Mn1  1  0.32505473  0.96274167  0.13555260  1
  Mn  Mn2  1  0.03725833  0.67494527  0.86444740  1
  Mn  Mn3  1  0.30978945  0.69021055  0.50000000  1
  Mn  Mn4  1  0.28420465  0.42003295  0.62335015  1
  Mn  Mn5  1  0.57996705  0.71579535  0.37664985  1
  Mn  Mn6  1  0.27845851  0.27845851  0.25000000  1
  Mn  Mn7  1  0.72154149  0.72154149  0.75000000  1
  Mn  Mn8  1  0.71579535  0.57996705  0.12335015  1
  Mn  Mn9  1  0.42003295  0.28420465  0.87664985  1
  Mn  Mn10  1  0.69021055  0.30978945  0.00000000  1
  Mn  Mn11  1  0.67494527  0.03725833  0.63555260  1
  Mn  Mn12  1  0.96274167  0.32505473  0.36444740  1
  Mn  Mn13  1  0.92752370  0.07247630  0.50000000  1
  P  P14  1  0.07276829  0.81932646  0.37638093  1
  P  P15  1  0.18067354  0.92723171  0.62361907  1
  P  P16  1  0.29779943  0.77845440  0.26805844  1
  P  P17  1  0.22154560  0.70220057  0.73194156  1
  P  P18  1  0.24100629  0.47633106  0.11896546  1
  P  P19  1  0.52366894  0.75899371  0.88103454  1
  P  P20  1  0.59634344  0.81203968  0.00508960  1
  P  P21  1  0.18796032  0.40365656  0.99491040  1
  P  P22  1  0.81203968  0.59634344  0.49491040  1
  P  P23  1  0.40365656  0.18796032  0.50508960  1
  P  P24  1  0.47633106  0.24100629  0.38103454  1
  P  P25  1  0.75899371  0.52366894  0.61896546  1
  P  P26  1  0.77845440  0.29779943  0.23194156  1
  P  P27  1  0.70220057  0.22154560  0.76805844  1
  P  P28  1  0.81932646  0.07276829  0.12361907  1
  P  P29  1  0.92723171  0.18067354  0.87638093  1
  O  O30  1  0.01024175  0.97384735  0.90265685  1
  O  O31  1  0.02615265  0.98975825  0.09734315  1
  O  O32  1  0.12916935  0.87710820  0.31350618  1
  O  O33  1  0.12289180  0.87083065  0.68649382  1
  O  O34  1  0.29769001  0.95605296  0.22626751  1
  O  O35  1  0.04394704  0.70230999  0.77373249  1
  O  O36  1  0.02128251  0.57469302  0.11988052  1
  O  O37  1  0.42530698  0.97871749  0.88011948  1
  O  O38  1  0.38253825  0.90129653  0.02296574  1
  O  O39  1  0.09870347  0.61746175  0.97703426  1
  O  O40  1  0.27009119  0.71882151  0.40522826  1
  O  O41  1  0.28117849  0.72990881  0.59477174  1
  O  O42  1  0.40789957  0.77229021  0.75774690  1
  O  O43  1  0.22770979  0.59210043  0.24225310  1
  O  O44  1  0.66599977  0.91653518  0.12796894  1
  O  O45  1  0.08346482  0.33400023  0.87203106  1
  O  O46  1  0.39154864  0.63382054  0.12868578  1
  O  O47  1  0.36617946  0.60845136  0.87131422  1
  O  O48  1  0.74135021  0.97380466  0.00356409  1
  O  O49  1  0.02619534  0.25864979  0.99643591  1
  O  O50  1  0.50425025  0.73138520  0.29908391  1
  O  O51  1  0.26861480  0.49574975  0.70091609  1
  O  O52  1  0.29461252  0.39750710  0.05542906  1
  O  O53  1  0.60249290  0.70538748  0.94457094  1
  O  O54  1  0.61787482  0.68361229  0.46081607  1
  O  O55  1  0.31638771  0.38212518  0.53918393  1
  O  O56  1  0.70699059  0.71531797  0.65480425  1
  O  O57  1  0.28468203  0.29300941  0.34519575  1
  O  O58  1  0.29300941  0.28468203  0.15480425  1
  O  O59  1  0.71531797  0.70699059  0.84519575  1
  O  O60  1  0.38212518  0.31638771  0.96081607  1
  O  O61  1  0.68361229  0.61787482  0.03918393  1
  O  O62  1  0.39750710  0.29461252  0.44457094  1
  O  O63  1  0.70538748  0.60249290  0.55542906  1
  O  O64  1  0.73138520  0.50425025  0.20091609  1
  O  O65  1  0.49574975  0.26861480  0.79908391  1
  O  O66  1  0.25864979  0.02619534  0.50356409  1
  O  O67  1  0.97380466  0.74135021  0.49643591  1
  O  O68  1  0.63382054  0.39154864  0.37131422  1
  O  O69  1  0.60845136  0.36617946  0.62868578  1
  O  O70  1  0.33400023  0.08346482  0.62796894  1
  O  O71  1  0.91653518  0.66599977  0.37203106  1
  O  O72  1  0.59210043  0.22770979  0.25774690  1
  O  O73  1  0.77229021  0.40789957  0.74225310  1
  O  O74  1  0.71882151  0.27009119  0.09477174  1
  O  O75  1  0.72990881  0.28117849  0.90522826  1
  O  O76  1  0.61746175  0.09870347  0.52296574  1
  O  O77  1  0.90129653  0.38253825  0.47703426  1
  O  O78  1  0.57469302  0.02128251  0.38011948  1
  O  O79  1  0.97871749  0.42530698  0.61988052  1
  O  O80  1  0.70230999  0.04394704  0.72626751  1
  O  O81  1  0.95605296  0.29769001  0.27373249  1
  O  O82  1  0.87710820  0.12916935  0.18649382  1
  O  O83  1  0.87083065  0.12289180  0.81350618  1
  O  O84  1  0.97384735  0.01024175  0.59734315  1
  O  O85  1  0.98975825  0.02615265  0.40265685  1
