# generated using pymatgen
data_Tb2WO6
_symmetry_space_group_name_H-M   'P 1'
_cell_length_a   5.30600100
_cell_length_b   9.18415536
_cell_length_c   10.03980950
_cell_angle_alpha   90.00000000
_cell_angle_beta   90.00000000
_cell_angle_gamma   90.00000000
_symmetry_Int_Tables_number   1
_chemical_formula_structural   Tb2WO6
_chemical_formula_sum   'Tb8 W4 O24'
_cell_volume   489.25133746
_cell_formula_units_Z   4
loop_
 _symmetry_equiv_pos_site_id
 _symmetry_equiv_pos_as_xyz
  1  'x, y, z'
loop_
 _atom_site_type_symbol
 _atom_site_label
 _atom_site_symmetry_multiplicity
 _atom_site_fract_x
 _atom_site_fract_y
 _atom_site_fract_z
 _atom_site_occupancy
  Tb  Tb0  1  0.02002026  0.39674290  0.03477758  1
  Tb  Tb1  1  0.03760316  0.28086002  0.62872653  1
  Tb  Tb2  1  0.46239684  0.71913998  0.12872653  1
  Tb  Tb3  1  0.47997974  0.60325710  0.53477758  1
  Tb  Tb4  1  0.52002026  0.10325710  0.96522242  1
  Tb  Tb5  1  0.53760316  0.21913998  0.37127347  1
  Tb  Tb6  1  0.96239684  0.78086002  0.87127347  1
  Tb  Tb7  1  0.97997974  0.89674290  0.46522242  1
  W  W8  1  0.03954180  0.00450230  0.15212601  1
  W  W9  1  0.46045820  0.99549770  0.65212601  1
  W  W10  1  0.53954180  0.49549770  0.84787399  1
  W  W11  1  0.96045820  0.50450230  0.34787399  1
  O  O12  1  0.08440488  0.65630080  0.46963695  1
  O  O13  1  0.17499007  0.54759608  0.20262715  1
  O  O14  1  0.18183502  0.86182164  0.68092024  1
  O  O15  1  0.19230452  0.85996448  0.26416175  1
  O  O16  1  0.23056022  0.38593052  0.43276025  1
  O  O17  1  0.25126887  0.08975750  0.50684552  1
  O  O18  1  0.24873113  0.91024250  0.00684552  1
  O  O19  1  0.26943978  0.61406948  0.93276025  1
  O  O20  1  0.30769548  0.14003552  0.76416175  1
  O  O21  1  0.31816498  0.13817836  0.18092024  1
  O  O22  1  0.32500993  0.45240392  0.70262715  1
  O  O23  1  0.41559512  0.34369920  0.96963695  1
  O  O24  1  0.58440488  0.84369920  0.53036305  1
  O  O25  1  0.67499007  0.95240392  0.79737285  1
  O  O26  1  0.68183502  0.63817836  0.31907976  1
  O  O27  1  0.69230452  0.64003552  0.73583825  1
  O  O28  1  0.73056022  0.11406948  0.56723975  1
  O  O29  1  0.75126887  0.41024250  0.49315448  1
  O  O30  1  0.74873113  0.58975750  0.99315448  1
  O  O31  1  0.76943978  0.88593052  0.06723975  1
  O  O32  1  0.80769548  0.35996448  0.23583825  1
  O  O33  1  0.81816498  0.36182164  0.81907976  1
  O  O34  1  0.82500993  0.04759608  0.29737285  1
  O  O35  1  0.91559512  0.15630080  0.03036305  1
