# generated using pymatgen
data_KPH3O4F
_symmetry_space_group_name_H-M   'P 1'
_cell_length_a   6.22299180
_cell_length_b   12.27229495
_cell_length_c   7.05187053
_cell_angle_alpha   90.00000000
_cell_angle_beta   114.22420717
_cell_angle_gamma   90.00000000
_symmetry_Int_Tables_number   1
_chemical_formula_structural   KPH3O4F
_chemical_formula_sum   'K4 P4 H12 O16 F4'
_cell_volume   491.13272010
_cell_formula_units_Z   4
loop_
 _symmetry_equiv_pos_site_id
 _symmetry_equiv_pos_as_xyz
  1  'x, y, z'
loop_
 _atom_site_type_symbol
 _atom_site_label
 _atom_site_symmetry_multiplicity
 _atom_site_fract_x
 _atom_site_fract_y
 _atom_site_fract_z
 _atom_site_occupancy
  K  K0  1  0.14748677  0.13227075  0.88294377  1
  K  K1  1  0.14748677  0.36772925  0.38294377  1
  K  K2  1  0.85251323  0.63227075  0.61705623  1
  K  K3  1  0.85251323  0.86772925  0.11705623  1
  P  P4  1  0.34628726  0.86104568  0.59276134  1
  P  P5  1  0.65371274  0.36104568  0.90723866  1
  P  P6  1  0.34628726  0.63895432  0.09276134  1
  P  P7  1  0.65371274  0.13895432  0.40723866  1
  H  H8  1  0.03374313  0.88500408  0.71475802  1
  H  H9  1  0.03374313  0.61499592  0.21475802  1
  H  H10  1  0.44683213  0.70795451  0.77904526  1
  H  H11  1  0.46947419  0.51990868  0.81190869  1
  H  H12  1  0.53052581  0.01990868  0.68809131  1
  H  H13  1  0.55316787  0.20795451  0.72095474  1
  H  H14  1  0.44683213  0.79204549  0.27904526  1
  H  H15  1  0.46947419  0.98009132  0.31190869  1
  H  H16  1  0.53052581  0.48009132  0.18809131  1
  H  H17  1  0.55316787  0.29204549  0.22095474  1
  H  H18  1  0.96625687  0.38500408  0.78524198  1
  H  H19  1  0.96625687  0.11499592  0.28524198  1
  O  O20  1  0.09702148  0.83700207  0.57336721  1
  O  O21  1  0.36367806  0.62030781  0.88507733  1
  O  O22  1  0.09702148  0.66299793  0.07336721  1
  O  O23  1  0.44493010  0.96409603  0.73964902  1
  O  O24  1  0.48404136  0.26227239  0.79321828  1
  O  O25  1  0.51595864  0.76227239  0.70678172  1
  O  O26  1  0.36367806  0.87969219  0.38507733  1
  O  O27  1  0.55506990  0.46409603  0.76035098  1
  O  O28  1  0.44493010  0.53590397  0.23964902  1
  O  O29  1  0.63632194  0.12030781  0.61492267  1
  O  O30  1  0.48404136  0.23772761  0.29321828  1
  O  O31  1  0.51595864  0.73772761  0.20678172  1
  O  O32  1  0.55506990  0.03590397  0.26035098  1
  O  O33  1  0.90297852  0.33700207  0.92663279  1
  O  O34  1  0.63632194  0.37969219  0.11492267  1
  O  O35  1  0.90297852  0.16299793  0.42663279  1
  F  F36  1  0.01185165  0.42250326  0.67386421  1
  F  F37  1  0.01185165  0.07749674  0.17386421  1
  F  F38  1  0.98814835  0.92250326  0.82613579  1
  F  F39  1  0.98814835  0.57749674  0.32613579  1
