# generated using pymatgen
data_Ce(ClO4)4
_symmetry_space_group_name_H-M   'P 1'
_cell_length_a   8.06323114
_cell_length_b   13.99120367
_cell_length_c   8.06323114
_cell_angle_alpha   75.34651782
_cell_angle_beta   116.13310638
_cell_angle_gamma   104.65348218
_symmetry_Int_Tables_number   1
_chemical_formula_structural   Ce(ClO4)4
_chemical_formula_sum   'Ce2 Cl8 O32'
_cell_volume   779.53203988
_cell_formula_units_Z   2
loop_
 _symmetry_equiv_pos_site_id
 _symmetry_equiv_pos_as_xyz
  1  'x, y, z'
loop_
 _atom_site_type_symbol
 _atom_site_label
 _atom_site_symmetry_multiplicity
 _atom_site_fract_x
 _atom_site_fract_y
 _atom_site_fract_z
 _atom_site_occupancy
  Ce  Ce0  1  0.40459603  0.90261819  0.64963956  1
  Ce  Ce1  1  0.35036044  0.40261819  0.59540397  1
  Cl  Cl2  1  0.58011275  0.73362837  0.95743338  1
  Cl  Cl3  1  0.04256662  0.23362837  0.41988725  1
  Cl  Cl4  1  0.16801502  0.57401609  0.30096856  1
  Cl  Cl5  1  0.74739279  0.50141398  0.63013847  1
  Cl  Cl6  1  0.69903144  0.07401609  0.83198498  1
  Cl  Cl7  1  0.99319601  0.83716021  0.58964722  1
  Cl  Cl8  1  0.36986153  0.00141398  0.25260821  1
  Cl  Cl9  1  0.41035178  0.33716021  0.00680399  1
  O  O10  1  0.13038514  0.92557410  0.67550947  1
  O  O11  1  0.48404626  0.81273968  0.96455560  1
  O  O12  1  0.11532414  0.79455217  0.53313170  1
  O  O13  1  0.32449053  0.42557410  0.86961486  1
  O  O14  1  0.03544440  0.31273968  0.51595374  1
  O  O15  1  0.55398378  0.75898515  0.75225263  1
  O  O16  1  0.19215210  0.54345268  0.50440706  1
  O  O17  1  0.71626792  0.99321682  0.74548992  1
  O  O18  1  0.46686830  0.29455217  0.88467586  1
  O  O19  1  0.44437635  0.90552035  0.37265742  1
  O  O20  1  0.21171370  0.97854766  0.08754052  1
  O  O21  1  0.61737457  0.53341517  0.68983291  1
  O  O22  1  0.27597322  0.66980426  0.27550210  1
  O  O23  1  0.24774737  0.25898515  0.44601622  1
  O  O24  1  0.49559294  0.04345268  0.80784790  1
  O  O25  1  0.25451008  0.49321682  0.28373208  1
  O  O26  1  0.94420119  0.76600317  0.72809922  1
  O  O27  1  0.62734258  0.40552035  0.55562365  1
  O  O28  1  0.91245948  0.47854766  0.78828630  1
  O  O29  1  0.83975196  0.87017874  0.42696665  1
  O  O30  1  0.31016709  0.03341517  0.38262543  1
  O  O31  1  0.72449790  0.16980426  0.72402678  1
  O  O32  1  0.77725233  0.57375109  0.48210936  1
  O  O33  1  0.27190078  0.26600317  0.05579881  1
  O  O34  1  0.48162442  0.63646743  0.99180899  1
  O  O35  1  0.57303335  0.37017874  0.16024804  1
  O  O36  1  0.77390545  0.74989850  0.07570469  1
  O  O37  1  0.51789064  0.07375109  0.22274767  1
  O  O38  1  0.00819101  0.13646743  0.51837558  1
  O  O39  1  0.97506885  0.56516618  0.17990055  1
  O  O40  1  0.92429531  0.24989850  0.22609455  1
  O  O41  1  0.82009945  0.06516618  0.02493115  1
