# generated using pymatgen
data_LiLa3MnO7
_symmetry_space_group_name_H-M   'P 1'
_cell_length_a   5.45762322
_cell_length_b   5.47317295
_cell_length_c   20.27579197
_cell_angle_alpha   89.89266583
_cell_angle_beta   90.00066531
_cell_angle_gamma   90.00121014
_symmetry_Int_Tables_number   1
_chemical_formula_structural   LiLa3MnO7
_chemical_formula_sum   'Li4 La12 Mn4 O28'
_cell_volume   605.64730108
_cell_formula_units_Z   4
loop_
 _symmetry_equiv_pos_site_id
 _symmetry_equiv_pos_as_xyz
  1  'x, y, z'
loop_
 _atom_site_type_symbol
 _atom_site_label
 _atom_site_symmetry_multiplicity
 _atom_site_fract_x
 _atom_site_fract_y
 _atom_site_fract_z
 _atom_site_occupancy
  Li  Li0  1  0.24827941  0.75227829  0.90507592  1
  Li  Li1  1  0.25173057  0.25226545  0.40507574  1
  Li  Li2  1  0.74827471  0.74775102  0.59492269  1
  Li  Li3  1  0.75173333  0.24772718  0.09492113  1
  La  La4  1  0.24586119  0.76540094  0.32153335  1
  La  La5  1  0.23954488  0.75241415  0.67926450  1
  La  La6  1  0.25108181  0.74832749  0.50005505  1
  La  La7  1  0.24891527  0.24828298  0.00005861  1
  La  La8  1  0.26045333  0.25238412  0.17926175  1
  La  La9  1  0.25415885  0.26538431  0.82152831  1
  La  La10  1  0.74586209  0.73460014  0.17846606  1
  La  La11  1  0.73953313  0.74761606  0.82073851  1
  La  La12  1  0.75111878  0.75169037  0.99994750  1
  La  La13  1  0.74893782  0.25167737  0.49994749  1
  La  La14  1  0.76049203  0.24762500  0.32073782  1
  La  La15  1  0.75416616  0.23458481  0.67846570  1
  Mn  Mn16  1  0.24719629  0.75289503  0.09579809  1
  Mn  Mn17  1  0.25282602  0.25291712  0.59580071  1
  Mn  Mn18  1  0.74716611  0.74711446  0.40420475  1
  Mn  Mn19  1  0.75283604  0.24711587  0.90419838  1
  O  O20  1  0.99631007  0.00737287  0.89318344  1
  O  O21  1  0.00439219  0.49237464  0.59710088  1
  O  O22  1  0.00370355  0.99264789  0.10681478  1
  O  O23  1  0.00467292  0.50713149  0.09690347  1
  O  O24  1  0.99395117  0.99054871  0.41225830  1
  O  O25  1  0.99560587  0.50761621  0.40289613  1
  O  O26  1  0.00604654  0.00946179  0.58774297  1
  O  O27  1  0.99532999  0.49290203  0.90308712  1
  O  O28  1  0.21951025  0.78139666  0.00462386  1
  O  O29  1  0.22913593  0.22969261  0.69954224  1
  O  O30  1  0.21920980  0.21166593  0.29188832  1
  O  O31  1  0.27084048  0.72967787  0.19952728  1
  O  O32  1  0.28078851  0.71166114  0.79189242  1
  O  O33  1  0.28053498  0.28131606  0.50462533  1
  O  O34  1  0.50368808  0.50736367  0.39317758  1
  O  O35  1  0.49394877  0.50946583  0.08773582  1
  O  O36  1  0.50466588  0.99288629  0.40307347  1
  O  O37  1  0.49561491  0.99238682  0.09711143  1
  O  O38  1  0.49533400  0.00710520  0.59692748  1
  O  O39  1  0.49630842  0.49262848  0.60682162  1
  O  O40  1  0.50439230  0.00761258  0.90289397  1
  O  O41  1  0.50603715  0.49053953  0.91226449  1
  O  O42  1  0.71946129  0.71868771  0.49537586  1
  O  O43  1  0.72914146  0.27032953  0.80046745  1
  O  O44  1  0.71922411  0.28836527  0.20810615  1
  O  O45  1  0.77084868  0.77030083  0.30045829  1
  O  O46  1  0.78079802  0.78835209  0.70811365  1
  O  O47  1  0.78051885  0.21864112  0.99538412  1
