# generated using pymatgen
data_Tm2Ti2O7
_symmetry_space_group_name_H-M   'P 1'
_cell_length_a   7.47604912
_cell_length_b   13.14741998
_cell_length_c   5.28293308
_cell_angle_alpha   90.00000000
_cell_angle_beta   90.00000000
_cell_angle_gamma   98.30676214
_symmetry_Int_Tables_number   1
_chemical_formula_structural   Tm2Ti2O7
_chemical_formula_sum   'Tm8 Ti8 O28'
_cell_volume   513.81576875
_cell_formula_units_Z   4
loop_
 _symmetry_equiv_pos_site_id
 _symmetry_equiv_pos_as_xyz
  1  'x, y, z'
loop_
 _atom_site_type_symbol
 _atom_site_label
 _atom_site_symmetry_multiplicity
 _atom_site_fract_x
 _atom_site_fract_y
 _atom_site_fract_z
 _atom_site_occupancy
  Tm  Tm0  1  0.23488461  0.92641597  0.77580277  1
  Tm  Tm1  1  0.14116355  0.56092570  0.35854213  1
  Tm  Tm2  1  0.28642901  0.13612060  0.24612588  1
  Tm  Tm3  1  0.35553871  0.38575304  0.77853616  1
  Tm  Tm4  1  0.64446129  0.61424696  0.27853616  1
  Tm  Tm5  1  0.71357099  0.86387940  0.74612588  1
  Tm  Tm6  1  0.85883645  0.43907430  0.85854213  1
  Tm  Tm7  1  0.76511539  0.07358403  0.27580277  1
  Ti  Ti8  1  0.06963779  0.32098252  0.28238967  1
  Ti  Ti9  1  0.03004297  0.12184613  0.76967921  1
  Ti  Ti10  1  0.40956304  0.67122561  0.79351422  1
  Ti  Ti11  1  0.46928675  0.87405453  0.26845081  1
  Ti  Ti12  1  0.53071325  0.12594547  0.76845081  1
  Ti  Ti13  1  0.59043696  0.32877439  0.29351422  1
  Ti  Ti14  1  0.96995703  0.87815387  0.26967921  1
  Ti  Ti15  1  0.93036221  0.67901748  0.78238967  1
  O  O16  1  0.00650571  0.17780972  0.42938432  1
  O  O17  1  0.07177051  0.40873160  0.56471255  1
  O  O18  1  0.17203675  0.68275450  0.66384249  1
  O  O19  1  0.22069974  0.88099513  0.36077895  1
  O  O20  1  0.14278188  0.43201322  0.06485606  1
  O  O21  1  0.06518109  0.02565679  0.04536282  1
  O  O22  1  0.13271234  0.23378932  0.95189100  1
  O  O23  1  0.36329993  0.61790967  0.10082728  1
  O  O24  1  0.42053135  0.82350509  0.92795691  1
  O  O25  1  0.32646226  0.30461503  0.38683267  1
  O  O26  1  0.27173382  0.08838439  0.64476560  1
  O  O27  1  0.41350730  0.55092004  0.58796670  1
  O  O28  1  0.55100218  0.97284971  0.54238568  1
  O  O29  1  0.51798989  0.76338391  0.45373914  1
  O  O30  1  0.48201011  0.23661609  0.95373914  1
  O  O31  1  0.44899782  0.02715029  0.04238568  1
  O  O32  1  0.58649270  0.44907996  0.08796670  1
  O  O33  1  0.72826618  0.91161561  0.14476560  1
  O  O34  1  0.67353774  0.69538497  0.88683267  1
  O  O35  1  0.57946865  0.17649491  0.42795691  1
  O  O36  1  0.63670007  0.38209033  0.60082728  1
  O  O37  1  0.86728766  0.76621068  0.45189100  1
  O  O38  1  0.93481891  0.97434321  0.54536282  1
  O  O39  1  0.85721812  0.56798678  0.56485606  1
  O  O40  1  0.77930026  0.11900487  0.86077895  1
  O  O41  1  0.82796325  0.31724550  0.16384249  1
  O  O42  1  0.92822949  0.59126840  0.06471255  1
  O  O43  1  0.99349429  0.82219028  0.92938432  1
