# generated using pymatgen
data_CaAs2HF13
_symmetry_space_group_name_H-M   'P 1'
_cell_length_a   9.71793008
_cell_length_b   9.48274942
_cell_length_c   10.70093220
_cell_angle_alpha   90.00000000
_cell_angle_beta   103.79947201
_cell_angle_gamma   90.00000000
_symmetry_Int_Tables_number   1
_chemical_formula_structural   CaAs2HF13
_chemical_formula_sum   'Ca4 As8 H4 F52'
_cell_volume   957.65686150
_cell_formula_units_Z   4
loop_
 _symmetry_equiv_pos_site_id
 _symmetry_equiv_pos_as_xyz
  1  'x, y, z'
loop_
 _atom_site_type_symbol
 _atom_site_label
 _atom_site_symmetry_multiplicity
 _atom_site_fract_x
 _atom_site_fract_y
 _atom_site_fract_z
 _atom_site_occupancy
  Ca  Ca0  1  0.24719900  0.83173837  0.50045708  1
  Ca  Ca1  1  0.24719900  0.66826163  0.00045708  1
  Ca  Ca2  1  0.75280100  0.33173837  0.99954292  1
  Ca  Ca3  1  0.75280100  0.16826163  0.49954292  1
  As  As4  1  0.00936609  0.34404730  0.81357863  1
  As  As5  1  0.00936609  0.15595270  0.31357863  1
  As  As6  1  0.51056462  0.65527666  0.81416144  1
  As  As7  1  0.48943538  0.15527666  0.68583856  1
  As  As8  1  0.51056462  0.84472334  0.31416144  1
  As  As9  1  0.48943538  0.34472334  0.18583856  1
  As  As10  1  0.99063391  0.84404730  0.68642137  1
  As  As11  1  0.99063391  0.65595270  0.18642137  1
  H  H12  1  0.31109618  0.97587991  0.94905897  1
  H  H13  1  0.31109618  0.52412009  0.44905897  1
  H  H14  1  0.68890382  0.47587991  0.55094103  1
  H  H15  1  0.68890382  0.02412009  0.05094103  1
  F  F16  1  0.11101666  0.46542225  0.92803156  1
  F  F17  1  0.04647394  0.43677175  0.68607737  1
  F  F18  1  0.10330505  0.72385244  0.79583734  1
  F  F19  1  0.03840552  0.75331804  0.55419287  1
  F  F20  1  0.15293455  0.23116461  0.83086394  1
  F  F21  1  0.14520533  0.94783185  0.68962617  1
  F  F22  1  0.11101666  0.03457775  0.42803156  1
  F  F23  1  0.04647394  0.06322825  0.18607737  1
  F  F24  1  0.10330505  0.77614756  0.29583734  1
  F  F25  1  0.03840552  0.74668196  0.05419287  1
  F  F26  1  0.15293455  0.26883539  0.33086394  1
  F  F27  1  0.14520533  0.55216815  0.18962617  1
  F  F28  1  0.25456043  0.57327194  0.49517428  1
  F  F29  1  0.35861853  0.55082824  0.81209447  1
  F  F30  1  0.34498277  0.26604911  0.67050862  1
  F  F31  1  0.39900891  0.77579514  0.70503904  1
  F  F32  1  0.46170756  0.74788251  0.94565255  1
  F  F33  1  0.38625638  0.03433177  0.57290823  1
  F  F34  1  0.45211311  0.06216257  0.81556619  1
  F  F35  1  0.25456043  0.92672806  0.99517428  1
  F  F36  1  0.35861853  0.94917176  0.31209447  1
  F  F37  1  0.34498277  0.23395089  0.17050862  1
  F  F38  1  0.39900891  0.72420486  0.20503904  1
  F  F39  1  0.46170756  0.75211749  0.44565255  1
  F  F40  1  0.54788689  0.56216257  0.68443381  1
  F  F41  1  0.61374362  0.53433177  0.92709177  1
  F  F42  1  0.38625638  0.46566823  0.07290823  1
  F  F43  1  0.45211311  0.43783743  0.31556619  1
  F  F44  1  0.53829244  0.24788251  0.55434745  1
  F  F45  1  0.60099109  0.27579514  0.79496096  1
  F  F46  1  0.65501723  0.76604911  0.82949138  1
  F  F47  1  0.64138147  0.05082824  0.68790553  1
  F  F48  1  0.74543957  0.07327194  0.00482572  1
  F  F49  1  0.54788689  0.93783743  0.18443381  1
  F  F50  1  0.61374362  0.96566823  0.42709177  1
  F  F51  1  0.53829244  0.25211749  0.05434745  1
  F  F52  1  0.60099109  0.22420486  0.29496096  1
  F  F53  1  0.65501723  0.73395089  0.32949138  1
  F  F54  1  0.64138147  0.44917176  0.18790553  1
  F  F55  1  0.74543957  0.42672806  0.50482572  1
  F  F56  1  0.85479467  0.44783185  0.81037383  1
  F  F57  1  0.84706545  0.73116461  0.66913606  1
  F  F58  1  0.96159448  0.25331804  0.94580713  1
  F  F59  1  0.89669495  0.22385244  0.70416266  1
  F  F60  1  0.95352606  0.93677175  0.81392263  1
  F  F61  1  0.88898334  0.96542225  0.57196844  1
  F  F62  1  0.85479467  0.05216815  0.31037383  1
  F  F63  1  0.84706545  0.76883539  0.16913606  1
  F  F64  1  0.96159448  0.24668196  0.44580713  1
  F  F65  1  0.89669495  0.27614756  0.20416266  1
  F  F66  1  0.95352606  0.56322825  0.31392263  1
  F  F67  1  0.88898334  0.53457775  0.07196844  1
