# generated using pymatgen
data_Na3CdPCO7
_symmetry_space_group_name_H-M   'P 1'
_cell_length_a   9.17599397
_cell_length_b   7.00416387
_cell_length_c   5.25516800
_cell_angle_alpha   90.00000000
_cell_angle_beta   90.16386086
_cell_angle_gamma   90.00000000
_symmetry_Int_Tables_number   1
_chemical_formula_structural   Na3CdPCO7
_chemical_formula_sum   'Na6 Cd2 P2 C2 O14'
_cell_volume   337.74913550
_cell_formula_units_Z   2
loop_
 _symmetry_equiv_pos_site_id
 _symmetry_equiv_pos_as_xyz
  1  'x, y, z'
loop_
 _atom_site_type_symbol
 _atom_site_label
 _atom_site_symmetry_multiplicity
 _atom_site_fract_x
 _atom_site_fract_y
 _atom_site_fract_z
 _atom_site_occupancy
  Na  Na0  1  0.08336053  0.25000000  0.75960811  1
  Na  Na1  1  0.25890731  0.00284508  0.24639871  1
  Na  Na2  1  0.25890731  0.49715492  0.24639871  1
  Na  Na3  1  0.74109269  0.50284508  0.75360129  1
  Na  Na4  1  0.74109269  0.99715492  0.75360129  1
  Na  Na5  1  0.91663947  0.75000000  0.24039189  1
  Cd  Cd6  1  0.36442566  0.75000000  0.76988659  1
  Cd  Cd7  1  0.63557434  0.25000000  0.23011341  1
  P  P8  1  0.40740032  0.25000000  0.70243798  1
  P  P9  1  0.59259968  0.75000000  0.29756202  1
  C  C10  1  0.05659421  0.75000000  0.73584664  1
  C  C11  1  0.94340579  0.25000000  0.26415336  1
  O  O12  1  0.08431957  0.25000000  0.28709353  1
  O  O13  1  0.11724559  0.75000000  0.96017291  1
  O  O14  1  0.13830821  0.75000000  0.53201426  1
  O  O15  1  0.31810042  0.07324974  0.79219076  1
  O  O16  1  0.31810042  0.42675026  0.79219076  1
  O  O17  1  0.41429416  0.25000000  0.40443297  1
  O  O18  1  0.43308513  0.75000000  0.19610173  1
  O  O19  1  0.56691487  0.25000000  0.80389827  1
  O  O20  1  0.58570584  0.75000000  0.59556703  1
  O  O21  1  0.68189958  0.57324974  0.20780924  1
  O  O22  1  0.68189958  0.92675026  0.20780924  1
  O  O23  1  0.86169179  0.25000000  0.46798574  1
  O  O24  1  0.88275441  0.25000000  0.03982709  1
  O  O25  1  0.91568043  0.75000000  0.71290647  1
