# generated using pymatgen
data_Ca4Ta2O9
_symmetry_space_group_name_H-M   'P 1'
_cell_length_a   9.90674840
_cell_length_b   5.57809475
_cell_length_c   14.26094336
_cell_angle_alpha   90.00000000
_cell_angle_beta   90.96550305
_cell_angle_gamma   90.00000000
_symmetry_Int_Tables_number   1
_chemical_formula_structural   Ca4Ta2O9
_chemical_formula_sum   'Ca16 Ta8 O36'
_cell_volume   787.95898198
_cell_formula_units_Z   4
loop_
 _symmetry_equiv_pos_site_id
 _symmetry_equiv_pos_as_xyz
  1  'x, y, z'
loop_
 _atom_site_type_symbol
 _atom_site_label
 _atom_site_symmetry_multiplicity
 _atom_site_fract_x
 _atom_site_fract_y
 _atom_site_fract_z
 _atom_site_occupancy
  Ca  Ca0  1  0.00000000  0.00000000  0.50000000  1
  Ca  Ca1  1  0.00000000  0.00000000  0.00000000  1
  Ca  Ca2  1  0.01498509  0.99789064  0.22996651  1
  Ca  Ca3  1  0.15298644  0.48197060  0.60525542  1
  Ca  Ca4  1  0.19358971  0.51671425  0.07301812  1
  Ca  Ca5  1  0.30641029  0.01671425  0.42698188  1
  Ca  Ca6  1  0.34701356  0.98197060  0.89474458  1
  Ca  Ca7  1  0.48501491  0.49789064  0.27003349  1
  Ca  Ca8  1  0.50000000  0.50000000  0.50000000  1
  Ca  Ca9  1  0.51498509  0.50210936  0.72996651  1
  Ca  Ca10  1  0.50000000  0.50000000  0.00000000  1
  Ca  Ca11  1  0.65298644  0.01802940  0.10525542  1
  Ca  Ca12  1  0.69358971  0.98328575  0.57301812  1
  Ca  Ca13  1  0.80641029  0.48328575  0.92698188  1
  Ca  Ca14  1  0.84701356  0.51802940  0.39474458  1
  Ca  Ca15  1  0.98501491  0.00210936  0.77003349  1
  Ta  Ta16  1  0.16182585  0.49118187  0.83590775  1
  Ta  Ta17  1  0.16777911  0.50981342  0.33632574  1
  Ta  Ta18  1  0.33817415  0.99118187  0.66409225  1
  Ta  Ta19  1  0.33222089  0.00981342  0.16367426  1
  Ta  Ta20  1  0.66777911  0.99018658  0.83632574  1
  Ta  Ta21  1  0.66182585  0.00881813  0.33590775  1
  Ta  Ta22  1  0.83222089  0.49018658  0.66367426  1
  Ta  Ta23  1  0.83817415  0.50881813  0.16409225  1
  O  O24  1  0.01117459  0.59048589  0.73495829  1
  O  O25  1  0.02080817  0.32102914  0.89895203  1
  O  O26  1  0.06970493  0.79727539  0.37101627  1
  O  O27  1  0.11835124  0.33019372  0.44699222  1
  O  O28  1  0.13953464  0.78899687  0.90346825  1
  O  O29  1  0.16332406  0.11702231  0.10650998  1
  O  O30  1  0.19867671  0.88496710  0.57629938  1
  O  O31  1  0.20401811  0.19704687  0.75024477  1
  O  O32  1  0.23823009  0.71023832  0.21790230  1
  O  O33  1  0.26176991  0.21023832  0.28209770  1
  O  O34  1  0.29598189  0.69704687  0.74975523  1
  O  O35  1  0.30132329  0.38496710  0.92370062  1
  O  O36  1  0.33667594  0.61702231  0.39349002  1
  O  O37  1  0.36046536  0.28899687  0.59653175  1
  O  O38  1  0.38164876  0.83019372  0.05300778  1
  O  O39  1  0.43029507  0.29727539  0.12898373  1
  O  O40  1  0.47919183  0.82102914  0.60104797  1
  O  O41  1  0.48882541  0.09048589  0.76504171  1
  O  O42  1  0.51117459  0.90951411  0.23495829  1
  O  O43  1  0.52080817  0.17897086  0.39895203  1
  O  O44  1  0.56970493  0.70272461  0.87101627  1
  O  O45  1  0.61835124  0.16980628  0.94699222  1
  O  O46  1  0.63953464  0.71100313  0.40346825  1
  O  O47  1  0.66332406  0.38297769  0.60650998  1
  O  O48  1  0.69867671  0.61503290  0.07629938  1
  O  O49  1  0.70401811  0.30295313  0.25024477  1
  O  O50  1  0.73823009  0.78976168  0.71790230  1
  O  O51  1  0.76176991  0.28976168  0.78209770  1
  O  O52  1  0.79598189  0.80295313  0.24975523  1
  O  O53  1  0.80132329  0.11503290  0.42370062  1
  O  O54  1  0.83667594  0.88297769  0.89349002  1
  O  O55  1  0.86046536  0.21100313  0.09653175  1
  O  O56  1  0.88164876  0.66980628  0.55300778  1
  O  O57  1  0.93029507  0.20272461  0.62898373  1
  O  O58  1  0.97919183  0.67897086  0.10104797  1
  O  O59  1  0.98882541  0.40951411  0.26504171  1
