# generated using pymatgen
data_FeP4O11
_symmetry_space_group_name_H-M   'P 1'
_cell_length_a   5.47641783
_cell_length_b   22.64198975
_cell_length_c   7.56354046
_cell_angle_alpha   90.00000000
_cell_angle_beta   109.42571288
_cell_angle_gamma   90.00000000
_symmetry_Int_Tables_number   1
_chemical_formula_structural   FeP4O11
_chemical_formula_sum   'Fe4 P16 O44'
_cell_volume   884.46742031
_cell_formula_units_Z   4
loop_
 _symmetry_equiv_pos_site_id
 _symmetry_equiv_pos_as_xyz
  1  'x, y, z'
loop_
 _atom_site_type_symbol
 _atom_site_label
 _atom_site_symmetry_multiplicity
 _atom_site_fract_x
 _atom_site_fract_y
 _atom_site_fract_z
 _atom_site_occupancy
  Fe  Fe0  1  0.00250726  0.11309521  0.87203107  1
  Fe  Fe1  1  0.00250726  0.38690479  0.37203107  1
  Fe  Fe2  1  0.99749274  0.61309521  0.62796893  1
  Fe  Fe3  1  0.99749274  0.88690479  0.12796893  1
  P  P4  1  0.31002085  0.42768404  0.81823027  1
  P  P5  1  0.40307054  0.80415817  0.96500968  1
  P  P6  1  0.33195638  0.82129121  0.55261715  1
  P  P7  1  0.40526209  0.03356728  0.70897086  1
  P  P8  1  0.31002085  0.07231596  0.31823027  1
  P  P9  1  0.40307054  0.69584183  0.46500968  1
  P  P10  1  0.59473791  0.53356728  0.79102914  1
  P  P11  1  0.66804362  0.32129121  0.94738285  1
  P  P12  1  0.33195638  0.67870879  0.05261715  1
  P  P13  1  0.40526209  0.46643272  0.20897086  1
  P  P14  1  0.59692946  0.30415817  0.53499032  1
  P  P15  1  0.68997915  0.92768404  0.68176973  1
  P  P16  1  0.59473791  0.96643272  0.29102914  1
  P  P17  1  0.66804362  0.17870879  0.44738285  1
  P  P18  1  0.59692946  0.19584183  0.03499032  1
  P  P19  1  0.68997915  0.57231596  0.18176973  1
  O  O20  1  0.09936228  0.65541991  0.90701196  1
  O  O21  1  0.08082255  0.42488569  0.64775714  1
  O  O22  1  0.23664092  0.45437944  0.98622488  1
  O  O23  1  0.22466784  0.04317449  0.81503021  1
  O  O24  1  0.34700773  0.16408446  0.98178017  1
  O  O25  1  0.09936228  0.84458009  0.40701196  1
  O  O26  1  0.26976638  0.80498358  0.73522752  1
  O  O27  1  0.19455497  0.68230205  0.54393435  1
  O  O28  1  0.33818042  0.56242167  0.74733948  1
  O  O29  1  0.46931119  0.73349276  0.99592026  1
  O  O30  1  0.42212452  0.36369139  0.88729535  1
  O  O31  1  0.08082255  0.07511431  0.14775714  1
  O  O32  1  0.23664092  0.04562056  0.48622488  1
  O  O33  1  0.22466784  0.45682551  0.31503021  1
  O  O34  1  0.44323054  0.96147599  0.69650512  1
  O  O35  1  0.34700773  0.33591554  0.48178017  1
  O  O36  1  0.26976638  0.69501642  0.23522752  1
  O  O37  1  0.19455497  0.81769795  0.04393435  1
  O  O38  1  0.55676946  0.46147599  0.80349488  1
  O  O39  1  0.33818042  0.93757833  0.24733948  1
  O  O40  1  0.46931119  0.76650724  0.49592026  1
  O  O41  1  0.42212452  0.13630861  0.38729535  1
  O  O42  1  0.57787548  0.86369139  0.61270465  1
  O  O43  1  0.53068881  0.23349276  0.50407974  1
  O  O44  1  0.66181958  0.06242167  0.75266052  1
  O  O45  1  0.44323054  0.53852401  0.19650512  1
  O  O46  1  0.80544503  0.18230205  0.95606565  1
  O  O47  1  0.73023362  0.30498358  0.76477248  1
  O  O48  1  0.65299227  0.66408446  0.51821983  1
  O  O49  1  0.55676946  0.03852401  0.30349488  1
  O  O50  1  0.77533216  0.54317449  0.68496979  1
  O  O51  1  0.76335908  0.95437944  0.51377512  1
  O  O52  1  0.91917745  0.92488569  0.85224286  1
  O  O53  1  0.57787548  0.63630861  0.11270465  1
  O  O54  1  0.53068881  0.26650724  0.00407974  1
  O  O55  1  0.66181958  0.43757833  0.25266052  1
  O  O56  1  0.80544503  0.31769795  0.45606565  1
  O  O57  1  0.73023362  0.19501642  0.26477248  1
  O  O58  1  0.90063772  0.15541991  0.59298804  1
  O  O59  1  0.65299227  0.83591554  0.01821983  1
  O  O60  1  0.77533216  0.95682551  0.18496979  1
  O  O61  1  0.76335908  0.54562056  0.01377512  1
  O  O62  1  0.91917745  0.57511431  0.35224286  1
  O  O63  1  0.90063772  0.34458009  0.09298804  1
