# generated using pymatgen
data_Na3(CoO2)4
_symmetry_space_group_name_H-M   'P 1'
_cell_length_a   2.87968341
_cell_length_b   9.81556651
_cell_length_c   10.88678368
_cell_angle_alpha   90.04814358
_cell_angle_beta   90.00000732
_cell_angle_gamma   90.00000510
_symmetry_Int_Tables_number   1
_chemical_formula_structural   Na3(CoO2)4
_chemical_formula_sum   'Na6 Co8 O16'
_cell_volume   307.72271439
_cell_formula_units_Z   2
loop_
 _symmetry_equiv_pos_site_id
 _symmetry_equiv_pos_as_xyz
  1  'x, y, z'
loop_
 _atom_site_type_symbol
 _atom_site_label
 _atom_site_symmetry_multiplicity
 _atom_site_fract_x
 _atom_site_fract_y
 _atom_site_fract_z
 _atom_site_occupancy
  Na  Na0  1  0.00000257  0.51898624  0.74954576  1
  Na  Na1  1  0.99999225  0.17954912  0.75019463  1
  Na  Na2  1  0.00000098  0.86679909  0.25007967  1
  Na  Na3  1  0.49999459  0.23098951  0.24947247  1
  Na  Na4  1  0.49999362  0.88321359  0.75005201  1
  Na  Na5  1  0.50000144  0.57043500  0.25027530  1
  Co  Co6  1  0.99998889  0.00084702  0.99750998  1
  Co  Co7  1  0.00000476  0.00055945  0.50249024  1
  Co  Co8  1  0.99998744  0.49868353  0.00470321  1
  Co  Co9  1  0.00000550  0.49904205  0.49534627  1
  Co  Co10  1  0.49998672  0.25097926  0.99533054  1
  Co  Co11  1  0.50000525  0.25131692  0.50464248  1
  Co  Co12  1  0.50000466  0.74919378  0.49753751  1
  Co  Co13  1  0.49998940  0.74940408  0.00250809  1
  O  O14  1  0.99998715  0.16729944  0.08536763  1
  O  O15  1  0.99998974  0.66702861  0.09709578  1
  O  O16  1  0.00000467  0.16909437  0.41473470  1
  O  O17  1  0.99998625  0.33784055  0.90772967  1
  O  O18  1  0.00000483  0.66910481  0.40268159  1
  O  O19  1  0.99998966  0.83154529  0.91111048  1
  O  O20  1  0.00000600  0.33594478  0.59241824  1
  O  O21  1  0.00000414  0.82943685  0.58901364  1
  O  O22  1  0.49998667  0.41422017  0.09242513  1
  O  O23  1  0.49998989  0.92068344  0.08900621  1
  O  O24  1  0.49998841  0.08078299  0.90264520  1
  O  O25  1  0.49998802  0.58074026  0.91480314  1
  O  O26  1  0.50000388  0.91821949  0.41115564  1
  O  O27  1  0.50000379  0.08316551  0.59701705  1
  O  O28  1  0.50000515  0.41205923  0.40770248  1
  O  O29  1  0.50000565  0.58288459  0.58540525  1
