# generated using pymatgen
data_Cs3GaO3
_symmetry_space_group_name_H-M   'P 1'
_cell_length_a   11.60671247
_cell_length_b   7.26259781
_cell_length_c   8.10963161
_cell_angle_alpha   90.00000000
_cell_angle_beta   96.91956854
_cell_angle_gamma   90.00000000
_symmetry_Int_Tables_number   1
_chemical_formula_structural   Cs3GaO3
_chemical_formula_sum   'Cs12 Ga4 O12'
_cell_volume   678.62128808
_cell_formula_units_Z   4
loop_
 _symmetry_equiv_pos_site_id
 _symmetry_equiv_pos_as_xyz
  1  'x, y, z'
loop_
 _atom_site_type_symbol
 _atom_site_label
 _atom_site_symmetry_multiplicity
 _atom_site_fract_x
 _atom_site_fract_y
 _atom_site_fract_z
 _atom_site_occupancy
  Cs  Cs0  1  0.07270849  0.32884756  0.65657954  1
  Cs  Cs1  1  0.15526340  0.62711654  0.04457860  1
  Cs  Cs2  1  0.19559486  0.82151318  0.62795297  1
  Cs  Cs3  1  0.30440514  0.32151318  0.37204703  1
  Cs  Cs4  1  0.34473660  0.12711654  0.95542140  1
  Cs  Cs5  1  0.42729151  0.82884756  0.34342046  1
  Cs  Cs6  1  0.57270849  0.17115244  0.65657954  1
  Cs  Cs7  1  0.65526340  0.87288346  0.04457860  1
  Cs  Cs8  1  0.69559486  0.67848682  0.62795297  1
  Cs  Cs9  1  0.80440514  0.17848682  0.37204703  1
  Cs  Cs10  1  0.84473660  0.37288346  0.95542140  1
  Cs  Cs11  1  0.92729151  0.67115244  0.34342046  1
  Ga  Ga12  1  0.06336302  0.07756963  0.14809374  1
  Ga  Ga13  1  0.43663698  0.57756863  0.85190626  1
  Ga  Ga14  1  0.56336302  0.42243137  0.14809374  1
  Ga  Ga15  1  0.93663698  0.92243137  0.85190626  1
  O  O16  1  0.03918936  0.31232989  0.23259992  1
  O  O17  1  0.08298766  0.05659583  0.90902879  1
  O  O18  1  0.17995411  0.94958012  0.27925450  1
  O  O19  1  0.32004589  0.44958012  0.72074550  1
  O  O20  1  0.41701234  0.55659583  0.09097121  1
  O  O21  1  0.46081064  0.81232989  0.76740008  1
  O  O22  1  0.53918936  0.18767011  0.23259992  1
  O  O23  1  0.58298766  0.44340417  0.90902879  1
  O  O24  1  0.67995411  0.55041988  0.27925450  1
  O  O25  1  0.82004589  0.05041988  0.72074550  1
  O  O26  1  0.91701234  0.94340417  0.09097121  1
  O  O27  1  0.96081064  0.68767011  0.76740008  1
