# generated using pymatgen
data_La3PO7
_symmetry_space_group_name_H-M   'P 1'
_cell_length_a   9.52870363
_cell_length_b   9.52870363
_cell_length_c   12.54082946
_cell_angle_alpha   77.16001959
_cell_angle_beta   102.83998041
_cell_angle_gamma   88.38814828
_symmetry_Int_Tables_number   1
_chemical_formula_structural   La3PO7
_chemical_formula_sum   'La18 P6 O42'
_cell_volume   1078.82159658
_cell_formula_units_Z   6
loop_
 _symmetry_equiv_pos_site_id
 _symmetry_equiv_pos_as_xyz
  1  'x, y, z'
loop_
 _atom_site_type_symbol
 _atom_site_label
 _atom_site_symmetry_multiplicity
 _atom_site_fract_x
 _atom_site_fract_y
 _atom_site_fract_z
 _atom_site_occupancy
  La  La0  1  0.49185122  0.85207334  0.94674784  1
  La  La1  1  0.14792666  0.50814878  0.94674784  1
  La  La2  1  0.49998736  0.80957140  0.61895147  1
  La  La3  1  0.19042860  0.50001264  0.61895147  1
  La  La4  1  0.84361420  0.81311082  0.83765083  1
  La  La5  1  0.18688918  0.15638580  0.83765083  1
  La  La6  1  0.19165756  0.49474988  0.28005426  1
  La  La7  1  0.50525012  0.80834244  0.28005426  1
  La  La8  1  0.83183981  0.85824887  0.50165355  1
  La  La9  1  0.14175113  0.16816019  0.50165355  1
  La  La10  1  0.83693487  0.85466639  0.16446727  1
  La  La11  1  0.14533361  0.16306513  0.16446727  1
  La  La12  1  0.50021597  0.15546799  0.70380772  1
  La  La13  1  0.84453201  0.49978403  0.70380772  1
  La  La14  1  0.85550641  0.51938955  0.39162293  1
  La  La15  1  0.48061045  0.14449359  0.39162293  1
  La  La16  1  0.83343615  0.50854725  0.07903908  1
  La  La17  1  0.49145275  0.16656385  0.07903908  1
  P  P18  1  0.17307909  0.82692091  0.71505067  1
  P  P19  1  0.16454528  0.83545472  0.07612630  1
  P  P20  1  0.50518452  0.49481548  0.50687729  1
  P  P21  1  0.50292621  0.49707379  0.12814046  1
  P  P22  1  0.83678172  0.16321828  0.65771341  1
  P  P23  1  0.83476587  0.16523413  0.27805424  1
  O  O24  1  0.07761261  0.92238739  0.60470467  1
  O  O25  1  0.07791646  0.73535989  0.78346842  1
  O  O26  1  0.26464011  0.92208354  0.78346842  1
  O  O27  1  0.05624838  0.94375162  0.10168740  1
  O  O28  1  0.27934386  0.72065614  0.68553583  1
  O  O29  1  0.09309845  0.41280850  0.77958008  1
  O  O30  1  0.58719150  0.90690155  0.77958008  1
  O  O31  1  0.26252642  0.92569857  0.00985576  1
  O  O32  1  0.07430143  0.73747358  0.00985576  1
  O  O33  1  0.25672057  0.74327943  0.18937483  1
  O  O34  1  0.56476548  0.89053916  0.44685795  1
  O  O35  1  0.10946084  0.43523452  0.44685795  1
  O  O36  1  0.40267661  0.59732339  0.40298680  1
  O  O37  1  0.47198811  0.52801189  0.61604866  1
  O  O38  1  0.07252494  0.41212017  0.11373743  1
  O  O39  1  0.58787983  0.92747506  0.11373743  1
  O  O40  1  0.75075889  0.74045376  0.66846979  1
  O  O41  1  0.25954624  0.24924111  0.66846979  1
  O  O42  1  0.39678593  0.60321407  0.02765506  1
  O  O43  1  0.45032479  0.11776223  0.89149890  1
  O  O44  1  0.88223777  0.54967521  0.89149890  1
  O  O45  1  0.77105649  0.77239465  0.33566958  1
  O  O46  1  0.22760535  0.22894351  0.33566958  1
  O  O47  1  0.47624709  0.33673908  0.50472873  1
  O  O48  1  0.66326092  0.52375291  0.50472873  1
  O  O49  1  0.41868172  0.39316139  0.19942449  1
  O  O50  1  0.60683861  0.58131828  0.19942449  1
  O  O51  1  0.24167017  0.25272813  0.00401946  1
  O  O52  1  0.74727187  0.75832983  0.00401946  1
  O  O53  1  0.38567674  0.04656450  0.55466402  1
  O  O54  1  0.95343550  0.61432326  0.55466402  1
  O  O55  1  0.74150629  0.25849371  0.70686383  1
  O  O56  1  0.59420342  0.40579658  0.07285971  1
  O  O57  1  0.38477458  0.05135201  0.22824943  1
  O  O58  1  0.94864799  0.61522442  0.22824943  1
  O  O59  1  0.73726835  0.07495053  0.58717924  1
  O  O60  1  0.92504947  0.26273165  0.58717924  1
  O  O61  1  0.67939636  0.13404741  0.28760155  1
  O  O62  1  0.86595259  0.32060364  0.28760155  1
  O  O63  1  0.93974231  0.06025769  0.76284318  1
  O  O64  1  0.85762435  0.14237565  0.16343782  1
  O  O65  1  0.94397881  0.05602119  0.37436029  1
