# generated using pymatgen
data_SmBiO4
_symmetry_space_group_name_H-M   'P 1'
_cell_length_a   5.65611609
_cell_length_b   5.35300582
_cell_length_c   6.78490262
_cell_angle_alpha   69.57927108
_cell_angle_beta   67.97132751
_cell_angle_gamma   96.12631660
_symmetry_Int_Tables_number   1
_chemical_formula_structural   SmBiO4
_chemical_formula_sum   'Sm2 Bi2 O8'
_cell_volume   171.65983710
_cell_formula_units_Z   2
loop_
 _symmetry_equiv_pos_site_id
 _symmetry_equiv_pos_as_xyz
  1  'x, y, z'
loop_
 _atom_site_type_symbol
 _atom_site_label
 _atom_site_symmetry_multiplicity
 _atom_site_fract_x
 _atom_site_fract_y
 _atom_site_fract_z
 _atom_site_occupancy
  Sm  Sm0  1  0.36580233  0.11720634  0.77137937  1
  Sm  Sm1  1  0.63891190  0.88961541  0.22562457  1
  Bi  Bi2  1  0.10186241  0.35354297  0.29880700  1
  Bi  Bi3  1  0.90122908  0.65346522  0.69918234  1
  O  O4  1  0.61535013  0.28175284  0.93353857  1
  O  O5  1  0.27165874  0.03977565  0.44481214  1
  O  O6  1  0.78321644  0.51809527  0.44543234  1
  O  O7  1  0.04955007  0.21851820  0.06296061  1
  O  O8  1  0.95439402  0.79145378  0.93301533  1
  O  O9  1  0.21685876  0.48613739  0.55188185  1
  O  O10  1  0.73198064  0.96593709  0.55217836  1
  O  O11  1  0.38960748  0.72435784  0.06316852  1
