# generated using pymatgen
data_LiBi3(IO2)2
_symmetry_space_group_name_H-M   'P 1'
_cell_length_a   5.64033544
_cell_length_b   7.36508168
_cell_length_c   11.26355844
_cell_angle_alpha   90.00000000
_cell_angle_beta   90.00000000
_cell_angle_gamma   112.51408186
_symmetry_Int_Tables_number   1
_chemical_formula_structural   LiBi3(IO2)2
_chemical_formula_sum   'Li2 Bi6 I4 O8'
_cell_volume   432.24426058
_cell_formula_units_Z   2
loop_
 _symmetry_equiv_pos_site_id
 _symmetry_equiv_pos_as_xyz
  1  'x, y, z'
loop_
 _atom_site_type_symbol
 _atom_site_label
 _atom_site_symmetry_multiplicity
 _atom_site_fract_x
 _atom_site_fract_y
 _atom_site_fract_z
 _atom_site_occupancy
  Li  Li0  1  0.79051614  0.58103328  0.00000000  1
  Li  Li1  1  0.20948386  0.41896672  0.50000000  1
  Bi  Bi2  1  0.16181985  0.32363970  0.00000000  1
  Bi  Bi3  1  0.66713175  0.33426349  0.25262576  1
  Bi  Bi4  1  0.33286825  0.66573651  0.24737424  1
  Bi  Bi5  1  0.83818015  0.67636030  0.50000000  1
  Bi  Bi6  1  0.66713175  0.33426349  0.74737424  1
  Bi  Bi7  1  0.33286825  0.66573651  0.75262576  1
  I  I8  1  0.50771523  0.01543145  0.00000000  1
  I  I9  1  0.00000000  0.00000000  0.25000000  1
  I  I10  1  0.49228477  0.98456855  0.50000000  1
  I  I11  1  0.00000000  0.00000000  0.75000000  1
  O  O12  1  0.49270698  0.49214924  0.12651784  1
  O  O13  1  0.99944126  0.49214924  0.12651784  1
  O  O14  1  0.50729302  0.50785076  0.37348216  1
  O  O15  1  0.00055874  0.50785076  0.37348216  1
  O  O16  1  0.50729302  0.50785076  0.62651784  1
  O  O17  1  0.49270698  0.49214924  0.87348216  1
  O  O18  1  0.00055874  0.50785076  0.62651784  1
  O  O19  1  0.99944126  0.49214924  0.87348216  1
