# generated using pymatgen
data_K9(WO3)20
_symmetry_space_group_name_H-M   'P 1'
_cell_length_a   7.84079379
_cell_length_b   13.14579788
_cell_length_c   13.13321438
_cell_angle_alpha   84.72033016
_cell_angle_beta   107.38313739
_cell_angle_gamma   107.34162009
_symmetry_Int_Tables_number   1
_chemical_formula_structural   K9(WO3)20
_chemical_formula_sum   'K9 W20 O60'
_cell_volume   1233.13240328
_cell_formula_units_Z   1
loop_
 _symmetry_equiv_pos_site_id
 _symmetry_equiv_pos_as_xyz
  1  'x, y, z'
loop_
 _atom_site_type_symbol
 _atom_site_label
 _atom_site_symmetry_multiplicity
 _atom_site_fract_x
 _atom_site_fract_y
 _atom_site_fract_z
 _atom_site_occupancy
  K  K0  1  0.75058825  0.67417544  0.82700327  1
  K  K1  1  0.25089981  0.67411309  0.82733105  1
  K  K2  1  0.42308446  0.17256074  0.67379233  1
  K  K3  1  0.92301506  0.17222969  0.67374423  1
  K  K4  1  0.50000000  0.50000000  0.50000000  1
  K  K5  1  0.57691554  0.82743926  0.32620767  1
  K  K6  1  0.07698494  0.82777031  0.32625577  1
  K  K7  1  0.74910019  0.32588691  0.17266895  1
  K  K8  1  0.24941175  0.32582456  0.17299673  1
  W  W9  1  0.31583498  0.20657262  0.92508572  1
  W  W10  1  0.81614154  0.20635182  0.92588505  1
  W  W11  1  0.60830040  0.92408844  0.79254607  1
  W  W12  1  0.10986107  0.92625661  0.79343772  1
  W  W13  1  0.81848512  0.42452987  0.70852279  1
  W  W14  1  0.31493319  0.42412670  0.70873440  1
  W  W15  1  0.89606976  0.71139449  0.57689847  1
  W  W16  1  0.39073497  0.70869159  0.57582628  1
  W  W17  1  0.00000000  0.00000000  0.50000000  1
  W  W18  1  0.50000000  0.00000000  0.50000000  1
  W  W19  1  0.10393024  0.28860551  0.42310153  1
  W  W20  1  0.60926503  0.29130841  0.42417372  1
  W  W21  1  0.68506681  0.57587330  0.29126560  1
  W  W22  1  0.18151488  0.57547013  0.29147721  1
  W  W23  1  0.89013893  0.07374339  0.20656228  1
  W  W24  1  0.39169960  0.07591156  0.20745393  1
  W  W25  1  0.68416502  0.79342738  0.07491428  1
  W  W26  1  0.18385846  0.79364818  0.07411495  1
  W  W27  1  0.50000000  0.50000000  0.00000000  1
  W  W28  1  0.00000000  0.50000000  0.00000000  1
  O  O29  1  0.14301239  0.85586251  0.93020078  1
  O  O30  1  0.64294302  0.85562563  0.93023492  1
  O  O31  1  0.56796913  0.20788186  0.92568433  1
  O  O32  1  0.06558092  0.20782037  0.92574741  1
  O  O33  1  0.71398906  0.07209095  0.85592180  1
  O  O34  1  0.21530956  0.07312888  0.85750389  1
  O  O35  1  0.42218797  0.50082279  0.84428968  1
  O  O36  1  0.92368186  0.50125400  0.84536534  1
  O  O37  1  0.78919691  0.28797403  0.79022372  1
  O  O38  1  0.28808362  0.28500758  0.79170585  1
  O  O39  1  0.36514449  0.92576405  0.79298918  1
  O  O40  1  0.85350244  0.92569658  0.79291250  1
  O  O41  1  0.06069691  0.42372054  0.70980055  1
  O  O42  1  0.57257977  0.42466745  0.70849184  1
  O  O43  1  0.99887734  0.78707326  0.71052250  1
  O  O44  1  0.50290668  0.79118785  0.71506415  1
  O  O45  1  0.07744451  0.00043131  0.65443915  1
  O  O46  1  0.57803280  0.00124107  0.65476458  1
  O  O47  1  0.85641186  0.57002373  0.64399220  1
  O  O48  1  0.35839955  0.57339169  0.64268377  1
  O  O49  1  0.13601313  0.70852605  0.57621355  1
  O  O50  1  0.64772509  0.70717504  0.57524315  1
  O  O51  1  0.21494176  0.35725471  0.57189144  1
  O  O52  1  0.71479416  0.35718927  0.57371674  1
  O  O53  1  0.74329521  0.99980506  0.49997652  1
  O  O54  1  0.07976545  0.15863408  0.50160502  1
  O  O55  1  0.25670479  0.00019494  0.50002348  1
  O  O56  1  0.57882094  0.15578725  0.50114878  1
  O  O57  1  0.42117906  0.84421275  0.49885122  1
  O  O58  1  0.92023455  0.84136592  0.49839498  1
  O  O59  1  0.78505824  0.64274529  0.42810856  1
  O  O60  1  0.28520584  0.64281073  0.42628326  1
  O  O61  1  0.35227491  0.29282496  0.42475685  1
  O  O62  1  0.86398687  0.29147395  0.42378645  1
  O  O63  1  0.64160045  0.42660831  0.35731623  1
  O  O64  1  0.14358814  0.42997627  0.35600780  1
  O  O65  1  0.92255549  0.99956869  0.34556085  1
  O  O66  1  0.42196720  0.99875893  0.34523542  1
  O  O67  1  0.00112266  0.21292674  0.28947750  1
  O  O68  1  0.49709332  0.20881215  0.28493585  1
  O  O69  1  0.42742023  0.57533255  0.29150816  1
  O  O70  1  0.93930309  0.57627946  0.29019945  1
  O  O71  1  0.14649756  0.07430342  0.20708750  1
  O  O72  1  0.63485551  0.07423595  0.20701082  1
  O  O73  1  0.71191638  0.71499242  0.20829415  1
  O  O74  1  0.21080309  0.71202597  0.20977628  1
  O  O75  1  0.57781203  0.49917721  0.15571032  1
  O  O76  1  0.07631814  0.49874600  0.15463466  1
  O  O77  1  0.78469044  0.92687112  0.14249611  1
  O  O78  1  0.28601094  0.92790905  0.14407820  1
  O  O79  1  0.43203087  0.79211814  0.07431567  1
  O  O80  1  0.93441908  0.79217963  0.07425259  1
  O  O81  1  0.35705698  0.14437437  0.06976508  1
  O  O82  1  0.85698761  0.14413749  0.06979922  1
  O  O83  1  0.42288631  0.34497722  0.00069673  1
  O  O84  1  0.92254115  0.34483873  0.00030482  1
  O  O85  1  0.24985739  0.49998386  0.00019836  1
  O  O86  1  0.75014261  0.50001614  0.99980164  1
  O  O87  1  0.57711369  0.65502278  0.99930327  1
  O  O88  1  0.07745885  0.65516127  0.99969518  1
