# generated using pymatgen
data_Gd3TaO7
_symmetry_space_group_name_H-M   'P 1'
_cell_length_a   6.46040890
_cell_length_b   6.56814178
_cell_length_c   7.67081659
_cell_angle_alpha   73.20874498
_cell_angle_beta   89.77637387
_cell_angle_gamma   82.76129103
_symmetry_Int_Tables_number   1
_chemical_formula_structural   Gd3TaO7
_chemical_formula_sum   'Gd6 Ta2 O14'
_cell_volume   308.95224779
_cell_formula_units_Z   2
loop_
 _symmetry_equiv_pos_site_id
 _symmetry_equiv_pos_as_xyz
  1  'x, y, z'
loop_
 _atom_site_type_symbol
 _atom_site_label
 _atom_site_symmetry_multiplicity
 _atom_site_fract_x
 _atom_site_fract_y
 _atom_site_fract_z
 _atom_site_occupancy
  Gd  Gd0  1  0.25982115  0.46442982  0.88431231  1
  Gd  Gd1  1  0.26379852  0.45657719  0.39067983  1
  Gd  Gd2  1  0.45476285  0.99202950  0.25005967  1
  Gd  Gd3  1  0.54523715  0.00797050  0.74994033  1
  Gd  Gd4  1  0.73620148  0.54342281  0.60932017  1
  Gd  Gd5  1  0.74017885  0.53557018  0.11568769  1
  Ta  Ta6  1  0.00000000  0.00000000  0.00000000  1
  Ta  Ta7  1  0.00000000  0.00000000  0.50000000  1
  O  O8  1  0.28883289  0.06746015  0.51678554  1
  O  O9  1  0.07624453  0.68202059  0.04833742  1
  O  O10  1  0.28944209  0.06898242  0.95053078  1
  O  O11  1  0.07204437  0.67450978  0.60749102  1
  O  O12  1  0.08360075  0.95399013  0.26202930  1
  O  O13  1  0.44090703  0.34906703  0.16566687  1
  O  O14  1  0.45603151  0.36309311  0.65817646  1
  O  O15  1  0.54396849  0.63690689  0.34182354  1
  O  O16  1  0.55909297  0.65093297  0.83433313  1
  O  O17  1  0.91639925  0.04600987  0.73797070  1
  O  O18  1  0.92795563  0.32549022  0.39250898  1
  O  O19  1  0.71055791  0.93101758  0.04946922  1
  O  O20  1  0.92375547  0.31797941  0.95166258  1
  O  O21  1  0.71116711  0.93253985  0.48321446  1
