# generated using pymatgen
data_K2Ge2O5
_symmetry_space_group_name_H-M   'P 1'
_cell_length_a   10.36852348
_cell_length_b   10.36852348
_cell_length_c   10.41420464
_cell_angle_alpha   68.55083728
_cell_angle_beta   111.44916272
_cell_angle_gamma   110.78997304
_symmetry_Int_Tables_number   1
_chemical_formula_structural   K2Ge2O5
_chemical_formula_sum   'K12 Ge12 O30'
_cell_volume   937.72333791
_cell_formula_units_Z   6
loop_
 _symmetry_equiv_pos_site_id
 _symmetry_equiv_pos_as_xyz
  1  'x, y, z'
loop_
 _atom_site_type_symbol
 _atom_site_label
 _atom_site_symmetry_multiplicity
 _atom_site_fract_x
 _atom_site_fract_y
 _atom_site_fract_z
 _atom_site_occupancy
  K  K0  1  0.36905362  0.68845409  0.96328150  1
  K  K1  1  0.56660435  0.96455991  0.78450454  1
  K  K2  1  0.31154591  0.63094638  0.46328150  1
  K  K3  1  0.03544009  0.43339565  0.28450454  1
  K  K4  1  0.71810944  0.83647601  0.62039324  1
  K  K5  1  0.38426431  0.10518716  0.93285511  1
  K  K6  1  0.16352399  0.28189056  0.12039324  1
  K  K7  1  0.32581931  0.14100592  0.52778561  1
  K  K8  1  0.89481284  0.61573569  0.43285511  1
  K  K9  1  0.85899408  0.67418069  0.02778561  1
  K  K10  1  0.79615482  0.23604093  0.51926707  1
  K  K11  1  0.76395907  0.20384518  0.01926707  1
  Ge  Ge12  1  0.09058615  0.87622639  0.72406449  1
  Ge  Ge13  1  0.12377361  0.90941385  0.22406449  1
  Ge  Ge14  1  0.15325358  0.38768718  0.73390013  1
  Ge  Ge15  1  0.99841399  0.04215576  0.87684395  1
  Ge  Ge16  1  0.52058059  0.52040470  0.82177159  1
  Ge  Ge17  1  0.61231282  0.84674642  0.23390013  1
  Ge  Ge18  1  0.95784424  0.00158601  0.37684395  1
  Ge  Ge19  1  0.47959530  0.47941941  0.32177159  1
  Ge  Ge20  1  0.63935675  0.39166297  0.66655640  1
  Ge  Ge21  1  0.97311434  0.52231335  0.82707812  1
  Ge  Ge22  1  0.60833703  0.36064325  0.16655640  1
  Ge  Ge23  1  0.47768665  0.02688566  0.32707812  1
  O  O24  1  0.06464765  0.90284578  0.87532807  1
  O  O25  1  0.00018330  0.99394929  0.56528732  1
  O  O26  1  0.09715422  0.93535235  0.37532807  1
  O  O27  1  0.26958292  0.90477856  0.75054799  1
  O  O28  1  0.00605071  0.99981670  0.06528732  1
  O  O29  1  0.13719553  0.48323253  0.84124840  1
  O  O30  1  0.09522144  0.73041708  0.25054799  1
  O  O31  1  0.05570873  0.42106720  0.56013336  1
  O  O32  1  0.56356500  0.68484726  0.84947530  1
  O  O33  1  0.14051407  0.20623723  0.85081556  1
  O  O34  1  0.51676747  0.86280447  0.34124840  1
  O  O35  1  0.33881247  0.44651443  0.73414328  1
  O  O36  1  0.57893280  0.94429127  0.06013336  1
  O  O37  1  0.57910809  0.38336527  0.97782207  1
  O  O38  1  0.31515274  0.43643500  0.34947530  1
  O  O39  1  0.60895702  0.54267904  0.68924086  1
  O  O40  1  0.79376277  0.85948593  0.35081556  1
  O  O41  1  0.55348557  0.66118753  0.23414328  1
  O  O42  1  0.97149309  0.70144443  0.70941245  1
  O  O43  1  0.61663473  0.42089191  0.47782207  1
  O  O44  1  0.54729789  0.22879856  0.74750918  1
  O  O45  1  0.96191524  0.48364806  0.99645715  1
  O  O46  1  0.45732096  0.39104298  0.18924086  1
  O  O47  1  0.83131240  0.41053275  0.72183753  1
  O  O48  1  0.29855557  0.02850691  0.20941245  1
  O  O49  1  0.77120144  0.45270211  0.24750918  1
  O  O50  1  0.51635194  0.03808476  0.49645715  1
  O  O51  1  0.58946725  0.16868760  0.22183753  1
  O  O52  1  0.83104233  0.04176424  0.76873972  1
  O  O53  1  0.95823576  0.16895767  0.26873972  1
