# generated using pymatgen
data_Na2ScPCO7
_symmetry_space_group_name_H-M   'P 1'
_cell_length_a   9.05971497
_cell_length_b   6.74777010
_cell_length_c   5.30517116
_cell_angle_alpha   90.00000000
_cell_angle_beta   90.41340423
_cell_angle_gamma   90.00000000
_symmetry_Int_Tables_number   1
_chemical_formula_structural   Na2ScPCO7
_chemical_formula_sum   'Na4 Sc2 P2 C2 O14'
_cell_volume   324.31191691
_cell_formula_units_Z   2
loop_
 _symmetry_equiv_pos_site_id
 _symmetry_equiv_pos_as_xyz
  1  'x, y, z'
loop_
 _atom_site_type_symbol
 _atom_site_label
 _atom_site_symmetry_multiplicity
 _atom_site_fract_x
 _atom_site_fract_y
 _atom_site_fract_z
 _atom_site_occupancy
  Na  Na0  1  0.22228744  0.49939269  0.23563738  1
  Na  Na1  1  0.22228744  0.00060731  0.23563738  1
  Na  Na2  1  0.77771256  0.50060731  0.76436262  1
  Na  Na3  1  0.77771256  0.99939269  0.76436262  1
  Sc  Sc4  1  0.35730925  0.75000000  0.78283527  1
  Sc  Sc5  1  0.64269075  0.25000000  0.21716473  1
  P  P6  1  0.42432518  0.25000000  0.70929592  1
  P  P7  1  0.57567482  0.75000000  0.29070408  1
  C  C8  1  0.07337650  0.75000000  0.73139555  1
  C  C9  1  0.92662350  0.25000000  0.26860445  1
  O  O10  1  0.06465116  0.25000000  0.29921693  1
  O  O11  1  0.13828622  0.75000000  0.95296673  1
  O  O12  1  0.16700842  0.75000000  0.54024750  1
  O  O13  1  0.34066265  0.06192304  0.79148714  1
  O  O14  1  0.34066265  0.43807696  0.79148714  1
  O  O15  1  0.41760182  0.75000000  0.16844141  1
  O  O16  1  0.44258689  0.25000000  0.41588480  1
  O  O17  1  0.55741311  0.75000000  0.58411520  1
  O  O18  1  0.58239818  0.25000000  0.83155859  1
  O  O19  1  0.65933735  0.56192304  0.20851286  1
  O  O20  1  0.65933735  0.93807696  0.20851286  1
  O  O21  1  0.83299158  0.25000000  0.45975250  1
  O  O22  1  0.86171378  0.25000000  0.04703327  1
  O  O23  1  0.93534884  0.75000000  0.70078307  1
