# generated using pymatgen
data_K11Mn4O16
_symmetry_space_group_name_H-M   'P 1'
_cell_length_a   10.46490471
_cell_length_b   10.46794303
_cell_length_c   10.47567682
_cell_angle_alpha   135.18120589
_cell_angle_beta   135.17239949
_cell_angle_gamma   65.19250613
_symmetry_Int_Tables_number   1
_chemical_formula_structural   K11Mn4O16
_chemical_formula_sum   'K11 Mn4 O16'
_cell_volume   562.13184795
_cell_formula_units_Z   1
loop_
 _symmetry_equiv_pos_site_id
 _symmetry_equiv_pos_as_xyz
  1  'x, y, z'
loop_
 _atom_site_type_symbol
 _atom_site_label
 _atom_site_symmetry_multiplicity
 _atom_site_fract_x
 _atom_site_fract_y
 _atom_site_fract_z
 _atom_site_occupancy
  K  K0  1  0.71914959  0.07113385  0.00023962  1
  K  K1  1  0.74973996  0.24942672  0.49858692  1
  K  K2  1  0.49912628  0.99893897  0.49874098  1
  K  K3  1  0.28959078  0.28819843  0.99933573  1
  K  K4  1  0.49868817  0.50021051  0.99963368  1
  K  K5  1  0.71010937  0.71316762  0.00029870  1
  K  K6  1  0.28109895  0.27990259  0.35215737  1
  K  K7  1  0.07183358  0.71986558  0.00023300  1
  K  K8  1  0.92904970  0.92788021  0.64786213  1
  K  K9  1  0.25092328  0.75110596  0.50145649  1
  K  K10  1  0.00077602  0.50004509  0.50151659  1
  Mn  Mn11  1  0.86056312  0.38649105  0.00004948  1
  Mn  Mn12  1  0.38659157  0.86047361  -0.00002687  1
  Mn  Mn13  1  0.61361419  0.61375483  0.47431227  1
  Mn  Mn14  1  0.13939803  0.13944383  0.52574094  1
  O  O15  1  0.89676973  0.21357238  0.99986898  1
  O  O16  1  0.41338534  0.01130956  0.00006612  1
  O  O17  1  0.88844881  0.58607603  0.24669510  1
  O  O18  1  0.66084658  0.41242990  0.30081832  1
  O  O19  1  0.10261947  0.10257069  0.31439042  1
  O  O20  1  0.01018459  0.41336648  0.00010934  1
  O  O21  1  0.98817129  0.98833981  0.40167887  1
  O  O22  1  0.36072344  0.11154973  0.69983557  1
  O  O23  1  0.64171546  0.33930266  0.75319848  1
  O  O24  1  0.58783029  0.88844673  0.24862164  1
  O  O25  1  0.41228376  0.66071014  0.30079766  1
  O  O26  1  0.58658825  0.58681119  0.59794668  1
  O  O27  1  0.21177745  0.89746892  0.99988440  1
  O  O28  1  0.78776764  0.78757058  0.68485812  1
  O  O29  1  0.11147697  0.36061741  0.69980401  1
  O  O30  1  0.33917836  0.63983892  0.75133126  1
