# generated using pymatgen
data_BaY2F8
_symmetry_space_group_name_H-M   'P 1'
_cell_length_a   6.39332559
_cell_length_b   6.39332559
_cell_length_c   4.33404414
_cell_angle_alpha   84.78555755
_cell_angle_beta   95.21444245
_cell_angle_gamma   67.24652196
_symmetry_Int_Tables_number   1
_chemical_formula_structural   BaY2F8
_chemical_formula_sum   'Ba1 Y2 F8'
_cell_volume   161.15048195
_cell_formula_units_Z   1
loop_
 _symmetry_equiv_pos_site_id
 _symmetry_equiv_pos_as_xyz
  1  'x, y, z'
loop_
 _atom_site_type_symbol
 _atom_site_label
 _atom_site_symmetry_multiplicity
 _atom_site_fract_x
 _atom_site_fract_y
 _atom_site_fract_z
 _atom_site_occupancy
  Ba  Ba0  1  0.00181477  0.99818523  0.99887165  1
  Y  Y1  1  0.32608738  0.32194813  0.49921520  1
  Y  Y2  1  0.67805187  0.67391262  0.49921520  1
  F  F3  1  0.04911720  0.66901007  0.56290167  1
  F  F4  1  0.33098993  0.95088280  0.56290167  1
  F  F5  1  0.39301340  0.60698660  0.22425123  1
  F  F6  1  0.74695532  0.73374824  0.00057224  1
  F  F7  1  0.26625176  0.25304468  0.00057224  1
  F  F8  1  0.60962440  0.39037560  0.77181046  1
  F  F9  1  0.67536512  0.04333113  0.43984271  1
  F  F10  1  0.95666887  0.32463488  0.43984271  1
