# generated using pymatgen
data_Ca(ClO3)2
_symmetry_space_group_name_H-M   'P 1'
_cell_length_a   7.15858257
_cell_length_b   10.72176585
_cell_length_c   7.41484039
_cell_angle_alpha   90.00000000
_cell_angle_beta   106.11301949
_cell_angle_gamma   90.00000000
_symmetry_Int_Tables_number   1
_chemical_formula_structural   Ca(ClO3)2
_chemical_formula_sum   'Ca4 Cl8 O24'
_cell_volume   546.75182228
_cell_formula_units_Z   4
loop_
 _symmetry_equiv_pos_site_id
 _symmetry_equiv_pos_as_xyz
  1  'x, y, z'
loop_
 _atom_site_type_symbol
 _atom_site_label
 _atom_site_symmetry_multiplicity
 _atom_site_fract_x
 _atom_site_fract_y
 _atom_site_fract_z
 _atom_site_occupancy
  Ca  Ca0  1  0.22598377  0.89211962  0.99022124  1
  Ca  Ca1  1  0.27401623  0.39211962  0.50977876  1
  Ca  Ca2  1  0.72598377  0.60788038  0.49022124  1
  Ca  Ca3  1  0.77401623  0.10788038  0.00977876  1
  Cl  Cl4  1  0.25267118  0.19801657  0.92059303  1
  Cl  Cl5  1  0.24732882  0.69801657  0.57940697  1
  Cl  Cl6  1  0.20976455  0.07070159  0.41749299  1
  Cl  Cl7  1  0.29023545  0.57070159  0.08250701  1
  Cl  Cl8  1  0.70976455  0.42929841  0.91749299  1
  Cl  Cl9  1  0.79023545  0.92929841  0.58250701  1
  Cl  Cl10  1  0.75267118  0.30198343  0.42059303  1
  Cl  Cl11  1  0.74732882  0.80198343  0.07940697  1
  O  O12  1  0.10135486  0.11043828  0.95890567  1
  O  O13  1  0.00416675  0.91026812  0.67586921  1
  O  O14  1  0.08846901  0.60782655  0.59463537  1
  O  O15  1  0.16450393  0.25334835  0.73181510  1
  O  O16  1  0.33549607  0.75334835  0.76818490  1
  O  O17  1  0.19258629  0.69178189  0.10941320  1
  O  O18  1  0.21264263  0.47250734  0.18636336  1
  O  O19  1  0.41153099  0.10782655  0.90536463  1
  O  O20  1  0.28735737  0.97250734  0.31363664  1
  O  O21  1  0.30741371  0.19178189  0.39058680  1
  O  O22  1  0.49583325  0.41026812  0.82413079  1
  O  O23  1  0.39864514  0.61043828  0.54109433  1
  O  O24  1  0.60135486  0.38956172  0.45890567  1
  O  O25  1  0.50416675  0.58973188  0.17586921  1
  O  O26  1  0.69258629  0.80821811  0.60941320  1
  O  O27  1  0.71264263  0.02749266  0.68636336  1
  O  O28  1  0.58846901  0.89217345  0.09463537  1
  O  O29  1  0.78735737  0.52749266  0.81363664  1
  O  O30  1  0.80741371  0.30821811  0.89058680  1
  O  O31  1  0.66450393  0.24665165  0.23181510  1
  O  O32  1  0.83549607  0.74665165  0.26818490  1
  O  O33  1  0.91153099  0.39217345  0.40536463  1
  O  O34  1  0.99583325  0.08973188  0.32413079  1
  O  O35  1  0.89864514  0.88956172  0.04109433  1
