# generated using pymatgen
data_YSeO3
_symmetry_space_group_name_H-M   'P 1'
_cell_length_a   6.03688415
_cell_length_b   12.49395968
_cell_length_c   8.87688846
_cell_angle_alpha   90.00000000
_cell_angle_beta   106.30649565
_cell_angle_gamma   90.00000000
_symmetry_Int_Tables_number   1
_chemical_formula_structural   YSeO3
_chemical_formula_sum   'Y8 Se8 O24'
_cell_volume   642.60254944
_cell_formula_units_Z   8
loop_
 _symmetry_equiv_pos_site_id
 _symmetry_equiv_pos_as_xyz
  1  'x, y, z'
loop_
 _atom_site_type_symbol
 _atom_site_label
 _atom_site_symmetry_multiplicity
 _atom_site_fract_x
 _atom_site_fract_y
 _atom_site_fract_z
 _atom_site_occupancy
  Y  Y0  1  0.23863248  0.44092380  0.91249995  1
  Y  Y1  1  0.23863248  0.05907620  0.41249995  1
  Y  Y2  1  0.36445017  0.75921678  0.85687691  1
  Y  Y3  1  0.36445017  0.74078322  0.35687691  1
  Y  Y4  1  0.63554983  0.25921678  0.64312309  1
  Y  Y5  1  0.63554983  0.24078322  0.14312309  1
  Y  Y6  1  0.76136752  0.94092380  0.58750005  1
  Y  Y7  1  0.76136752  0.55907620  0.08750005  1
  Se  Se8  1  0.04365259  0.15976591  0.00181524  1
  Se  Se9  1  0.04365259  0.34023409  0.50181524  1
  Se  Se10  1  0.37376216  0.01515432  0.82444253  1
  Se  Se11  1  0.37376216  0.48484568  0.32444253  1
  Se  Se12  1  0.62623784  0.51515432  0.67555747  1
  Se  Se13  1  0.62623784  0.98484568  0.17555747  1
  Se  Se14  1  0.95634741  0.65976591  0.49818476  1
  Se  Se15  1  0.95634741  0.84023409  0.99818476  1
  O  O16  1  0.98534017  0.82888512  0.81024271  1
  O  O17  1  0.98534017  0.67111488  0.31024271  1
  O  O18  1  0.13491345  0.01854365  0.64846193  1
  O  O19  1  0.21251117  0.72922623  0.58741966  1
  O  O20  1  0.24892313  0.24437918  0.49877651  1
  O  O21  1  0.13491345  0.48145635  0.14846193  1
  O  O22  1  0.40807546  0.59544871  0.92039901  1
  O  O23  1  0.21251117  0.77077377  0.08741966  1
  O  O24  1  0.24892313  0.25562082  0.99877651  1
  O  O25  1  0.44835263  0.40806575  0.71739996  1
  O  O26  1  0.40807546  0.90455129  0.42039901  1
  O  O27  1  0.55164737  0.90806575  0.78260004  1
  O  O28  1  0.44835263  0.09193425  0.21739996  1
  O  O29  1  0.59192454  0.09544871  0.57960099  1
  O  O30  1  0.55164737  0.59193425  0.28260004  1
  O  O31  1  0.75107687  0.74437918  0.00122349  1
  O  O32  1  0.78748883  0.22922623  0.91258034  1
  O  O33  1  0.59192454  0.40455129  0.07960099  1
  O  O34  1  0.86508655  0.51854365  0.85153807  1
  O  O35  1  0.75107687  0.75562082  0.50122349  1
  O  O36  1  0.78748883  0.27077377  0.41258034  1
  O  O37  1  0.86508655  0.98145635  0.35153807  1
  O  O38  1  0.01465983  0.32888512  0.68975729  1
  O  O39  1  0.01465983  0.17111488  0.18975729  1
