# generated using pymatgen
data_Ho3ReO8
_symmetry_space_group_name_H-M   'P 1'
_cell_length_a   14.47108703
_cell_length_b   7.25163151
_cell_length_c   6.02754338
_cell_angle_alpha   90.00000000
_cell_angle_beta   90.00000000
_cell_angle_gamma   111.45272063
_symmetry_Int_Tables_number   1
_chemical_formula_structural   Ho3ReO8
_chemical_formula_sum   'Ho12 Re4 O32'
_cell_volume   588.70283196
_cell_formula_units_Z   4
loop_
 _symmetry_equiv_pos_site_id
 _symmetry_equiv_pos_as_xyz
  1  'x, y, z'
loop_
 _atom_site_type_symbol
 _atom_site_label
 _atom_site_symmetry_multiplicity
 _atom_site_fract_x
 _atom_site_fract_y
 _atom_site_fract_z
 _atom_site_occupancy
  Ho  Ho0  1  0.05552147  0.34057110  0.79783317  1
  Ho  Ho1  1  0.20181782  0.59413716  0.25601045  1
  Ho  Ho2  1  0.16776281  0.10953382  0.30611339  1
  Ho  Ho3  1  0.33223719  0.89046618  0.80611339  1
  Ho  Ho4  1  0.29818218  0.40586284  0.75601045  1
  Ho  Ho5  1  0.44447853  0.65942890  0.29783317  1
  Ho  Ho6  1  0.55552147  0.34057110  0.70216683  1
  Ho  Ho7  1  0.70181782  0.59413716  0.24398955  1
  Ho  Ho8  1  0.66776281  0.10953382  0.19388661  1
  Ho  Ho9  1  0.83223719  0.89046618  0.69388661  1
  Ho  Ho10  1  0.79818218  0.40586284  0.74398955  1
  Ho  Ho11  1  0.94447853  0.65942890  0.20216683  1
  Re  Re12  1  0.08991895  0.82078248  0.75463796  1
  Re  Re13  1  0.41008105  0.17921752  0.25463796  1
  Re  Re14  1  0.58991895  0.82078248  0.74536204  1
  Re  Re15  1  0.91008105  0.17921752  0.24536204  1
  O  O16  1  0.01891743  0.97786817  0.69984459  1
  O  O17  1  0.08879037  0.87480532  0.05746329  1
  O  O18  1  0.02102115  0.41716007  0.19376814  1
  O  O19  1  0.09583689  0.74638999  0.45473236  1
  O  O20  1  0.17099995  0.66506480  0.85026167  1
  O  O21  1  0.15818528  0.35178135  0.52640297  1
  O  O22  1  0.17280824  0.31250789  0.02613806  1
  O  O23  1  0.28570727  0.96618856  0.20521302  1
  O  O24  1  0.21429273  0.03381144  0.70521302  1
  O  O25  1  0.32719176  0.68749211  0.52613806  1
  O  O26  1  0.34181472  0.64821865  0.02640297  1
  O  O27  1  0.32900005  0.33493520  0.35026167  1
  O  O28  1  0.51891743  0.97786817  0.80015541  1
  O  O29  1  0.40416311  0.25361001  0.95473236  1
  O  O30  1  0.47897885  0.58283993  0.69376814  1
  O  O31  1  0.41120963  0.12519468  0.55746329  1
  O  O32  1  0.58879037  0.87480532  0.44253671  1
  O  O33  1  0.52102115  0.41716007  0.30623186  1
  O  O34  1  0.59583689  0.74638999  0.04526764  1
  O  O35  1  0.48108257  0.02213183  0.19984459  1
  O  O36  1  0.67099995  0.66506480  0.64973833  1
  O  O37  1  0.65818528  0.35178135  0.97359703  1
  O  O38  1  0.67280824  0.31250789  0.47386194  1
  O  O39  1  0.78570727  0.96618856  0.29478698  1
  O  O40  1  0.71429273  0.03381144  0.79478698  1
  O  O41  1  0.82719176  0.68749211  0.97386194  1
  O  O42  1  0.84181472  0.64821865  0.47359703  1
  O  O43  1  0.82900005  0.33493520  0.14973833  1
  O  O44  1  0.90416311  0.25361001  0.54526764  1
  O  O45  1  0.97897885  0.58283993  0.80623186  1
  O  O46  1  0.91120963  0.12519468  0.94253671  1
  O  O47  1  0.98108257  0.02213183  0.30015541  1
