# generated using pymatgen
data_BaTa6O16
_symmetry_space_group_name_H-M   'P 1'
_cell_length_a   3.91802921
_cell_length_b   9.23290147
_cell_length_c   9.23290147
_cell_angle_alpha   68.57845098
_cell_angle_beta   90.00000000
_cell_angle_gamma   90.00000000
_symmetry_Int_Tables_number   1
_chemical_formula_structural   BaTa6O16
_chemical_formula_sum   'Ba1 Ta6 O16'
_cell_volume   310.92507077
_cell_formula_units_Z   1
loop_
 _symmetry_equiv_pos_site_id
 _symmetry_equiv_pos_as_xyz
  1  'x, y, z'
loop_
 _atom_site_type_symbol
 _atom_site_label
 _atom_site_symmetry_multiplicity
 _atom_site_fract_x
 _atom_site_fract_y
 _atom_site_fract_z
 _atom_site_occupancy
  Ba  Ba0  1  0.50000000  0.40021874  0.40021874  1
  Ta  Ta1  1  0.00000000  0.99211140  0.99211140  1
  Ta  Ta2  1  0.00000000  0.99923660  0.63060526  1
  Ta  Ta3  1  0.00000000  0.20526037  0.20526037  1
  Ta  Ta4  1  0.00000000  0.38016875  0.75222374  1
  Ta  Ta5  1  0.00000000  0.63060526  0.99923660  1
  Ta  Ta6  1  0.00000000  0.75222374  0.38016875  1
  O  O7  1  0.00000000  0.17589411  0.43184539  1
  O  O8  1  0.00000000  0.14895874  0.75344754  1
  O  O9  1  0.00000000  0.22754286  0.98246159  1
  O  O10  1  0.00000000  0.43184539  0.17589411  1
  O  O11  1  0.00000000  0.52275190  0.52275190  1
  O  O12  1  0.00000000  0.53826516  0.83713703  1
  O  O13  1  0.00000000  0.75344754  0.14895874  1
  O  O14  1  0.00000000  0.83713703  0.53826516  1
  O  O15  1  0.00000000  0.85682742  0.85682742  1
  O  O16  1  0.00000000  0.98246159  0.22754286  1
  O  O17  1  0.50000000  0.36907467  0.72511099  1
  O  O18  1  0.50000000  0.00292145  0.62814625  1
  O  O19  1  0.50000000  0.99647825  0.99647825  1
  O  O20  1  0.50000000  0.21331179  0.21331179  1
  O  O21  1  0.50000000  0.62814625  0.00292145  1
  O  O22  1  0.50000000  0.72511099  0.36907467  1
