# generated using pymatgen
data_YFeGe2O7
_symmetry_space_group_name_H-M   'P 1'
_cell_length_a   6.72585193
_cell_length_b   8.69589961
_cell_length_c   9.83091359
_cell_angle_alpha   90.00000000
_cell_angle_beta   100.49766491
_cell_angle_gamma   90.00000000
_symmetry_Int_Tables_number   1
_chemical_formula_structural   YFeGe2O7
_chemical_formula_sum   'Y4 Fe4 Ge8 O28'
_cell_volume   565.36002954
_cell_formula_units_Z   4
loop_
 _symmetry_equiv_pos_site_id
 _symmetry_equiv_pos_as_xyz
  1  'x, y, z'
loop_
 _atom_site_type_symbol
 _atom_site_label
 _atom_site_symmetry_multiplicity
 _atom_site_fract_x
 _atom_site_fract_y
 _atom_site_fract_z
 _atom_site_occupancy
  Y  Y0  1  0.24963852  0.04314412  0.25123143  1
  Y  Y1  1  0.75036148  0.54314412  0.74876857  1
  Y  Y2  1  0.75036148  0.95685588  0.74876857  1
  Y  Y3  1  0.24963852  0.45685588  0.25123143  1
  Fe  Fe4  1  0.74955675  0.94631433  0.24990617  1
  Fe  Fe5  1  0.25044325  0.44631433  0.75009383  1
  Fe  Fe6  1  0.25044325  0.05368567  0.75009383  1
  Fe  Fe7  1  0.74955675  0.55368567  0.24990617  1
  Ge  Ge8  1  0.95385523  0.25000000  0.46994502  1
  Ge  Ge9  1  0.04614477  0.75000000  0.53005498  1
  Ge  Ge10  1  0.52106856  0.75000000  0.44618003  1
  Ge  Ge11  1  0.47893144  0.25000000  0.55381997  1
  Ge  Ge12  1  0.97451462  0.75000000  0.05266633  1
  Ge  Ge13  1  0.02548538  0.25000000  0.94733367  1
  Ge  Ge14  1  0.45071307  0.75000000  0.96834584  1
  Ge  Ge15  1  0.54928693  0.25000000  0.03165416  1
  O  O16  1  0.52962105  0.92717782  0.35934284  1
  O  O17  1  0.47037895  0.42717782  0.64065716  1
  O  O18  1  0.47037895  0.07282218  0.64065716  1
  O  O19  1  0.52962105  0.57282218  0.35934284  1
  O  O20  1  0.65460711  0.75000000  0.11491219  1
  O  O21  1  0.34539289  0.25000000  0.88508781  1
  O  O22  1  0.24985368  0.75000000  0.06466278  1
  O  O23  1  0.75014632  0.25000000  0.93533722  1
  O  O24  1  0.24526621  0.75000000  0.43160680  1
  O  O25  1  0.75473379  0.25000000  0.56839320  1
  O  O26  1  0.96922218  0.57294812  0.14089709  1
  O  O27  1  0.03077782  0.07294812  0.85910291  1
  O  O28  1  0.03077782  0.42705188  0.85910291  1
  O  O29  1  0.96922218  0.92705188  0.14089709  1
  O  O30  1  0.84784645  0.75000000  0.88109234  1
  O  O31  1  0.15215355  0.25000000  0.11890766  1
  O  O32  1  0.45781934  0.58623865  0.86064791  1
  O  O33  1  0.54218066  0.08623865  0.13935209  1
  O  O34  1  0.54218066  0.41376135  0.13935209  1
  O  O35  1  0.45781934  0.91376135  0.86064791  1
  O  O36  1  0.64657645  0.75000000  0.61768067  1
  O  O37  1  0.35342355  0.25000000  0.38231933  1
  O  O38  1  0.84174592  0.75000000  0.38418249  1
  O  O39  1  0.15825408  0.25000000  0.61581751  1
  O  O40  1  0.95842951  0.08596668  0.36225788  1
  O  O41  1  0.04157049  0.58596668  0.63774212  1
  O  O42  1  0.04157049  0.91403332  0.63774212  1
  O  O43  1  0.95842951  0.41403332  0.36225788  1
