# generated using pymatgen
data_V2SiO4
_symmetry_space_group_name_H-M   'P 1'
_cell_length_a   4.88179430
_cell_length_b   10.68107898
_cell_length_c   6.27144531
_cell_angle_alpha   90.00000000
_cell_angle_beta   90.00000000
_cell_angle_gamma   90.00000000
_symmetry_Int_Tables_number   1
_chemical_formula_structural   V2SiO4
_chemical_formula_sum   'V8 Si4 O16'
_cell_volume   327.01090968
_cell_formula_units_Z   4
loop_
 _symmetry_equiv_pos_site_id
 _symmetry_equiv_pos_as_xyz
  1  'x, y, z'
loop_
 _atom_site_type_symbol
 _atom_site_label
 _atom_site_symmetry_multiplicity
 _atom_site_fract_x
 _atom_site_fract_y
 _atom_site_fract_z
 _atom_site_occupancy
  V  V0  1  0.00000000  0.00000000  0.00000000  1
  V  V1  1  0.00000000  0.00000000  0.50000000  1
  V  V2  1  0.00462609  0.72501184  0.75000000  1
  V  V3  1  0.49537391  0.22501184  0.75000000  1
  V  V4  1  0.50000000  0.50000000  0.50000000  1
  V  V5  1  0.50000000  0.50000000  0.00000000  1
  V  V6  1  0.50462609  0.77498816  0.25000000  1
  V  V7  1  0.99537391  0.27498816  0.25000000  1
  Si  Si8  1  0.07184440  0.59559616  0.25000000  1
  Si  Si9  1  0.42815560  0.09559616  0.25000000  1
  Si  Si10  1  0.57184440  0.90440384  0.75000000  1
  Si  Si11  1  0.92815560  0.40440384  0.75000000  1
  O  O12  1  0.20922720  0.45214413  0.25000000  1
  O  O13  1  0.21853858  0.66204711  0.03923193  1
  O  O14  1  0.21853858  0.66204711  0.46076807  1
  O  O15  1  0.26329811  0.40482961  0.75000000  1
  O  O16  1  0.23670189  0.90482961  0.75000000  1
  O  O17  1  0.28146142  0.16204711  0.03923193  1
  O  O18  1  0.28146142  0.16204711  0.46076807  1
  O  O19  1  0.29077280  0.95214413  0.25000000  1
  O  O20  1  0.70922720  0.04785587  0.75000000  1
  O  O21  1  0.71853858  0.83795289  0.96076807  1
  O  O22  1  0.71853858  0.83795289  0.53923193  1
  O  O23  1  0.76329811  0.09517039  0.25000000  1
  O  O24  1  0.73670189  0.59517039  0.25000000  1
  O  O25  1  0.78146142  0.33795289  0.96076807  1
  O  O26  1  0.78146142  0.33795289  0.53923193  1
  O  O27  1  0.79077280  0.54785587  0.75000000  1
