# generated using pymatgen
data_Sc(ClO4)3
_symmetry_space_group_name_H-M   'P 1'
_cell_length_a   9.18144363
_cell_length_b   9.18144363
_cell_length_c   9.18144365
_cell_angle_alpha   51.99120490
_cell_angle_beta   51.99120490
_cell_angle_gamma   51.99120450
_symmetry_Int_Tables_number   1
_chemical_formula_structural   Sc(ClO4)3
_chemical_formula_sum   'Sc2 Cl6 O24'
_cell_volume   444.23716953
_cell_formula_units_Z   2
loop_
 _symmetry_equiv_pos_site_id
 _symmetry_equiv_pos_as_xyz
  1  'x, y, z'
loop_
 _atom_site_type_symbol
 _atom_site_label
 _atom_site_symmetry_multiplicity
 _atom_site_fract_x
 _atom_site_fract_y
 _atom_site_fract_z
 _atom_site_occupancy
  Sc  Sc0  1  0.05729813  0.05729813  0.05729813  1
  Sc  Sc1  1  0.55729813  0.55729813  0.55729813  1
  Cl  Cl2  1  0.34435985  0.96445698  0.69173324  1
  Cl  Cl3  1  0.46445698  0.84435985  0.19173324  1
  Cl  Cl4  1  0.19173324  0.46445698  0.84435985  1
  Cl  Cl5  1  0.96445698  0.69173324  0.34435985  1
  Cl  Cl6  1  0.69173324  0.34435985  0.96445698  1
  Cl  Cl7  1  0.84435985  0.19173324  0.46445698  1
  O  O8  1  0.07756855  0.75949471  0.12422560  1
  O  O9  1  0.27565557  0.88623669  0.20333506  1
  O  O10  1  0.99695646  0.57694750  0.94863266  1
  O  O11  1  0.39141383  0.91612785  0.84806631  1
  O  O12  1  0.41612785  0.89141383  0.34806631  1
  O  O13  1  0.07694750  0.49695646  0.44863266  1
  O  O14  1  0.38623669  0.77565557  0.70333506  1
  O  O15  1  0.57694750  0.94863266  0.99695646  1
  O  O16  1  0.25949471  0.57756855  0.62422560  1
  O  O17  1  0.20333506  0.27565557  0.88623669  1
  O  O18  1  0.34806631  0.41612785  0.89141383  1
  O  O19  1  0.57756855  0.62422560  0.25949471  1
  O  O20  1  0.49695646  0.44863266  0.07694750  1
  O  O21  1  0.12422560  0.07756855  0.75949471  1
  O  O22  1  0.91612785  0.84806631  0.39141383  1
  O  O23  1  0.77565557  0.70333506  0.38623669  1
  O  O24  1  0.70333506  0.38623669  0.77565557  1
  O  O25  1  0.44863266  0.07694750  0.49695646  1
  O  O26  1  0.62422560  0.25949471  0.57756855  1
  O  O27  1  0.84806631  0.39141383  0.91612785  1
  O  O28  1  0.89141383  0.34806631  0.41612785  1
  O  O29  1  0.75949471  0.12422560  0.07756855  1
  O  O30  1  0.88623669  0.20333506  0.27565557  1
  O  O31  1  0.94863266  0.99695646  0.57694750  1
