# generated using pymatgen
data_MnNb3(PO4)6
_symmetry_space_group_name_H-M   'P 1'
_cell_length_a   8.98471090
_cell_length_b   8.98471090
_cell_length_c   8.98471121
_cell_angle_alpha   58.54981837
_cell_angle_beta   58.54981875
_cell_angle_gamma   58.54982096
_symmetry_Int_Tables_number   1
_chemical_formula_structural   MnNb3(PO4)6
_chemical_formula_sum   'Mn1 Nb3 P6 O24'
_cell_volume   495.84938360
_cell_formula_units_Z   1
loop_
 _symmetry_equiv_pos_site_id
 _symmetry_equiv_pos_as_xyz
  1  'x, y, z'
loop_
 _atom_site_type_symbol
 _atom_site_label
 _atom_site_symmetry_multiplicity
 _atom_site_fract_x
 _atom_site_fract_y
 _atom_site_fract_z
 _atom_site_occupancy
  Mn  Mn0  1  0.85685325  0.85685325  0.85685325  1
  Nb  Nb1  1  0.14056061  0.14056061  0.14056061  1
  Nb  Nb2  1  0.35834254  0.35834254  0.35834254  1
  Nb  Nb3  1  0.63956757  0.63956757  0.63956757  1
  P  P4  1  0.03239913  0.75053337  0.47080189  1
  P  P5  1  0.47080189  0.03239913  0.75053337  1
  P  P6  1  0.75053337  0.47080189  0.03239913  1
  P  P7  1  0.24251036  0.54004374  0.96531708  1
  P  P8  1  0.54004374  0.96531708  0.24251036  1
  P  P9  1  0.96531708  0.24251036  0.54004374  1
  O  O10  1  0.13269355  0.28422581  0.49976563  1
  O  O11  1  0.28422581  0.49976563  0.13269355  1
  O  O12  1  0.06228781  0.92009116  0.28870005  1
  O  O13  1  0.49976563  0.13269355  0.28422581  1
  O  O14  1  0.21029415  0.58055200  0.43318713  1
  O  O15  1  0.01228576  0.77588660  0.63379632  1
  O  O16  1  0.28870005  0.06228781  0.92009116  1
  O  O17  1  0.43318713  0.21029415  0.58055200  1
  O  O18  1  0.58055200  0.43318713  0.21029415  1
  O  O19  1  0.21989601  0.36475905  0.99659992  1
  O  O20  1  0.07808001  0.71514032  0.94138187  1
  O  O21  1  0.36475905  0.99659992  0.21989601  1
  O  O22  1  0.63379632  0.01228576  0.77588660  1
  O  O23  1  0.92009116  0.28870005  0.06228781  1
  O  O24  1  0.77588660  0.63379632  0.01228576  1
  O  O25  1  0.42118184  0.56046615  0.79031852  1
  O  O26  1  0.56046615  0.79031852  0.42118184  1
  O  O27  1  0.71514032  0.94138187  0.07808001  1
  O  O28  1  0.99659992  0.21989601  0.36475905  1
  O  O29  1  0.79031852  0.42118184  0.56046615  1
  O  O30  1  0.49700695  0.86500407  0.71946878  1
  O  O31  1  0.94138187  0.07808001  0.71514032  1
  O  O32  1  0.71946878  0.49700695  0.86500407  1
  O  O33  1  0.86500407  0.71946878  0.49700695  1
