# generated using pymatgen
data_MnVHPbO5
_symmetry_space_group_name_H-M   'P 1'
_cell_length_a   7.76839531
_cell_length_b   6.32976225
_cell_length_c   9.59842489
_cell_angle_alpha   90.00369143
_cell_angle_beta   89.99964593
_cell_angle_gamma   90.00043096
_symmetry_Int_Tables_number   1
_chemical_formula_structural   MnVHPbO5
_chemical_formula_sum   'Mn4 V4 H4 Pb4 O20'
_cell_volume   471.97466316
_cell_formula_units_Z   4
loop_
 _symmetry_equiv_pos_site_id
 _symmetry_equiv_pos_as_xyz
  1  'x, y, z'
loop_
 _atom_site_type_symbol
 _atom_site_label
 _atom_site_symmetry_multiplicity
 _atom_site_fract_x
 _atom_site_fract_y
 _atom_site_fract_z
 _atom_site_occupancy
  Mn  Mn0  1  0.99998952  0.00001986  0.50000052  1
  Mn  Mn1  1  0.00000482  0.49998865  0.50002209  1
  Mn  Mn2  1  0.49999356  -0.00000942  0.00001802  1
  Mn  Mn3  1  0.49999225  0.50000126  0.00004143  1
  V  V4  1  0.12744583  0.24998580  0.81859166  1
  V  V5  1  0.37256264  0.75001906  0.31857238  1
  V  V6  1  0.62744648  0.25002005  0.68141801  1
  V  V7  1  0.87257135  0.74997570  0.18140188  1
  H  H8  1  0.27047529  0.25000034  0.48066197  1
  H  H9  1  0.22953993  0.75000713  0.98066779  1
  H  H10  1  0.77049093  0.25001586  0.01930809  1
  H  H11  1  0.72953085  0.75000833  0.51930336  1
  Pb  Pb12  1  0.13807691  0.24995723  0.18289887  1
  Pb  Pb13  1  0.36185234  0.74989995  0.68289728  1
  Pb  Pb14  1  0.63809047  0.24999803  0.31711434  1
  Pb  Pb15  1  0.86183323  0.75011806  0.81710102  1
  O  O16  1  0.04288892  0.75000654  0.07049420  1
  O  O17  1  0.11591726  0.01534085  0.71558851  1
  O  O18  1  0.11593843  0.48463689  0.71560099  1
  O  O19  1  0.15627463  0.24999791  0.43190464  1
  O  O20  1  0.18891566  0.75000123  0.42912726  1
  O  O21  1  0.31108899  0.24998846  0.92915515  1
  O  O22  1  0.34376596  0.74998938  0.93189234  1
  O  O23  1  0.38410482  0.51534983  0.21559845  1
  O  O24  1  0.38411028  0.98466393  0.21560026  1
  O  O25  1  0.45711035  0.25006799  0.57045750  1
  O  O26  1  0.54291463  0.75004491  0.42951478  1
  O  O27  1  0.61588710  0.01535577  0.78439079  1
  O  O28  1  0.61589333  0.48465172  0.78443260  1
  O  O29  1  0.65626177  0.24998403  0.06811364  1
  O  O30  1  0.68892579  0.74998969  0.07083859  1
  O  O31  1  0.81110039  0.25002177  0.57088314  1
  O  O32  1  0.84373076  0.74999716  0.56808741  1
  O  O33  1  0.88409104  0.51531430  0.28438189  1
  O  O34  1  0.88406654  0.98461433  0.28441195  1
  O  O35  1  0.95711694  0.24997745  0.92950717  1
