# generated using pymatgen
data_Li3Mn4(FeO6)2
_symmetry_space_group_name_H-M   'P 1'
_cell_length_a   5.94560614
_cell_length_b   5.93080353
_cell_length_c   14.45116981
_cell_angle_alpha   89.91218175
_cell_angle_beta   91.05181804
_cell_angle_gamma   60.50690995
_symmetry_Int_Tables_number   1
_chemical_formula_structural   Li3Mn4(FeO6)2
_chemical_formula_sum   'Li6 Mn8 Fe4 O24'
_cell_volume   443.43897716
_cell_formula_units_Z   2
loop_
 _symmetry_equiv_pos_site_id
 _symmetry_equiv_pos_as_xyz
  1  'x, y, z'
loop_
 _atom_site_type_symbol
 _atom_site_label
 _atom_site_symmetry_multiplicity
 _atom_site_fract_x
 _atom_site_fract_y
 _atom_site_fract_z
 _atom_site_occupancy
  Li  Li0  1  0.67877268  0.66468809  0.07995912  1
  Li  Li1  1  0.00693043  0.98588293  0.00334085  1
  Li  Li2  1  0.65408498  0.66792434  0.33633245  1
  Li  Li3  1  0.34591502  0.33207566  0.41366755  1
  Li  Li4  1  0.32122732  0.33531191  0.67004088  1
  Li  Li5  1  0.99306957  0.01411707  0.74665915  1
  Mn  Mn6  1  0.34662949  0.32366220  0.04143384  1
  Mn  Mn7  1  0.16876451  0.66325962  0.20774857  1
  Mn  Mn8  1  0.66908943  0.16304068  0.20888452  1
  Mn  Mn9  1  0.33091057  0.83695932  0.54111548  1
  Mn  Mn10  1  0.83123549  0.33674038  0.54225143  1
  Mn  Mn11  1  0.65337051  0.67633780  0.70856616  1
  Mn  Mn12  1  0.00000000  0.00000000  0.37500000  1
  Mn  Mn13  1  0.50000000  0.00000000  0.87500000  1
  Fe  Fe14  1  0.83070170  0.83597477  0.54171711  1
  Fe  Fe15  1  0.16929830  0.16402523  0.20828289  1
  Fe  Fe16  1  0.00000000  0.50000000  0.87500000  1
  Fe  Fe17  1  0.50000000  0.50000000  0.87500000  1
  O  O18  1  0.82542739  0.87128846  0.29456720  1
  O  O19  1  0.28978349  0.84612493  0.29137272  1
  O  O20  1  0.05119286  0.47664591  0.12325019  1
  O  O21  1  0.51581267  0.45285408  0.12282003  1
  O  O22  1  0.34782367  0.33354325  0.27679703  1
  O  O23  1  0.15246020  0.70328229  0.46128540  1
  O  O24  1  0.49365878  0.02905191  0.12948334  1
  O  O25  1  0.98922071  0.99506266  0.14007620  1
  O  O26  1  0.65217633  0.66645675  0.47320297  1
  O  O27  1  0.84753980  0.29671771  0.28871460  1
  O  O28  1  0.50634122  0.97094809  0.62051666  1
  O  O29  1  0.48418733  0.54714592  0.62717997  1
  O  O30  1  0.94880714  0.52335409  0.62674981  1
  O  O31  1  0.79989891  0.83154116  0.79373073  1
  O  O32  1  0.36491935  0.82860852  0.79430814  1
  O  O33  1  0.17457261  0.12871154  0.45543280  1
  O  O34  1  0.71021651  0.15387507  0.45862728  1
  O  O35  1  0.80608023  0.37711310  0.79028796  1
  O  O36  1  0.66566994  0.67780179  0.94530649  1
  O  O37  1  0.01077929  0.00493734  0.60992380  1
  O  O38  1  0.33433006  0.32219821  0.80469351  1
  O  O39  1  0.19391977  0.62288690  0.95971204  1
  O  O40  1  0.63508065  0.17139148  0.95569186  1
  O  O41  1  0.20010109  0.16845884  0.95626927  1
