# generated using pymatgen
data_SnPHO5
_symmetry_space_group_name_H-M   'P 1'
_cell_length_a   5.35843579
_cell_length_b   7.63921716
_cell_length_c   5.30509434
_cell_angle_alpha   110.04639749
_cell_angle_beta   96.94018384
_cell_angle_gamma   106.68150682
_symmetry_Int_Tables_number   1
_chemical_formula_structural   SnPHO5
_chemical_formula_sum   'Sn2 P2 H2 O10'
_cell_volume   189.53026931
_cell_formula_units_Z   2
loop_
 _symmetry_equiv_pos_site_id
 _symmetry_equiv_pos_as_xyz
  1  'x, y, z'
loop_
 _atom_site_type_symbol
 _atom_site_label
 _atom_site_symmetry_multiplicity
 _atom_site_fract_x
 _atom_site_fract_y
 _atom_site_fract_z
 _atom_site_occupancy
  Sn  Sn0  1  0.00000000  0.50000000  0.00000000  1
  Sn  Sn1  1  0.00000000  0.00000000  0.00000000  1
  P  P2  1  0.35367674  0.22729878  0.66819978  1
  P  P3  1  0.64632326  0.77270122  0.33180022  1
  H  H4  1  0.03360103  0.33695322  0.36018986  1
  H  H5  1  0.96639897  0.66304678  0.63981014  1
  O  O6  1  0.04547227  0.72112318  0.84295309  1
  O  O7  1  0.19452656  0.37478974  0.70484527  1
  O  O8  1  0.34744987  0.66037961  0.30330835  1
  O  O9  1  0.24141977  0.06407094  0.37293917  1
  O  O10  1  0.33169272  0.13472122  0.88467234  1
  O  O11  1  0.66830728  0.86527878  0.11532766  1
  O  O12  1  0.75858023  0.93592906  0.62706083  1
  O  O13  1  0.65255013  0.33962039  0.69669165  1
  O  O14  1  0.80547344  0.62521026  0.29515473  1
  O  O15  1  0.95452773  0.27887682  0.15704691  1
