# generated using pymatgen
data_Rb2S2O7
_symmetry_space_group_name_H-M   'P 1'
_cell_length_a   13.24963355
_cell_length_b   7.74196071
_cell_length_c   7.76993722
_cell_angle_alpha   90.00000000
_cell_angle_beta   89.42333887
_cell_angle_gamma   90.00000000
_symmetry_Int_Tables_number   1
_chemical_formula_structural   Rb2S2O7
_chemical_formula_sum   'Rb8 S8 O28'
_cell_volume   796.98535913
_cell_formula_units_Z   4
loop_
 _symmetry_equiv_pos_site_id
 _symmetry_equiv_pos_as_xyz
  1  'x, y, z'
loop_
 _atom_site_type_symbol
 _atom_site_label
 _atom_site_symmetry_multiplicity
 _atom_site_fract_x
 _atom_site_fract_y
 _atom_site_fract_z
 _atom_site_occupancy
  Rb  Rb0  1  0.13065198  0.22579391  0.19237473  1
  Rb  Rb1  1  0.15694990  0.87691377  0.64086009  1
  Rb  Rb2  1  0.34305010  0.37691377  0.85913991  1
  Rb  Rb3  1  0.36934802  0.72579391  0.30762527  1
  Rb  Rb4  1  0.63065198  0.27420609  0.69237473  1
  Rb  Rb5  1  0.65694990  0.62308623  0.14086009  1
  Rb  Rb6  1  0.84305010  0.12308523  0.35913991  1
  Rb  Rb7  1  0.86934802  0.77420609  0.80762527  1
  S  S8  1  0.07946463  0.32633805  0.68154067  1
  S  S9  1  0.11238995  0.72405447  0.12070342  1
  S  S10  1  0.38761005  0.22405447  0.37929658  1
  S  S11  1  0.42053537  0.82633805  0.81845933  1
  S  S12  1  0.57946463  0.17366195  0.18154067  1
  S  S13  1  0.61238995  0.77594553  0.62070342  1
  S  S14  1  0.88761005  0.27594553  0.87929658  1
  S  S15  1  0.92053537  0.67366195  0.31845933  1
  O  O16  1  0.02316197  0.59836967  0.21178369  1
  O  O17  1  0.04154007  0.21638772  0.54354832  1
  O  O18  1  0.06348781  0.81942758  0.98332402  1
  O  O19  1  0.12597562  0.48665684  0.62506998  1
  O  O20  1  0.13766856  0.23014666  0.80889457  1
  O  O21  1  0.15149216  0.83469690  0.25745486  1
  O  O22  1  0.18362927  0.59180923  0.06325713  1
  O  O23  1  0.31637073  0.09180923  0.43674287  1
  O  O24  1  0.36233144  0.73014666  0.69110543  1
  O  O25  1  0.37402438  0.98665684  0.87493002  1
  O  O26  1  0.34850784  0.33469690  0.24254514  1
  O  O27  1  0.43651219  0.31942758  0.51667598  1
  O  O28  1  0.45845993  0.71638772  0.95645168  1
  O  O29  1  0.47683803  0.09836967  0.28821631  1
  O  O30  1  0.52316197  0.90163033  0.71178369  1
  O  O31  1  0.54154007  0.28361228  0.04354832  1
  O  O32  1  0.56348781  0.68057242  0.48332402  1
  O  O33  1  0.65149216  0.66530310  0.75745486  1
  O  O34  1  0.62597562  0.01334316  0.12506998  1
  O  O35  1  0.63766856  0.26985334  0.30889457  1
  O  O36  1  0.68362927  0.90819077  0.56325713  1
  O  O37  1  0.81637073  0.40819077  0.93674287  1
  O  O38  1  0.84850784  0.16530310  0.74254514  1
  O  O39  1  0.86233144  0.76985334  0.19110543  1
  O  O40  1  0.87402438  0.51334316  0.37493002  1
  O  O41  1  0.93651219  0.18057242  0.01667598  1
  O  O42  1  0.95845993  0.78361228  0.45645168  1
  O  O43  1  0.97683803  0.40163033  0.78821631  1
