# generated using pymatgen
data_Rb4SiO4
_symmetry_space_group_name_H-M   'P 1'
_cell_length_a   11.01516836
_cell_length_b   6.79137705
_cell_length_c   10.93059132
_cell_angle_alpha   90.00000000
_cell_angle_beta   112.40195763
_cell_angle_gamma   90.00000000
_symmetry_Int_Tables_number   1
_chemical_formula_structural   Rb4SiO4
_chemical_formula_sum   'Rb16 Si4 O16'
_cell_volume   755.98827920
_cell_formula_units_Z   4
loop_
 _symmetry_equiv_pos_site_id
 _symmetry_equiv_pos_as_xyz
  1  'x, y, z'
loop_
 _atom_site_type_symbol
 _atom_site_label
 _atom_site_symmetry_multiplicity
 _atom_site_fract_x
 _atom_site_fract_y
 _atom_site_fract_z
 _atom_site_occupancy
  Rb  Rb0  1  0.06493942  0.40756988  0.69938944  1
  Rb  Rb1  1  0.15530823  0.88615901  0.58235934  1
  Rb  Rb2  1  0.06493942  0.09243012  0.19938944  1
  Rb  Rb3  1  0.36886097  0.66698641  0.89037884  1
  Rb  Rb4  1  0.42275808  0.18161294  0.79369988  1
  Rb  Rb5  1  0.15530823  0.61384099  0.08235934  1
  Rb  Rb6  1  0.36886097  0.83301359  0.39037884  1
  Rb  Rb7  1  0.57724192  0.68161294  0.70630012  1
  Rb  Rb8  1  0.42275808  0.31838706  0.29369988  1
  Rb  Rb9  1  0.63113903  0.16698641  0.60962116  1
  Rb  Rb10  1  0.84469177  0.38615901  0.91764066  1
  Rb  Rb11  1  0.57724192  0.81838706  0.20630012  1
  Rb  Rb12  1  0.63113903  0.33301359  0.10962116  1
  Rb  Rb13  1  0.93506058  0.90756988  0.80061056  1
  Rb  Rb14  1  0.84469177  0.11384099  0.41764066  1
  Rb  Rb15  1  0.93506058  0.59243012  0.30061056  1
  Si  Si16  1  0.24175349  0.13005386  0.98916833  1
  Si  Si17  1  0.24175349  0.36994614  0.48916833  1
  Si  Si18  1  0.75824651  0.63005386  0.51083167  1
  Si  Si19  1  0.75824651  0.86994614  0.01083167  1
  O  O20  1  0.09726877  0.23050899  0.97311764  1
  O  O21  1  0.21991826  0.00311159  0.85092134  1
  O  O22  1  0.09726877  0.26949101  0.47311764  1
  O  O23  1  0.29873545  0.51778274  0.62248511  1
  O  O24  1  0.21991826  0.49688841  0.35092134  1
  O  O25  1  0.35065532  0.18659909  0.50864232  1
  O  O26  1  0.29873545  0.98221726  0.12248511  1
  O  O27  1  0.64934468  0.68659909  0.99135768  1
  O  O28  1  0.35065532  0.31340091  0.00864232  1
  O  O29  1  0.70126455  0.01778274  0.87751489  1
  O  O30  1  0.64934468  0.81340091  0.49135768  1
  O  O31  1  0.78008174  0.50311159  0.64907866  1
  O  O32  1  0.70126455  0.48221726  0.37751489  1
  O  O33  1  0.90273123  0.73050899  0.52688236  1
  O  O34  1  0.78008174  0.99688841  0.14907866  1
  O  O35  1  0.90273123  0.76949101  0.02688236  1
