# generated using pymatgen
data_NaNi3P4H8NO16
_symmetry_space_group_name_H-M   'P 1'
_cell_length_a   8.06209474
_cell_length_b   10.41039032
_cell_length_c   9.19743421
_cell_angle_alpha   72.90487239
_cell_angle_beta   90.00000000
_cell_angle_gamma   67.21875195
_symmetry_Int_Tables_number   1
_chemical_formula_structural   NaNi3P4H8NO16
_chemical_formula_sum   'Na2 Ni6 P8 H16 N2 O32'
_cell_volume   674.57427717
_cell_formula_units_Z   2
loop_
 _symmetry_equiv_pos_site_id
 _symmetry_equiv_pos_as_xyz
  1  'x, y, z'
loop_
 _atom_site_type_symbol
 _atom_site_label
 _atom_site_symmetry_multiplicity
 _atom_site_fract_x
 _atom_site_fract_y
 _atom_site_fract_z
 _atom_site_occupancy
  Na  Na0  1  0.46086854  0.00000000  0.75000000  1
  Na  Na1  1  0.53913146  0.00000000  0.25000000  1
  Ni  Ni2  1  0.79648380  0.62997338  0.93203897  1
  Ni  Ni3  1  0.57354282  0.62997338  0.43203897  1
  Ni  Ni4  1  0.00000000  0.50000000  0.50000000  1
  Ni  Ni5  1  0.42645718  0.37002662  0.56796103  1
  Ni  Ni6  1  0.50000000  0.50000000  0.00000000  1
  Ni  Ni7  1  0.20351620  0.37002662  0.06796103  1
  P  P8  1  0.78567352  0.79933457  0.58630674  1
  P  P9  1  0.15222809  0.60067899  0.74202624  1
  P  P10  1  0.41499191  0.79933457  0.08630674  1
  P  P11  1  0.24709291  0.60067899  0.24202624  1
  P  P12  1  0.75290709  0.39932101  0.75797376  1
  P  P13  1  0.58500809  0.20066543  0.91369326  1
  P  P14  1  0.84777191  0.39932101  0.25797376  1
  P  P15  1  0.21432648  0.20066543  0.41369326  1
  H  H16  1  0.11367554  0.99278579  0.84338504  1
  H  H17  1  0.00603505  0.90720747  0.77542818  1
  H  H18  1  0.89353867  0.99278579  0.34338504  1
  H  H19  1  0.35309649  0.87232487  0.50679541  1
  H  H20  1  0.08675748  0.90720747  0.27542818  1
  H  H21  1  0.36083122  0.72163951  0.62226882  1
  H  H22  1  0.77457864  0.87232487  0.00679541  1
  H  H23  1  0.91752927  0.72163951  0.12226882  1
  H  H24  1  0.08247073  0.27836049  0.87773118  1
  H  H25  1  0.22542136  0.12767513  0.99320459  1
  H  H26  1  0.63916878  0.27836049  0.37773118  1
  H  H27  1  0.91324252  0.09279253  0.72457182  1
  H  H28  1  0.64690351  0.12767513  0.49320459  1
  H  H29  1  0.10646133  0.00721421  0.65661496  1
  H  H30  1  0.99396495  0.09279253  0.22457182  1
  H  H31  1  0.88632446  0.00721421  0.15661496  1
  N  N32  1  0.03249154  0.00000000  0.75000000  1
  N  N33  1  0.96750846  0.00000000  0.25000000  1
  O  O34  1  0.32601067  0.95147539  0.96657840  1
  O  O35  1  0.72251395  0.95147539  0.46657840  1
  O  O36  1  0.69035664  0.79968084  0.72963503  1
  O  O37  1  0.99837391  0.76097247  0.63965673  1
  O  O38  1  0.36812375  0.77180779  0.51311286  1
  O  O39  1  0.30458234  0.63489080  0.79474890  1
  O  O40  1  0.50996252  0.79968084  0.22963503  1
  O  O41  1  0.78430000  0.68012936  0.51969753  1
  O  O42  1  0.05746697  0.53977225  0.87169104  1
  O  O43  1  0.24065362  0.76097247  0.13965673  1
  O  O44  1  0.86006846  0.77180779  0.01311286  1
  O  O45  1  0.70978241  0.48999276  0.86824605  1
  O  O46  1  0.06052687  0.63489080  0.29474890  1
  O  O47  1  0.19977617  0.51000724  0.63175395  1
  O  O48  1  0.53557064  0.68012936  0.01969753  1
  O  O49  1  0.40276179  0.53977225  0.37169104  1
  O  O50  1  0.59723821  0.46022775  0.62830896  1
  O  O51  1  0.46442936  0.31987064  0.98030247  1
  O  O52  1  0.80022383  0.48999276  0.36824605  1
  O  O53  1  0.93947313  0.36510920  0.70525110  1
  O  O54  1  0.29021759  0.51000724  0.13175395  1
  O  O55  1  0.13993154  0.22819221  0.98688714  1
  O  O56  1  0.75934638  0.23902753  0.86034327  1
  O  O57  1  0.94253303  0.46022775  0.12830896  1
  O  O58  1  0.21570000  0.31987064  0.48030247  1
  O  O59  1  0.49003748  0.20031916  0.77036497  1
  O  O60  1  0.69541766  0.36510920  0.20525110  1
  O  O61  1  0.63187625  0.22819221  0.48688714  1
  O  O62  1  0.00162609  0.23902753  0.36034327  1
  O  O63  1  0.30964336  0.20031916  0.27036497  1
  O  O64  1  0.27748605  0.04852461  0.53342160  1
  O  O65  1  0.67398933  0.04852461  0.03342160  1
