# generated using pymatgen
data_MgZn2
_symmetry_space_group_name_H-M   'P 1'
_cell_length_a   4.61646345
_cell_length_b   2.97087714
_cell_length_c   15.20959512
_cell_angle_alpha   90.00000000
_cell_angle_beta   90.00000000
_cell_angle_gamma   90.00000000
_symmetry_Int_Tables_number   1
_chemical_formula_structural   MgZn2
_chemical_formula_sum   'Mg4 Zn8'
_cell_volume   208.59877167
_cell_formula_units_Z   4
loop_
 _symmetry_equiv_pos_site_id
 _symmetry_equiv_pos_as_xyz
  1  'x, y, z'
loop_
 _atom_site_type_symbol
 _atom_site_label
 _atom_site_symmetry_multiplicity
 _atom_site_fract_x
 _atom_site_fract_y
 _atom_site_fract_z
 _atom_site_occupancy
  Mg  Mg0  1  0.50000000  0.50000000  0.39522559  1
  Mg  Mg1  1  0.50000000  -0.00000000  0.21586447  1
  Mg  Mg2  1  0.50000000  -0.00000000  0.89522559  1
  Mg  Mg3  1  0.50000000  0.50000000  0.71586447  1
  Zn  Zn4  1  -0.00000000  0.00000000  0.00607364  1
  Zn  Zn5  1  0.00000000  0.50000000  0.16060916  1
  Zn  Zn6  1  -0.00000000  0.00000000  0.33236462  1
  Zn  Zn7  1  0.50000000  0.50000000  0.05652953  1
  Zn  Zn8  1  0.00000000  0.50000000  0.50607364  1
  Zn  Zn9  1  0.00000000  0.00000000  0.66060916  1
  Zn  Zn10  1  -0.00000000  0.50000000  0.83236462  1
  Zn  Zn11  1  0.50000000  -0.00000000  0.55652953  1
