# generated using pymatgen
data_Na2CoPCO7
_symmetry_space_group_name_H-M   'P 1'
_cell_length_a   8.96685579
_cell_length_b   5.26713755
_cell_length_c   6.44163668
_cell_angle_alpha   90.00000000
_cell_angle_beta   90.00000000
_cell_angle_gamma   88.39170268
_symmetry_Int_Tables_number   1
_chemical_formula_structural   Na2CoPCO7
_chemical_formula_sum   'Na4 Co2 P2 C2 O14'
_cell_volume   304.11647764
_cell_formula_units_Z   2
loop_
 _symmetry_equiv_pos_site_id
 _symmetry_equiv_pos_as_xyz
  1  'x, y, z'
loop_
 _atom_site_type_symbol
 _atom_site_label
 _atom_site_symmetry_multiplicity
 _atom_site_fract_x
 _atom_site_fract_y
 _atom_site_fract_z
 _atom_site_occupancy
  Na  Na0  1  0.23448459  0.23750944  0.49690198  1
  Na  Na1  1  0.23448459  0.23750944  0.00309802  1
  Na  Na2  1  0.76551541  0.76249056  0.50309802  1
  Na  Na3  1  0.76551541  0.76249056  0.99690198  1
  Co  Co4  1  0.34862722  0.78371645  0.75000000  1
  Co  Co5  1  0.65137278  0.21628355  0.25000000  1
  P  P6  1  0.42661376  0.71197904  0.25000000  1
  P  P7  1  0.57338624  0.28802096  0.75000000  1
  C  C8  1  0.07459639  0.72232725  0.75000000  1
  C  C9  1  0.92540361  0.27767275  0.25000000  1
  O  O10  1  0.06326587  0.31230140  0.25000000  1
  O  O11  1  0.13425911  0.94650690  0.75000000  1
  O  O12  1  0.17427687  0.53358430  0.75000000  1
  O  O13  1  0.33502803  0.79614764  0.05525863  1
  O  O14  1  0.33502803  0.79614764  0.44474137  1
  O  O15  1  0.42164105  0.15698912  0.75000000  1
  O  O16  1  0.44880772  0.41674031  0.25000000  1
  O  O17  1  0.55119228  0.58325969  0.75000000  1
  O  O18  1  0.57835895  0.84301088  0.25000000  1
  O  O19  1  0.66497197  0.20385236  0.55525863  1
  O  O20  1  0.66497197  0.20385236  0.94474137  1
  O  O21  1  0.82572313  0.46641570  0.25000000  1
  O  O22  1  0.86574089  0.05349310  0.25000000  1
  O  O23  1  0.93673413  0.68769860  0.75000000  1
