# generated using pymatgen
data_Ho2WO6
_symmetry_space_group_name_H-M   'P 1'
_cell_length_a   7.68227678
_cell_length_b   5.38062218
_cell_length_c   11.45835357
_cell_angle_alpha   90.00000000
_cell_angle_beta   104.63553310
_cell_angle_gamma   90.00000000
_symmetry_Int_Tables_number   1
_chemical_formula_structural   Ho2WO6
_chemical_formula_sum   'Ho8 W4 O24'
_cell_volume   458.26773110
_cell_formula_units_Z   4
loop_
 _symmetry_equiv_pos_site_id
 _symmetry_equiv_pos_as_xyz
  1  'x, y, z'
loop_
 _atom_site_type_symbol
 _atom_site_label
 _atom_site_symmetry_multiplicity
 _atom_site_fract_x
 _atom_site_fract_y
 _atom_site_fract_z
 _atom_site_occupancy
  Ho  Ho0  1  0.00000000  0.26294613  0.75000000  1
  Ho  Ho1  1  0.00000000  0.73705387  0.25000000  1
  Ho  Ho2  1  0.20175991  0.81137408  0.57817107  1
  Ho  Ho3  1  0.20175991  0.18862592  0.07817107  1
  Ho  Ho4  1  0.50000000  0.31659132  0.75000000  1
  Ho  Ho5  1  0.50000000  0.68340868  0.25000000  1
  Ho  Ho6  1  0.79824009  0.81137408  0.92182893  1
  Ho  Ho7  1  0.79824009  0.18862592  0.42182893  1
  W  W8  1  0.27911835  0.74661558  0.88682951  1
  W  W9  1  0.27911835  0.25338442  0.38682951  1
  W  W10  1  0.72088165  0.74661558  0.61317049  1
  W  W11  1  0.72088165  0.25338442  0.11317049  1
  O  O12  1  0.06179299  0.96373116  0.89598671  1
  O  O13  1  0.14723374  0.47549866  0.93109210  1
  O  O14  1  0.06179299  0.03626884  0.39598671  1
  O  O15  1  0.21387958  0.53592698  0.72857887  1
  O  O16  1  0.14723374  0.52450134  0.43109210  1
  O  O17  1  0.29083665  0.01471226  0.77085986  1
  O  O18  1  0.21387958  0.46407302  0.22857887  1
  O  O19  1  0.36674192  0.14725706  0.54949300  1
  O  O20  1  0.51262740  0.63669885  0.88852903  1
  O  O21  1  0.29083665  0.98528774  0.27085986  1
  O  O22  1  0.48737260  0.63669885  0.61147097  1
  O  O23  1  0.63325808  0.14725706  0.95050700  1
  O  O24  1  0.36674192  0.85274394  0.04949300  1
  O  O25  1  0.51262740  0.36330115  0.38852903  1
  O  O26  1  0.70916335  0.01471226  0.72914014  1
  O  O27  1  0.48737260  0.36330115  0.11147097  1
  O  O28  1  0.63325808  0.85274394  0.45050700  1
  O  O29  1  0.78612042  0.53592698  0.77142113  1
  O  O30  1  0.70916335  0.98528774  0.22914014  1
  O  O31  1  0.85276626  0.47549866  0.56890790  1
  O  O32  1  0.78612042  0.46407302  0.27142113  1
  O  O33  1  0.93820701  0.96373116  0.60401329  1
  O  O34  1  0.85276626  0.52450134  0.06890790  1
  O  O35  1  0.93820701  0.03626884  0.10401329  1
