# generated using pymatgen
data_Ti3P6WO24
_symmetry_space_group_name_H-M   'P 1'
_cell_length_a   8.85457064
_cell_length_b   8.85457098
_cell_length_c   8.85457092
_cell_angle_alpha   58.49690136
_cell_angle_beta   58.49690360
_cell_angle_gamma   58.49690309
_symmetry_Int_Tables_number   1
_chemical_formula_structural   Ti3P6WO24
_chemical_formula_sum   'Ti3 P6 W1 O24'
_cell_volume   474.01430636
_cell_formula_units_Z   1
loop_
 _symmetry_equiv_pos_site_id
 _symmetry_equiv_pos_as_xyz
  1  'x, y, z'
loop_
 _atom_site_type_symbol
 _atom_site_label
 _atom_site_symmetry_multiplicity
 _atom_site_fract_x
 _atom_site_fract_y
 _atom_site_fract_z
 _atom_site_occupancy
  Ti  Ti0  1  0.14069204  0.14069204  0.14069204  1
  Ti  Ti1  1  0.36013754  0.36013754  0.36013754  1
  Ti  Ti2  1  0.64094547  0.64094547  0.64094547  1
  P  P3  1  0.03479993  0.74888445  0.46163970  1
  P  P4  1  0.46163970  0.03479993  0.74888445  1
  P  P5  1  0.74888445  0.46163970  0.03479993  1
  P  P6  1  0.25559004  0.52855496  0.96735849  1
  P  P7  1  0.52855496  0.96735849  0.25559004  1
  P  P8  1  0.96735849  0.25559004  0.52855496  1
  W  W9  1  0.85871758  0.85871758  0.85871758  1
  O  O10  1  0.13847829  0.27600409  0.50775074  1
  O  O11  1  0.27600409  0.50775074  0.13847829  1
  O  O12  1  0.06207318  0.92382100  0.28812487  1
  O  O13  1  0.50775074  0.13847829  0.27600409  1
  O  O14  1  0.21374764  0.57616641  0.44178626  1
  O  O15  1  0.00002252  0.78194104  0.63859181  1
  O  O16  1  0.28812487  0.06207318  0.92382100  1
  O  O17  1  0.44178626  0.21374764  0.57616641  1
  O  O18  1  0.57616641  0.44178626  0.21374764  1
  O  O19  1  0.21755549  0.36464920  0.99599495  1
  O  O20  1  0.07578057  0.71317447  0.93545788  1
  O  O21  1  0.36464920  0.99599495  0.21755549  1
  O  O22  1  0.63859181  0.00002252  0.78194104  1
  O  O23  1  0.92382100  0.28812487  0.06207318  1
  O  O24  1  0.78194104  0.63859181  0.00002252  1
  O  O25  1  0.42088891  0.56566513  0.78525499  1
  O  O26  1  0.56566513  0.78525499  0.42088891  1
  O  O27  1  0.71317447  0.93545788  0.07578057  1
  O  O28  1  0.99599495  0.21755549  0.36464920  1
  O  O29  1  0.78525499  0.42088891  0.56566513  1
  O  O30  1  0.49724742  0.86242490  0.72007802  1
  O  O31  1  0.93545788  0.07578057  0.71317447  1
  O  O32  1  0.72007802  0.49724742  0.86242490  1
  O  O33  1  0.86242490  0.72007802  0.49724742  1
