# generated using pymatgen
data_La3Pt3O11
_symmetry_space_group_name_H-M   'P 1'
_cell_length_a   9.60821603
_cell_length_b   9.60821603
_cell_length_c   9.60821603
_cell_angle_alpha   90.00000000
_cell_angle_beta   90.00000000
_cell_angle_gamma   90.00000000
_symmetry_Int_Tables_number   1
_chemical_formula_structural   La3Pt3O11
_chemical_formula_sum   'La12 Pt12 O44'
_cell_volume   887.00951262
_cell_formula_units_Z   4
loop_
 _symmetry_equiv_pos_site_id
 _symmetry_equiv_pos_as_xyz
  1  'x, y, z'
loop_
 _atom_site_type_symbol
 _atom_site_label
 _atom_site_symmetry_multiplicity
 _atom_site_fract_x
 _atom_site_fract_y
 _atom_site_fract_z
 _atom_site_occupancy
  La  La0  1  0.00000000  0.00000000  0.50000000  1
  La  La1  1  0.00000000  0.50000000  0.00000000  1
  La  La2  1  0.11511801  0.11511801  0.11511801  1
  La  La3  1  0.11511801  0.38488199  0.38488199  1
  La  La4  1  0.38488199  0.11511801  0.38488199  1
  La  La5  1  0.38488199  0.38488199  0.11511801  1
  La  La6  1  0.50000000  0.50000000  0.50000000  1
  La  La7  1  0.50000000  0.00000000  0.00000000  1
  La  La8  1  0.61511801  0.61511801  0.88488199  1
  La  La9  1  0.61511801  0.88488199  0.61511801  1
  La  La10  1  0.88488199  0.61511801  0.61511801  1
  La  La11  1  0.88488199  0.88488199  0.88488199  1
  Pt  Pt12  1  0.09256703  0.75000000  0.25000000  1
  Pt  Pt13  1  0.25000000  0.09256703  0.75000000  1
  Pt  Pt14  1  0.25000000  0.75000000  0.59256703  1
  Pt  Pt15  1  0.25000000  0.75000000  0.90743297  1
  Pt  Pt16  1  0.25000000  0.40743297  0.75000000  1
  Pt  Pt17  1  0.40743297  0.75000000  0.25000000  1
  Pt  Pt18  1  0.59256703  0.25000000  0.75000000  1
  Pt  Pt19  1  0.75000000  0.25000000  0.09256703  1
  Pt  Pt20  1  0.75000000  0.25000000  0.40743297  1
  Pt  Pt21  1  0.75000000  0.59256703  0.25000000  1
  Pt  Pt22  1  0.75000000  0.90743297  0.25000000  1
  Pt  Pt23  1  0.90743297  0.25000000  0.75000000  1
  O  O24  1  0.03892936  0.08177803  0.75273038  1
  O  O25  1  0.03892936  0.41822197  0.74726962  1
  O  O26  1  0.08177803  0.75273038  0.03892936  1
  O  O27  1  0.08177803  0.74726962  0.46107064  1
  O  O28  1  0.10962422  0.75000000  0.75000000  1
  O  O29  1  0.14450493  0.14450493  0.35549507  1
  O  O30  1  0.14450493  0.35549507  0.14450493  1
  O  O31  1  0.24726962  0.96107064  0.91822197  1
  O  O32  1  0.24726962  0.53892936  0.58177803  1
  O  O33  1  0.25000000  0.89037578  0.25000000  1
  O  O34  1  0.25000000  0.60962422  0.25000000  1
  O  O35  1  0.25000000  0.25000000  0.60962422  1
  O  O36  1  0.25000000  0.25000000  0.89037578  1
  O  O37  1  0.25273038  0.53892936  0.91822197  1
  O  O38  1  0.25273038  0.96107064  0.58177803  1
  O  O39  1  0.35549507  0.14450493  0.14450493  1
  O  O40  1  0.35549507  0.35549507  0.35549507  1
  O  O41  1  0.39037578  0.75000000  0.75000000  1
  O  O42  1  0.41822197  0.74726962  0.03892936  1
  O  O43  1  0.41822197  0.75273038  0.46107064  1
  O  O44  1  0.46107064  0.08177803  0.74726962  1
  O  O45  1  0.46107064  0.41822197  0.75273038  1
  O  O46  1  0.53892936  0.58177803  0.24726962  1
  O  O47  1  0.53892936  0.91822197  0.25273038  1
  O  O48  1  0.58177803  0.24726962  0.53892936  1
  O  O49  1  0.58177803  0.25273038  0.96107064  1
  O  O50  1  0.60962422  0.25000000  0.25000000  1
  O  O51  1  0.64450493  0.64450493  0.64450493  1
  O  O52  1  0.64450493  0.85549507  0.85549507  1
  O  O53  1  0.74726962  0.03892936  0.41822197  1
  O  O54  1  0.74726962  0.46107064  0.08177803  1
  O  O55  1  0.75000000  0.10962422  0.75000000  1
  O  O56  1  0.75000000  0.39037578  0.75000000  1
  O  O57  1  0.75000000  0.75000000  0.10962422  1
  O  O58  1  0.75000000  0.75000000  0.39037578  1
  O  O59  1  0.75273038  0.03892936  0.08177803  1
  O  O60  1  0.75273038  0.46107064  0.41822197  1
  O  O61  1  0.85549507  0.64450493  0.85549507  1
  O  O62  1  0.85549507  0.85549507  0.64450493  1
  O  O63  1  0.89037578  0.25000000  0.25000000  1
  O  O64  1  0.91822197  0.24726962  0.96107064  1
  O  O65  1  0.91822197  0.25273038  0.53892936  1
  O  O66  1  0.96107064  0.91822197  0.24726962  1
  O  O67  1  0.96107064  0.58177803  0.25273038  1
