# generated using pymatgen
data_Sr2FeCO3F5
_symmetry_space_group_name_H-M   'P 1'
_cell_length_a   5.61221316
_cell_length_b   8.94766329
_cell_length_c   13.57023682
_cell_angle_alpha   90.00000000
_cell_angle_beta   98.13934710
_cell_angle_gamma   90.00000000
_symmetry_Int_Tables_number   1
_chemical_formula_structural   Sr2FeCO3F5
_chemical_formula_sum   'Sr8 Fe4 C4 O12 F20'
_cell_volume   674.58120848
_cell_formula_units_Z   4
loop_
 _symmetry_equiv_pos_site_id
 _symmetry_equiv_pos_as_xyz
  1  'x, y, z'
loop_
 _atom_site_type_symbol
 _atom_site_label
 _atom_site_symmetry_multiplicity
 _atom_site_fract_x
 _atom_site_fract_y
 _atom_site_fract_z
 _atom_site_occupancy
  Sr  Sr0  1  0.21190150  0.89065330  0.90297148  1
  Sr  Sr1  1  0.22179682  0.35967048  0.91411429  1
  Sr  Sr2  1  0.27820318  0.85967048  0.58588571  1
  Sr  Sr3  1  0.28809850  0.39065330  0.59702852  1
  Sr  Sr4  1  0.71190150  0.60934670  0.40297148  1
  Sr  Sr5  1  0.72179682  0.14032952  0.41411429  1
  Sr  Sr6  1  0.77820318  0.64032952  0.08588571  1
  Sr  Sr7  1  0.78809850  0.10934670  0.09702852  1
  Fe  Fe8  1  0.13785047  0.87182740  0.32775006  1
  Fe  Fe9  1  0.36214953  0.37182740  0.17224994  1
  Fe  Fe10  1  0.63785047  0.62817260  0.82775006  1
  Fe  Fe11  1  0.86214953  0.12817260  0.67224994  1
  C  C12  1  0.18287215  0.37597941  0.36468375  1
  C  C13  1  0.31712785  0.87597941  0.13531625  1
  C  C14  1  0.68287215  0.12402059  0.86468375  1
  C  C15  1  0.81712785  0.62402059  0.63531625  1
  O  O16  1  0.00403883  0.38013150  0.41606043  1
  O  O17  1  0.13318197  0.37016861  0.26804454  1
  O  O18  1  0.09784814  0.87765610  0.09020368  1
  O  O19  1  0.50403883  0.11986850  0.91606043  1
  O  O20  1  0.40215186  0.37765610  0.40979632  1
  O  O21  1  0.36681803  0.87016861  0.23195546  1
  O  O22  1  0.63318197  0.12983139  0.76804454  1
  O  O23  1  0.59784814  0.62234390  0.59020368  1
  O  O24  1  0.49596117  0.88013150  0.08393957  1
  O  O25  1  0.90215186  0.12234390  0.90979632  1
  O  O26  1  0.86681803  0.62983139  0.73195546  1
  O  O27  1  0.99596117  0.61986850  0.58393957  1
  F  F28  1  0.05961106  0.96271008  0.72766538  1
  F  F29  1  0.07151495  0.28314161  0.73623988  1
  F  F30  1  0.09205408  0.12990755  0.56673415  1
  F  F31  1  0.40794592  0.62990755  0.93326585  1
  F  F32  1  0.16602162  0.51282331  0.08458106  1
  F  F33  1  0.30973613  0.71735344  0.41573776  1
  F  F34  1  0.42848505  0.78314161  0.76376012  1
  F  F35  1  0.44038894  0.46271008  0.77233462  1
  F  F36  1  0.19026387  0.21735344  0.08426224  1
  F  F37  1  0.33397838  0.01282331  0.41541894  1
  F  F38  1  0.66602162  0.98717669  0.58458106  1
  F  F39  1  0.80973613  0.78264656  0.91573776  1
  F  F40  1  0.55961106  0.53728992  0.22766538  1
  F  F41  1  0.57151495  0.21685839  0.23623988  1
  F  F42  1  0.69026387  0.28264656  0.58426224  1
  F  F43  1  0.83397838  0.48717669  0.91541894  1
  F  F44  1  0.59205408  0.37009245  0.06673415  1
  F  F45  1  0.90794592  0.87009245  0.43326585  1
  F  F46  1  0.92848505  0.71685839  0.26376012  1
  F  F47  1  0.94038894  0.03728992  0.27233462  1
