# generated using pymatgen
data_Li3Mn5FeO12
_symmetry_space_group_name_H-M   'P 1'
_cell_length_a   5.98447743
_cell_length_b   5.98447743
_cell_length_c   13.14753353
_cell_angle_alpha   103.30396855
_cell_angle_beta   103.30396855
_cell_angle_gamma   92.24954638
_symmetry_Int_Tables_number   1
_chemical_formula_structural   Li3Mn5FeO12
_chemical_formula_sum   'Li6 Mn10 Fe2 O24'
_cell_volume   443.81263415
_cell_formula_units_Z   2
loop_
 _symmetry_equiv_pos_site_id
 _symmetry_equiv_pos_as_xyz
  1  'x, y, z'
loop_
 _atom_site_type_symbol
 _atom_site_label
 _atom_site_symmetry_multiplicity
 _atom_site_fract_x
 _atom_site_fract_y
 _atom_site_fract_z
 _atom_site_occupancy
  Li  Li0  1  0.80005189  0.03585943  0.08273232  1
  Li  Li1  1  0.86527595  0.63472405  0.25000000  1
  Li  Li2  1  0.46414057  0.69994811  0.41726768  1
  Li  Li3  1  0.53585943  0.30005189  0.58273232  1
  Li  Li4  1  0.13472405  0.36527595  0.75000000  1
  Li  Li5  1  0.19994811  0.96414057  0.91726768  1
  Mn  Mn6  1  0.00000000  0.50000000  0.00000000  1
  Mn  Mn7  1  0.33210199  0.33310589  0.16706607  1
  Mn  Mn8  1  0.33542601  0.83136931  0.16819242  1
  Mn  Mn9  1  0.16689411  0.16789801  0.33293393  1
  Mn  Mn10  1  0.66863069  0.16457399  0.33180758  1
  Mn  Mn11  1  0.00000000  0.50000000  0.50000000  1
  Mn  Mn12  1  0.33136931  0.83542601  0.66819242  1
  Mn  Mn13  1  0.83310589  0.83210199  0.66706607  1
  Mn  Mn14  1  0.66789801  0.66689411  0.83293393  1
  Mn  Mn15  1  0.66457399  0.16863069  0.83180758  1
  Fe  Fe16  1  0.50000000  0.50000000  0.00000000  1
  Fe  Fe17  1  0.00000000  0.00000000  0.50000000  1
  O  O18  1  0.23764409  0.28440591  0.00935648  1
  O  O19  1  0.24960190  0.73043608  0.00904532  1
  O  O20  1  0.54334916  0.58911797  0.16162012  1
  O  O21  1  0.09047636  0.59853560  0.15557094  1
  O  O22  1  0.57381553  0.06783768  0.17683465  1
  O  O23  1  0.12381687  0.07469137  0.17435736  1
  O  O24  1  0.42530863  0.37618313  0.32564264  1
  O  O25  1  0.43216232  0.92618447  0.32316535  1
  O  O26  1  0.91088203  0.95665084  0.33837988  1
  O  O27  1  0.90146440  0.40952364  0.34442906  1
  O  O28  1  0.21559409  0.26235591  0.49064352  1
  O  O29  1  0.76956392  0.25039810  0.49095468  1
  O  O30  1  0.78440591  0.73764409  0.50935648  1
  O  O31  1  0.23043608  0.74960190  0.50904532  1
  O  O32  1  0.09853560  0.59047636  0.65557094  1
  O  O33  1  0.08911797  0.04334916  0.66162012  1
  O  O34  1  0.57469137  0.62381687  0.67435736  1
  O  O35  1  0.56783768  0.07381553  0.67683465  1
  O  O36  1  0.87618313  0.92530863  0.82564264  1
  O  O37  1  0.42618447  0.93216232  0.82316535  1
  O  O38  1  0.45665084  0.41088203  0.83837988  1
  O  O39  1  0.90952364  0.40146440  0.84442906  1
  O  O40  1  0.76235591  0.71559409  0.99064352  1
  O  O41  1  0.75039810  0.26956392  0.99095468  1
