# generated using pymatgen
data_Li2AgF6
_symmetry_space_group_name_H-M   'P 1'
_cell_length_a   4.78268089
_cell_length_b   4.78269041
_cell_length_c   9.31713573
_cell_angle_alpha   89.99996280
_cell_angle_beta   89.99996613
_cell_angle_gamma   89.98270340
_symmetry_Int_Tables_number   1
_chemical_formula_structural   Li2AgF6
_chemical_formula_sum   'Li4 Ag2 F12'
_cell_volume   213.12091763
_cell_formula_units_Z   2
loop_
 _symmetry_equiv_pos_site_id
 _symmetry_equiv_pos_as_xyz
  1  'x, y, z'
loop_
 _atom_site_type_symbol
 _atom_site_label
 _atom_site_symmetry_multiplicity
 _atom_site_fract_x
 _atom_site_fract_y
 _atom_site_fract_z
 _atom_site_occupancy
  Li  Li0  1  0.00000022  0.00000011  0.33672841  1
  Li  Li1  1  0.99999950  0.00000039  0.66327206  1
  Li  Li2  1  0.50000078  0.50000054  0.16311066  1
  Li  Li3  1  0.50000025  0.50000006  0.83688884  1
  Ag  Ag4  1  0.00000159  0.00000054  -0.00000362  1
  Ag  Ag5  1  0.49999817  0.49999979  0.50000483  1
  F  F6  1  0.19244851  0.80754962  0.16482000  1
  F  F7  1  0.19245041  0.80754967  0.83518284  1
  F  F8  1  0.19533580  0.80466531  0.50000015  1
  F  F9  1  0.30468741  0.30469049  -0.00000119  1
  F  F10  1  0.30758709  0.30758799  0.33532585  1
  F  F11  1  0.30758784  0.30759030  0.66467265  1
  F  F12  1  0.69241079  0.69241103  0.33532638  1
  F  F13  1  0.69241258  0.69240956  0.66467136  1
  F  F14  1  0.69531189  0.69531032  -0.00000108  1
  F  F15  1  0.80466328  0.19533741  0.49999941  1
  F  F16  1  0.80755063  0.19244979  0.16481767  1
  F  F17  1  0.80755327  0.19244709  0.83518477  1
