# generated using pymatgen
data_ThH10N4O17
_symmetry_space_group_name_H-M   'P 1'
_cell_length_a   12.61875863
_cell_length_b   7.71562122
_cell_length_c   7.71562122
_cell_angle_alpha   93.04907209
_cell_angle_beta   73.17445069
_cell_angle_gamma   73.17445069
_symmetry_Int_Tables_number   1
_chemical_formula_structural   ThH10N4O17
_chemical_formula_sum   'Th2 H20 N8 O34'
_cell_volume   680.52893046
_cell_formula_units_Z   2
loop_
 _symmetry_equiv_pos_site_id
 _symmetry_equiv_pos_as_xyz
  1  'x, y, z'
loop_
 _atom_site_type_symbol
 _atom_site_label
 _atom_site_symmetry_multiplicity
 _atom_site_fract_x
 _atom_site_fract_y
 _atom_site_fract_z
 _atom_site_occupancy
  Th  Th0  1  0.50000000  0.74640906  0.24640906  1
  Th  Th1  1  0.00000000  0.99640906  0.99640906  1
  H  H2  1  0.23697972  0.88289300  0.26308702  1
  H  H3  1  0.76302028  0.50006674  0.11987272  1
  H  H4  1  0.24767564  0.70287438  0.36462575  1
  H  H5  1  0.13222801  0.52812004  0.40132262  1
  H  H6  1  0.26302028  0.86987272  0.75006674  1
  H  H7  1  0.77678321  0.72899247  0.67718452  1
  H  H8  1  0.06896862  0.69683435  0.65996417  1
  H  H9  1  0.93103138  0.72893279  0.76580197  1
  H  H10  1  0.22321679  0.45396773  0.50577569  1
  H  H11  1  0.73697972  0.01308702  0.13289300  1
  H  H12  1  0.86777199  0.53355064  0.66034805  1
  H  H13  1  0.25232436  0.70055102  0.86230139  1
  H  H14  1  0.75232436  0.61230139  0.95055102  1
  H  H15  1  0.36777199  0.41034805  0.78355064  1
  H  H16  1  0.72321679  0.25577569  0.70396773  1
  H  H17  1  0.43103138  0.51580197  0.97893279  1
  H  H18  1  0.56896862  0.40996417  0.94683435  1
  H  H19  1  0.27678321  0.42718452  0.97899247  1
  H  H20  1  0.63222801  0.15132262  0.77812004  1
  H  H21  1  0.74767564  0.11462575  0.95287438  1
  N  N22  1  0.98933475  0.68764581  0.22052441  1
  N  N23  1  0.65366565  0.85330432  0.45102729  1
  N  N24  1  0.15366565  0.20102729  0.10330432  1
  N  N25  1  0.48933475  0.97052441  0.93764581  1
  N  N26  1  0.51066525  0.42698056  0.45985916  1
  N  N27  1  0.84633435  0.25696997  0.35469394  1
  N  N28  1  0.34633435  0.10469394  0.50696997  1
  N  N29  1  0.01066525  0.20985916  0.67698056  1
  O  O30  1  0.40825816  0.90262738  0.00432796  1
  O  O31  1  0.62725658  0.93857370  0.32220444  1
  O  O32  1  0.90825816  0.75432796  0.15262738  1
  O  O33  1  0.08018734  0.74180190  0.16592799  1
  O  O34  1  0.70801722  0.58748897  0.07254320  1
  O  O35  1  0.50000000  0.51837450  0.01837450  1
  O  O36  1  0.29198278  0.78056042  0.29550619  1
  O  O37  1  0.37274342  0.94946102  0.56583028  1
  O  O38  1  0.71602512  0.89525945  0.53208855  1
  O  O39  1  0.98350786  0.57926861  0.33245017  1
  O  O40  1  0.61076681  0.72357218  0.48934373  1
  O  O41  1  0.21602512  0.28208855  0.14525945  1
  O  O42  1  0.87274342  0.31582928  0.19946102  1
  O  O43  1  0.59174184  0.41258711  0.31088653  1
  O  O44  1  0.17610548  0.56701399  0.47405989  1
  O  O45  1  0.41981266  0.57198925  0.49611633  1
  O  O46  1  0.79198278  0.04550619  0.03056042  1
  O  O47  1  0.00000000  0.76837450  0.76837450  1
  O  O48  1  0.20801722  0.82254320  0.83748897  1
  O  O49  1  0.58018734  0.91592799  0.99180190  1
  O  O50  1  0.82389452  0.65016538  0.74311947  1
  O  O51  1  0.12725658  0.07220444  0.18857370  1
  O  O52  1  0.78397488  0.36128457  0.49811367  1
  O  O53  1  0.38923319  0.10011054  0.33433898  1
  O  O54  1  0.51649214  0.31277648  0.56595903  1
  O  O55  1  0.01649214  0.31595903  0.56277648  1
  O  O56  1  0.88923319  0.08433898  0.35011054  1
  O  O57  1  0.28397488  0.24811367  0.61128457  1
  O  O58  1  0.32389452  0.49311947  0.90016538  1
  O  O59  1  0.91981266  0.24611633  0.82198925  1
  O  O60  1  0.67610548  0.22405989  0.81701399  1
  O  O61  1  0.09174184  0.06088653  0.66258711  1
  O  O62  1  0.11076681  0.23934373  0.97357218  1
  O  O63  1  0.48350786  0.08245017  0.82926861  1
