# generated using pymatgen
data_LaH9(SO6)2
_symmetry_space_group_name_H-M   'P 1'
_cell_length_a   11.29125257
_cell_length_b   6.96125861
_cell_length_c   13.63898350
_cell_angle_alpha   90.00000000
_cell_angle_beta   110.77595242
_cell_angle_gamma   90.00000000
_symmetry_Int_Tables_number   1
_chemical_formula_structural   LaH9(SO6)2
_chemical_formula_sum   'La4 H36 S8 O48'
_cell_volume   1002.33229476
_cell_formula_units_Z   4
loop_
 _symmetry_equiv_pos_site_id
 _symmetry_equiv_pos_as_xyz
  1  'x, y, z'
loop_
 _atom_site_type_symbol
 _atom_site_label
 _atom_site_symmetry_multiplicity
 _atom_site_fract_x
 _atom_site_fract_y
 _atom_site_fract_z
 _atom_site_occupancy
  La  La0  1  0.14442222  0.73229765  0.90351217  1
  La  La1  1  0.14442222  0.76770235  0.40351217  1
  La  La2  1  0.85557778  0.23229765  0.59648783  1
  La  La3  1  0.85557778  0.26770235  0.09648783  1
  H  H4  1  0.14703596  0.10217063  0.70864085  1
  H  H5  1  0.12772949  0.16235780  0.59256384  1
  H  H6  1  0.19318371  0.42029238  0.74458269  1
  H  H7  1  0.31349116  0.42075391  0.84774109  1
  H  H8  1  0.34705364  0.02310382  0.86132154  1
  H  H9  1  0.31930229  0.86551861  0.77243594  1
  H  H10  1  0.14703596  0.39782937  0.20864085  1
  H  H11  1  0.12772949  0.33764220  0.09256384  1
  H  H12  1  0.19318371  0.07970762  0.24458269  1
  H  H13  1  0.36407105  0.37661489  0.59112194  1
  H  H14  1  0.37394926  0.12793554  0.58846394  1
  H  H15  1  0.45371270  0.25700568  0.70168296  1
  H  H16  1  0.31349116  0.07924609  0.34774109  1
  H  H17  1  0.34705364  0.47689618  0.36132154  1
  H  H18  1  0.31930229  0.63448139  0.27243594  1
  H  H19  1  0.54628730  0.75700568  0.79831704  1
  H  H20  1  0.62605074  0.62793554  0.91153606  1
  H  H21  1  0.63592895  0.87661489  0.90887806  1
  H  H22  1  0.36407105  0.12338511  0.09112194  1
  H  H23  1  0.37394926  0.37206446  0.08846394  1
  H  H24  1  0.45371270  0.24299432  0.20168296  1
  H  H25  1  0.68069771  0.36551861  0.72756406  1
  H  H26  1  0.65294636  0.52310382  0.63867846  1
  H  H27  1  0.68650884  0.92075391  0.65225891  1
  H  H28  1  0.54628730  0.74299432  0.29831704  1
  H  H29  1  0.62605074  0.87206446  0.41153606  1
  H  H30  1  0.63592895  0.62338511  0.40887806  1
  H  H31  1  0.80681629  0.92029238  0.75541731  1
  H  H32  1  0.87227051  0.66235780  0.90743616  1
  H  H33  1  0.85296404  0.60217063  0.79135915  1
  H  H34  1  0.68069771  0.13448139  0.22756406  1
  H  H35  1  0.65294636  0.97689618  0.13867846  1
  H  H36  1  0.68650884  0.57924609  0.15225891  1
  H  H37  1  0.80681629  0.57970762  0.25541731  1
  H  H38  1  0.87227051  0.83764220  0.40743616  1
  H  H39  1  0.85296404  0.89782937  0.29135915  1
  S  S40  1  0.01561772  0.24771390  0.89508992  1
  S  S41  1  0.01561772  0.25228610  0.39508992  1
  S  S42  1  0.42787720  0.75617518  0.59661703  1
  S  S43  1  0.57212280  0.25617518  0.90338297  1
  S  S44  1  0.42787720  0.74382482  0.09661703  1
  S  S45  1  0.57212280  0.24382482  0.40338297  1
  S  S46  1  0.98438228  0.74771390  0.60491008  1
  S  S47  1  0.98438228  0.75228610  0.10491008  1
  O  O48  1  0.08070937  0.06004930  0.90840138  1
  O  O49  1  0.10958028  0.39451579  0.95810570  1
  O  O50  1  0.02891606  0.80570970  0.71683802  1
  O  O51  1  0.10702218  0.20035705  0.65482852  1
  O  O52  1  0.09246297  0.73950357  0.56765492  1
  O  O53  1  0.24230718  0.50127457  0.80477394  1
  O  O54  1  0.08070937  0.43995070  0.40840138  1
  O  O55  1  0.10958028  0.10548421  0.45810570  1
  O  O56  1  0.28189361  0.93200062  0.81826445  1
  O  O57  1  0.02891606  0.69429030  0.21683802  1
  O  O58  1  0.10702218  0.29964295  0.15482852  1
  O  O59  1  0.44439898  0.23287410  0.90748594  1
  O  O60  1  0.09246297  0.76049643  0.06765492  1
  O  O61  1  0.37531962  0.24943644  0.63108773  1
  O  O62  1  0.34447737  0.58803601  0.54825187  1
  O  O63  1  0.24230718  0.99872543  0.30477394  1
  O  O64  1  0.36007158  0.92600360  0.53297091  1
  O  O65  1  0.43496012  0.78434867  0.70752256  1
  O  O66  1  0.28189361  0.56799938  0.31826445  1
  O  O67  1  0.56503988  0.28434867  0.79247744  1
  O  O68  1  0.63992842  0.42600360  0.96702909  1
  O  O69  1  0.65552263  0.08803601  0.95174813  1
  O  O70  1  0.62468038  0.74943644  0.86891227  1
  O  O71  1  0.44439898  0.26712590  0.40748594  1
  O  O72  1  0.55560102  0.73287410  0.59251406  1
  O  O73  1  0.37531962  0.25056356  0.13108773  1
  O  O74  1  0.34447737  0.91196399  0.04825187  1
  O  O75  1  0.36007158  0.57399640  0.03297091  1
  O  O76  1  0.43496012  0.71565133  0.20752256  1
  O  O77  1  0.71810639  0.43200062  0.68173555  1
  O  O78  1  0.56503988  0.21565133  0.29247744  1
  O  O79  1  0.63992842  0.07399640  0.46702909  1
  O  O80  1  0.75769282  0.00127457  0.69522606  1
  O  O81  1  0.65552263  0.41196399  0.45174813  1
  O  O82  1  0.62468038  0.75056356  0.36891227  1
  O  O83  1  0.90753703  0.23950357  0.93234508  1
  O  O84  1  0.55560102  0.76712590  0.09251406  1
  O  O85  1  0.89297782  0.70035705  0.84517148  1
  O  O86  1  0.97108394  0.30570970  0.78316198  1
  O  O87  1  0.71810639  0.06799938  0.18173555  1
  O  O88  1  0.89041972  0.89451579  0.54189430  1
  O  O89  1  0.91929063  0.56004930  0.59159862  1
  O  O90  1  0.75769282  0.49872543  0.19522606  1
  O  O91  1  0.90753703  0.26049643  0.43234508  1
  O  O92  1  0.89297782  0.79964295  0.34517148  1
  O  O93  1  0.97108394  0.19429030  0.28316198  1
  O  O94  1  0.89041972  0.60548421  0.04189430  1
  O  O95  1  0.91929063  0.93995070  0.09159862  1
