# generated using pymatgen
data_V3P6WO24
_symmetry_space_group_name_H-M   'P 1'
_cell_length_a   8.80208078
_cell_length_b   8.80208020
_cell_length_c   8.80208053
_cell_angle_alpha   58.60262925
_cell_angle_beta   58.60262930
_cell_angle_gamma   58.60262951
_symmetry_Int_Tables_number   1
_chemical_formula_structural   V3P6WO24
_chemical_formula_sum   'V3 P6 W1 O24'
_cell_volume   466.80971969
_cell_formula_units_Z   1
loop_
 _symmetry_equiv_pos_site_id
 _symmetry_equiv_pos_as_xyz
  1  'x, y, z'
loop_
 _atom_site_type_symbol
 _atom_site_label
 _atom_site_symmetry_multiplicity
 _atom_site_fract_x
 _atom_site_fract_y
 _atom_site_fract_z
 _atom_site_occupancy
  V  V0  1  0.14210526  0.14210526  0.14210526  1
  V  V1  1  0.35895138  0.35895138  0.35895138  1
  V  V2  1  0.64238935  0.64238935  0.64238935  1
  P  P3  1  0.03587448  0.74905524  0.45931686  1
  P  P4  1  0.45931686  0.03587448  0.74905524  1
  P  P5  1  0.74905524  0.45931686  0.03587448  1
  P  P6  1  0.25762587  0.52769081  0.96725784  1
  P  P7  1  0.52769081  0.96725784  0.25762587  1
  P  P8  1  0.96725784  0.25762587  0.52769081  1
  W  W9  1  0.85878099  0.85878099  0.85878099  1
  O  O10  1  0.13919357  0.27690591  0.50904360  1
  O  O11  1  0.27690591  0.50904360  0.13919357  1
  O  O12  1  0.06169640  0.92475780  0.28568418  1
  O  O13  1  0.50904360  0.13919357  0.27690591  1
  O  O14  1  0.21557287  0.57565732  0.44112585  1
  O  O15  1  0.00117938  0.78069717  0.63836244  1
  O  O16  1  0.28568418  0.06169640  0.92475780  1
  O  O17  1  0.44112585  0.21557287  0.57565732  1
  O  O18  1  0.57565732  0.44112585  0.21557287  1
  O  O19  1  0.21913508  0.36397800  0.99389555  1
  O  O20  1  0.07700667  0.71280706  0.93683524  1
  O  O21  1  0.36397800  0.99389555  0.21913508  1
  O  O22  1  0.63836244  0.00117938  0.78069717  1
  O  O23  1  0.92475780  0.28568418  0.06169640  1
  O  O24  1  0.78069717  0.63836244  0.00117938  1
  O  O25  1  0.42328670  0.56338148  0.78414332  1
  O  O26  1  0.56338148  0.78414332  0.42328670  1
  O  O27  1  0.71280706  0.93683524  0.07700667  1
  O  O28  1  0.99389555  0.21913508  0.36397800  1
  O  O29  1  0.78414332  0.42328670  0.56338148  1
  O  O30  1  0.49338502  0.86230271  0.72091960  1
  O  O31  1  0.93683524  0.07700667  0.71280706  1
  O  O32  1  0.72091960  0.49338502  0.86230271  1
  O  O33  1  0.86230271  0.72091960  0.49338502  1
