# generated using pymatgen
data_Li3Fe4SbO8
_symmetry_space_group_name_H-M   'P 1'
_cell_length_a   10.71215928
_cell_length_b   10.71215940
_cell_length_c   14.97615996
_cell_angle_alpha   19.69896100
_cell_angle_beta   19.69895734
_cell_angle_gamma   34.19078263
_symmetry_Int_Tables_number   1
_chemical_formula_structural   Li3Fe4SbO8
_chemical_formula_sum   'Li3 Fe4 Sb1 O8'
_cell_volume   166.65547305
_cell_formula_units_Z   1
loop_
 _symmetry_equiv_pos_site_id
 _symmetry_equiv_pos_as_xyz
  1  'x, y, z'
loop_
 _atom_site_type_symbol
 _atom_site_label
 _atom_site_symmetry_multiplicity
 _atom_site_fract_x
 _atom_site_fract_y
 _atom_site_fract_z
 _atom_site_occupancy
  Li  Li0  1  0.00000000  0.50000000  0.50000000  1
  Li  Li1  1  0.50000000  0.00000000  0.50000000  1
  Li  Li2  1  0.50000000  0.50000000  0.50000000  1
  Fe  Fe3  1  0.00000000  0.00000000  0.00000000  1
  Fe  Fe4  1  0.00000000  0.50000000  0.00000000  1
  Fe  Fe5  1  0.50000000  0.00000000  0.00000000  1
  Fe  Fe6  1  0.00000000  0.00000000  0.50000000  1
  Sb  Sb7  1  0.50000000  0.50000000  0.00000000  1
  O  O8  1  0.98505055  0.98505055  0.27577527  1
  O  O9  1  0.05374485  0.51156110  0.21093680  1
  O  O10  1  0.51156110  0.05374485  0.21093680  1
  O  O11  1  0.01494945  0.01494945  0.72422473  1
  O  O12  1  0.52048076  0.52048076  0.23030932  1
  O  O13  1  0.94625515  0.48843890  0.78906320  1
  O  O14  1  0.48843890  0.94625515  0.78906320  1
  O  O15  1  0.47951924  0.47951924  0.76969068  1
