# generated using pymatgen
data_Na3NiPCO7
_symmetry_space_group_name_H-M   'P 1'
_cell_length_a   8.84798783
_cell_length_b   5.21257148
_cell_length_c   6.67867519
_cell_angle_alpha   90.00000000
_cell_angle_beta   90.00000000
_cell_angle_gamma   88.30730801
_symmetry_Int_Tables_number   1
_chemical_formula_structural   Na3NiPCO7
_chemical_formula_sum   'Na6 Ni2 P2 C2 O14'
_cell_volume   307.89122437
_cell_formula_units_Z   2
loop_
 _symmetry_equiv_pos_site_id
 _symmetry_equiv_pos_as_xyz
  1  'x, y, z'
loop_
 _atom_site_type_symbol
 _atom_site_label
 _atom_site_symmetry_multiplicity
 _atom_site_fract_x
 _atom_site_fract_y
 _atom_site_fract_z
 _atom_site_occupancy
  Na  Na0  1  0.08537862  0.77718377  0.25000000  1
  Na  Na1  1  0.27515288  0.26032984  0.00950669  1
  Na  Na2  1  0.27515288  0.26032984  0.49049331  1
  Na  Na3  1  0.72484712  0.73967016  0.99049331  1
  Na  Na4  1  0.72484712  0.73967016  0.50950669  1
  Na  Na5  1  0.91462138  0.22281623  0.75000000  1
  Ni  Ni6  1  0.34363743  0.77701132  0.75000000  1
  Ni  Ni7  1  0.65636257  0.22298868  0.25000000  1
  P  P8  1  0.41835200  0.72215623  0.25000000  1
  P  P9  1  0.58164800  0.27784377  0.75000000  1
  C  C10  1  0.06009745  0.70924607  0.75000000  1
  C  C11  1  0.93990255  0.29075393  0.25000000  1
  O  O12  1  0.11603211  0.93718968  0.75000000  1
  O  O13  1  0.08369990  0.32292135  0.25000000  1
  O  O14  1  0.15568833  0.51352492  0.75000000  1
  O  O15  1  0.31847734  0.79309633  0.06491801  1
  O  O16  1  0.31847734  0.79309633  0.43508199  1
  O  O17  1  0.43125069  0.13546609  0.75000000  1
  O  O18  1  0.45452303  0.42693702  0.25000000  1
  O  O19  1  0.54547697  0.57306298  0.75000000  1
  O  O20  1  0.56874931  0.86453391  0.25000000  1
  O  O21  1  0.68152266  0.20690367  0.56491801  1
  O  O22  1  0.68152266  0.20690367  0.93508199  1
  O  O23  1  0.84431167  0.48647508  0.25000000  1
  O  O24  1  0.91630010  0.67707865  0.75000000  1
  O  O25  1  0.88396789  0.06281032  0.25000000  1
