# generated using pymatgen
data_Mg5Co19O32
_symmetry_space_group_name_H-M   'P 1'
_cell_length_a   5.77270081
_cell_length_b   5.77270081
_cell_length_c   19.14352009
_cell_angle_alpha   98.67180186
_cell_angle_beta   98.67180186
_cell_angle_gamma   60.00000000
_symmetry_Int_Tables_number   1
_chemical_formula_structural   Mg5Co19O32
_chemical_formula_sum   'Mg5 Co19 O32'
_cell_volume   544.03503667
_cell_formula_units_Z   1
loop_
 _symmetry_equiv_pos_site_id
 _symmetry_equiv_pos_as_xyz
  1  'x, y, z'
loop_
 _atom_site_type_symbol
 _atom_site_label
 _atom_site_symmetry_multiplicity
 _atom_site_fract_x
 _atom_site_fract_y
 _atom_site_fract_z
 _atom_site_occupancy
  Mg  Mg0  1  0.68759574  0.68759574  0.06278723  1
  Mg  Mg1  1  0.99991176  0.99991176  0.99973627  1
  Mg  Mg2  1  0.43738696  0.43738696  0.31215987  1
  Mg  Mg3  1  0.50008590  0.50008590  0.50025771  1
  Mg  Mg4  1  0.25001620  0.25001620  0.75004760  1
  Co  Co5  1  0.21911949  0.71809038  0.15632936  1
  Co  Co6  1  0.34373366  0.34373366  0.03119997  1
  Co  Co7  1  0.74997907  0.74997907  0.24993621  1
  Co  Co8  1  0.96874601  0.96874601  0.40626689  1
  Co  Co9  1  0.21911949  0.21911949  0.15632936  1
  Co  Co10  1  0.46877486  0.96874601  0.40626689  1
  Co  Co11  1  0.71809038  0.21911949  0.15632936  1
  Co  Co12  1  0.96874601  0.46877486  0.40626689  1
  Co  Co13  1  0.84363730  0.84363730  0.53091089  1
  Co  Co14  1  0.09389648  0.09389648  0.28169044  1
  Co  Co15  1  0.21959035  0.71838040  0.65635115  1
  Co  Co16  1  0.71838040  0.71838040  0.65635115  1
  Co  Co17  1  0.93747216  0.93747216  0.81241549  1
  Co  Co18  1  0.18753805  0.18753805  0.56261414  1
  Co  Co19  1  0.59365890  0.59365890  0.78097769  1
  Co  Co20  1  0.46835226  0.96942708  0.90613061  1
  Co  Co21  1  0.71838040  0.21959035  0.65635115  1
  Co  Co22  1  0.46835226  0.46835226  0.90613061  1
  Co  Co23  1  0.96942708  0.46835226  0.90613061  1
  O  O24  1  0.92318377  0.92318377  0.21551715  1
  O  O25  1  0.36914960  0.92318377  0.21551715  1
  O  O26  1  0.51354208  0.51354208  0.09716855  1
  O  O27  1  0.07008440  0.51354208  0.09716855  1
  O  O28  1  0.51354208  0.07008440  0.09716855  1
  O  O29  1  0.40266609  0.40266609  0.20799826  1
  O  O30  1  0.26370959  0.82012156  0.34754073  1
  O  O31  1  0.92318377  0.36914960  0.21551715  1
  O  O32  1  0.03481541  0.03481541  0.10444523  1
  O  O33  1  0.78452821  0.78452821  0.35358562  1
  O  O34  1  0.11731492  0.67384184  0.46499959  1
  O  O35  1  0.67384184  0.67384184  0.46499959  1
  O  O36  1  0.26370959  0.26370959  0.34754073  1
  O  O37  1  0.82012156  0.26370959  0.34754073  1
  O  O38  1  0.01428858  0.56856447  0.59714264  1
  O  O39  1  0.15297658  0.15297658  0.45892874  1
  O  O40  1  0.90285112  0.90285112  0.70855435  1
  O  O41  1  0.42399812  0.86723093  0.71522816  1
  O  O42  1  0.67384184  0.11731492  0.46499959  1
  O  O43  1  0.53482942  0.53482942  0.60448826  1
  O  O44  1  0.42399812  0.42399812  0.71522816  1
  O  O45  1  0.86723093  0.42399812  0.71522816  1
  O  O46  1  0.01428858  0.01428858  0.59714264  1
  O  O47  1  0.56856447  0.01428858  0.59714264  1
  O  O48  1  0.76434743  0.76434743  0.84699059  1
  O  O49  1  0.31829572  0.76434743  0.84699059  1
  O  O50  1  0.65268315  0.65268315  0.95804844  1
  O  O51  1  0.76434743  0.31829572  0.84699059  1
  O  O52  1  0.28480077  0.28480077  0.85440130  1
  O  O53  1  0.17391416  0.61744434  0.96527267  1
  O  O54  1  0.61744434  0.17391416  0.96527267  1
  O  O55  1  0.17391416  0.17391416  0.96527267  1
