# generated using pymatgen
data_Tb2Ti2O7
_symmetry_space_group_name_H-M   'P 1'
_cell_length_a   14.26290229
_cell_length_b   5.38084200
_cell_length_c   26.47469066
_cell_angle_alpha   89.99103373
_cell_angle_beta   164.80652212
_cell_angle_gamma   90.00385720
_symmetry_Int_Tables_number   1
_chemical_formula_structural   Tb2Ti2O7
_chemical_formula_sum   'Tb8 Ti8 O28'
_cell_volume   532.50265640
_cell_formula_units_Z   4
loop_
 _symmetry_equiv_pos_site_id
 _symmetry_equiv_pos_as_xyz
  1  'x, y, z'
loop_
 _atom_site_type_symbol
 _atom_site_label
 _atom_site_symmetry_multiplicity
 _atom_site_fract_x
 _atom_site_fract_y
 _atom_site_fract_z
 _atom_site_occupancy
  Tb  Tb0  1  0.31882299  0.22471648  0.96634398  1
  Tb  Tb1  1  0.43427374  0.76369471  0.15028207  1
  Tb  Tb2  1  0.27447535  0.14541797  0.41812156  1
  Tb  Tb3  1  0.67761766  0.72369192  0.03011820  1
  Tb  Tb4  1  0.45204186  0.74303312  0.68776819  1
  Tb  Tb5  1  0.56173763  0.26705825  0.84699469  1
  Tb  Tb6  1  0.54415843  0.24009341  0.30932059  1
  Tb  Tb7  1  0.72019680  0.64478214  0.57775402  1
  Ti  Ti8  1  0.15018632  0.20920320  0.73883197  1
  Ti  Ti9  1  0.06665161  0.74438360  0.59664836  1
  Ti  Ti10  1  0.06055927  0.74313875  0.09102913  1
  Ti  Ti11  1  0.93136436  0.24266127  0.40084054  1
  Ti  Ti12  1  0.84643096  0.70916218  0.25833418  1
  Ti  Ti13  1  0.18231431  0.22051361  0.25099091  1
  Ti  Ti14  1  0.93704100  0.24268014  0.90648509  1
  Ti  Ti15  1  0.81534583  0.72067880  0.74657648  1
  O  O16  1  0.08838696  0.97631517  0.03109559  1
  O  O17  1  0.02001413  0.05709330  0.89308627  1
  O  O18  1  0.26243350  0.55971642  0.74920163  1
  O  O19  1  0.02324626  0.08038911  0.60017308  1
  O  O20  1  0.26943173  0.41570391  0.85747078  1
  O  O21  1  0.34554150  0.63048433  0.01940553  1
  O  O22  1  0.11567689  0.91082373  0.74927643  1
  O  O23  1  0.45269444  0.35692831  0.18003928  1
  O  O24  1  0.11756452  0.48139734  0.57250944  1
  O  O25  1  0.73506825  0.05450404  0.24875344  1
  O  O26  1  0.88328281  0.97883458  0.42701106  1
  O  O27  1  0.72634681  0.91529738  0.13930601  1
  O  O28  1  0.15318371  0.43808423  0.29125232  1
  O  O29  1  0.65046506  0.13256080  0.97760683  1
  O  O30  1  0.54454463  0.86163945  0.81753135  1
  O  O31  1  0.33607178  0.82851250  0.50941963  1
  O  O32  1  0.43834527  0.16808502  0.65996390  1
  O  O33  1  0.25901106  0.94343936  0.33231715  1
  O  O34  1  0.88010853  0.41004325  0.24740544  1
  O  O35  1  0.15940167  0.07787714  0.16894730  1
  O  O36  1  0.97344221  0.57811182  0.39710432  1
  O  O37  1  0.90504535  0.47736333  0.96466696  1
  O  O38  1  0.97473293  0.55883437  0.10318819  1
  O  O39  1  0.55784305  0.66487114  0.33690867  1
  O  O40  1  0.84381006  0.93816514  0.70609791  1
  O  O41  1  0.65930046  0.32981170  0.48686898  1
  O  O42  1  0.73767071  0.44368678  0.66463179  1
  O  O43  1  0.84029359  0.57729380  0.83010276  1
