# generated using pymatgen
data_NaV3O8
_symmetry_space_group_name_H-M   'P 1'
_cell_length_a   7.33148389
_cell_length_b   3.62177656
_cell_length_c   12.28009954
_cell_angle_alpha   90.00000000
_cell_angle_beta   73.38805716
_cell_angle_gamma   90.00000000
_symmetry_Int_Tables_number   1
_chemical_formula_structural   NaV3O8
_chemical_formula_sum   'Na2 V6 O16'
_cell_volume   312.46411438
_cell_formula_units_Z   2
loop_
 _symmetry_equiv_pos_site_id
 _symmetry_equiv_pos_as_xyz
  1  'x, y, z'
loop_
 _atom_site_type_symbol
 _atom_site_label
 _atom_site_symmetry_multiplicity
 _atom_site_fract_x
 _atom_site_fract_y
 _atom_site_fract_z
 _atom_site_occupancy
  Na  Na0  1  0.18399989  0.75000000  0.31673448  1
  Na  Na1  1  0.81600011  0.25000000  0.68326552  1
  V  V2  1  0.11861884  0.25000000  0.07924559  1
  V  V3  1  0.31577196  0.25000000  0.54026367  1
  V  V4  1  0.25814833  0.25000000  0.80865419  1
  V  V5  1  0.74185167  0.75000000  0.19134581  1
  V  V6  1  0.68422804  0.75000000  0.45973633  1
  V  V7  1  0.88138116  0.75000000  0.92075441  1
  O  O8  1  0.04692571  0.75000000  0.07211146  1
  O  O9  1  0.22227869  0.25000000  0.18114871  1
  O  O10  1  0.19251560  0.25000000  0.44718314  1
  O  O11  1  0.14734798  0.25000000  0.67415873  1
  O  O12  1  0.17394748  0.75000000  0.82681787  1
  O  O13  1  0.52316519  0.75000000  0.27303192  1
  O  O14  1  0.39866497  0.75000000  0.53883293  1
  O  O15  1  0.69299142  0.75000000  0.04969277  1
  O  O16  1  0.30700858  0.25000000  0.95030723  1
  O  O17  1  0.60133503  0.25000000  0.46116707  1
  O  O18  1  0.47683481  0.25000000  0.72696808  1
  O  O19  1  0.82605252  0.25000000  0.17318213  1
  O  O20  1  0.85265202  0.75000000  0.32584127  1
  O  O21  1  0.80748440  0.75000000  0.55281686  1
  O  O22  1  0.77772131  0.75000000  0.81885129  1
  O  O23  1  0.95307429  0.25000000  0.92788854  1
