# generated using pymatgen
data_C
_symmetry_space_group_name_H-M   'P 1'
_cell_length_a   10.47059848
_cell_length_b   10.47059874
_cell_length_c   10.47059912
_cell_angle_alpha   13.82858262
_cell_angle_beta   13.82857684
_cell_angle_gamma   13.82857872
_symmetry_Int_Tables_number   1
_chemical_formula_structural   C
_chemical_formula_sum   C10
_cell_volume   57.07011853
_cell_formula_units_Z   10
loop_
 _symmetry_equiv_pos_site_id
 _symmetry_equiv_pos_as_xyz
  1  'x, y, z'
loop_
 _atom_site_type_symbol
 _atom_site_label
 _atom_site_symmetry_multiplicity
 _atom_site_fract_x
 _atom_site_fract_y
 _atom_site_fract_z
 _atom_site_occupancy
  C  C0  1  0.57468942  0.57468942  0.57468942  1
  C  C1  1  0.84164665  0.84164665  0.84164665  1
  C  C2  1  0.10863964  0.10863964  0.10863964  1
  C  C3  1  0.02481123  0.02481123  0.02481123  1
  C  C4  1  0.89136036  0.89136036  0.89136036  1
  C  C5  1  0.97518877  0.97518877  0.97518877  1
  C  C6  1  0.42531058  0.42531058  0.42531058  1
  C  C7  1  0.37483771  0.37483771  0.37483771  1
  C  C8  1  0.15835335  0.15835335  0.15835335  1
  C  C9  1  0.62516229  0.62516229  0.62516229  1
