# generated using pymatgen
data_ZnSeO4
_symmetry_space_group_name_H-M   'P 1'
_cell_length_a   9.17792840
_cell_length_b   6.90757581
_cell_length_c   4.98914654
_cell_angle_alpha   90.00000000
_cell_angle_beta   90.00000000
_cell_angle_gamma   90.00000000
_symmetry_Int_Tables_number   1
_chemical_formula_structural   ZnSeO4
_chemical_formula_sum   'Zn4 Se4 O16'
_cell_volume   316.29810164
_cell_formula_units_Z   4
loop_
 _symmetry_equiv_pos_site_id
 _symmetry_equiv_pos_as_xyz
  1  'x, y, z'
loop_
 _atom_site_type_symbol
 _atom_site_label
 _atom_site_symmetry_multiplicity
 _atom_site_fract_x
 _atom_site_fract_y
 _atom_site_fract_z
 _atom_site_occupancy
  Zn  Zn0  1  0.00000000  0.00000000  0.00000000  1
  Zn  Zn1  1  0.00000000  0.50000000  0.00000000  1
  Zn  Zn2  1  0.50000000  0.00000000  0.50000000  1
  Zn  Zn3  1  0.50000000  0.50000000  0.50000000  1
  Se  Se4  1  0.18166051  0.25000000  0.46584260  1
  Se  Se5  1  0.31833949  0.75000000  0.96584260  1
  Se  Se6  1  0.68166051  0.25000000  0.03415740  1
  Se  Se7  1  0.81833949  0.75000000  0.53415740  1
  O  O8  1  0.12944285  0.04513005  0.31763689  1
  O  O9  1  0.12069422  0.25000000  0.78306143  1
  O  O10  1  0.12944285  0.45486995  0.31763689  1
  O  O11  1  0.13253509  0.75000000  0.93443727  1
  O  O12  1  0.36746491  0.25000000  0.43443727  1
  O  O13  1  0.37930578  0.75000000  0.28306143  1
  O  O14  1  0.37055715  0.95486995  0.81763689  1
  O  O15  1  0.37055715  0.54513005  0.81763689  1
  O  O16  1  0.62944285  0.04513005  0.18236311  1
  O  O17  1  0.62069422  0.25000000  0.71693857  1
  O  O18  1  0.62944285  0.45486995  0.18236311  1
  O  O19  1  0.63253509  0.75000000  0.56556273  1
  O  O20  1  0.86746491  0.25000000  0.06556273  1
  O  O21  1  0.87055715  0.54513005  0.68236311  1
  O  O22  1  0.87930578  0.75000000  0.21693857  1
  O  O23  1  0.87055715  0.95486995  0.68236311  1
