# generated using pymatgen
data_DySeO3
_symmetry_space_group_name_H-M   'P 1'
_cell_length_a   6.02112621
_cell_length_b   12.45147730
_cell_length_c   8.87190851
_cell_angle_alpha   90.00000000
_cell_angle_beta   106.41740862
_cell_angle_gamma   90.00000000
_symmetry_Int_Tables_number   1
_chemical_formula_structural   DySeO3
_chemical_formula_sum   'Dy8 Se8 O24'
_cell_volume   638.02482807
_cell_formula_units_Z   8
loop_
 _symmetry_equiv_pos_site_id
 _symmetry_equiv_pos_as_xyz
  1  'x, y, z'
loop_
 _atom_site_type_symbol
 _atom_site_label
 _atom_site_symmetry_multiplicity
 _atom_site_fract_x
 _atom_site_fract_y
 _atom_site_fract_z
 _atom_site_occupancy
  Dy  Dy0  1  0.23945657  0.44068139  0.91330050  1
  Dy  Dy1  1  0.23945657  0.05931861  0.41330050  1
  Dy  Dy2  1  0.36260407  0.75899407  0.85600294  1
  Dy  Dy3  1  0.36260407  0.74100593  0.35600294  1
  Dy  Dy4  1  0.63739593  0.25899407  0.64399706  1
  Dy  Dy5  1  0.63739593  0.24100593  0.14399706  1
  Dy  Dy6  1  0.76054343  0.94068139  0.58669950  1
  Dy  Dy7  1  0.76054343  0.55931861  0.08669950  1
  Se  Se8  1  0.04633307  0.15937081  0.00398344  1
  Se  Se9  1  0.04633307  0.34062919  0.50398344  1
  Se  Se10  1  0.37242281  0.01510473  0.82379649  1
  Se  Se11  1  0.37242281  0.48489527  0.32379649  1
  Se  Se12  1  0.62757719  0.51510473  0.67620351  1
  Se  Se13  1  0.62757719  0.98489527  0.17620351  1
  Se  Se14  1  0.95366693  0.65937081  0.49601656  1
  Se  Se15  1  0.95366693  0.84062919  0.99601656  1
  O  O16  1  0.98373665  0.82747596  0.80833857  1
  O  O17  1  0.98373665  0.67252404  0.30833857  1
  O  O18  1  0.13421056  0.01827543  0.64706455  1
  O  O19  1  0.21202786  0.72740133  0.58717128  1
  O  O20  1  0.25060568  0.24463372  0.49950065  1
  O  O21  1  0.13421056  0.48172457  0.14706555  1
  O  O22  1  0.40778986  0.59529359  0.92031863  1
  O  O23  1  0.21202786  0.77259867  0.08717128  1
  O  O24  1  0.25060568  0.25536628  0.99950065  1
  O  O25  1  0.44792052  0.40853996  0.71769473  1
  O  O26  1  0.40778986  0.90470641  0.42031863  1
  O  O27  1  0.55207948  0.90853996  0.78230527  1
  O  O28  1  0.44792052  0.09146004  0.21769473  1
  O  O29  1  0.59221014  0.09529359  0.57968137  1
  O  O30  1  0.55207948  0.59146004  0.28230527  1
  O  O31  1  0.74939432  0.74463372  0.00049935  1
  O  O32  1  0.78797214  0.22740133  0.91282872  1
  O  O33  1  0.59221014  0.40470641  0.07968137  1
  O  O34  1  0.86578944  0.51827543  0.85293545  1
  O  O35  1  0.74939432  0.75536628  0.50049935  1
  O  O36  1  0.78797214  0.27259867  0.41282872  1
  O  O37  1  0.86578944  0.98172457  0.35293545  1
  O  O38  1  0.01626335  0.32747596  0.69166143  1
  O  O39  1  0.01626335  0.17252404  0.19166143  1
