# generated using pymatgen
data_K2OsO5
_symmetry_space_group_name_H-M   'P 1'
_cell_length_a   10.92035155
_cell_length_b   10.92034819
_cell_length_c   8.29805427
_cell_angle_alpha   89.99948464
_cell_angle_beta   90.00083746
_cell_angle_gamma   120.00054255
_symmetry_Int_Tables_number   1
_chemical_formula_structural   K2OsO5
_chemical_formula_sum   'K12 Os6 O30'
_cell_volume   856.99370854
_cell_formula_units_Z   6
loop_
 _symmetry_equiv_pos_site_id
 _symmetry_equiv_pos_as_xyz
  1  'x, y, z'
loop_
 _atom_site_type_symbol
 _atom_site_label
 _atom_site_symmetry_multiplicity
 _atom_site_fract_x
 _atom_site_fract_y
 _atom_site_fract_z
 _atom_site_occupancy
  K  K0  1  0.29495001  0.96479477  0.99999914  1
  K  K1  1  0.03521722  0.33017808  0.99999755  1
  K  K2  1  0.33330334  0.66669411  0.25807297  1
  K  K3  1  -0.00000087  0.00000101  0.25308359  1
  K  K4  1  0.00000055  0.00000210  0.74691564  1
  K  K5  1  0.33339197  0.66669468  0.74192758  1
  K  K6  1  0.36438850  0.33101879  0.49999509  1
  K  K7  1  0.66982874  0.70504020  0.00000358  1
  K  K8  1  0.66661540  0.33330847  0.75851042  1
  K  K9  1  0.66669551  0.33330909  0.24148947  1
  K  K10  1  0.96662451  0.63560815  0.50000356  1
  K  K11  1  0.66898740  0.03337375  0.50000116  1
  Os  Os12  1  0.30122102  0.96745735  0.50000116  1
  Os  Os13  1  0.03253549  0.33376507  0.50000066  1
  Os  Os14  1  0.36320020  0.32080861  0.00000532  1
  Os  Os15  1  0.66627087  0.69879406  0.49999828  1
  Os  Os16  1  0.67920243  0.04238836  -0.00000087  1
  Os  Os17  1  0.95759805  0.63679869  -0.00000487  1
  O  O18  1  0.01787138  0.82619964  0.00000036  1
  O  O19  1  0.21586249  0.88059778  0.31591893  1
  O  O20  1  0.21586348  0.88060208  0.68408237  1
  O  O21  1  0.13418580  0.66428887  0.00000064  1
  O  O22  1  0.13107276  0.52809349  0.50000234  1
  O  O23  1  0.11940231  0.33526025  0.68408414  1
  O  O24  1  0.11939979  0.33526141  0.31591702  1
  O  O25  1  0.39702463  0.86893043  0.50000210  1
  O  O26  1  0.17380119  0.19167506  -0.00000010  1
  O  O27  1  0.33571313  0.46989737  0.00000088  1
  O  O28  1  0.53010209  0.86581200  0.99999752  1
  O  O29  1  0.47189413  0.60297319  0.49999613  1
  O  O30  1  0.20151390  0.06064733  0.49999782  1
  O  O31  1  0.37797075  0.24854792  0.81188887  1
  O  O32  1  0.37797601  0.24855049  0.18810919  1
  O  O33  1  0.66473593  0.78413636  0.68408157  1
  O  O34  1  0.66473954  0.78413891  0.31591517  1
  O  O35  1  0.80832364  0.98212612  0.99999962  1
  O  O36  1  0.55588376  0.43456929  0.00000007  1
  O  O37  1  0.46614116  0.13157150  0.50000197  1
  O  O38  1  0.66542619  0.53385828  0.50000004  1
  O  O39  1  0.85911997  0.79848154  0.50000240  1
  O  O40  1  0.56542818  0.12131155  0.00000213  1
  O  O41  1  0.87057559  0.62202560  0.81189425  1
  O  O42  1  0.87057724  0.62202451  0.18811127  1
  O  O43  1  0.87868197  0.44411492  0.99999796  1
  O  O44  1  0.75144608  0.12942066  0.81188821  1
  O  O45  1  0.75145189  0.12941940  0.18810942  1
  O  O46  1  0.86843257  0.33456772  0.49999866  1
  O  O47  1  0.93935313  0.14086400  0.49999962  1
