# generated using pymatgen
data_KF5
_symmetry_space_group_name_H-M   'P 1'
_cell_length_a   5.47371290
_cell_length_b   5.47371290
_cell_length_c   7.89693479
_cell_angle_alpha   110.27779061
_cell_angle_beta   110.27779061
_cell_angle_gamma   90.00000000
_symmetry_Int_Tables_number   1
_chemical_formula_structural   KF5
_chemical_formula_sum   'K2 F10'
_cell_volume   206.23636743
_cell_formula_units_Z   2
loop_
 _symmetry_equiv_pos_site_id
 _symmetry_equiv_pos_as_xyz
  1  'x, y, z'
loop_
 _atom_site_type_symbol
 _atom_site_label
 _atom_site_symmetry_multiplicity
 _atom_site_fract_x
 _atom_site_fract_y
 _atom_site_fract_z
 _atom_site_occupancy
  K  K0  1  0.62500000  0.87500000  0.25000000  1
  K  K1  1  0.37500000  0.12500000  0.75000000  1
  F  F2  1  0.12500000  0.37500000  0.25000000  1
  F  F3  1  0.87500000  0.62500000  0.75000000  1
  F  F4  1  0.94224105  0.76334835  0.56142185  1
  F  F5  1  0.61918080  0.29807350  0.56142185  1
  F  F6  1  0.26334835  0.11918080  0.06142185  1
  F  F7  1  0.79807350  0.44224105  0.06142185  1
  F  F8  1  0.05775895  0.23665165  0.43857815  1
  F  F9  1  0.38081920  0.70192650  0.43857815  1
  F  F10  1  0.73665165  0.88081920  0.93857815  1
  F  F11  1  0.20192650  0.55775895  0.93857815  1
