# generated using pymatgen
data_MgZn
_symmetry_space_group_name_H-M   'P 1'
_cell_length_a   4.77663197
_cell_length_b   3.04590068
_cell_length_c   15.26428944
_cell_angle_alpha   90.00000000
_cell_angle_beta   90.00000000
_cell_angle_gamma   90.00000000
_symmetry_Int_Tables_number   1
_chemical_formula_structural   MgZn
_chemical_formula_sum   'Mg6 Zn6'
_cell_volume   222.08238428
_cell_formula_units_Z   6
loop_
 _symmetry_equiv_pos_site_id
 _symmetry_equiv_pos_as_xyz
  1  'x, y, z'
loop_
 _atom_site_type_symbol
 _atom_site_label
 _atom_site_symmetry_multiplicity
 _atom_site_fract_x
 _atom_site_fract_y
 _atom_site_fract_z
 _atom_site_occupancy
  Mg  Mg0  1  -0.00000000  0.50000000  0.16637813  1
  Mg  Mg1  1  0.50000000  0.50000000  0.04450812  1
  Mg  Mg2  1  0.50000000  0.00000000  0.23335206  1
  Mg  Mg3  1  0.00000000  0.00000000  0.66637813  1
  Mg  Mg4  1  0.50000000  -0.00000000  0.54450812  1
  Mg  Mg5  1  0.50000000  0.50000000  0.73335206  1
  Zn  Zn6  1  -0.00000000  0.00000000  0.99385491  1
  Zn  Zn7  1  -0.00000000  -0.00000000  0.33881433  1
  Zn  Zn8  1  0.50000000  0.50000000  0.38975946  1
  Zn  Zn9  1  -0.00000000  0.50000000  0.49385491  1
  Zn  Zn10  1  -0.00000000  0.50000000  0.83881433  1
  Zn  Zn11  1  0.50000000  0.00000000  0.88975946  1
