# generated using pymatgen
data_Cs4GeO4
_symmetry_space_group_name_H-M   'P 1'
_cell_length_a   11.71162792
_cell_length_b   7.24124592
_cell_length_c   11.54442589
_cell_angle_alpha   90.00000000
_cell_angle_beta   111.84675105
_cell_angle_gamma   90.00000000
_symmetry_Int_Tables_number   1
_chemical_formula_structural   Cs4GeO4
_chemical_formula_sum   'Cs16 Ge4 O16'
_cell_volume   908.73295436
_cell_formula_units_Z   4
loop_
 _symmetry_equiv_pos_site_id
 _symmetry_equiv_pos_as_xyz
  1  'x, y, z'
loop_
 _atom_site_type_symbol
 _atom_site_label
 _atom_site_symmetry_multiplicity
 _atom_site_fract_x
 _atom_site_fract_y
 _atom_site_fract_z
 _atom_site_occupancy
  Cs  Cs0  1  0.06370607  0.41025974  0.70290702  1
  Cs  Cs1  1  0.15397954  0.88359462  0.58304021  1
  Cs  Cs2  1  0.06370607  0.08974026  0.20290702  1
  Cs  Cs3  1  0.36872007  0.66224570  0.89246937  1
  Cs  Cs4  1  0.15397954  0.61640538  0.08304021  1
  Cs  Cs5  1  0.42331158  0.17212213  0.79224841  1
  Cs  Cs6  1  0.36872007  0.83775430  0.39246937  1
  Cs  Cs7  1  0.57668842  0.67212313  0.70775159  1
  Cs  Cs8  1  0.42331158  0.32787787  0.29224841  1
  Cs  Cs9  1  0.63127993  0.16224570  0.60753063  1
  Cs  Cs10  1  0.57668842  0.82787687  0.20775159  1
  Cs  Cs11  1  0.84602046  0.38359462  0.91695979  1
  Cs  Cs12  1  0.63127993  0.33775430  0.10753063  1
  Cs  Cs13  1  0.93629393  0.91025974  0.79709298  1
  Cs  Cs14  1  0.84602046  0.11640538  0.41695979  1
  Cs  Cs15  1  0.93629393  0.58974026  0.29709298  1
  Ge  Ge16  1  0.24208111  0.12565436  0.99137098  1
  Ge  Ge17  1  0.24208111  0.37434564  0.49137098  1
  Ge  Ge18  1  0.75791889  0.62565436  0.50862902  1
  Ge  Ge19  1  0.75791889  0.87434564  0.00862902  1
  O  O20  1  0.09617416  0.22815228  0.97641015  1
  O  O21  1  0.21784233  0.99559576  0.84999262  1
  O  O22  1  0.09617416  0.27184772  0.47641015  1
  O  O23  1  0.30062396  0.52105101  0.62820645  1
  O  O24  1  0.21784233  0.50440424  0.34999262  1
  O  O25  1  0.35282285  0.19087907  0.50835483  1
  O  O26  1  0.30062396  0.97894899  0.12820645  1
  O  O27  1  0.64717715  0.69087907  0.99164517  1
  O  O28  1  0.35282285  0.30912093  0.00835483  1
  O  O29  1  0.69937604  0.02105101  0.87179355  1
  O  O30  1  0.64717715  0.80912093  0.49164517  1
  O  O31  1  0.78215767  0.49559576  0.65000738  1
  O  O32  1  0.69937604  0.47894899  0.37179355  1
  O  O33  1  0.90382584  0.72815228  0.52358985  1
  O  O34  1  0.78215767  0.00440424  0.15000738  1
  O  O35  1  0.90382584  0.77184772  0.02358985  1
