# generated using pymatgen
data_Rb5FeO4
_symmetry_space_group_name_H-M   'P 1'
_cell_length_a   12.19755314
_cell_length_b   7.11007709
_cell_length_c   21.62294158
_cell_angle_alpha   90.00000000
_cell_angle_beta   90.00000000
_cell_angle_gamma   90.00000000
_symmetry_Int_Tables_number   1
_chemical_formula_structural   Rb5FeO4
_chemical_formula_sum   'Rb40 Fe8 O32'
_cell_volume   1875.26135270
_cell_formula_units_Z   8
loop_
 _symmetry_equiv_pos_site_id
 _symmetry_equiv_pos_as_xyz
  1  'x, y, z'
loop_
 _atom_site_type_symbol
 _atom_site_label
 _atom_site_symmetry_multiplicity
 _atom_site_fract_x
 _atom_site_fract_y
 _atom_site_fract_z
 _atom_site_occupancy
  Rb  Rb0  1  0.06024958  0.08123739  0.43420652  1
  Rb  Rb1  1  0.06024958  0.41876261  0.93420652  1
  Rb  Rb2  1  0.08128365  0.60581310  0.74947175  1
  Rb  Rb3  1  0.08128365  0.89418690  0.24947175  1
  Rb  Rb4  1  0.14453404  0.57506121  0.50091305  1
  Rb  Rb5  1  0.14453404  0.92493879  0.00091305  1
  Rb  Rb6  1  0.17082509  0.09971995  0.82755717  1
  Rb  Rb7  1  0.17082509  0.40028005  0.32755717  1
  Rb  Rb8  1  0.20502681  0.56846886  0.13669615  1
  Rb  Rb9  1  0.20502681  0.93153114  0.63669615  1
  Rb  Rb10  1  0.29497319  0.06846886  0.13669615  1
  Rb  Rb11  1  0.29497319  0.43153114  0.63669615  1
  Rb  Rb12  1  0.32917491  0.90028005  0.32755717  1
  Rb  Rb13  1  0.32917491  0.59971995  0.82755717  1
  Rb  Rb14  1  0.35546596  0.42493779  0.00091305  1
  Rb  Rb15  1  0.35546596  0.07506221  0.50091305  1
  Rb  Rb16  1  0.41871635  0.39418690  0.24947175  1
  Rb  Rb17  1  0.41871635  0.10581310  0.74947175  1
  Rb  Rb18  1  0.43975042  0.91876261  0.93420652  1
  Rb  Rb19  1  0.43975042  0.58123739  0.43420652  1
  Rb  Rb20  1  0.56024958  0.08123739  0.06579348  1
  Rb  Rb21  1  0.56024958  0.41876261  0.56579348  1
  Rb  Rb22  1  0.58128365  0.60581310  0.75052825  1
  Rb  Rb23  1  0.58128365  0.89418690  0.25052825  1
  Rb  Rb24  1  0.64453404  0.57506121  0.99908695  1
  Rb  Rb25  1  0.64453404  0.92493879  0.49908595  1
  Rb  Rb26  1  0.67082509  0.09971995  0.67244283  1
  Rb  Rb27  1  0.67082509  0.40028005  0.17244283  1
  Rb  Rb28  1  0.70502681  0.93153114  0.86330385  1
  Rb  Rb29  1  0.70502681  0.56846886  0.36330385  1
  Rb  Rb30  1  0.79497319  0.06846886  0.36330385  1
  Rb  Rb31  1  0.79497319  0.43153114  0.86330385  1
  Rb  Rb32  1  0.82917491  0.59971995  0.67244283  1
  Rb  Rb33  1  0.82917491  0.90028005  0.17244283  1
  Rb  Rb34  1  0.85546596  0.42493779  0.49908595  1
  Rb  Rb35  1  0.85546596  0.07506221  0.99908695  1
  Rb  Rb36  1  0.91871635  0.10581310  0.75052825  1
  Rb  Rb37  1  0.91871635  0.39418690  0.25052825  1
  Rb  Rb38  1  0.93975042  0.91876261  0.56579348  1
  Rb  Rb39  1  0.93975042  0.58123739  0.06579348  1
  Fe  Fe40  1  0.03490878  0.17797776  0.12477679  1
  Fe  Fe41  1  0.03490878  0.32202224  0.62477679  1
  Fe  Fe42  1  0.46509122  0.67797776  0.12477679  1
  Fe  Fe43  1  0.46509122  0.82202224  0.62477679  1
  Fe  Fe44  1  0.53490878  0.32202224  0.87522321  1
  Fe  Fe45  1  0.53490878  0.17797776  0.37522321  1
  Fe  Fe46  1  0.96509122  0.67797776  0.37522321  1
  Fe  Fe47  1  0.96509122  0.82202224  0.87522321  1
  O  O48  1  0.04287219  0.90479489  0.11802972  1
  O  O49  1  0.04287219  0.59520511  0.61802972  1
  O  O50  1  0.10908795  0.25721204  0.19985921  1
  O  O51  1  0.10908795  0.24278796  0.69985921  1
  O  O52  1  0.10970185  0.28988376  0.05417322  1
  O  O53  1  0.10970185  0.21011624  0.55417322  1
  O  O54  1  0.11787280  0.75116272  0.37283569  1
  O  O55  1  0.11787280  0.74883728  0.87283569  1
  O  O56  1  0.38212720  0.24883728  0.87283569  1
  O  O57  1  0.38212720  0.25116272  0.37283569  1
  O  O58  1  0.39029815  0.78988376  0.05417322  1
  O  O59  1  0.39029815  0.71011624  0.55417322  1
  O  O60  1  0.39091205  0.74278796  0.69985921  1
  O  O61  1  0.39091205  0.75721204  0.19985921  1
  O  O62  1  0.45712781  0.40479489  0.11802972  1
  O  O63  1  0.45712781  0.09520511  0.61802972  1
  O  O64  1  0.54287219  0.59520511  0.88197028  1
  O  O65  1  0.54287219  0.90479489  0.38197028  1
  O  O66  1  0.60908795  0.24278796  0.80014079  1
  O  O67  1  0.60908795  0.25721204  0.30014079  1
  O  O68  1  0.60970185  0.21011624  0.94582678  1
  O  O69  1  0.60970185  0.28988376  0.44582678  1
  O  O70  1  0.61787280  0.75116272  0.12716431  1
  O  O71  1  0.61787280  0.74883728  0.62716431  1
  O  O72  1  0.88212720  0.24883728  0.62716431  1
  O  O73  1  0.88212720  0.25116272  0.12716431  1
  O  O74  1  0.89029815  0.78988376  0.44582678  1
  O  O75  1  0.89029815  0.71011624  0.94582678  1
  O  O76  1  0.89091205  0.74278796  0.80014079  1
  O  O77  1  0.89091205  0.75721204  0.30014079  1
  O  O78  1  0.95712781  0.40479489  0.38197028  1
  O  O79  1  0.95712781  0.09520511  0.88197028  1
