# generated using pymatgen
data_NaMnPCO7
_symmetry_space_group_name_H-M   'P 1'
_cell_length_a   9.43545165
_cell_length_b   6.19378557
_cell_length_c   5.15849181
_cell_angle_alpha   91.59231720
_cell_angle_beta   88.40377721
_cell_angle_gamma   88.26706859
_symmetry_Int_Tables_number   1
_chemical_formula_structural   NaMnPCO7
_chemical_formula_sum   'Na2 Mn2 P2 C2 O14'
_cell_volume   301.08977608
_cell_formula_units_Z   2
loop_
 _symmetry_equiv_pos_site_id
 _symmetry_equiv_pos_as_xyz
  1  'x, y, z'
loop_
 _atom_site_type_symbol
 _atom_site_label
 _atom_site_symmetry_multiplicity
 _atom_site_fract_x
 _atom_site_fract_y
 _atom_site_fract_z
 _atom_site_occupancy
  Na  Na0  1  0.23002469  0.05183780  0.25284168  1
  Na  Na1  1  0.76997531  0.94816220  0.74715832  1
  Mn  Mn2  1  0.35041371  0.75228046  0.78429085  1
  Mn  Mn3  1  0.64958629  0.24771954  0.21570915  1
  P  P4  1  0.43788916  0.24349935  0.72133783  1
  P  P5  1  0.56211084  0.75650065  0.27866217  1
  C  C6  1  0.09947823  0.75054415  0.70809721  1
  C  C7  1  0.90052177  0.24945585  0.29190279  1
  O  O8  1  0.02786339  0.24172482  0.33538561  1
  O  O9  1  0.15588967  0.76667704  0.93949999  1
  O  O10  1  0.20235467  0.72758238  0.52597165  1
  O  O11  1  0.35943855  0.44835098  0.83312010  1
  O  O12  1  0.32509333  0.06528223  0.75338581  1
  O  O13  1  0.42745171  0.81101469  0.12880601  1
  O  O14  1  0.47504738  0.25591597  0.42728546  1
  O  O15  1  0.52495262  0.74408403  0.57271454  1
  O  O16  1  0.57254829  0.18898531  0.87119399  1
  O  O17  1  0.67490667  0.93471777  0.24661419  1
  O  O18  1  0.64056145  0.55164902  0.16687990  1
  O  O19  1  0.79764533  0.27241762  0.47402835  1
  O  O20  1  0.84411033  0.23332296  0.06050001  1
  O  O21  1  0.97213661  0.75827518  0.66461439  1
