# generated using pymatgen
data_CrP6(WO8)3
_symmetry_space_group_name_H-M   'P 1'
_cell_length_a   8.90255422
_cell_length_b   8.90255385
_cell_length_c   8.90255414
_cell_angle_alpha   58.91162969
_cell_angle_beta   58.91162859
_cell_angle_gamma   58.91162800
_symmetry_Int_Tables_number   1
_chemical_formula_structural   CrP6(WO8)3
_chemical_formula_sum   'Cr1 P6 W3 O24'
_cell_volume   486.52501447
_cell_formula_units_Z   1
loop_
 _symmetry_equiv_pos_site_id
 _symmetry_equiv_pos_as_xyz
  1  'x, y, z'
loop_
 _atom_site_type_symbol
 _atom_site_label
 _atom_site_symmetry_multiplicity
 _atom_site_fract_x
 _atom_site_fract_y
 _atom_site_fract_z
 _atom_site_occupancy
  Cr  Cr0  1  0.85727258  0.85727258  0.85727258  1
  P  P1  1  0.03422584  0.75100067  0.46949711  1
  P  P2  1  0.46949711  0.03422584  0.75100067  1
  P  P3  1  0.75100067  0.46949711  0.03422584  1
  P  P4  1  0.24328613  0.54244602  0.96291757  1
  P  P5  1  0.54244602  0.96291757  0.24328613  1
  P  P6  1  0.96291757  0.24328613  0.54244602  1
  W  W7  1  0.14230919  0.14230919  0.14230919  1
  W  W8  1  0.35716148  0.35716148  0.35716148  1
  W  W9  1  0.64189088  0.64189088  0.64189088  1
  O  O10  1  0.13182541  0.28364905  0.50516640  1
  O  O11  1  0.28364905  0.50516640  0.13182541  1
  O  O12  1  0.06223060  0.92025792  0.28664590  1
  O  O13  1  0.50516640  0.13182541  0.28364905  1
  O  O14  1  0.21235279  0.58048115  0.43420044  1
  O  O15  1  0.01007144  0.77594220  0.63561908  1
  O  O16  1  0.28664590  0.06223060  0.92025792  1
  O  O17  1  0.43420044  0.21235279  0.58048115  1
  O  O18  1  0.58048115  0.43420044  0.21235279  1
  O  O19  1  0.22113267  0.36579778  0.99191859  1
  O  O20  1  0.07739260  0.71534698  0.94085979  1
  O  O21  1  0.36579778  0.99191859  0.22113267  1
  O  O22  1  0.63561908  0.01007144  0.77594220  1
  O  O23  1  0.92025792  0.28664590  0.06223060  1
  O  O24  1  0.77594220  0.63561908  0.01007144  1
  O  O25  1  0.42154370  0.56011929  0.78833135  1
  O  O26  1  0.56011929  0.78833135  0.42154370  1
  O  O27  1  0.71534698  0.94085979  0.07739260  1
  O  O28  1  0.99191859  0.22113267  0.36579778  1
  O  O29  1  0.78833135  0.42154370  0.56011929  1
  O  O30  1  0.49054893  0.86639438  0.72016706  1
  O  O31  1  0.94085979  0.07739260  0.71534698  1
  O  O32  1  0.72016706  0.49054893  0.86639438  1
  O  O33  1  0.86639438  0.72016706  0.49054893  1
