# generated using pymatgen
data_Li2FeSiO4
_symmetry_space_group_name_H-M   'P 1'
_cell_length_a   5.05670492
_cell_length_b   6.34865037
_cell_length_c   10.81940770
_cell_angle_alpha   90.10196228
_cell_angle_beta   90.00004440
_cell_angle_gamma   90.16357929
_symmetry_Int_Tables_number   1
_chemical_formula_structural   Li2FeSiO4
_chemical_formula_sum   'Li8 Fe4 Si4 O16'
_cell_volume   347.33620111
_cell_formula_units_Z   4
loop_
 _symmetry_equiv_pos_site_id
 _symmetry_equiv_pos_as_xyz
  1  'x, y, z'
loop_
 _atom_site_type_symbol
 _atom_site_label
 _atom_site_symmetry_multiplicity
 _atom_site_fract_x
 _atom_site_fract_y
 _atom_site_fract_z
 _atom_site_occupancy
  Li  Li0  1  0.18286367  0.00006210  0.58785018  1
  Li  Li1  1  0.81839408  0.99632905  0.41140023  1
  Li  Li2  1  0.68165857  0.50384060  0.91144892  1
  Li  Li3  1  0.31688329  0.49978241  0.08782713  1
  Li  Li4  1  0.18316468  0.49913164  0.58788177  1
  Li  Li5  1  0.81807388  0.49730737  0.41177567  1
  Li  Li6  1  0.31704114  0.00071193  0.08791814  1
  Li  Li7  1  0.68189456  0.00290362  0.91172903  1
  Fe  Fe8  1  0.68534261  0.75105181  0.66149005  1
  Fe  Fe9  1  0.81457693  0.74926689  0.16147220  1
  Fe  Fe10  1  0.18458297  0.25267855  0.83795322  1
  Fe  Fe11  1  0.31539125  0.24697096  0.33794597  1
  Si  Si12  1  0.17387951  0.75261172  0.83458791  1
  Si  Si13  1  0.32612748  0.74714975  0.33458751  1
  Si  Si14  1  0.82582024  0.24933024  0.16498071  1
  Si  Si15  1  0.67419472  0.25092767  0.66495642  1
  O  O16  1  0.28336963  0.96659381  0.90603594  1
  O  O17  1  0.21826084  0.96055353  0.40678094  1
  O  O18  1  0.84754190  0.75323778  0.83662494  1
  O  O19  1  0.22400708  0.74941511  0.18884910  1
  O  O20  1  0.27600040  0.75050918  0.68885407  1
  O  O21  1  0.65247453  0.74647109  0.33662442  1
  O  O22  1  0.28166434  0.54000997  0.90667684  1
  O  O23  1  0.21671653  0.53398854  0.40591985  1
  O  O24  1  0.71648120  0.46177699  0.09332835  1
  O  O25  1  0.78271805  0.46411470  0.59325525  1
  O  O26  1  0.72441227  0.24740209  0.31080796  1
  O  O27  1  0.34777410  0.24991665  0.66297491  1
  O  O28  1  0.15224658  0.25025290  0.16298165  1
  O  O29  1  0.77559826  0.25274108  0.81079794  1
  O  O30  1  0.71746790  0.03533202  0.09309337  1
  O  O31  1  0.78338085  0.03764427  0.59314539  1
