# generated using pymatgen
data_Cs2ZnH12(SO7)2
_symmetry_space_group_name_H-M   'P 1'
_cell_length_a   9.37166910
_cell_length_b   12.91086323
_cell_length_c   6.43542363
_cell_angle_alpha   90.00000000
_cell_angle_beta   106.65726922
_cell_angle_gamma   90.00000000
_symmetry_Int_Tables_number   1
_chemical_formula_structural   Cs2ZnH12(SO7)2
_chemical_formula_sum   'Cs4 Zn2 H24 S4 O28'
_cell_volume   745.98731198
_cell_formula_units_Z   2
loop_
 _symmetry_equiv_pos_site_id
 _symmetry_equiv_pos_as_xyz
  1  'x, y, z'
loop_
 _atom_site_type_symbol
 _atom_site_label
 _atom_site_symmetry_multiplicity
 _atom_site_fract_x
 _atom_site_fract_y
 _atom_site_fract_z
 _atom_site_occupancy
  Cs  Cs0  1  0.12749121  0.35618539  0.35601586  1
  Cs  Cs1  1  0.37250879  0.85618539  0.64398414  1
  Cs  Cs2  1  0.62749121  0.14381461  0.35601586  1
  Cs  Cs3  1  0.87250879  0.64381461  0.64398414  1
  Zn  Zn4  1  0.00000000  0.00000000  0.00000000  1
  Zn  Zn5  1  0.50000000  0.50000000  0.00000000  1
  H  H6  1  0.09414854  0.05920634  0.66287693  1
  H  H7  1  0.02620230  0.86025925  0.31328165  1
  H  H8  1  0.22417548  0.40318817  0.93370378  1
  H  H9  1  0.26408123  0.63046246  0.91769458  1
  H  H10  1  0.20917406  0.10165368  0.31507015  1
  H  H11  1  0.35006413  0.31706677  0.99095086  1
  H  H12  1  0.14993587  0.81706677  0.00904914  1
  H  H13  1  0.29082594  0.60165368  0.68492985  1
  H  H14  1  0.23591877  0.13046246  0.08230542  1
  H  H15  1  0.27582452  0.90318817  0.06629622  1
  H  H16  1  0.47379770  0.36025925  0.68671835  1
  H  H17  1  0.40585146  0.55920634  0.33712307  1
  H  H18  1  0.59414854  0.44079366  0.66287693  1
  H  H19  1  0.52620230  0.63974075  0.31328165  1
  H  H20  1  0.72417548  0.09681183  0.93370378  1
  H  H21  1  0.76408123  0.86953754  0.91769458  1
  H  H22  1  0.70917406  0.39834632  0.31507015  1
  H  H23  1  0.85006413  0.18293323  0.99095086  1
  H  H24  1  0.64993587  0.68293323  0.00904914  1
  H  H25  1  0.79082594  0.89834632  0.68492985  1
  H  H26  1  0.73591877  0.36953754  0.08230542  1
  H  H27  1  0.77582452  0.59681183  0.06629622  1
  H  H28  1  0.97379770  0.13974075  0.68671835  1
  H  H29  1  0.90585146  0.94079366  0.33712307  1
  S  S30  1  0.10452158  0.64729889  0.25871322  1
  S  S31  1  0.39547842  0.14729889  0.74128678  1
  S  S32  1  0.60452158  0.85270111  0.25871322  1
  S  S33  1  0.89547842  0.35270111  0.74128678  1
  O  O34  1  0.99933960  0.06437720  0.70135474  1
  O  O35  1  0.03168063  0.41816734  0.80111000  1
  O  O36  1  0.17069554  0.89057942  0.98077086  1
  O  O37  1  0.08215068  0.73930668  0.38659825  1
  O  O38  1  0.14188875  0.68296861  0.05814694  1
  O  O39  1  0.16015755  0.11347166  0.15811257  1
  O  O40  1  0.26821922  0.08492844  0.60224102  1
  O  O41  1  0.23178078  0.58492844  0.39775898  1
  O  O42  1  0.33984245  0.61347166  0.84188743  1
  O  O43  1  0.35811125  0.18296861  0.94185306  1
  O  O44  1  0.41784932  0.23930668  0.61340175  1
  O  O45  1  0.32930446  0.39057942  0.01922914  1
  O  O46  1  0.49933960  0.43562280  0.70135474  1
  O  O47  1  0.53168063  0.08183266  0.80111000  1
  O  O48  1  0.46831937  0.91816734  0.19889000  1
  O  O49  1  0.50066040  0.56437720  0.29864526  1
  O  O50  1  0.67069554  0.60942058  0.98077086  1
  O  O51  1  0.58215068  0.76069332  0.38659825  1
  O  O52  1  0.64188875  0.81703139  0.05814694  1
  O  O53  1  0.66015755  0.38652834  0.15811257  1
  O  O54  1  0.76821922  0.41507156  0.60224102  1
  O  O55  1  0.73178078  0.91507156  0.39775898  1
  O  O56  1  0.83984245  0.88652834  0.84188743  1
  O  O57  1  0.85811125  0.31703139  0.94185306  1
  O  O58  1  0.91784932  0.26069332  0.61340175  1
  O  O59  1  0.82930446  0.10942058  0.01922914  1
  O  O60  1  0.96831937  0.58183266  0.19889000  1
  O  O61  1  0.00066040  0.93562280  0.29864526  1
