# generated using pymatgen
data_Zn2As2O7
_symmetry_space_group_name_H-M   'P 1'
_cell_length_a   5.27782030
_cell_length_b   14.14268587
_cell_length_c   16.96831646
_cell_angle_alpha   90.00000000
_cell_angle_beta   90.00000000
_cell_angle_gamma   90.00000000
_symmetry_Int_Tables_number   1
_chemical_formula_structural   Zn2As2O7
_chemical_formula_sum   'Zn16 As16 O56'
_cell_volume   1266.55848752
_cell_formula_units_Z   8
loop_
 _symmetry_equiv_pos_site_id
 _symmetry_equiv_pos_as_xyz
  1  'x, y, z'
loop_
 _atom_site_type_symbol
 _atom_site_label
 _atom_site_symmetry_multiplicity
 _atom_site_fract_x
 _atom_site_fract_y
 _atom_site_fract_z
 _atom_site_occupancy
  Zn  Zn0  1  0.08937093  0.45071111  0.08594709  1
  Zn  Zn1  1  0.08937093  0.04928889  0.58594709  1
  Zn  Zn2  1  0.08937093  0.45071111  0.41405291  1
  Zn  Zn3  1  0.08937093  0.04928889  0.91405291  1
  Zn  Zn4  1  0.31335234  0.24614344  0.15617433  1
  Zn  Zn5  1  0.31335234  0.24614344  0.34382567  1
  Zn  Zn6  1  0.31335234  0.25385656  0.65617433  1
  Zn  Zn7  1  0.31335234  0.25385656  0.84382567  1
  Zn  Zn8  1  0.68664766  0.74614344  0.15617433  1
  Zn  Zn9  1  0.68664766  0.74614344  0.34382567  1
  Zn  Zn10  1  0.68664766  0.75385656  0.65617433  1
  Zn  Zn11  1  0.68664766  0.75385656  0.84382567  1
  Zn  Zn12  1  0.91062907  0.95071111  0.08594709  1
  Zn  Zn13  1  0.91062907  0.95071111  0.41405291  1
  Zn  Zn14  1  0.91062907  0.54928889  0.58594709  1
  Zn  Zn15  1  0.91062907  0.54928889  0.91405291  1
  As  As16  1  0.03300781  0.05855277  0.25000000  1
  As  As17  1  0.03300781  0.44144723  0.75000000  1
  As  As18  1  0.17765972  0.84824424  0.25000000  1
  As  As19  1  0.17765972  0.65175576  0.75000000  1
  As  As20  1  0.42147902  0.64139541  0.00414701  1
  As  As21  1  0.42147902  0.64139541  0.49585299  1
  As  As22  1  0.42147902  0.85860459  0.50414701  1
  As  As23  1  0.42147902  0.85860459  0.99585299  1
  As  As24  1  0.57852098  0.14139541  0.00414701  1
  As  As25  1  0.57852098  0.14139541  0.49585299  1
  As  As26  1  0.57852098  0.35860459  0.50414701  1
  As  As27  1  0.57852098  0.35860459  0.99585299  1
  As  As28  1  0.82234028  0.34824424  0.25000000  1
  As  As29  1  0.82234028  0.15175576  0.75000000  1
  As  As30  1  0.96699219  0.55855277  0.25000000  1
  As  As31  1  0.96699219  0.94144723  0.75000000  1
  O  O32  1  0.00811840  0.83156549  0.16485364  1
  O  O33  1  0.00811840  0.83156549  0.33514636  1
  O  O34  1  0.00811840  0.66843451  0.66485364  1
  O  O35  1  0.00811840  0.66843451  0.83514636  1
  O  O36  1  0.13494150  0.54742162  0.16591828  1
  O  O37  1  0.13494150  0.54742162  0.33408172  1
  O  O38  1  0.13494150  0.95257838  0.66591828  1
  O  O39  1  0.13494150  0.95257838  0.83408172  1
  O  O40  1  0.19544685  0.94481857  0.00461231  1
  O  O41  1  0.19544685  0.55518143  0.50461231  1
  O  O42  1  0.19544685  0.94481857  0.49538769  1
  O  O43  1  0.19544685  0.55518143  0.99538769  1
  O  O44  1  0.19129164  0.16422969  0.25000000  1
  O  O45  1  0.19129164  0.33577031  0.75000000  1
  O  O46  1  0.27818155  0.53189654  0.75000000  1
  O  O47  1  0.27818155  0.96810346  0.25000000  1
  O  O48  1  0.24401636  0.75000000  0.00000000  1
  O  O49  1  0.24401636  0.75000000  0.50000000  1
  O  O50  1  0.40003050  0.13961937  0.08636011  1
  O  O51  1  0.40003050  0.13961937  0.41363989  1
  O  O52  1  0.40003050  0.36038063  0.58636011  1
  O  O53  1  0.40003050  0.36038063  0.91363989  1
  O  O54  1  0.39121824  0.13910175  0.57917039  1
  O  O55  1  0.39121824  0.36089825  0.07917039  1
  O  O56  1  0.39121824  0.13910175  0.92082961  1
  O  O57  1  0.39121824  0.36089825  0.42082961  1
  O  O58  1  0.45589383  0.78674283  0.25000000  1
  O  O59  1  0.45589383  0.71325717  0.75000000  1
  O  O60  1  0.54410617  0.21325717  0.75000000  1
  O  O61  1  0.54410617  0.28674283  0.25000000  1
  O  O62  1  0.60878176  0.63910175  0.57917039  1
  O  O63  1  0.60878176  0.86089825  0.07917039  1
  O  O64  1  0.60878176  0.63910175  0.92082961  1
  O  O65  1  0.60878176  0.86089825  0.42082961  1
  O  O66  1  0.59996950  0.63961937  0.08636011  1
  O  O67  1  0.59996950  0.63961937  0.41363989  1
  O  O68  1  0.59996950  0.86038063  0.58636011  1
  O  O69  1  0.59996950  0.86038063  0.91363989  1
  O  O70  1  0.75598364  0.25000000  0.00000000  1
  O  O71  1  0.75598364  0.25000000  0.50000000  1
  O  O72  1  0.72181845  0.03189654  0.75000000  1
  O  O73  1  0.72181845  0.46810346  0.25000000  1
  O  O74  1  0.80870836  0.66422969  0.25000000  1
  O  O75  1  0.80870836  0.83577031  0.75000000  1
  O  O76  1  0.80455315  0.44481857  0.00461231  1
  O  O77  1  0.80455315  0.05518143  0.50461231  1
  O  O78  1  0.80455315  0.05518143  0.99538769  1
  O  O79  1  0.80455315  0.44481857  0.49538769  1
  O  O80  1  0.86505850  0.04742162  0.16591828  1
  O  O81  1  0.86505850  0.04742162  0.33408172  1
  O  O82  1  0.86505850  0.45257838  0.66591828  1
  O  O83  1  0.86505850  0.45257838  0.83408172  1
  O  O84  1  0.99188160  0.33156549  0.16485364  1
  O  O85  1  0.99188160  0.33156549  0.33514636  1
  O  O86  1  0.99188160  0.16843451  0.66485364  1
  O  O87  1  0.99188160  0.16843451  0.83514636  1
