# generated using pymatgen
data_CaSb2H2F14
_symmetry_space_group_name_H-M   'P 1'
_cell_length_a   9.50250625
_cell_length_b   11.06282542
_cell_length_c   11.25951295
_cell_angle_alpha   90.00000000
_cell_angle_beta   106.66495250
_cell_angle_gamma   90.00000000
_symmetry_Int_Tables_number   1
_chemical_formula_structural   CaSb2H2F14
_chemical_formula_sum   'Ca4 Sb8 H8 F56'
_cell_volume   1133.93581320
_cell_formula_units_Z   4
loop_
 _symmetry_equiv_pos_site_id
 _symmetry_equiv_pos_as_xyz
  1  'x, y, z'
loop_
 _atom_site_type_symbol
 _atom_site_label
 _atom_site_symmetry_multiplicity
 _atom_site_fract_x
 _atom_site_fract_y
 _atom_site_fract_z
 _atom_site_occupancy
  Ca  Ca0  1  0.18175181  0.25050847  0.29202471  1
  Ca  Ca1  1  0.31824819  0.75050847  0.20797529  1
  Ca  Ca2  1  0.68175181  0.24949153  0.79202471  1
  Ca  Ca3  1  0.81824819  0.74949153  0.70797529  1
  Sb  Sb4  1  0.00313481  0.71614919  0.40967279  1
  Sb  Sb5  1  0.00000000  0.00000000  0.00000000  1
  Sb  Sb6  1  0.00000000  0.50000000  0.00000000  1
  Sb  Sb7  1  0.50313481  0.78385081  0.90967279  1
  Sb  Sb8  1  0.50000000  0.00000000  0.50000000  1
  Sb  Sb9  1  0.50000000  0.50000000  0.50000000  1
  Sb  Sb10  1  0.49686519  0.21614919  0.09032721  1
  Sb  Sb11  1  0.99686519  0.28385081  0.59032721  1
  H  H12  1  0.16425388  0.74452634  0.75919395  1
  H  H13  1  0.05524016  0.00317510  0.37847161  1
  H  H14  1  0.33574612  0.24452634  0.74080605  1
  H  H15  1  0.55524016  0.49682490  0.87847161  1
  H  H16  1  0.44475984  0.50317510  0.12152839  1
  H  H17  1  0.66425388  0.75547366  0.25919395  1
  H  H18  1  0.94475984  0.99682490  0.62152839  1
  H  H19  1  0.83574612  0.25547366  0.24080605  1
  F  F20  1  0.11412735  0.02060606  0.88897357  1
  F  F21  1  0.07199426  0.72038387  0.77216661  1
  F  F22  1  0.01228278  0.10851219  0.57689382  1
  F  F23  1  0.13922414  0.46458046  0.91432431  1
  F  F24  1  0.01679381  0.54788554  0.38557065  1
  F  F25  1  0.17119916  0.27733843  0.72902466  1
  F  F26  1  0.12331620  0.29777494  0.48294185  1
  F  F27  1  0.17064917  0.71799449  0.54883411  1
  F  F28  1  0.10259219  0.06429518  0.34137098  1
  F  F29  1  0.32935083  0.21799449  0.95116589  1
  F  F30  1  0.12298459  0.74558787  0.29926832  1
  F  F31  1  0.09212532  0.14033412  0.09326038  1
  F  F32  1  0.11909081  0.41089210  0.14245550  1
  F  F33  1  0.32880084  0.77733843  0.77097534  1
  F  F34  1  0.10831370  0.64504560  0.06646932  1
  F  F35  1  0.15417356  0.90122308  0.10582579  1
  F  F36  1  0.36077586  0.96458046  0.58567569  1
  F  F37  1  0.48771722  0.60851219  0.92310618  1
  F  F38  1  0.42800574  0.22038387  0.72783339  1
  F  F39  1  0.38587265  0.52060606  0.61102643  1
  F  F40  1  0.34582644  0.40122308  0.39417421  1
  F  F41  1  0.51679381  0.95211446  0.88557065  1
  F  F42  1  0.39168630  0.14504560  0.43353068  1
  F  F43  1  0.38090919  0.91089210  0.35754450  1
  F  F44  1  0.40787468  0.64033412  0.40673962  1
  F  F45  1  0.62331620  0.20222506  0.98294185  1
  F  F46  1  0.37701541  0.24558787  0.20073168  1
  F  F47  1  0.60259219  0.43570482  0.84137098  1
  F  F48  1  0.39740781  0.56429518  0.15862902  1
  F  F49  1  0.62298459  0.75441213  0.79926832  1
  F  F50  1  0.37668380  0.79777494  0.01705815  1
  F  F51  1  0.59212532  0.35966588  0.59326038  1
  F  F52  1  0.61909081  0.08910790  0.64245550  1
  F  F53  1  0.60831370  0.85495440  0.56646932  1
  F  F54  1  0.48320619  0.04788554  0.11442935  1
  F  F55  1  0.65417356  0.59877692  0.60582579  1
  F  F56  1  0.61412735  0.47939394  0.38897357  1
  F  F57  1  0.57199426  0.77961613  0.27216661  1
  F  F58  1  0.51228278  0.39148781  0.07689382  1
  F  F59  1  0.63922414  0.03541954  0.41432431  1
  F  F60  1  0.84582644  0.09877692  0.89417421  1
  F  F61  1  0.89168630  0.35495440  0.93353068  1
  F  F62  1  0.67119916  0.22266157  0.22902466  1
  F  F63  1  0.88090919  0.58910790  0.85754450  1
  F  F64  1  0.90787468  0.85966588  0.90673962  1
  F  F65  1  0.87701541  0.25441213  0.70073168  1
  F  F66  1  0.67064917  0.78200551  0.04883411  1
  F  F67  1  0.89740781  0.93570482  0.65862902  1
  F  F68  1  0.82935083  0.28200551  0.45116589  1
  F  F69  1  0.87668380  0.70222506  0.51705815  1
  F  F70  1  0.82880084  0.72266157  0.27097534  1
  F  F71  1  0.98320619  0.45211446  0.61442935  1
  F  F72  1  0.86077586  0.53541954  0.08567569  1
  F  F73  1  0.98771722  0.89148781  0.42310618  1
  F  F74  1  0.92800574  0.27961613  0.22783339  1
  F  F75  1  0.88587265  0.97939394  0.11102643  1
