# generated using pymatgen
data_RbVBP2HO9
_symmetry_space_group_name_H-M   'P 1'
_cell_length_a   9.53867546
_cell_length_b   8.47207584
_cell_length_c   9.82492122
_cell_angle_alpha   90.00000000
_cell_angle_beta   102.41465985
_cell_angle_gamma   90.00000000
_symmetry_Int_Tables_number   1
_chemical_formula_structural   RbVBP2HO9
_chemical_formula_sum   'Rb4 V4 B4 P8 H4 O36'
_cell_volume   775.41000276
_cell_formula_units_Z   4
loop_
 _symmetry_equiv_pos_site_id
 _symmetry_equiv_pos_as_xyz
  1  'x, y, z'
loop_
 _atom_site_type_symbol
 _atom_site_label
 _atom_site_symmetry_multiplicity
 _atom_site_fract_x
 _atom_site_fract_y
 _atom_site_fract_z
 _atom_site_occupancy
  Rb  Rb0  1  0.18872132  0.60118422  0.56175246  1
  Rb  Rb1  1  0.18872132  0.89881578  0.06175246  1
  Rb  Rb2  1  0.81127868  0.10118422  0.93824754  1
  Rb  Rb3  1  0.81127868  0.39881578  0.43824754  1
  V  V4  1  0.20835676  0.34776400  0.93540545  1
  V  V5  1  0.20835676  0.15223700  0.43540545  1
  V  V6  1  0.79164324  0.84776300  0.56459455  1
  V  V7  1  0.79164324  0.65223700  0.06459455  1
  B  B8  1  0.33412955  0.94250109  0.69557794  1
  B  B9  1  0.33412955  0.55749891  0.19557794  1
  B  B10  1  0.66587045  0.44250109  0.80442206  1
  B  B11  1  0.66587045  0.05749891  0.30442206  1
  P  P12  1  0.07462168  0.06455584  0.70942322  1
  P  P13  1  0.07462168  0.43544416  0.20942322  1
  P  P14  1  0.42155917  0.26003485  0.71842218  1
  P  P15  1  0.42155917  0.23996515  0.21842218  1
  P  P16  1  0.57844083  0.76003485  0.78157782  1
  P  P17  1  0.57844083  0.73996515  0.28157782  1
  P  P18  1  0.92537832  0.56455584  0.79057678  1
  P  P19  1  0.92537832  0.93544416  0.29057678  1
  H  H20  1  0.39155187  0.91560210  0.50222211  1
  H  H21  1  0.39155187  0.58439790  0.00222211  1
  H  H22  1  0.60844813  0.41560210  0.99777789  1
  H  H23  1  0.60844813  0.08439790  0.49777789  1
  O  O24  1  0.07258140  0.48687665  0.80478697  1
  O  O25  1  0.10298734  0.15584593  0.84848915  1
  O  O26  1  0.08731814  0.16654033  0.58316735  1
  O  O27  1  0.07258140  0.01312335  0.30478697  1
  O  O28  1  0.10298734  0.34415407  0.34848915  1
  O  O29  1  0.19142381  0.92618737  0.72762634  1
  O  O30  1  0.08731814  0.33345967  0.08316735  1
  O  O31  1  0.19142381  0.57381263  0.22762634  1
  O  O32  1  0.34731682  0.36971708  0.80383315  1
  O  O33  1  0.30980668  0.94953242  0.53909879  1
  O  O34  1  0.36588061  0.28000833  0.56110793  1
  O  O35  1  0.41328571  0.08252539  0.76241518  1
  O  O36  1  0.41228806  0.79619505  0.74543437  1
  O  O37  1  0.34731682  0.13028292  0.30383315  1
  O  O38  1  0.30980668  0.55046758  0.03909879  1
  O  O39  1  0.36588061  0.21999167  0.06110793  1
  O  O40  1  0.41328571  0.41747461  0.26241518  1
  O  O41  1  0.41228806  0.70380495  0.24543437  1
  O  O42  1  0.58771194  0.29619505  0.75456563  1
  O  O43  1  0.58671429  0.58252539  0.73758482  1
  O  O44  1  0.63411939  0.78000833  0.93889207  1
  O  O45  1  0.69019332  0.44953242  0.96090121  1
  O  O46  1  0.65268318  0.86971708  0.69616685  1
  O  O47  1  0.58771194  0.20380495  0.25456563  1
  O  O48  1  0.58671429  0.91747461  0.23758482  1
  O  O49  1  0.63411939  0.71999167  0.43889207  1
  O  O50  1  0.69019332  0.05046758  0.46090121  1
  O  O51  1  0.65268318  0.63028292  0.19616685  1
  O  O52  1  0.80857619  0.42618737  0.77237366  1
  O  O53  1  0.91268186  0.66654033  0.91683265  1
  O  O54  1  0.80857619  0.07381263  0.27237366  1
  O  O55  1  0.89701266  0.65584593  0.65151085  1
  O  O56  1  0.92741860  0.98687665  0.69521303  1
  O  O57  1  0.91268186  0.83345967  0.41683265  1
  O  O58  1  0.89701266  0.84415407  0.15151085  1
  O  O59  1  0.92741860  0.51312335  0.19521303  1
