# generated using pymatgen
data_Na3CoPCO7
_symmetry_space_group_name_H-M   'P 1'
_cell_length_a   8.88973761
_cell_length_b   5.26449782
_cell_length_c   6.71907595
_cell_angle_alpha   90.00000000
_cell_angle_beta   90.00000000
_cell_angle_gamma   87.90905409
_symmetry_Int_Tables_number   1
_chemical_formula_structural   Na3CoPCO7
_chemical_formula_sum   'Na6 Co2 P2 C2 O14'
_cell_volume   314.24341166
_cell_formula_units_Z   2
loop_
 _symmetry_equiv_pos_site_id
 _symmetry_equiv_pos_as_xyz
  1  'x, y, z'
loop_
 _atom_site_type_symbol
 _atom_site_label
 _atom_site_symmetry_multiplicity
 _atom_site_fract_x
 _atom_site_fract_y
 _atom_site_fract_z
 _atom_site_occupancy
  Na  Na0  1  0.08546971  0.77413667  0.25000000  1
  Na  Na1  1  0.27385336  0.25839340  0.00881191  1
  Na  Na2  1  0.27385336  0.25839340  0.49118809  1
  Na  Na3  1  0.72614664  0.74160660  0.99118809  1
  Na  Na4  1  0.72614664  0.74160660  0.50881191  1
  Na  Na5  1  0.91453029  0.22586333  0.75000000  1
  Co  Co6  1  0.34469553  0.77797866  0.75000000  1
  Co  Co7  1  0.65530447  0.22202134  0.25000000  1
  P  P8  1  0.41692112  0.71991038  0.25000000  1
  P  P9  1  0.58307888  0.28008962  0.75000000  1
  C  C10  1  0.05742794  0.70785628  0.75000000  1
  C  C11  1  0.94257206  0.29214372  0.25000000  1
  O  O12  1  0.11272921  0.93382831  0.75000000  1
  O  O13  1  0.08618273  0.32240357  0.25000000  1
  O  O14  1  0.15247852  0.51307713  0.75000000  1
  O  O15  1  0.31819174  0.79325245  0.06492104  1
  O  O16  1  0.31819174  0.79325245  0.43507896  1
  O  O17  1  0.43230113  0.14295334  0.75000000  1
  O  O18  1  0.44972261  0.42590085  0.25000000  1
  O  O19  1  0.55027739  0.57409915  0.75000000  1
  O  O20  1  0.56769887  0.85704666  0.25000000  1
  O  O21  1  0.68180826  0.20674755  0.93507896  1
  O  O22  1  0.68180826  0.20674755  0.56492104  1
  O  O23  1  0.84752148  0.48692287  0.25000000  1
  O  O24  1  0.91381727  0.67759643  0.75000000  1
  O  O25  1  0.88727079  0.06617169  0.25000000  1
