# generated using pymatgen
data_Na2CuPCO7
_symmetry_space_group_name_H-M   'P 1'
_cell_length_a   9.02138615
_cell_length_b   6.44064576
_cell_length_c   5.17914771
_cell_angle_alpha   90.00000000
_cell_angle_beta   89.87724780
_cell_angle_gamma   90.00000000
_symmetry_Int_Tables_number   1
_chemical_formula_structural   Na2CuPCO7
_chemical_formula_sum   'Na4 Cu2 P2 C2 O14'
_cell_volume   300.92618991
_cell_formula_units_Z   2
loop_
 _symmetry_equiv_pos_site_id
 _symmetry_equiv_pos_as_xyz
  1  'x, y, z'
loop_
 _atom_site_type_symbol
 _atom_site_label
 _atom_site_symmetry_multiplicity
 _atom_site_fract_x
 _atom_site_fract_y
 _atom_site_fract_z
 _atom_site_occupancy
  Na  Na0  1  0.24263387  0.49369991  0.23134496  1
  Na  Na1  1  0.24263387  0.00630009  0.23134496  1
  Na  Na2  1  0.75736613  0.50630009  0.76865504  1
  Na  Na3  1  0.75736613  0.99369991  0.76865504  1
  Cu  Cu4  1  0.35638785  0.75000000  0.77857117  1
  Cu  Cu5  1  0.64361215  0.25000000  0.22142883  1
  P  P6  1  0.42519691  0.25000000  0.70642709  1
  P  P7  1  0.57480309  0.75000000  0.29357291  1
  C  C8  1  0.07434638  0.75000000  0.72786960  1
  C  C9  1  0.92565362  0.25000000  0.27213040  1
  O  O10  1  0.06508901  0.25000000  0.28382830  1
  O  O11  1  0.14494756  0.75000000  0.94649292  1
  O  O12  1  0.15955743  0.75000000  0.52587578  1
  O  O13  1  0.33107445  0.05936606  0.78961228  1
  O  O14  1  0.33107445  0.44063394  0.78961228  1
  O  O15  1  0.42049952  0.75000000  0.16542319  1
  O  O16  1  0.44599440  0.25000000  0.40557611  1
  O  O17  1  0.55400560  0.75000000  0.59442389  1
  O  O18  1  0.57950048  0.25000000  0.83457681  1
  O  O19  1  0.66892555  0.55936606  0.21038772  1
  O  O20  1  0.66892555  0.94063394  0.21038772  1
  O  O21  1  0.84044257  0.25000000  0.47412422  1
  O  O22  1  0.85505244  0.25000000  0.05350708  1
  O  O23  1  0.93491099  0.75000000  0.71617170  1
