# generated using pymatgen
data_Ba2YB2ClO6
_symmetry_space_group_name_H-M   'P 1'
_cell_length_a   6.50046740
_cell_length_b   5.36137943
_cell_length_c   11.49123905
_cell_angle_alpha   90.00000000
_cell_angle_beta   95.77816496
_cell_angle_gamma   90.00000000
_symmetry_Int_Tables_number   1
_chemical_formula_structural   Ba2YB2ClO6
_chemical_formula_sum   'Ba4 Y2 B4 Cl2 O12'
_cell_volume   398.45178556
_cell_formula_units_Z   2
loop_
 _symmetry_equiv_pos_site_id
 _symmetry_equiv_pos_as_xyz
  1  'x, y, z'
loop_
 _atom_site_type_symbol
 _atom_site_label
 _atom_site_symmetry_multiplicity
 _atom_site_fract_x
 _atom_site_fract_y
 _atom_site_fract_z
 _atom_site_occupancy
  Ba  Ba0  1  0.09793748  0.25000000  0.70586197  1
  Ba  Ba1  1  0.90206352  0.75000100  0.29413803  1
  Ba  Ba2  1  0.33830451  0.25000000  0.07435508  1
  Ba  Ba3  1  0.66169649  0.75000100  0.92564592  1
  Y  Y4  1  0.34296378  0.25000000  0.41202281  1
  Y  Y5  1  0.65703622  0.75000100  0.58797619  1
  B  B6  1  0.37116775  0.75000100  0.22492330  1
  B  B7  1  0.62883225  0.25000000  0.77507670  1
  B  B8  1  0.78607933  0.25000000  0.42727507  1
  B  B9  1  0.21391967  0.75000100  0.57272593  1
  Cl  Cl10  1  0.84795462  0.25000000  0.08548400  1
  Cl  Cl11  1  0.15204638  0.75000100  0.91451600  1
  O  O12  1  0.28597320  0.52826497  0.26157377  1
  O  O13  1  0.71402780  0.02826397  0.73842723  1
  O  O14  1  0.71402780  0.47173503  0.73842723  1
  O  O15  1  0.28597320  0.97173603  0.26157377  1
  O  O16  1  0.67199693  0.46924587  0.43415689  1
  O  O17  1  0.32800207  0.96924687  0.56584311  1
  O  O18  1  0.32800207  0.53075213  0.56584311  1
  O  O19  1  0.67199693  0.03075313  0.43415689  1
  O  O20  1  0.98896912  0.25000000  0.40699880  1
  O  O21  1  0.01103088  0.75000100  0.59300020  1
  O  O22  1  0.52044798  0.75000100  0.14682425  1
  O  O23  1  0.47955302  0.25000000  0.85317575  1
