# generated using pymatgen
data_KSc(BH4)4
_symmetry_space_group_name_H-M   'P 1'
_cell_length_a   12.35313310
_cell_length_b   8.30527282
_cell_length_c   9.27154086
_cell_angle_alpha   90.00000000
_cell_angle_beta   90.00000000
_cell_angle_gamma   90.00000000
_symmetry_Int_Tables_number   1
_chemical_formula_structural   KSc(BH4)4
_chemical_formula_sum   'K4 Sc4 B16 H64'
_cell_volume   951.22430944
_cell_formula_units_Z   4
loop_
 _symmetry_equiv_pos_site_id
 _symmetry_equiv_pos_as_xyz
  1  'x, y, z'
loop_
 _atom_site_type_symbol
 _atom_site_label
 _atom_site_symmetry_multiplicity
 _atom_site_fract_x
 _atom_site_fract_y
 _atom_site_fract_z
 _atom_site_occupancy
  K  K0  1  0.11074575  0.25000000  0.63703583  1
  K  K1  1  0.38925525  0.75000000  0.13703583  1
  K  K2  1  0.61074475  0.25000000  0.86296417  1
  K  K3  1  0.88925425  0.75000000  0.36296417  1
  Sc  Sc4  1  0.05514342  0.25000000  0.17154354  1
  Sc  Sc5  1  0.44485758  0.75000000  0.67154354  1
  Sc  Sc6  1  0.55514242  0.25000000  0.32845646  1
  Sc  Sc7  1  0.94485658  0.75000000  0.82845546  1
  B  B8  1  0.17752141  0.25000000  0.98169094  1
  B  B9  1  0.32247959  0.75000000  0.48169094  1
  B  B10  1  0.67752041  0.25000000  0.51830906  1
  B  B11  1  0.82247959  0.75000000  0.01830906  1
  B  B12  1  0.38207514  0.25000000  0.42002556  1
  B  B13  1  0.11792386  0.75000000  0.92002556  1
  B  B14  1  0.88207614  0.25000000  0.07997344  1
  B  B15  1  0.61792486  0.75000000  0.57997444  1
  B  B16  1  0.07888998  0.02129477  0.31715972  1
  B  B17  1  0.42111002  0.97870623  0.81715872  1
  B  B18  1  0.57888998  0.47870623  0.18284028  1
  B  B19  1  0.92110902  0.52129377  0.68284028  1
  B  B20  1  0.92110902  0.97870623  0.68284028  1
  B  B21  1  0.57888998  0.02129477  0.18284028  1
  B  B22  1  0.42111002  0.52129377  0.81715872  1
  B  B23  1  0.07888998  0.47870623  0.31715972  1
  H  H24  1  0.05352743  0.97964912  0.19383876  1
  H  H25  1  0.44647357  0.02035188  0.69383876  1
  H  H26  1  0.55352643  0.52035088  0.30616024  1
  H  H27  1  0.94647357  0.47964912  0.80616024  1
  H  H28  1  0.94647357  0.02035188  0.80616024  1
  H  H29  1  0.55352643  0.97964912  0.30616024  1
  H  H30  1  0.44647357  0.47964912  0.69383876  1
  H  H31  1  0.05352743  0.52035088  0.19383876  1
  H  H32  1  0.16332289  0.10021511  0.30778187  1
  H  H33  1  0.33667811  0.89978589  0.80778187  1
  H  H34  1  0.66332189  0.39978589  0.19221913  1
  H  H35  1  0.83667811  0.60021411  0.69221913  1
  H  H36  1  0.83667811  0.89978589  0.69221913  1
  H  H37  1  0.66332189  0.10021511  0.19221913  1
  H  H38  1  0.33667811  0.60021411  0.80778187  1
  H  H39  1  0.16332289  0.39978589  0.30778187  1
  H  H40  1  0.23735932  0.25000000  0.87917068  1
  H  H41  1  0.26264068  0.75000000  0.37917068  1
  H  H42  1  0.73736032  0.25000000  0.62082832  1
  H  H43  1  0.76264068  0.75000000  0.12082932  1
  H  H44  1  0.11792190  0.37004691  0.98321711  1
  H  H45  1  0.38207910  0.62995309  0.48321711  1
  H  H46  1  0.61792090  0.12995309  0.51678289  1
  H  H47  1  0.88207810  0.87004691  0.01678189  1
  H  H48  1  0.88207810  0.62995309  0.01678189  1
  H  H49  1  0.61792090  0.37004691  0.51678289  1
  H  H50  1  0.38207910  0.87004691  0.48321711  1
  H  H51  1  0.11792190  0.12995309  0.98321711  1
  H  H52  1  0.22831947  0.25000000  0.09637034  1
  H  H53  1  0.27168153  0.75000000  0.59637034  1
  H  H54  1  0.72831947  0.25000000  0.40362966  1
  H  H55  1  0.77168053  0.75000000  0.90362966  1
  H  H56  1  0.43571095  0.36942221  0.45580142  1
  H  H57  1  0.06428805  0.63057679  0.95580142  1
  H  H58  1  0.93571195  0.13057679  0.04419758  1
  H  H59  1  0.56428805  0.86942221  0.54419758  1
  H  H60  1  0.56428805  0.63057679  0.54419758  1
  H  H61  1  0.93571195  0.36942221  0.04419758  1
  H  H62  1  0.06428805  0.86942221  0.95580142  1
  H  H63  1  0.43571095  0.13057679  0.45580142  1
  H  H64  1  0.09102205  0.90767967  0.39685873  1
  H  H65  1  0.40897695  0.09232033  0.89685873  1
  H  H66  1  0.59102305  0.59232033  0.10314127  1
  H  H67  1  0.90897795  0.40768067  0.60314227  1
  H  H68  1  0.90897795  0.09232033  0.60314227  1
  H  H69  1  0.59102305  0.90767967  0.10314127  1
  H  H70  1  0.40897695  0.40768067  0.89685873  1
  H  H71  1  0.09102205  0.59232033  0.39685873  1
  H  H72  1  0.37872266  0.25000000  0.28633890  1
  H  H73  1  0.12127734  0.75000000  0.78633890  1
  H  H74  1  0.87872266  0.25000000  0.21366110  1
  H  H75  1  0.62127734  0.75000000  0.71366110  1
  H  H76  1  0.29399173  0.25000000  0.47425089  1
  H  H77  1  0.20600927  0.75000000  0.97425089  1
  H  H78  1  0.79399073  0.25000000  0.02574911  1
  H  H79  1  0.70600827  0.75000000  0.52574911  1
  H  H80  1  0.00657417  0.11198106  0.36134383  1
  H  H81  1  0.49342583  0.88801994  0.86134283  1
  H  H82  1  0.50657317  0.38801894  0.13865617  1
  H  H83  1  0.99342683  0.61198006  0.63865617  1
  H  H84  1  0.99342683  0.88801994  0.63865617  1
  H  H85  1  0.50657317  0.11198106  0.13865617  1
  H  H86  1  0.49342583  0.61198006  0.86134283  1
  H  H87  1  0.00657417  0.38801894  0.36134383  1
