# generated using pymatgen
data_InCl3
_symmetry_space_group_name_H-M   'P 1'
_cell_length_a   9.64496038
_cell_length_b   9.64496321
_cell_length_c   3.43428551
_cell_angle_alpha   90.00024691
_cell_angle_beta   90.00015658
_cell_angle_gamma   120.00023244
_symmetry_Int_Tables_number   1
_chemical_formula_structural   InCl3
_chemical_formula_sum   'In2 Cl6'
_cell_volume   276.67316317
_cell_formula_units_Z   2
loop_
 _symmetry_equiv_pos_site_id
 _symmetry_equiv_pos_as_xyz
  1  'x, y, z'
loop_
 _atom_site_type_symbol
 _atom_site_label
 _atom_site_symmetry_multiplicity
 _atom_site_fract_x
 _atom_site_fract_y
 _atom_site_fract_z
 _atom_site_occupancy
  In  In0  1  0.66666463  0.33333577  0.25000419  1
  In  In1  1  0.33333354  0.66666632  0.74999582  1
  Cl  Cl2  1  0.78198282  0.21801621  0.75000254  1
  Cl  Cl3  1  0.43603360  0.21801904  0.75000343  1
  Cl  Cl4  1  0.78198023  0.56396133  0.75000044  1
  Cl  Cl5  1  0.21801689  0.78198110  0.24999432  1
  Cl  Cl6  1  0.56396643  0.78198138  0.25000383  1
  Cl  Cl7  1  0.21801985  0.43603585  0.25000345  1
