# generated using pymatgen
data_La2Mg(NiH4)2
_symmetry_space_group_name_H-M   'P 1'
_cell_length_a   11.75604480
_cell_length_b   7.74702399
_cell_length_c   11.92923302
_cell_angle_alpha   90.00000000
_cell_angle_beta   92.83054242
_cell_angle_gamma   90.00000000
_symmetry_Int_Tables_number   1
_chemical_formula_structural   La2Mg(NiH4)2
_chemical_formula_sum   'La16 Mg8 Ni16 H64'
_cell_volume   1085.12176134
_cell_formula_units_Z   8
loop_
 _symmetry_equiv_pos_site_id
 _symmetry_equiv_pos_as_xyz
  1  'x, y, z'
loop_
 _atom_site_type_symbol
 _atom_site_label
 _atom_site_symmetry_multiplicity
 _atom_site_fract_x
 _atom_site_fract_y
 _atom_site_fract_z
 _atom_site_occupancy
  La  La0  1  0.39999924  0.17305246  0.08680568  1
  La  La1  1  0.89679797  0.34458309  0.11124085  1
  La  La2  1  0.33850811  0.67957511  0.15815921  1
  La  La3  1  0.83352178  0.83719979  0.18193042  1
  La  La4  1  0.16647822  0.33720079  0.31806958  1
  La  La5  1  0.66149189  0.17957511  0.34184079  1
  La  La6  1  0.10320203  0.84458409  0.38875815  1
  La  La7  1  0.60000176  0.67305346  0.41319332  1
  La  La8  1  0.39999924  0.32694654  0.58680668  1
  La  La9  1  0.89679797  0.15541591  0.61124185  1
  La  La10  1  0.33850811  0.82042489  0.65815921  1
  La  La11  1  0.83352178  0.66279921  0.68193042  1
  La  La12  1  0.16647822  0.16280021  0.81806958  1
  La  La13  1  0.66149189  0.32042489  0.84184079  1
  La  La14  1  0.10320203  0.65541691  0.88875915  1
  La  La15  1  0.60000076  0.82694754  0.91319432  1
  Mg  Mg16  1  0.10256695  0.00292333  0.08671027  1
  Mg  Mg17  1  0.61174872  0.50187662  0.11886244  1
  Mg  Mg18  1  0.38825028  0.00187762  0.38113756  1
  Mg  Mg19  1  0.89743405  0.50292233  0.41328873  1
  Mg  Mg20  1  0.10256595  0.49707767  0.58671127  1
  Mg  Mg21  1  0.61174972  0.99812238  0.61886244  1
  Mg  Mg22  1  0.38825128  0.49812338  0.88113756  1
  Mg  Mg23  1  0.89743405  0.99707667  0.91328873  1
  Ni  Ni24  1  0.14987284  0.35114955  0.04625316  1
  Ni  Ni25  1  0.67681964  0.14440386  0.08029819  1
  Ni  Ni26  1  0.05722128  0.64487343  0.14931310  1
  Ni  Ni27  1  0.57212007  0.86951331  0.18087883  1
  Ni  Ni28  1  0.42787993  0.36951431  0.31912117  1
  Ni  Ni29  1  0.94277872  0.14487243  0.35068790  1
  Ni  Ni30  1  0.32318136  0.64440286  0.41970281  1
  Ni  Ni31  1  0.85012716  0.85114955  0.45374784  1
  Ni  Ni32  1  0.14987284  0.14885045  0.54625216  1
  Ni  Ni33  1  0.67681964  0.35559714  0.58029719  1
  Ni  Ni34  1  0.05722128  0.85512757  0.64931210  1
  Ni  Ni35  1  0.57212007  0.63048569  0.68087883  1
  Ni  Ni36  1  0.42787993  0.13048669  0.81912117  1
  Ni  Ni37  1  0.94277872  0.35512657  0.85068690  1
  Ni  Ni38  1  0.32318036  0.85559614  0.91970181  1
  Ni  Ni39  1  0.85012716  0.64885045  0.95374684  1
  H  H40  1  0.26479147  0.92539457  0.03254587  1
  H  H41  1  0.59242192  0.28471000  0.03717105  1
  H  H42  1  0.74970893  0.62869510  0.03977724  1
  H  H43  1  0.95919535  0.68438774  0.04387059  1
  H  H44  1  0.43030863  0.46486349  0.06249476  1
  H  H45  1  0.93554738  0.04363971  0.07252205  1
  H  H46  1  0.57275109  0.00494514  0.07750177  1
  H  H47  1  0.15751252  0.55335013  0.08339898  1
  H  H48  1  0.53433013  0.72228693  0.09847942  1
  H  H49  1  0.18698665  0.21054665  0.13242626  1
  H  H50  1  0.77001088  0.13573051  0.17877075  1
  H  H51  1  0.12946924  0.80717149  0.18422048  1
  H  H52  1  0.33555702  0.37587421  0.22014345  1
  H  H53  1  0.45334203  0.93249080  0.22949189  1
  H  H54  1  0.74933416  0.51556291  0.23403267  1
  H  H55  1  0.97817243  0.58530566  0.24679269  1
  H  H56  1  0.02182757  0.08530666  0.25320731  1
  H  H57  1  0.25066584  0.01556291  0.26596733  1
  H  H58  1  0.54665797  0.43249080  0.27050811  1
  H  H59  1  0.66444298  0.87587521  0.27985655  1
  H  H60  1  0.87053076  0.30717149  0.31577852  1
  H  H61  1  0.22998912  0.63573051  0.32122925  1
  H  H62  1  0.81301335  0.71054765  0.36757274  1
  H  H63  1  0.46566987  0.22228693  0.40151958  1
  H  H64  1  0.84248648  0.05335113  0.41660102  1
  H  H65  1  0.42724891  0.50494614  0.42249723  1
  H  H66  1  0.06445262  0.54363971  0.42747795  1
  H  H67  1  0.56969137  0.96486249  0.43750524  1
  H  H68  1  0.04080465  0.18438774  0.45612841  1
  H  H69  1  0.25029107  0.12869610  0.46022376  1
  H  H70  1  0.40757808  0.78471100  0.46282895  1
  H  H71  1  0.73520853  0.42539557  0.46745313  1
  H  H72  1  0.26479147  0.57460443  0.53254687  1
  H  H73  1  0.59242192  0.21528900  0.53717105  1
  H  H74  1  0.74970893  0.87130390  0.53977624  1
  H  H75  1  0.95919535  0.81561226  0.54387159  1
  H  H76  1  0.43030863  0.03513751  0.56249476  1
  H  H77  1  0.93554738  0.45636029  0.57252205  1
  H  H78  1  0.57275109  0.49505386  0.57750177  1
  H  H79  1  0.15751352  0.94664887  0.58339898  1
  H  H80  1  0.53433013  0.77771307  0.59847942  1
  H  H81  1  0.18698665  0.28945235  0.63242726  1
  H  H82  1  0.77001088  0.36426949  0.67877075  1
  H  H83  1  0.12946924  0.69282851  0.68422048  1
  H  H84  1  0.33555702  0.12412479  0.72014345  1
  H  H85  1  0.45334203  0.56750920  0.72949189  1
  H  H86  1  0.74933416  0.98443709  0.73403367  1
  H  H87  1  0.97817243  0.91469334  0.74679269  1
  H  H88  1  0.02182757  0.41469434  0.75320731  1
  H  H89  1  0.25066584  0.48443709  0.76596733  1
  H  H90  1  0.54665797  0.06750920  0.77050811  1
  H  H91  1  0.66444298  0.62412579  0.77985655  1
  H  H92  1  0.87053076  0.19282851  0.81577952  1
  H  H93  1  0.22998912  0.86426949  0.82122925  1
  H  H94  1  0.81301335  0.78945335  0.86757374  1
  H  H95  1  0.46566987  0.27771307  0.90152058  1
  H  H96  1  0.84248748  0.44664987  0.91660102  1
  H  H97  1  0.42724891  0.99505486  0.92249823  1
  H  H98  1  0.06445362  0.95636029  0.92747795  1
  H  H99  1  0.56969137  0.53513651  0.93750524  1
  H  H100  1  0.04080465  0.31561226  0.95612941  1
  H  H101  1  0.25029107  0.37130490  0.96022376  1
  H  H102  1  0.40757808  0.71529000  0.96282895  1
  H  H103  1  0.73520853  0.07460543  0.96745413  1
