# generated using pymatgen
data_Eu2SiO5
_symmetry_space_group_name_H-M   'P 1'
_cell_length_a   8.20122099
_cell_length_b   8.20122099
_cell_length_c   10.74820218
_cell_angle_alpha   61.24069145
_cell_angle_beta   118.75930855
_cell_angle_gamma   129.78423656
_symmetry_Int_Tables_number   1
_chemical_formula_structural   Eu2SiO5
_chemical_formula_sum   'Eu8 Si4 O20'
_cell_volume   470.63001462
_cell_formula_units_Z   4
loop_
 _symmetry_equiv_pos_site_id
 _symmetry_equiv_pos_as_xyz
  1  'x, y, z'
loop_
 _atom_site_type_symbol
 _atom_site_label
 _atom_site_symmetry_multiplicity
 _atom_site_fract_x
 _atom_site_fract_y
 _atom_site_fract_z
 _atom_site_occupancy
  Eu  Eu0  1  0.23568388  0.52361641  0.66407318  1
  Eu  Eu1  1  0.78716161  0.70920807  0.96584396  1
  Eu  Eu2  1  0.70920807  0.78716161  0.53415604  1
  Eu  Eu3  1  0.47638359  0.76431612  0.16407318  1
  Eu  Eu4  1  0.52361641  0.23568388  0.83592682  1
  Eu  Eu5  1  0.29079193  0.21283839  0.46584396  1
  Eu  Eu6  1  0.21283839  0.29079193  0.03415604  1
  Eu  Eu7  1  0.76431612  0.47638359  0.33592682  1
  Si  Si8  1  0.09049874  0.72805267  0.80659132  1
  Si  Si9  1  0.27194733  0.90950126  0.30659132  1
  Si  Si10  1  0.72805267  0.09049874  0.69340868  1
  Si  Si11  1  0.90950126  0.27194733  0.19340868  1
  O  O12  1  0.26500823  0.86402951  0.93408887  1
  O  O13  1  0.08840680  0.90301476  0.64382515  1
  O  O14  1  0.14825820  0.56016904  0.82339924  1
  O  O15  1  0.13597049  0.73499177  0.43408887  1
  O  O16  1  0.09698524  0.91159320  0.14382515  1
  O  O17  1  0.59610865  0.83808751  0.67903388  1
  O  O18  1  0.43983096  0.85174180  0.32339924  1
  O  O19  1  0.42202889  0.38782250  0.89583546  1
  O  O20  1  0.38782250  0.42202889  0.60416454  1
  O  O21  1  0.83808751  0.59610865  0.82096612  1
  O  O22  1  0.16191249  0.40389135  0.17903388  1
  O  O23  1  0.61217750  0.57797111  0.39583546  1
  O  O24  1  0.57797111  0.61217750  0.10416454  1
  O  O25  1  0.56016904  0.14825820  0.67660076  1
  O  O26  1  0.40389135  0.16191249  0.32096612  1
  O  O27  1  0.90301476  0.08840680  0.85617485  1
  O  O28  1  0.86402951  0.26500823  0.56591113  1
  O  O29  1  0.85174180  0.43983096  0.17660076  1
  O  O30  1  0.91159320  0.09698524  0.35617485  1
  O  O31  1  0.73499177  0.13597049  0.06591113  1
