# generated using pymatgen
data_La7SmMn7CuO24
_symmetry_space_group_name_H-M   'P 1'
_cell_length_a   7.85656895
_cell_length_b   7.85656895
_cell_length_c   7.85656895
_cell_angle_alpha   89.95597501
_cell_angle_beta   90.04402499
_cell_angle_gamma   90.04402499
_symmetry_Int_Tables_number   1
_chemical_formula_structural   La7SmMn7CuO24
_chemical_formula_sum   'La7 Sm1 Mn7 Cu1 O24'
_cell_volume   484.95159745
_cell_formula_units_Z   1
loop_
 _symmetry_equiv_pos_site_id
 _symmetry_equiv_pos_as_xyz
  1  'x, y, z'
loop_
 _atom_site_type_symbol
 _atom_site_label
 _atom_site_symmetry_multiplicity
 _atom_site_fract_x
 _atom_site_fract_y
 _atom_site_fract_z
 _atom_site_occupancy
  La  La0  1  0.24664783  0.24688857  0.24688857  1
  La  La1  1  0.24680754  0.24677361  0.75319246  1
  La  La2  1  0.24680754  0.75319246  0.24677361  1
  La  La3  1  0.24684723  0.75315277  0.75315277  1
  La  La4  1  0.75311143  0.24688857  0.75335217  1
  La  La5  1  0.75311143  0.75335217  0.24688857  1
  La  La6  1  0.75322639  0.75319246  0.75319246  1
  Sm  Sm7  1  0.75404595  0.24595405  0.24595405  1
  Mn  Mn8  1  0.99948906  0.00051094  0.49945280  1
  Mn  Mn9  1  0.99948906  0.49945280  0.00051094  1
  Mn  Mn10  1  -0.00054801  0.49954295  0.49954295  1
  Mn  Mn11  1  0.50054720  0.00051094  0.00051094  1
  Mn  Mn12  1  0.50045705  0.00054801  0.49954295  1
  Mn  Mn13  1  0.50045705  0.49954295  0.00054801  1
  Mn  Mn14  1  0.50045209  0.49954791  0.49954791  1
  Cu  Cu15  1  0.00008009  -0.00008009  -0.00008009  1
  O  O16  1  0.25599152  0.00011474  0.00011474  1
  O  O17  1  0.24921058  0.00018949  0.49978182  1
  O  O18  1  0.24921058  0.49978182  0.00018949  1
  O  O19  1  0.24749290  0.49985684  0.49985684  1
  O  O20  1  0.74433367  0.00230162  0.00230162  1
  O  O21  1  0.75070797  0.00186244  0.49815331  1
  O  O22  1  0.75070797  0.49815331  0.00186244  1
  O  O23  1  0.75245229  0.49830794  0.49830794  1
  O  O24  1  0.99769838  0.25566633  0.00230162  1
  O  O25  1  0.99813756  0.24929203  0.49815331  1
  O  O26  1  0.99988526  0.74400848  0.00011474  1
  O  O27  1  0.99981051  0.75078942  0.49978182  1
  O  O28  1  0.50184669  0.24929203  0.00186244  1
  O  O29  1  0.50169206  0.24754771  0.49830794  1
  O  O30  1  0.50021818  0.75078942  0.00018949  1
  O  O31  1  0.50014316  0.75250710  0.49985684  1
  O  O32  1  0.99769838  0.00230162  0.25566633  1
  O  O33  1  0.99988526  0.00011474  0.74400848  1
  O  O34  1  0.99813756  0.49815331  0.24929203  1
  O  O35  1  0.99981051  0.49978182  0.75078942  1
  O  O36  1  0.50184669  0.00186244  0.24929203  1
  O  O37  1  0.50021818  0.00018949  0.75078942  1
  O  O38  1  0.50169206  0.49830794  0.24754771  1
  O  O39  1  0.50014316  0.49985684  0.75250710  1
