# generated using pymatgen
data_Cs2MoSe4
_symmetry_space_group_name_H-M   'P 1'
_cell_length_a   10.66594246
_cell_length_b   7.61066532
_cell_length_c   13.47716190
_cell_angle_alpha   90.00000000
_cell_angle_beta   90.00000000
_cell_angle_gamma   90.00000000
_symmetry_Int_Tables_number   1
_chemical_formula_structural   Cs2MoSe4
_chemical_formula_sum   'Cs8 Mo4 Se16'
_cell_volume   1094.00751730
_cell_formula_units_Z   4
loop_
 _symmetry_equiv_pos_site_id
 _symmetry_equiv_pos_as_xyz
  1  'x, y, z'
loop_
 _atom_site_type_symbol
 _atom_site_label
 _atom_site_symmetry_multiplicity
 _atom_site_fract_x
 _atom_site_fract_y
 _atom_site_fract_z
 _atom_site_occupancy
  Cs  Cs0  1  0.45368650  0.25000000  0.15787764  1
  Cs  Cs1  1  0.04631250  0.74999900  0.65787764  1
  Cs  Cs2  1  0.95368650  0.25000000  0.34212336  1
  Cs  Cs3  1  0.54631350  0.74999900  0.84212236  1
  Cs  Cs4  1  0.16671401  0.25000000  0.89001723  1
  Cs  Cs5  1  0.33328599  0.74999900  0.39001723  1
  Cs  Cs6  1  0.66671501  0.25000000  0.60998277  1
  Cs  Cs7  1  0.83328599  0.74999900  0.10998277  1
  Mo  Mo8  1  0.25746480  0.25000000  0.57523155  1
  Mo  Mo9  1  0.24253520  0.74999900  0.07523255  1
  Mo  Mo10  1  0.75746480  0.25000000  0.92476745  1
  Mo  Mo11  1  0.74253620  0.74999900  0.42476845  1
  Se  Se12  1  0.28589349  0.25000000  0.40354199  1
  Se  Se13  1  0.21410751  0.74999900  0.90354199  1
  Se  Se14  1  0.78589149  0.25000000  0.09645901  1
  Se  Se15  1  0.71410751  0.74999900  0.59645801  1
  Se  Se16  1  0.54229260  0.25000000  0.88652098  1
  Se  Se17  1  0.95770640  0.74999900  0.38651998  1
  Se  Se18  1  0.04229360  0.25000000  0.61348002  1
  Se  Se19  1  0.45770740  0.74999900  0.11348002  1
  Se  Se20  1  0.14813809  0.50159488  0.14282103  1
  Se  Se21  1  0.35186291  0.49840612  0.64282203  1
  Se  Se22  1  0.64813709  0.99840712  0.35717897  1
  Se  Se23  1  0.85186091  0.00159388  0.85717797  1
  Se  Se24  1  0.85186091  0.49840612  0.85717797  1
  Se  Se25  1  0.64813709  0.50159488  0.35717897  1
  Se  Se26  1  0.35186291  0.00159388  0.64282203  1
  Se  Se27  1  0.14813809  0.99840712  0.14282103  1
