# generated using pymatgen
data_ZrGeO4
_symmetry_space_group_name_H-M   'P 1'
_cell_length_a   4.92633623
_cell_length_b   4.92611381
_cell_length_c   6.39748399
_cell_angle_alpha   112.64482711
_cell_angle_beta   112.64129810
_cell_angle_gamma   89.99881078
_symmetry_Int_Tables_number   1
_chemical_formula_structural   ZrGeO4
_chemical_formula_sum   'Zr2 Ge2 O8'
_cell_volume   130.22437110
_cell_formula_units_Z   2
loop_
 _symmetry_equiv_pos_site_id
 _symmetry_equiv_pos_as_xyz
  1  'x, y, z'
loop_
 _atom_site_type_symbol
 _atom_site_label
 _atom_site_symmetry_multiplicity
 _atom_site_fract_x
 _atom_site_fract_y
 _atom_site_fract_z
 _atom_site_occupancy
  O  O0  1  0.31000645  0.46611157  0.08672577  1
  O  O1  1  0.62065022  0.81006800  0.58675234  1
  O  O2  1  0.96610799  0.27677833  0.58673819  1
  O  O3  1  0.77670618  0.12055607  0.08670375  1
  O  O4  1  0.22329382  0.87944393  0.91329625  1
  O  O5  1  0.03389201  0.72322167  0.41326181  1
  O  O6  1  0.37934978  0.18993200  0.41324766  1
  O  O7  1  0.68999355  0.53388843  0.91327423  1
  Ge  Ge8  1  0.12497537  0.37490464  0.24994465  1
  Ge  Ge9  1  0.87502463  0.62509536  0.75005535  1
  Zr  Zr10  1  0.62501639  0.87497951  0.25002389  1
  Zr  Zr11  1  0.37498361  0.12502049  0.74997611  1
