# generated using pymatgen
data_ThInAg2
_symmetry_space_group_name_H-M   'P 1'
_cell_length_a   5.11323515
_cell_length_b   5.14400400
_cell_length_c   5.14835595
_cell_angle_alpha   60.04321677
_cell_angle_beta   60.49812945
_cell_angle_gamma   59.71308288
_symmetry_Int_Tables_number   1
_chemical_formula_structural   ThInAg2
_chemical_formula_sum   'Th1 In1 Ag2'
_cell_volume   95.92756203
_cell_formula_units_Z   1
loop_
 _symmetry_equiv_pos_site_id
 _symmetry_equiv_pos_as_xyz
  1  'x, y, z'
loop_
 _atom_site_type_symbol
 _atom_site_label
 _atom_site_symmetry_multiplicity
 _atom_site_fract_x
 _atom_site_fract_y
 _atom_site_fract_z
 _atom_site_occupancy
  Th  Th0  1  0.75026739  0.74934407  0.74983127  1
  In  In1  1  0.24985427  0.25018415  0.24997869  1
  Ag  Ag2  1  0.49969513  0.50023396  0.50022184  1
  Ag  Ag3  1  0.00018422  0.00023882  -0.00003080  1
