# generated using pymatgen
data_RbLiH12Se3N4
_symmetry_space_group_name_H-M   'P 1'
_cell_length_a   10.28099244
_cell_length_b   10.28099244
_cell_length_c   20.39810285
_cell_angle_alpha   69.09378380
_cell_angle_beta   110.90621620
_cell_angle_gamma   145.32030988
_symmetry_Int_Tables_number   1
_chemical_formula_structural   RbLiH12Se3N4
_chemical_formula_sum   'Rb4 Li4 H48 Se12 N16'
_cell_volume   1137.82619496
_cell_formula_units_Z   4
loop_
 _symmetry_equiv_pos_site_id
 _symmetry_equiv_pos_as_xyz
  1  'x, y, z'
loop_
 _atom_site_type_symbol
 _atom_site_label
 _atom_site_symmetry_multiplicity
 _atom_site_fract_x
 _atom_site_fract_y
 _atom_site_fract_z
 _atom_site_occupancy
  Rb  Rb0  1  0.17117074  0.79834232  0.26271239  1
  Rb  Rb1  1  0.79834232  0.17117074  0.23728761  1
  Rb  Rb2  1  0.82882826  0.20165768  0.73728761  1
  Rb  Rb3  1  0.20165768  0.82882826  0.76271239  1
  Li  Li4  1  0.99308180  0.19673211  0.54945216  1
  Li  Li5  1  0.19673111  0.99308280  0.95054784  1
  Li  Li6  1  0.00691920  0.80326889  0.45054784  1
  Li  Li7  1  0.80326989  0.00691920  0.04945316  1
  H  H8  1  0.87136776  0.83844359  0.16598672  1
  H  H9  1  0.83844359  0.87136776  0.33401328  1
  H  H10  1  0.12863124  0.16155641  0.83401328  1
  H  H11  1  0.16155641  0.12863124  0.66598672  1
  H  H12  1  0.99210207  0.06373271  0.18812804  1
  H  H13  1  0.06373271  0.99210207  0.31187196  1
  H  H14  1  0.00789793  0.93626829  0.81187196  1
  H  H15  1  0.93626829  0.00789893  0.68812704  1
  H  H16  1  0.65458553  0.08393288  0.57372405  1
  H  H17  1  0.08393288  0.65458553  0.92627595  1
  H  H18  1  0.34541347  0.91606612  0.42627695  1
  H  H19  1  0.91606612  0.34541347  0.07372305  1
  H  H20  1  0.75602211  0.24403976  0.49754868  1
  H  H21  1  0.24404076  0.75602211  0.00245132  1
  H  H22  1  0.24397689  0.75595924  0.50245132  1
  H  H23  1  0.75595824  0.24397789  0.99754768  1
  H  H24  1  0.35303292  0.59953929  0.06519552  1
  H  H25  1  0.59953929  0.35303292  0.43480448  1
  H  H26  1  0.64696608  0.40045971  0.93480448  1
  H  H27  1  0.40045971  0.64696608  0.56519552  1
  H  H28  1  0.91326494  0.36346877  0.57172848  1
  H  H29  1  0.36346977  0.91326494  0.92827152  1
  H  H30  1  0.08673606  0.63653223  0.42827152  1
  H  H31  1  0.63653223  0.08673606  0.07172848  1
  H  H32  1  0.01178725  0.19260539  0.42342015  1
  H  H33  1  0.19260539  0.01178725  0.07657985  1
  H  H34  1  0.98821375  0.80739561  0.57657985  1
  H  H35  1  0.80739561  0.98821375  0.92342015  1
  H  H36  1  0.13717501  0.10298727  0.14861567  1
  H  H37  1  0.10298627  0.13717501  0.35138333  1
  H  H38  1  0.86282499  0.89701273  0.85138433  1
  H  H39  1  0.89701273  0.86282399  0.64861667  1
  H  H40  1  0.84059358  0.92604557  0.45772905  1
  H  H41  1  0.92604557  0.84059358  0.04227095  1
  H  H42  1  0.15940742  0.07395543  0.54227195  1
  H  H43  1  0.07395543  0.15940742  0.95772805  1
  H  H44  1  0.45510690  0.53471363  0.06479837  1
  H  H45  1  0.53471363  0.45510690  0.43520163  1
  H  H46  1  0.54489310  0.46528537  0.93520163  1
  H  H47  1  0.46528637  0.54489210  0.56479937  1
  H  H48  1  0.74135816  0.00474508  0.42506250  1
  H  H49  1  0.00474508  0.74135816  0.07493750  1
  H  H50  1  0.25864284  0.99525592  0.57493650  1
  H  H51  1  0.99525692  0.25864184  0.92506350  1
  H  H52  1  0.37366519  0.59710206  0.98977955  1
  H  H53  1  0.59710206  0.37366619  0.51022045  1
  H  H54  1  0.62633381  0.40289794  0.01022045  1
  H  H55  1  0.40289794  0.62633281  0.48977955  1
  Se  Se56  1  0.58084265  0.38733468  0.27169858  1
  Se  Se57  1  0.38733468  0.58084165  0.22830242  1
  Se  Se58  1  0.41915835  0.61266632  0.72830242  1
  Se  Se59  1  0.61266632  0.41915835  0.77169858  1
  Se  Se60  1  0.70877245  0.26920699  0.35688890  1
  Se  Se61  1  0.26920699  0.70877245  0.14311110  1
  Se  Se62  1  0.29122855  0.73079401  0.64311110  1
  Se  Se63  1  0.73079401  0.29122855  0.85688890  1
  Se  Se64  1  0.57721218  0.36420875  0.15861855  1
  Se  Se65  1  0.36420875  0.57721218  0.34138145  1
  Se  Se66  1  0.42278882  0.63579225  0.84138145  1
  Se  Se67  1  0.63579225  0.42278882  0.65861855  1
  N  N68  1  0.97453745  0.00726311  0.14931525  1
  N  N69  1  0.00726411  0.97453745  0.35068575  1
  N  N70  1  0.02546255  0.99273489  0.85068575  1
  N  N71  1  0.99273589  0.02546155  0.64931425  1
  N  N72  1  0.80268229  0.21800908  0.54914984  1
  N  N73  1  0.21800908  0.80268229  0.95085016  1
  N  N74  1  0.19731871  0.78199192  0.45085016  1
  N  N75  1  0.78199192  0.19731871  0.04914984  1
  N  N76  1  0.88130590  0.05836248  0.45533680  1
  N  N77  1  0.05836248  0.88130590  0.04466220  1
  N  N78  1  0.11869310  0.94163752  0.54466320  1
  N  N79  1  0.94163752  0.11869310  0.95533680  1
  N  N80  1  0.45720742  0.64307283  0.03975743  1
  N  N81  1  0.64307283  0.45720742  0.46024257  1
  N  N82  1  0.54279358  0.35692717  0.96024257  1
  N  N83  1  0.35692817  0.54279358  0.53975743  1
