# generated using pymatgen
data_Li2PrPb
_symmetry_space_group_name_H-M   'P 1'
_cell_length_a   4.98851258
_cell_length_b   4.98848708
_cell_length_c   4.98848994
_cell_angle_alpha   60.00015403
_cell_angle_beta   60.00013964
_cell_angle_gamma   60.00022305
_symmetry_Int_Tables_number   1
_chemical_formula_structural   Li2PrPb
_chemical_formula_sum   'Li2 Pr1 Pb1'
_cell_volume   87.78002949
_cell_formula_units_Z   1
loop_
 _symmetry_equiv_pos_site_id
 _symmetry_equiv_pos_as_xyz
  1  'x, y, z'
loop_
 _atom_site_type_symbol
 _atom_site_label
 _atom_site_symmetry_multiplicity
 _atom_site_fract_x
 _atom_site_fract_y
 _atom_site_fract_z
 _atom_site_occupancy
  Li  Li0  1  0.00000065  0.99999832  0.00000037  1
  Li  Li1  1  0.50000021  0.49999974  0.50000107  1
  Pr  Pr2  1  0.74999895  0.74999767  0.74999900  1
  Pb  Pb3  1  0.24999919  0.25000327  0.24999855  1
