# generated using pymatgen
data_Rb4H4C3O10
_symmetry_space_group_name_H-M   'P 1'
_cell_length_a   12.46831166
_cell_length_b   15.86052010
_cell_length_c   6.29033344
_cell_angle_alpha   90.00000000
_cell_angle_beta   90.00000000
_cell_angle_gamma   90.00000000
_symmetry_Int_Tables_number   1
_chemical_formula_structural   Rb4H4C3O10
_chemical_formula_sum   'Rb16 H16 C12 O40'
_cell_volume   1243.93801847
_cell_formula_units_Z   4
loop_
 _symmetry_equiv_pos_site_id
 _symmetry_equiv_pos_as_xyz
  1  'x, y, z'
loop_
 _atom_site_type_symbol
 _atom_site_label
 _atom_site_symmetry_multiplicity
 _atom_site_fract_x
 _atom_site_fract_y
 _atom_site_fract_z
 _atom_site_occupancy
  Rb  Rb0  1  0.12511621  0.62343879  0.18902108  1
  Rb  Rb1  1  0.12511621  0.87656121  0.18902108  1
  Rb  Rb2  1  0.14693425  0.12779839  0.17942987  1
  Rb  Rb3  1  0.14693425  0.37220161  0.17942987  1
  Rb  Rb4  1  0.35306575  0.62779839  0.67942987  1
  Rb  Rb5  1  0.35306575  0.87220161  0.67942987  1
  Rb  Rb6  1  0.37488379  0.37656121  0.68902108  1
  Rb  Rb7  1  0.37488379  0.12343879  0.68902108  1
  Rb  Rb8  1  0.62511621  0.87656121  0.31097892  1
  Rb  Rb9  1  0.62511621  0.62343879  0.31097892  1
  Rb  Rb10  1  0.64693425  0.12779839  0.32057013  1
  Rb  Rb11  1  0.64693425  0.37220161  0.32057013  1
  Rb  Rb12  1  0.85306575  0.87220161  0.82057013  1
  Rb  Rb13  1  0.85306575  0.62779839  0.82057013  1
  Rb  Rb14  1  0.87488379  0.12343879  0.81097892  1
  Rb  Rb15  1  0.87488379  0.37656121  0.81097892  1
  H  H16  1  0.09085936  0.59270458  0.70560585  1
  H  H17  1  0.09085936  0.90729542  0.70560585  1
  H  H18  1  0.15455821  0.19947321  0.62862886  1
  H  H19  1  0.15455821  0.30052679  0.62862886  1
  H  H20  1  0.34544179  0.69947321  0.12862886  1
  H  H21  1  0.34544179  0.80052679  0.12862886  1
  H  H22  1  0.40914064  0.09270458  0.20560585  1
  H  H23  1  0.40914064  0.40729542  0.20560585  1
  H  H24  1  0.59085936  0.90729542  0.79439415  1
  H  H25  1  0.59085936  0.59270458  0.79439415  1
  H  H26  1  0.65455821  0.19947321  0.87137114  1
  H  H27  1  0.65455821  0.30052679  0.87137114  1
  H  H28  1  0.84544179  0.69947321  0.37137114  1
  H  H29  1  0.84544179  0.80052679  0.37137114  1
  H  H30  1  0.90914064  0.09270458  0.29439415  1
  H  H31  1  0.90914064  0.40729542  0.29439415  1
  C  C32  1  0.09442040  0.75000000  0.71970374  1
  C  C33  1  0.12672794  0.02865515  0.66063744  1
  C  C34  1  0.12672794  0.47134485  0.66063744  1
  C  C35  1  0.37327206  0.52865515  0.16063744  1
  C  C36  1  0.37327206  0.97134485  0.16063744  1
  C  C37  1  0.40557960  0.25000000  0.21970374  1
  C  C38  1  0.59442040  0.75000000  0.78029626  1
  C  C39  1  0.62672794  0.02865515  0.83936256  1
  C  C40  1  0.62672794  0.47134485  0.83936256  1
  C  C41  1  0.87327206  0.52865515  0.33936256  1
  C  C42  1  0.87327206  0.97134485  0.33936256  1
  C  C43  1  0.90557960  0.25000000  0.28029626  1
  O  O44  1  0.02965218  0.75000000  0.88010602  1
  O  O45  1  0.06700927  0.53263546  0.75753060  1
  O  O46  1  0.06700927  0.96736454  0.75753060  1
  O  O47  1  0.10529510  0.10397258  0.72121129  1
  O  O48  1  0.10529510  0.39602742  0.72121129  1
  O  O49  1  0.12871131  0.67930032  0.63585806  1
  O  O50  1  0.12871131  0.82069968  0.63585806  1
  O  O51  1  0.19134713  0.25000000  0.56889338  1
  O  O52  1  0.19605970  0.00800191  0.52300138  1
  O  O53  1  0.19605970  0.49199809  0.52300138  1
  O  O54  1  0.30394030  0.50800191  0.02300138  1
  O  O55  1  0.30394030  0.99199809  0.02300138  1
  O  O56  1  0.30865287  0.75000000  0.06889338  1
  O  O57  1  0.37128869  0.17930032  0.13585806  1
  O  O58  1  0.37128869  0.32069968  0.13585806  1
  O  O59  1  0.39470490  0.60397258  0.22121129  1
  O  O60  1  0.39470490  0.89602742  0.22121129  1
  O  O61  1  0.43299073  0.03263546  0.25753060  1
  O  O62  1  0.43299073  0.46736454  0.25753060  1
  O  O63  1  0.47034782  0.25000000  0.38010602  1
  O  O64  1  0.52965218  0.75000000  0.61989398  1
  O  O65  1  0.56700927  0.96736454  0.74246940  1
  O  O66  1  0.56700927  0.53263546  0.74246940  1
  O  O67  1  0.60529510  0.10397258  0.77878871  1
  O  O68  1  0.60529510  0.39602742  0.77878871  1
  O  O69  1  0.62871131  0.82069968  0.86414194  1
  O  O70  1  0.62871131  0.67930032  0.86414194  1
  O  O71  1  0.69134713  0.25000000  0.93110662  1
  O  O72  1  0.69605970  0.00800191  0.97699862  1
  O  O73  1  0.69605970  0.49199809  0.97699862  1
  O  O74  1  0.80394030  0.50800191  0.47699862  1
  O  O75  1  0.80394030  0.99199809  0.47699862  1
  O  O76  1  0.80865287  0.75000000  0.43110662  1
  O  O77  1  0.87128869  0.17930032  0.36414194  1
  O  O78  1  0.87128869  0.32069968  0.36414194  1
  O  O79  1  0.89470490  0.89602742  0.27878871  1
  O  O80  1  0.89470490  0.60397258  0.27878871  1
  O  O81  1  0.93299073  0.03263546  0.24246940  1
  O  O82  1  0.93299073  0.46736454  0.24246940  1
  O  O83  1  0.97034782  0.25000000  0.11989398  1
