# generated using pymatgen
data_SmBO3
_symmetry_space_group_name_H-M   'P 1'
_cell_length_a   6.31728052
_cell_length_b   6.53210137
_cell_length_c   6.52483539
_cell_angle_alpha   93.10964231
_cell_angle_beta   107.02961938
_cell_angle_gamma   106.22154260
_symmetry_Int_Tables_number   1
_chemical_formula_structural   SmBO3
_chemical_formula_sum   'Sm4 B4 O12'
_cell_volume   244.46377316
_cell_formula_units_Z   4
loop_
 _symmetry_equiv_pos_site_id
 _symmetry_equiv_pos_as_xyz
  1  'x, y, z'
loop_
 _atom_site_type_symbol
 _atom_site_label
 _atom_site_symmetry_multiplicity
 _atom_site_fract_x
 _atom_site_fract_y
 _atom_site_fract_z
 _atom_site_occupancy
  B  B0  1  0.01730361  0.28054144  0.24012211  1
  B  B1  1  0.98269639  0.71945856  0.75987789  1
  B  B2  1  0.52045133  0.23442555  0.72619038  1
  B  B3  1  0.47954867  0.76557445  0.27380962  1
  O  O4  1  0.57441136  0.24962472  0.53928005  1
  O  O5  1  0.42558864  0.75037528  0.46071995  1
  O  O6  1  0.08955857  0.86836332  0.64478489  1
  O  O7  1  0.91044143  0.13163668  0.35521511  1
  O  O8  1  0.95502924  0.46470287  0.22364734  1
  O  O9  1  0.04497076  0.53529713  0.77635266  1
  O  O10  1  0.15122181  0.21501620  0.13141770  1
  O  O11  1  0.84877819  0.78498380  0.86858230  1
  O  O12  1  0.61574315  0.66212214  0.20328681  1
  O  O13  1  0.38425685  0.33787786  0.79671319  1
  O  O14  1  0.62755305  0.11357681  0.87157829  1
  O  O15  1  0.37244695  0.88642319  0.12842171  1
  Sm  Sm16  1  0.44202742  0.72204901  0.81289794  1
  Sm  Sm17  1  0.55797258  0.27795099  0.18710206  1
  Sm  Sm18  1  0.95325015  0.16719166  0.73419890  1
  Sm  Sm19  1  0.04674985  0.83280834  0.26580110  1
