# generated using pymatgen
data_La2Si5Rh3
_symmetry_space_group_name_H-M   'P 1'
_cell_length_a   5.89180045
_cell_length_b   8.34910156
_cell_length_c   8.34910156
_cell_angle_alpha   74.07852055
_cell_angle_beta   69.33885534
_cell_angle_gamma   69.33885534
_symmetry_Int_Tables_number   1
_chemical_formula_structural   La2Si5Rh3
_chemical_formula_sum   'La4 Si10 Rh6'
_cell_volume   354.26755600
_cell_formula_units_Z   2
loop_
 _symmetry_equiv_pos_site_id
 _symmetry_equiv_pos_as_xyz
  1  'x, y, z'
loop_
 _atom_site_type_symbol
 _atom_site_label
 _atom_site_symmetry_multiplicity
 _atom_site_fract_x
 _atom_site_fract_y
 _atom_site_fract_z
 _atom_site_occupancy
  Si  Si0  1  0.25000000  0.00000000  0.00000000  1
  Si  Si1  1  0.75000000  0.00000000  0.00000000  1
  Si  Si2  1  0.97492906  0.27507094  0.27507094  1
  Si  Si3  1  0.52507094  0.72492906  0.72492906  1
  Si  Si4  1  0.02507094  0.72492906  0.72492906  1
  Si  Si5  1  0.47492906  0.27507094  0.27507094  1
  Si  Si6  1  0.39288473  0.45611928  0.75811127  1
  Si  Si7  1  0.89288473  0.75811127  0.45611928  1
  Si  Si8  1  0.10711527  0.24188873  0.54388072  1
  Si  Si9  1  0.60711527  0.54388072  0.24188873  1
  Rh  Rh10  1  0.86124298  0.02921987  0.24829416  1
  Rh  Rh11  1  0.75000000  0.50000000  0.50000000  1
  Rh  Rh12  1  0.36124298  0.24829416  0.02921987  1
  Rh  Rh13  1  0.63875702  0.75170584  0.97078013  1
  Rh  Rh14  1  0.13875702  0.97078013  0.75170584  1
  Rh  Rh15  1  0.25000000  0.50000000  0.50000000  1
  La  La16  1  0.13046469  0.63670747  0.10236316  1
  La  La17  1  0.86953531  0.36329253  0.89763684  1
  La  La18  1  0.36953531  0.89763684  0.36329253  1
  La  La19  1  0.63046469  0.10236316  0.63670747  1
