# generated using pymatgen
data_K2RhF6
_symmetry_space_group_name_H-M   'P 1'
_cell_length_a   5.84689733
_cell_length_b   5.84689733
_cell_length_c   4.76099771
_cell_angle_alpha   90.00000000
_cell_angle_beta   90.00000000
_cell_angle_gamma   119.99999996
_symmetry_Int_Tables_number   1
_chemical_formula_structural   K2RhF6
_chemical_formula_sum   'K2 Rh1 F6'
_cell_volume   140.95469293
_cell_formula_units_Z   1
loop_
 _symmetry_equiv_pos_site_id
 _symmetry_equiv_pos_as_xyz
  1  'x, y, z'
loop_
 _atom_site_type_symbol
 _atom_site_label
 _atom_site_symmetry_multiplicity
 _atom_site_fract_x
 _atom_site_fract_y
 _atom_site_fract_z
 _atom_site_occupancy
  F  F0  1  0.83901043  0.16098957  0.77346467  1
  F  F1  1  0.83901043  0.67802085  0.77346467  1
  F  F2  1  0.32197915  0.16098957  0.77346467  1
  F  F3  1  0.16098957  0.83901043  0.22653533  1
  F  F4  1  0.16098957  0.32197915  0.22653533  1
  F  F5  1  0.67802085  0.83901043  0.22653533  1
  K  K6  1  0.33333333  0.66666667  0.71166240  1
  K  K7  1  0.66666667  0.33333333  0.28833760  1
  Rh  Rh8  1  0.00000000  0.00000000  0.00000000  1
