# generated using pymatgen
data_Ca2SnS4
_symmetry_space_group_name_H-M   'P 1'
_cell_length_a   7.98651573
_cell_length_b   7.98651573
_cell_length_c   7.98651573
_cell_angle_alpha   60.00000000
_cell_angle_beta   60.00000000
_cell_angle_gamma   60.00000000
_symmetry_Int_Tables_number   1
_chemical_formula_structural   Ca2SnS4
_chemical_formula_sum   'Ca4 Sn2 S8'
_cell_volume   360.21107057
_cell_formula_units_Z   2
loop_
 _symmetry_equiv_pos_site_id
 _symmetry_equiv_pos_as_xyz
  1  'x, y, z'
loop_
 _atom_site_type_symbol
 _atom_site_label
 _atom_site_symmetry_multiplicity
 _atom_site_fract_x
 _atom_site_fract_y
 _atom_site_fract_z
 _atom_site_occupancy
  Ca  Ca0  1  -0.00000000  0.00000000  0.50000000  1
  Ca  Ca1  1  -0.00000000  0.50000000  -0.00000000  1
  Ca  Ca2  1  -0.00000000  0.50000000  0.50000000  1
  Ca  Ca3  1  0.50000000  0.50000000  0.50000000  1
  Sn  Sn4  1  0.62500000  0.12500000  0.12500000  1
  Sn  Sn5  1  0.37500000  0.87500000  0.87500000  1
  S  S6  1  0.75007577  0.74977268  0.25007577  1
  S  S7  1  0.75007577  0.25007577  0.74977268  1
  S  S8  1  0.75007577  0.25007577  0.25007577  1
  S  S9  1  0.24977268  0.25007577  0.25007577  1
  S  S10  1  0.24992423  0.25022732  0.74992423  1
  S  S11  1  0.24992423  0.74992423  0.25022732  1
  S  S12  1  0.24992423  0.74992423  0.74992423  1
  S  S13  1  0.75022732  0.74992423  0.74992423  1
