# generated using pymatgen
data_CrAgO2
_symmetry_space_group_name_H-M   'P 1'
_cell_length_a   3.03261120
_cell_length_b   3.03261055
_cell_length_c   6.40949695
_cell_angle_alpha   76.31571040
_cell_angle_beta   76.31571425
_cell_angle_gamma   59.99999506
_symmetry_Int_Tables_number   1
_chemical_formula_structural   CrAgO2
_chemical_formula_sum   'Cr1 Ag1 O2'
_cell_volume   49.10747677
_cell_formula_units_Z   1
loop_
 _symmetry_equiv_pos_site_id
 _symmetry_equiv_pos_as_xyz
  1  'x, y, z'
loop_
 _atom_site_type_symbol
 _atom_site_label
 _atom_site_symmetry_multiplicity
 _atom_site_fract_x
 _atom_site_fract_y
 _atom_site_fract_z
 _atom_site_occupancy
  Cr  Cr0  1  0.00144144  0.00144144  0.99567567  1
  Ag  Ag1  1  0.84030334  0.84030334  0.47908998  1
  O  O2  1  0.72203666  0.72203666  0.83389003  1
  O  O3  1  0.27721856  0.27721856  0.16834432  1
