# generated using pymatgen
data_Y6Cu11O24
_symmetry_space_group_name_H-M   'P 1'
_cell_length_a   8.14865741
_cell_length_b   6.33106925
_cell_length_c   10.06342832
_cell_angle_alpha   82.21952469
_cell_angle_beta   65.95396124
_cell_angle_gamma   90.76918664
_symmetry_Int_Tables_number   1
_chemical_formula_structural   Y6Cu11O24
_chemical_formula_sum   'Y6 Cu11 O24'
_cell_volume   468.39878001
_cell_formula_units_Z   1
loop_
 _symmetry_equiv_pos_site_id
 _symmetry_equiv_pos_as_xyz
  1  'x, y, z'
loop_
 _atom_site_type_symbol
 _atom_site_label
 _atom_site_symmetry_multiplicity
 _atom_site_fract_x
 _atom_site_fract_y
 _atom_site_fract_z
 _atom_site_occupancy
  Y  Y0  1  0.87081439  0.75581083  0.00488698  1
  Y  Y1  1  0.79585161  0.91085617  0.66178002  1
  Y  Y2  1  0.54533018  0.40951312  0.65685235  1
  Y  Y3  1  0.46494819  0.58014918  0.33328713  1
  Y  Y4  1  0.20171881  0.08651782  0.33337887  1
  Y  Y5  1  0.12133682  0.25715388  0.00981465  1
  Cu  Cu6  1  0.66930763  0.17370756  0.17305876  1
  Cu  Cu7  1  0.49738725  0.99806550  0.99919825  1
  Cu  Cu8  1  0.83333300  0.33333300  0.83333300  1
  Cu  Cu9  1  0.83333300  0.83333300  0.33333300  1
  Cu  Cu10  1  0.49834072  0.00548823  0.49980298  1
  Cu  Cu11  1  0.50246365  0.49670193  0.99683660  1
  Cu  Cu12  1  0.16420335  0.16996507  0.66983040  1
  Cu  Cu13  1  0.16832528  0.66117777  0.16686402  1
  Cu  Cu14  1  0.33333300  0.83333300  0.83333300  1
  Cu  Cu15  1  0.16927875  0.66860050  0.66746775  1
  Cu  Cu16  1  0.99735837  0.49295944  0.49360824  1
  O  O17  1  0.86839994  0.01840433  0.15797993  1
  O  O18  1  0.90081078  0.03509838  0.42041794  1
  O  O19  1  0.83784982  0.36810044  0.01522501  1
  O  O20  1  0.82881718  0.29856556  0.65144099  1
  O  O21  1  0.76585622  0.63156862  0.24624906  1
  O  O22  1  0.75087039  0.03852022  0.88999307  1
  O  O23  1  0.91579661  0.62814578  0.77667393  1
  O  O24  1  0.79826706  0.64826267  0.50868707  1
  O  O25  1  0.54747573  0.29660025  0.45186830  1
  O  O26  1  0.47300278  0.32274670  0.17617172  1
  O  O27  1  0.51157640  0.03101522  0.67811034  1
  O  O28  1  0.55149954  0.72644179  0.07822859  1
  O  O29  1  0.44723546  0.26994333  0.91622434  1
  O  O30  1  0.49260510  0.97256253  0.32013589  1
  O  O31  1  0.53337086  0.67096332  0.81876550  1
  O  O32  1  0.42383607  0.70839039  0.55622248  1
  O  O33  1  0.19366422  0.34392030  0.49049528  1
  O  O34  1  0.11919027  0.37006675  0.21479870  1
  O  O35  1  0.24283093  0.95827661  0.11044452  1
  O  O36  1  0.21943054  0.39672267  0.75044266  1
  O  O37  1  0.17406190  0.69410447  0.34653111  1
  O  O38  1  0.15508960  0.63565078  0.98855666  1
  O  O39  1  0.11516746  0.94022521  0.58843841  1
  O  O40  1  0.13329614  0.99570268  0.84790150  1
