# generated using pymatgen
data_BaNb2Fe2O9
_symmetry_space_group_name_H-M   'P 1'
_cell_length_a   5.62494218
_cell_length_b   5.62296685
_cell_length_c   13.49208066
_cell_angle_alpha   102.02744675
_cell_angle_beta   90.00000000
_cell_angle_gamma   90.00000000
_symmetry_Int_Tables_number   1
_chemical_formula_structural   BaNb2Fe2O9
_chemical_formula_sum   'Ba2 Nb4 Fe4 O18'
_cell_volume   417.37135158
_cell_formula_units_Z   2
loop_
 _symmetry_equiv_pos_site_id
 _symmetry_equiv_pos_as_xyz
  1  'x, y, z'
loop_
 _atom_site_type_symbol
 _atom_site_label
 _atom_site_symmetry_multiplicity
 _atom_site_fract_x
 _atom_site_fract_y
 _atom_site_fract_z
 _atom_site_occupancy
  Ba  Ba0  1  0.46395970  0.24916880  1.00000000  1
  Ba  Ba1  1  0.96395970  0.75083120  0.00000000  1
  Nb  Nb2  1  0.95775095  0.16706949  0.83281321  1
  Nb  Nb3  1  0.95775095  0.33425628  0.16718679  1
  Nb  Nb4  1  0.45775095  0.83293051  0.16718679  1
  Nb  Nb5  1  0.45775095  0.66574372  0.83281321  1
  Fe  Fe6  1  0.99753661  0.02708197  0.55065217  1
  Fe  Fe7  1  0.99753661  0.47642980  0.44934783  1
  Fe  Fe8  1  0.49753661  0.97291803  0.44934783  1
  Fe  Fe9  1  0.49753661  0.52357020  0.55065217  1
  O  O10  1  0.97119696  0.24405193  0.00000000  1
  O  O11  1  0.47119696  0.75594807  1.00000000  1
  O  O12  1  0.98576780  0.10565236  0.68777069  1
  O  O13  1  0.98576780  0.41788167  0.31222931  1
  O  O14  1  0.48576780  0.89434764  0.31222931  1
  O  O15  1  0.48576780  0.58211833  0.68777069  1
  O  O16  1  0.24663678  0.24797276  0.49833154  1
  O  O17  1  0.24663678  0.74964123  0.50166846  1
  O  O18  1  0.74663678  0.75202724  0.50166846  1
  O  O19  1  0.74663678  0.25035877  0.49833154  1
  O  O20  1  0.22547316  0.07825005  0.15506708  1
  O  O21  1  0.22547316  0.92318297  0.84493292  1
  O  O22  1  0.72547316  0.92174995  0.84493292  1
  O  O23  1  0.72547316  0.07681703  0.15506708  1
  O  O24  1  0.22525637  0.57408908  0.15001146  1
  O  O25  1  0.22525637  0.42407762  0.84998854  1
  O  O26  1  0.72525637  0.42591092  0.84998854  1
  O  O27  1  0.72525637  0.57592238  0.15001146  1
