# generated using pymatgen
data_InBF4
_symmetry_space_group_name_H-M   'P 1'
_cell_length_a   5.79284248
_cell_length_b   7.44689525
_cell_length_c   9.23172226
_cell_angle_alpha   90.00000000
_cell_angle_beta   90.00000000
_cell_angle_gamma   90.00000000
_symmetry_Int_Tables_number   1
_chemical_formula_structural   InBF4
_chemical_formula_sum   'In4 B4 F16'
_cell_volume   398.24441534
_cell_formula_units_Z   4
loop_
 _symmetry_equiv_pos_site_id
 _symmetry_equiv_pos_as_xyz
  1  'x, y, z'
loop_
 _atom_site_type_symbol
 _atom_site_label
 _atom_site_symmetry_multiplicity
 _atom_site_fract_x
 _atom_site_fract_y
 _atom_site_fract_z
 _atom_site_occupancy
  B  B0  1  0.25000000  0.68816388  0.06204775  1
  B  B1  1  0.25000000  0.81183612  0.56204775  1
  B  B2  1  0.75000000  0.18816388  0.43795225  1
  B  B3  1  0.75000000  0.31183612  0.93795225  1
  F  F4  1  0.54977420  0.29909787  0.42314800  1
  F  F5  1  0.95022580  0.20090213  0.92314800  1
  F  F6  1  0.45022580  0.79909787  0.07685200  1
  F  F7  1  0.04977420  0.70090213  0.57685200  1
  F  F8  1  0.25000000  0.55807881  0.17425496  1
  F  F9  1  0.75000000  0.44192119  0.82574504  1
  F  F10  1  0.75000000  0.05807881  0.32574504  1
  F  F11  1  0.25000000  0.94192119  0.67425496  1
  F  F12  1  0.25000000  0.60621683  0.92484239  1
  F  F13  1  0.75000000  0.39378317  0.07515761  1
  F  F14  1  0.75000000  0.10621683  0.57515761  1
  F  F15  1  0.25000000  0.89378317  0.42484239  1
  F  F16  1  0.04977420  0.79909787  0.07685200  1
  F  F17  1  0.54977420  0.20090213  0.92314800  1
  F  F18  1  0.95022580  0.29909787  0.42314800  1
  F  F19  1  0.45022580  0.70090213  0.57685200  1
  In  In20  1  0.25000000  0.33226876  0.68599542  1
  In  In21  1  0.75000000  0.66773124  0.31400458  1
  In  In22  1  0.75000000  0.83226876  0.81400458  1
  In  In23  1  0.25000000  0.16773124  0.18599542  1
