# generated using pymatgen
data_Ba(WO3)6
_symmetry_space_group_name_H-M   'P 1'
_cell_length_a   8.98804035
_cell_length_b   10.93342880
_cell_length_c   7.76115874
_cell_angle_alpha   69.21097189
_cell_angle_beta   90.00000000
_cell_angle_gamma   89.98707600
_symmetry_Int_Tables_number   1
_chemical_formula_structural   Ba(WO3)6
_chemical_formula_sum   'Ba2 W12 O36'
_cell_volume   713.03387481
_cell_formula_units_Z   2
loop_
 _symmetry_equiv_pos_site_id
 _symmetry_equiv_pos_as_xyz
  1  'x, y, z'
loop_
 _atom_site_type_symbol
 _atom_site_label
 _atom_site_symmetry_multiplicity
 _atom_site_fract_x
 _atom_site_fract_y
 _atom_site_fract_z
 _atom_site_occupancy
  Ba  Ba0  1  0.91462009  0.74843520  0.87578290  1
  Ba  Ba1  1  0.08537991  0.25156480  0.12421710  1
  W  W2  1  0.79365296  0.06362478  0.46871918  1
  W  W3  1  0.79343719  0.43622741  0.28463465  1
  W  W4  1  0.79365296  0.06362478  0.96765704  1
  W  W5  1  0.79343719  0.43622741  0.77913794  1
  W  W6  1  0.56702553  0.75014071  0.12666172  1
  W  W7  1  0.56702553  0.75014071  0.62319757  1
  W  W8  1  0.43297447  0.24985929  0.87333828  1
  W  W9  1  0.43297447  0.24985929  0.37680243  1
  W  W10  1  0.20656281  0.56377259  0.22086206  1
  W  W11  1  0.20634704  0.93637522  0.53128082  1
  W  W12  1  0.20634704  0.93637522  0.03234296  1
  W  W13  1  0.20656281  0.56377259  0.71536535  1
  O  O14  1  0.85512839  0.25006606  0.37424563  1
  O  O15  1  0.85512839  0.25006606  0.87568832  1
  O  O16  1  0.80156468  0.06694953  0.21652473  1
  O  O17  1  0.79776198  0.06139845  0.71930077  1
  O  O18  1  0.79613498  0.43696442  0.53151729  1
  O  O19  1  0.80316541  0.43492808  0.03253596  1
  O  O20  1  0.72351115  0.61591675  0.18791765  1
  O  O21  1  0.72351115  0.61591675  0.69616560  1
  O  O22  1  0.72356998  0.88399593  0.56043328  1
  O  O23  1  0.72356998  0.88399593  0.05557180  1
  O  O24  1  0.59054107  0.37825910  0.31133905  1
  O  O25  1  0.57516787  0.75020233  0.87489834  1
  O  O26  1  0.57080329  0.74976115  0.37511892  1
  O  O27  1  0.59048135  0.12178591  0.43887276  1
  O  O28  1  0.59048135  0.12178591  0.93934134  1
  O  O29  1  0.59054107  0.37825910  0.81040185  1
  O  O30  1  0.42919671  0.25023885  0.62488108  1
  O  O31  1  0.42483213  0.24979667  0.12510166  1
  O  O32  1  0.40945893  0.62174090  0.68866095  1
  O  O33  1  0.40951865  0.87821409  0.56112724  1
  O  O34  1  0.40945893  0.62174090  0.18959815  1
  O  O35  1  0.40951865  0.87821409  0.06065866  1
  O  O36  1  0.27643002  0.11600407  0.43956672  1
  O  O37  1  0.27648885  0.38408325  0.30383440  1
  O  O38  1  0.27643002  0.11600407  0.94442820  1
  O  O39  1  0.27648885  0.38408325  0.81208235  1
  O  O40  1  0.20223802  0.93860155  0.28069923  1
  O  O41  1  0.19683459  0.56507192  0.96746404  1
  O  O42  1  0.20386502  0.56303558  0.46848271  1
  O  O43  1  0.19843532  0.93305047  0.78347527  1
  O  O44  1  0.14487161  0.74993394  0.12431168  1
  O  O45  1  0.14487161  0.74993394  0.62575437  1
  O  O46  1  0.00000000  0.00000000  0.50000000  1
  O  O47  1  0.00000000  0.50000000  0.75354138  1
  O  O48  1  0.00000000  0.00000000  0.00000000  1
  O  O49  1  0.00000000  0.50000000  0.24645862  1
