# generated using pymatgen
data_Sr2LiSc(B2O5)2
_symmetry_space_group_name_H-M   'P 1'
_cell_length_a   5.27331841
_cell_length_b   12.75864477
_cell_length_c   13.86952066
_cell_angle_alpha   117.05497827
_cell_angle_beta   90.00000000
_cell_angle_gamma   90.00000000
_symmetry_Int_Tables_number   1
_chemical_formula_structural   Sr2LiSc(B2O5)2
_chemical_formula_sum   'Sr8 Li4 Sc4 B16 O40'
_cell_volume   831.03304172
_cell_formula_units_Z   4
loop_
 _symmetry_equiv_pos_site_id
 _symmetry_equiv_pos_as_xyz
  1  'x, y, z'
loop_
 _atom_site_type_symbol
 _atom_site_label
 _atom_site_symmetry_multiplicity
 _atom_site_fract_x
 _atom_site_fract_y
 _atom_site_fract_z
 _atom_site_occupancy
  Li  Li0  1  0.89700282  0.87851187  0.40047871  1
  Li  Li1  1  0.60299718  0.37851187  0.90047871  1
  Li  Li2  1  0.10299718  0.12148813  0.59952129  1
  Li  Li3  1  0.39700282  0.62148813  0.09952129  1
  B  B4  1  0.63909836  0.10150298  0.70569024  1
  B  B5  1  0.89097149  0.59254523  0.44946054  1
  B  B6  1  0.60902851  0.09254523  0.94946054  1
  B  B7  1  0.10902851  0.40745477  0.55053946  1
  B  B8  1  0.36090164  0.89849702  0.29430976  1
  B  B9  1  0.86090164  0.60150298  0.20569024  1
  B  B10  1  0.39097149  0.90745477  0.05053946  1
  B  B11  1  0.13909836  0.39849702  0.79430976  1
  B  B12  1  0.07991023  0.42275634  0.05066852  1
  B  B13  1  0.57991023  0.07724366  0.44933148  1
  B  B14  1  0.42008977  0.92275634  0.55066852  1
  B  B15  1  0.92008977  0.57724366  0.94933148  1
  B  B16  1  0.55942024  0.08436808  0.22836884  1
  B  B17  1  0.05942024  0.41563192  0.27163116  1
  B  B18  1  0.44057976  0.91563192  0.77163116  1
  B  B19  1  0.94057976  0.58436808  0.72836884  1
  O  O20  1  0.40856159  0.78874850  0.21553799  1
  O  O21  1  0.42673962  0.03792953  0.63887488  1
  O  O22  1  0.07326038  0.53792953  0.13887488  1
  O  O23  1  0.57326038  0.96207047  0.36112512  1
  O  O24  1  0.78836602  0.13282784  0.27354301  1
  O  O25  1  0.28836602  0.36717216  0.22645699  1
  O  O26  1  0.21163398  0.86717216  0.72645699  1
  O  O27  1  0.71163398  0.63282784  0.77354301  1
  O  O28  1  0.09143841  0.28874850  0.71553799  1
  O  O29  1  0.92673962  0.46207047  0.86112512  1
  O  O30  1  0.59143841  0.21125150  0.78446201  1
  O  O31  1  0.90856159  0.71125150  0.28446201  1
  O  O32  1  0.83857361  0.35569740  0.22899646  1
  O  O33  1  0.33857361  0.14430260  0.27100354  1
  O  O34  1  0.16142639  0.64430260  0.77100354  1
  O  O35  1  0.66142639  0.85569740  0.72899646  1
  O  O36  1  0.81473153  0.11749616  0.49421767  1
  O  O37  1  0.31473153  0.38250384  0.00578233  1
  O  O38  1  0.18526847  0.88250384  0.50578233  1
  O  O39  1  0.68526847  0.61749616  0.99421767  1
  O  O40  1  0.99743518  0.31848706  0.46122068  1
  O  O41  1  0.49743518  0.18151294  0.03877932  1
  O  O42  1  0.00256482  0.68151294  0.53877932  1
  O  O43  1  0.50256482  0.81848706  0.96122068  1
  O  O44  1  0.37330441  0.45169487  0.81466927  1
  O  O45  1  0.87330441  0.04830513  0.68533073  1
  O  O46  1  0.62669559  0.54830513  0.18533073  1
  O  O47  1  0.12669559  0.95169487  0.31466927  1
  O  O48  1  0.36006142  0.43238092  0.56050444  1
  O  O49  1  0.86006142  0.06761908  0.93949556  1
  O  O50  1  0.63993858  0.56761908  0.43949556  1
  O  O51  1  0.13993858  0.93238092  0.06050444  1
  O  O52  1  0.36904837  0.14688590  0.48751677  1
  O  O53  1  0.86904837  0.35311410  0.01248323  1
  O  O54  1  0.57040106  0.97591526  0.13377210  1
  O  O55  1  0.13095163  0.64688590  0.98751677  1
  O  O56  1  0.92959894  0.47591526  0.63377210  1
  O  O57  1  0.42959894  0.02408474  0.86622790  1
  O  O58  1  0.07040106  0.52408474  0.36622790  1
  O  O59  1  0.63095163  0.85311410  0.51248323  1
  Sc  Sc60  1  0.93108523  0.86510344  0.61731342  1
  Sc  Sc61  1  0.43108523  0.63489656  0.88268658  1
  Sc  Sc62  1  0.06891477  0.13489656  0.38268658  1
  Sc  Sc63  1  0.56891477  0.36510344  0.11731342  1
  Sr  Sr64  1  0.06732077  0.15177969  0.12361645  1
  Sr  Sr65  1  0.43267923  0.65177969  0.62361645  1
  Sr  Sr66  1  0.93267923  0.84822031  0.87638355  1
  Sr  Sr67  1  0.56732077  0.34822031  0.37638355  1
  Sr  Sr68  1  0.88307926  0.81825473  0.14916581  1
  Sr  Sr69  1  0.38307926  0.68174527  0.35083419  1
  Sr  Sr70  1  0.11692074  0.18174527  0.85083419  1
  Sr  Sr71  1  0.61692074  0.31825473  0.64916581  1
