# generated using pymatgen
data_Rb5SiHO5
_symmetry_space_group_name_H-M   'P 1'
_cell_length_a   6.62367489
_cell_length_b   6.62367489
_cell_length_c   12.15617459
_cell_angle_alpha   99.05586546
_cell_angle_beta   99.05586546
_cell_angle_gamma   111.21528300
_symmetry_Int_Tables_number   1
_chemical_formula_structural   Rb5SiHO5
_chemical_formula_sum   'Rb10 Si2 H2 O10'
_cell_volume   477.49146980
_cell_formula_units_Z   2
loop_
 _symmetry_equiv_pos_site_id
 _symmetry_equiv_pos_as_xyz
  1  'x, y, z'
loop_
 _atom_site_type_symbol
 _atom_site_label
 _atom_site_symmetry_multiplicity
 _atom_site_fract_x
 _atom_site_fract_y
 _atom_site_fract_z
 _atom_site_occupancy
  Rb  Rb0  1  0.26937222  0.26937222  0.02927991  1
  Rb  Rb1  1  0.60545987  0.08685059  0.19854157  1
  Rb  Rb2  1  0.08685059  0.60545987  0.19854157  1
  Rb  Rb3  1  0.78706752  0.78706752  0.39605054  1
  Rb  Rb4  1  0.69247595  0.30752405  0.50000000  1
  Rb  Rb5  1  0.30752405  0.69247595  0.50000000  1
  Rb  Rb6  1  0.21293248  0.21293248  0.60394846  1
  Rb  Rb7  1  0.91314841  0.39454013  0.80145843  1
  Rb  Rb8  1  0.39454013  0.91314841  0.80145843  1
  Rb  Rb9  1  0.73062678  0.73062678  0.97071909  1
  Si  Si10  1  0.17119643  0.17119643  0.30425612  1
  Si  Si11  1  0.82880357  0.82880357  0.69574388  1
  H  H12  1  0.78803477  0.21196423  0.00000000  1
  H  H13  1  0.21196423  0.78803477  0.00000000  1
  O  O14  1  0.69857447  0.30142453  0.00000000  1
  O  O15  1  0.30142453  0.69857447  0.00000000  1
  O  O16  1  0.02271640  0.02271640  0.17320808  1
  O  O17  1  0.39169640  0.39169640  0.29784494  1
  O  O18  1  0.25572632  0.00632721  0.37464123  1
  O  O19  1  0.00632721  0.25572632  0.37464123  1
  O  O20  1  0.99367279  0.74427268  0.62535877  1
  O  O21  1  0.74427268  0.99367279  0.62535877  1
  O  O22  1  0.60830360  0.60830360  0.70215506  1
  O  O23  1  0.97728360  0.97728360  0.82679192  1
