# generated using pymatgen
data_CsSmO2
_symmetry_space_group_name_H-M   'P 1'
_cell_length_a   3.65310551
_cell_length_b   3.65310551
_cell_length_c   13.83596678
_cell_angle_alpha   90.00000000
_cell_angle_beta   90.00000000
_cell_angle_gamma   120.00000010
_symmetry_Int_Tables_number   1
_chemical_formula_structural   CsSmO2
_chemical_formula_sum   'Cs2 Sm2 O4'
_cell_volume   159.90593139
_cell_formula_units_Z   2
loop_
 _symmetry_equiv_pos_site_id
 _symmetry_equiv_pos_as_xyz
  1  'x, y, z'
loop_
 _atom_site_type_symbol
 _atom_site_label
 _atom_site_symmetry_multiplicity
 _atom_site_fract_x
 _atom_site_fract_y
 _atom_site_fract_z
 _atom_site_occupancy
  O  O0  1  0.33333333  0.66666667  0.08407950  1
  O  O1  1  0.66666667  0.33333333  0.58407950  1
  O  O2  1  0.33333333  0.66666667  0.41592050  1
  O  O3  1  0.66666667  0.33333333  0.91592050  1
  Cs  Cs4  1  0.33333333  0.66666667  0.75000000  1
  Cs  Cs5  1  0.66666667  0.33333333  0.25000000  1
  Sm  Sm6  1  0.00000000  0.00000000  0.50000000  1
  Sm  Sm7  1  0.00000000  0.00000000  0.00000000  1
