# generated using pymatgen
data_KNa3V2(MoO6)2
_symmetry_space_group_name_H-M   'P 1'
_cell_length_a   7.79587805
_cell_length_b   7.79587805
_cell_length_c   7.84744182
_cell_angle_alpha   90.00000000
_cell_angle_beta   90.00000000
_cell_angle_gamma   89.89774071
_symmetry_Int_Tables_number   1
_chemical_formula_structural   KNa3V2(MoO6)2
_chemical_formula_sum   'K2 Na6 V4 Mo4 O24'
_cell_volume   476.93312506
_cell_formula_units_Z   2
loop_
 _symmetry_equiv_pos_site_id
 _symmetry_equiv_pos_as_xyz
  1  'x, y, z'
loop_
 _atom_site_type_symbol
 _atom_site_label
 _atom_site_symmetry_multiplicity
 _atom_site_fract_x
 _atom_site_fract_y
 _atom_site_fract_z
 _atom_site_occupancy
  K  K0  1  0.25431851  0.74568149  0.25662794  1
  K  K1  1  0.74568149  0.25431851  0.25662794  1
  Na  Na2  1  0.26267402  0.26267402  0.26858631  1
  Na  Na3  1  0.26236760  0.26236760  0.73116925  1
  Na  Na4  1  0.26247051  0.73752949  0.73118584  1
  Na  Na5  1  0.73752949  0.26247051  0.73118584  1
  Na  Na6  1  0.73732598  0.73732598  0.26858631  1
  Na  Na7  1  0.73763240  0.73763240  0.73116925  1
  V  V8  1  -0.00000000  0.50000000  0.50213779  1
  V  V9  1  0.50000000  -0.00000000  0.50213779  1
  V  V10  1  0.50000000  0.50000000  0.97730115  1
  V  V11  1  0.50000000  0.50000000  0.48469158  1
  Mo  Mo12  1  -0.00000000  -0.00000000  -0.00001251  1
  Mo  Mo13  1  0.00000000  -0.00000000  0.50342510  1
  Mo  Mo14  1  -0.00000000  0.50000000  0.99905609  1
  Mo  Mo15  1  0.50000000  -0.00000000  0.99905609  1
  O  O16  1  0.24627422  0.00026175  0.99829693  1
  O  O17  1  0.24426494  0.00074114  0.50363823  1
  O  O18  1  0.24797593  0.49808604  0.99950683  1
  O  O19  1  0.24017420  0.49723673  0.50731512  1
  O  O20  1  0.75372578  0.99973825  0.99829693  1
  O  O21  1  0.75573506  0.99925886  0.50363823  1
  O  O22  1  0.75202407  0.50191396  0.99950683  1
  O  O23  1  0.75982580  0.50276327  0.50731512  1
  O  O24  1  0.00026175  0.24627422  0.99829693  1
  O  O25  1  0.00074114  0.24426494  0.50363823  1
  O  O26  1  0.99973825  0.75372578  0.99829693  1
  O  O27  1  0.99925886  0.75573506  0.50363823  1
  O  O28  1  0.49808604  0.24797593  0.99950683  1
  O  O29  1  0.49723673  0.24017420  0.50731512  1
  O  O30  1  0.50191396  0.75202407  0.99950683  1
  O  O31  1  0.50276327  0.75982580  0.50731512  1
  O  O32  1  0.00000000  0.00000000  0.24583466  1
  O  O33  1  -0.00000000  -0.00000000  0.75567693  1
  O  O34  1  0.00000000  0.50000000  0.24320245  1
  O  O35  1  -0.00000000  0.50000000  0.75823523  1
  O  O36  1  0.50000000  0.00000000  0.24320245  1
  O  O37  1  0.50000000  -0.00000000  0.75823523  1
  O  O38  1  0.50000000  0.50000000  0.26266069  1
  O  O39  1  0.50000000  0.50000000  0.75499219  1
