# generated using pymatgen
data_SmB4
_symmetry_space_group_name_H-M   'P 1'
_cell_length_a   4.08152117
_cell_length_b   7.18655747
_cell_length_c   7.18655747
_cell_angle_alpha   90.00000000
_cell_angle_beta   90.00000000
_cell_angle_gamma   90.00000000
_symmetry_Int_Tables_number   1
_chemical_formula_structural   SmB4
_chemical_formula_sum   'Sm4 B16'
_cell_volume   210.79672501
_cell_formula_units_Z   4
loop_
 _symmetry_equiv_pos_site_id
 _symmetry_equiv_pos_as_xyz
  1  'x, y, z'
loop_
 _atom_site_type_symbol
 _atom_site_label
 _atom_site_symmetry_multiplicity
 _atom_site_fract_x
 _atom_site_fract_y
 _atom_site_fract_z
 _atom_site_occupancy
  B  B0  1  0.50000000  0.46118409  0.32506058  1
  B  B1  1  0.50000000  0.53881591  0.67493942  1
  B  B2  1  0.50000000  0.32506058  0.53881591  1
  B  B3  1  0.50000000  0.67493942  0.46118409  1
  B  B4  1  0.20408911  0.00000000  0.00000000  1
  B  B5  1  0.79591089  0.50000000  0.50000000  1
  B  B6  1  0.79591089  0.00000000  0.00000000  1
  B  B7  1  0.20408911  0.50000000  0.50000000  1
  B  B8  1  0.50000000  0.08763884  0.58763884  1
  B  B9  1  0.50000000  0.41236116  0.08763884  1
  B  B10  1  0.50000000  0.58763884  0.91236116  1
  B  B11  1  0.50000000  0.91236116  0.41236116  1
  B  B12  1  0.50000000  0.17493942  0.03881591  1
  B  B13  1  0.50000000  0.96118409  0.17493942  1
  B  B14  1  0.50000000  0.03881591  0.82506058  1
  B  B15  1  0.50000000  0.82506058  0.96118409  1
  Sm  Sm16  1  0.00000000  0.68279690  0.18279690  1
  Sm  Sm17  1  0.00000000  0.81720310  0.68279690  1
  Sm  Sm18  1  0.00000000  0.18279690  0.31720310  1
  Sm  Sm19  1  0.00000000  0.31720310  0.81720310  1
