# generated using pymatgen
data_Ba2GdB2ClO6
_symmetry_space_group_name_H-M   'P 1'
_cell_length_a   6.53377627
_cell_length_b   5.38648179
_cell_length_c   11.52362586
_cell_angle_alpha   90.00000000
_cell_angle_beta   95.81834100
_cell_angle_gamma   90.00000000
_symmetry_Int_Tables_number   1
_chemical_formula_structural   Ba2GdB2ClO6
_chemical_formula_sum   'Ba4 Gd2 B4 Cl2 O12'
_cell_volume   403.47392294
_cell_formula_units_Z   2
loop_
 _symmetry_equiv_pos_site_id
 _symmetry_equiv_pos_as_xyz
  1  'x, y, z'
loop_
 _atom_site_type_symbol
 _atom_site_label
 _atom_site_symmetry_multiplicity
 _atom_site_fract_x
 _atom_site_fract_y
 _atom_site_fract_z
 _atom_site_occupancy
  Ba  Ba0  1  0.09803843  0.25000100  0.70838674  1
  Ba  Ba1  1  0.90196208  0.75000200  0.29161456  1
  Ba  Ba2  1  0.33834559  0.25000100  0.07317234  1
  Ba  Ba3  1  0.66165450  0.75000200  0.92682799  1
  Gd  Gd4  1  0.34199188  0.25000100  0.41085022  1
  Gd  Gd5  1  0.65800712  0.75000200  0.58915036  1
  B  B6  1  0.37174788  0.75000200  0.22226276  1
  B  B7  1  0.62825220  0.25000100  0.77773738  1
  B  B8  1  0.78652908  0.25000100  0.42447243  1
  B  B9  1  0.21346940  0.75000200  0.57552794  1
  Cl  Cl10  1  0.84819631  0.25000100  0.08312014  1
  Cl  Cl11  1  0.15180332  0.75000200  0.91687879  1
  O  O12  1  0.28540582  0.52931775  0.25822084  1
  O  O13  1  0.71459450  0.02931775  0.74177940  1
  O  O14  1  0.71459450  0.47068125  0.74177940  1
  O  O15  1  0.28540582  0.97068125  0.25822084  1
  O  O16  1  0.67426838  0.46940599  0.43257217  1
  O  O17  1  0.32573076  0.96940567  0.56742836  1
  O  O18  1  0.32573076  0.53059333  0.56742836  1
  O  O19  1  0.67426838  0.03059301  0.43257217  1
  O  O20  1  0.98707077  0.25000100  0.40235730  1
  O  O21  1  0.01292810  0.75000200  0.59764278  1
  O  O22  1  0.52307612  0.75000200  0.14662666  1
  O  O23  1  0.47692330  0.25000100  0.85337307  1
