# generated using pymatgen
data_TmPaRu2
_symmetry_space_group_name_H-M   'P 1'
_cell_length_a   4.81893044
_cell_length_b   4.81894245
_cell_length_c   4.81893876
_cell_angle_alpha   59.99983642
_cell_angle_beta   59.99999413
_cell_angle_gamma   59.99996869
_symmetry_Int_Tables_number   1
_chemical_formula_structural   TmPaRu2
_chemical_formula_sum   'Tm1 Pa1 Ru2'
_cell_volume   79.12945006
_cell_formula_units_Z   1
loop_
 _symmetry_equiv_pos_site_id
 _symmetry_equiv_pos_as_xyz
  1  'x, y, z'
loop_
 _atom_site_type_symbol
 _atom_site_label
 _atom_site_symmetry_multiplicity
 _atom_site_fract_x
 _atom_site_fract_y
 _atom_site_fract_z
 _atom_site_occupancy
  Tm  Tm0  1  0.75000011  0.75000031  0.74999973  1
  Pa  Pa1  1  0.24999997  0.24999951  0.25000002  1
  Ru  Ru2  1  0.99999912  0.00000014  0.99999970  1
  Ru  Ru3  1  0.50000080  0.50000004  0.50000055  1
