# generated using pymatgen
data_CsAg2AsS3
_symmetry_space_group_name_H-M   'P 1'
_cell_length_a   10.24471000
_cell_length_b   8.52191783
_cell_length_c   9.58637081
_cell_angle_alpha   90.00000000
_cell_angle_beta   108.25479222
_cell_angle_gamma   90.00000000
_symmetry_Int_Tables_number   1
_chemical_formula_structural   CsAg2AsS3
_chemical_formula_sum   'Cs4 Ag8 As4 S12'
_cell_volume   794.81360813
_cell_formula_units_Z   4
loop_
 _symmetry_equiv_pos_site_id
 _symmetry_equiv_pos_as_xyz
  1  'x, y, z'
loop_
 _atom_site_type_symbol
 _atom_site_label
 _atom_site_symmetry_multiplicity
 _atom_site_fract_x
 _atom_site_fract_y
 _atom_site_fract_z
 _atom_site_occupancy
  Cs  Cs0  1  0.08400754  0.06546861  0.75310911  1
  Cs  Cs1  1  0.91599246  0.56546861  0.74689089  1
  Cs  Cs2  1  0.91599246  0.93453039  0.24689089  1
  Cs  Cs3  1  0.08400854  0.43453139  0.25310911  1
  Ag  Ag4  1  0.44449306  0.24014763  0.06638243  1
  Ag  Ag5  1  0.55550594  0.74014763  0.43361857  1
  Ag  Ag6  1  0.55550594  0.75985237  0.93361857  1
  Ag  Ag7  1  0.44449406  0.25985237  0.56638243  1
  Ag  Ag8  1  0.67343599  0.02565755  0.78323701  1
  Ag  Ag9  1  0.32656501  0.52565955  0.71676399  1
  Ag  Ag10  1  0.32656401  0.97434145  0.21676399  1
  Ag  Ag11  1  0.67343499  0.47434145  0.28323701  1
  As  As12  1  0.34840494  0.86183508  0.55591132  1
  As  As13  1  0.65159506  0.36183308  0.94408768  1
  As  As14  1  0.65159406  0.13816592  0.44408768  1
  As  As15  1  0.34840594  0.63816592  0.05591132  1
  S  S16  1  0.43241905  0.97891664  0.78669004  1
  S  S17  1  0.56758095  0.47891764  0.71330996  1
  S  S18  1  0.56757995  0.02108236  0.21330996  1
  S  S19  1  0.43242005  0.52108236  0.28669004  1
  S  S20  1  0.83672740  0.22381687  0.93821373  1
  S  S21  1  0.16327360  0.72381587  0.56178527  1
  S  S22  1  0.16327260  0.77618313  0.06178527  1
  S  S23  1  0.83672740  0.27618413  0.43821373  1
  S  S24  1  0.25350479  0.08871602  0.43121589  1
  S  S25  1  0.74649421  0.58871502  0.06878311  1
  S  S26  1  0.74649421  0.91128398  0.56878311  1
  S  S27  1  0.25350479  0.41128498  0.93121589  1
