# generated using pymatgen
data_PrB2HF10
_symmetry_space_group_name_H-M   'P 1'
_cell_length_a   7.14033878
_cell_length_b   5.93216527
_cell_length_c   8.86096705
_cell_angle_alpha   90.00000000
_cell_angle_beta   112.33003499
_cell_angle_gamma   90.00000000
_symmetry_Int_Tables_number   1
_chemical_formula_structural   PrB2HF10
_chemical_formula_sum   'Pr2 B4 H2 F20'
_cell_volume   347.18417949
_cell_formula_units_Z   2
loop_
 _symmetry_equiv_pos_site_id
 _symmetry_equiv_pos_as_xyz
  1  'x, y, z'
loop_
 _atom_site_type_symbol
 _atom_site_label
 _atom_site_symmetry_multiplicity
 _atom_site_fract_x
 _atom_site_fract_y
 _atom_site_fract_z
 _atom_site_occupancy
  Pr  Pr0  1  0.76816534  0.25000000  0.34212742  1
  Pr  Pr1  1  0.23183466  0.75000000  0.65787258  1
  B  B2  1  0.74768036  0.75000000  0.04886432  1
  B  B3  1  0.41825476  0.75000000  0.30608397  1
  B  B4  1  0.58174524  0.25000000  0.69391703  1
  B  B5  1  0.25232064  0.25000000  0.95113568  1
  H  H6  1  0.07065368  0.25000000  0.14972985  1
  H  H7  1  0.92934632  0.75000000  0.85026915  1
  F  F8  1  0.92443551  0.75000000  0.01317841  1
  F  F9  1  0.42438676  0.25000000  0.09825525  1
  F  F10  1  0.33528302  0.75000000  0.13899209  1
  F  F11  1  0.74699322  0.55586867  0.14191238  1
  F  F12  1  0.74699322  0.94413233  0.14191238  1
  F  F13  1  0.06476024  0.25000000  0.25840216  1
  F  F14  1  0.27057452  0.75000000  0.37760749  1
  F  F15  1  0.54529056  0.55468844  0.36582745  1
  F  F16  1  0.54529056  0.94531056  0.36582745  1
  F  F17  1  0.00000000  0.00000000  0.50000000  1
  F  F18  1  0.00000000  0.50000000  0.50000000  1
  F  F19  1  0.45470944  0.05468844  0.63417155  1
  F  F20  1  0.45470944  0.44531056  0.63417155  1
  F  F21  1  0.72942448  0.25000000  0.62239151  1
  F  F22  1  0.93523976  0.75000000  0.74159784  1
  F  F23  1  0.25300678  0.05586867  0.85808762  1
  F  F24  1  0.25300678  0.44413133  0.85808762  1
  F  F25  1  0.66471798  0.25000000  0.86100891  1
  F  F26  1  0.57561324  0.75000000  0.90174375  1
  F  F27  1  0.07556449  0.25000000  0.98682159  1
