# generated using pymatgen
data_V3S4
_symmetry_space_group_name_H-M   'P 1'
_cell_length_a   9.08517365
_cell_length_b   9.08517365
_cell_length_c   3.25618885
_cell_angle_alpha   90.00000000
_cell_angle_beta   90.00000000
_cell_angle_gamma   119.99999996
_symmetry_Int_Tables_number   1
_chemical_formula_structural   V3S4
_chemical_formula_sum   'V6 S8'
_cell_volume   232.75910676
_cell_formula_units_Z   2
loop_
 _symmetry_equiv_pos_site_id
 _symmetry_equiv_pos_as_xyz
  1  'x, y, z'
loop_
 _atom_site_type_symbol
 _atom_site_label
 _atom_site_symmetry_multiplicity
 _atom_site_fract_x
 _atom_site_fract_y
 _atom_site_fract_z
 _atom_site_occupancy
  S  S0  1  0.66666667  0.33333333  0.75000000  1
  S  S1  1  0.33333333  0.66666667  0.25000000  1
  S  S2  1  0.65346864  0.70485902  0.75000000  1
  S  S3  1  0.94860963  0.65346864  0.25000000  1
  S  S4  1  0.70485902  0.05139037  0.25000000  1
  S  S5  1  0.29514098  0.94860963  0.75000000  1
  S  S6  1  0.34653136  0.29514098  0.25000000  1
  S  S7  1  0.05139037  0.34653136  0.75000000  1
  V  V8  1  0.51073444  0.88071858  0.75000000  1
  V  V9  1  0.63001587  0.51073444  0.25000000  1
  V  V10  1  0.88071858  0.36998413  0.25000000  1
  V  V11  1  0.11928142  0.63001587  0.75000000  1
  V  V12  1  0.36998413  0.48926556  0.75000000  1
  V  V13  1  0.48926556  0.11928142  0.25000000  1
