# generated using pymatgen
data_Na(Cu2Sb)2
_symmetry_space_group_name_H-M   'P 1'
_cell_length_a   8.77912233
_cell_length_b   8.77912233
_cell_length_c   8.77912232
_cell_angle_alpha   28.23713195
_cell_angle_beta   28.23713194
_cell_angle_gamma   28.23713193
_symmetry_Int_Tables_number   1
_chemical_formula_structural   Na(Cu2Sb)2
_chemical_formula_sum   'Na1 Cu4 Sb2'
_cell_volume   133.82045759
_cell_formula_units_Z   1
loop_
 _symmetry_equiv_pos_site_id
 _symmetry_equiv_pos_as_xyz
  1  'x, y, z'
loop_
 _atom_site_type_symbol
 _atom_site_label
 _atom_site_symmetry_multiplicity
 _atom_site_fract_x
 _atom_site_fract_y
 _atom_site_fract_z
 _atom_site_occupancy
  Na  Na0  1  0.00000000  0.00000000  0.00000000  1
  Cu  Cu1  1  0.14250875  0.14250875  0.14250875  1
  Cu  Cu2  1  0.85749125  0.85749125  0.85749125  1
  Cu  Cu3  1  0.44943265  0.44943265  0.44943265  1
  Cu  Cu4  1  0.55056735  0.55056735  0.55056735  1
  Sb  Sb5  1  0.24936968  0.24936968  0.24936968  1
  Sb  Sb6  1  0.75063032  0.75063032  0.75063032  1
