# generated using pymatgen
data_KGeBiS4
_symmetry_space_group_name_H-M   'P 1'
_cell_length_a   6.65127116
_cell_length_b   6.80733226
_cell_length_c   17.38548326
_cell_angle_alpha   90.00000000
_cell_angle_beta   108.04384073
_cell_angle_gamma   90.00000000
_symmetry_Int_Tables_number   1
_chemical_formula_structural   KGeBiS4
_chemical_formula_sum   'K4 Ge4 Bi4 S16'
_cell_volume   748.45652932
_cell_formula_units_Z   4
loop_
 _symmetry_equiv_pos_site_id
 _symmetry_equiv_pos_as_xyz
  1  'x, y, z'
loop_
 _atom_site_type_symbol
 _atom_site_label
 _atom_site_symmetry_multiplicity
 _atom_site_fract_x
 _atom_site_fract_y
 _atom_site_fract_z
 _atom_site_occupancy
  K  K0  1  0.28065760  0.74124596  0.03616646  1
  K  K1  1  0.71934821  0.24125307  0.46383496  1
  K  K2  1  0.71934821  0.25874593  0.96383396  1
  K  K3  1  0.28065760  0.75875504  0.53616546  1
  Ge  Ge4  1  0.20633909  0.26003889  0.15586215  1
  Ge  Ge5  1  0.79366083  0.76004119  0.34413905  1
  Ge  Ge6  1  0.79365983  0.73996081  0.84413905  1
  Ge  Ge7  1  0.20634009  0.23996011  0.65586115  1
  Bi  Bi8  1  0.23958271  0.70470994  0.28161081  1
  Bi  Bi9  1  0.76041704  0.20471087  0.21838899  1
  Bi  Bi10  1  0.76041704  0.29529013  0.71838899  1
  Bi  Bi11  1  0.23958171  0.79528906  0.78161081  1
  S  S12  1  0.99891658  0.49518336  0.35967260  1
  S  S13  1  0.00108360  0.99518605  0.14032644  1
  S  S14  1  0.00108460  0.50481595  0.64032744  1
  S  S15  1  0.99891658  0.00481564  0.85967260  1
  S  S16  1  0.41563176  0.24622588  0.07836846  1
  S  S17  1  0.58436684  0.74622624  0.42163265  1
  S  S18  1  0.58436684  0.75377476  0.92163165  1
  S  S19  1  0.41563176  0.25377312  0.57836846  1
  S  S20  1  0.02491152  0.00386650  0.36767472  1
  S  S21  1  0.97508735  0.50386661  0.13232397  1
  S  S22  1  0.97508635  0.99613439  0.63232397  1
  S  S23  1  0.02491252  0.49613450  0.86767572  1
  S  S24  1  0.41568708  0.32103908  0.28275528  1
  S  S25  1  0.58431281  0.82103983  0.21724445  1
  S  S26  1  0.58431381  0.67896017  0.71724445  1
  S  S27  1  0.41568808  0.17896092  0.78275528  1
