# generated using pymatgen
data_K3Na5V3Mo5O24
_symmetry_space_group_name_H-M   'P 1'
_cell_length_a   7.84996780
_cell_length_b   7.89469708
_cell_length_c   7.85588747
_cell_angle_alpha   89.87784032
_cell_angle_beta   89.97785388
_cell_angle_gamma   89.91800982
_symmetry_Int_Tables_number   1
_chemical_formula_structural   K3Na5V3Mo5O24
_chemical_formula_sum   'K3 Na5 V3 Mo5 O24'
_cell_volume   486.85219932
_cell_formula_units_Z   1
loop_
 _symmetry_equiv_pos_site_id
 _symmetry_equiv_pos_as_xyz
  1  'x, y, z'
loop_
 _atom_site_type_symbol
 _atom_site_label
 _atom_site_symmetry_multiplicity
 _atom_site_fract_x
 _atom_site_fract_y
 _atom_site_fract_z
 _atom_site_occupancy
  K  K0  1  0.25428682  0.73917554  0.25492755  1
  K  K1  1  0.74565959  0.25999107  0.25461356  1
  K  K2  1  0.74535847  0.73881556  0.25494965  1
  Na  Na3  1  0.25800905  0.26985779  0.25803785  1
  Na  Na4  1  0.25797054  0.26992118  0.74231594  1
  Na  Na5  1  0.25802099  0.72973700  0.74258586  1
  Na  Na6  1  0.74189325  0.27027138  0.74242252  1
  Na  Na7  1  0.74192657  0.72954012  0.74246759  1
  V  V8  1  0.00037442  0.49820565  0.50464830  1
  V  V9  1  0.49859299  0.49848195  0.99968045  1
  V  V10  1  0.49814634  0.49882307  0.50778269  1
  Mo  Mo11  1  0.00058239  0.99933034  0.99815542  1
  Mo  Mo12  1  0.00089982  0.00068679  0.50249453  1
  Mo  Mo13  1  0.00098917  0.49748027  0.99744290  1
  Mo  Mo14  1  0.49913580  0.00082488  0.99647472  1
  Mo  Mo15  1  0.49934750  0.00101772  0.50116584  1
  O  O16  1  0.25153460  0.00123588  0.99730937  1
  O  O17  1  0.25052146  0.00144867  0.50373883  1
  O  O18  1  0.24376147  0.49731830  0.99270240  1
  O  O19  1  0.23957357  0.49600544  0.50481849  1
  O  O20  1  0.74781755  0.00142154  0.99634808  1
  O  O21  1  0.74899453  0.00175066  0.50459577  1
  O  O22  1  0.75745441  0.49933058  0.99210246  1
  O  O23  1  0.76185269  0.49902040  0.50797418  1
  O  O24  1  0.00173023  0.24406420  0.99589589  1
  O  O25  1  0.00212344  0.24165545  0.50479207  1
  O  O26  1  0.00098304  0.75575093  0.99518666  1
  O  O27  1  0.00100438  0.75931118  0.50738173  1
  O  O28  1  0.49702602  0.24159124  0.99516865  1
  O  O29  1  0.49659723  0.24123266  0.50556853  1
  O  O30  1  0.49926137  0.75930610  0.99420642  1
  O  O31  1  0.49917390  0.75995368  0.50886093  1
  O  O32  1  0.00177266  0.00156932  0.25290012  1
  O  O33  1  0.00064242  0.00171247  0.74901677  1
  O  O34  1  0.00319864  0.49620041  0.24092131  1
  O  O35  1  0.00203361  0.49921033  0.75498744  1
  O  O36  1  0.49787604  0.00185244  0.25178128  1
  O  O37  1  0.49894722  0.00221008  0.74990522  1
  O  O38  1  0.49580555  0.49542969  0.23486906  1
  O  O39  1  0.49912028  0.49925803  0.75880293  1
