# generated using pymatgen
data_LaInAu2
_symmetry_space_group_name_H-M   'P 1'
_cell_length_a   5.11599106
_cell_length_b   5.11609219
_cell_length_c   5.11608008
_cell_angle_alpha   60.29915619
_cell_angle_beta   60.29828178
_cell_angle_gamma   60.29893650
_symmetry_Int_Tables_number   1
_chemical_formula_structural   LaInAu2
_chemical_formula_sum   'La1 In1 Au2'
_cell_volume   95.32724915
_cell_formula_units_Z   1
loop_
 _symmetry_equiv_pos_site_id
 _symmetry_equiv_pos_as_xyz
  1  'x, y, z'
loop_
 _atom_site_type_symbol
 _atom_site_label
 _atom_site_symmetry_multiplicity
 _atom_site_fract_x
 _atom_site_fract_y
 _atom_site_fract_z
 _atom_site_occupancy
  La  La0  1  0.74998935  0.75000094  0.75000195  1
  In  In1  1  0.24999806  0.25000424  0.24999927  1
  Au  Au2  1  0.50023555  0.50020886  0.50022275  1
  Au  Au3  1  -0.00022196  0.99978696  -0.00022297  1
