# generated using pymatgen
data_Ba4Sb2O9
_symmetry_space_group_name_H-M   'P 1'
_cell_length_a   6.10408280
_cell_length_b   6.10408208
_cell_length_c   17.06238050
_cell_angle_alpha   90.00000000
_cell_angle_beta   90.00000000
_cell_angle_gamma   120.00000389
_symmetry_Int_Tables_number   1
_chemical_formula_structural   Ba4Sb2O9
_chemical_formula_sum   'Ba8 Sb4 O18'
_cell_volume   550.56806694
_cell_formula_units_Z   2
loop_
 _symmetry_equiv_pos_site_id
 _symmetry_equiv_pos_as_xyz
  1  'x, y, z'
loop_
 _atom_site_type_symbol
 _atom_site_label
 _atom_site_symmetry_multiplicity
 _atom_site_fract_x
 _atom_site_fract_y
 _atom_site_fract_z
 _atom_site_occupancy
  Ba  Ba0  1  0.66666700  0.33333300  0.87155541  1
  Ba  Ba1  1  0.33333300  0.66666700  0.12844459  1
  Ba  Ba2  1  0.33333300  0.66666700  0.37155541  1
  Ba  Ba3  1  0.66666700  0.33333300  0.62844459  1
  Ba  Ba4  1  0.00000000  0.00000000  0.50000000  1
  Ba  Ba5  1  0.00000000  0.00000000  0.00000000  1
  Ba  Ba6  1  0.00000000  0.00000000  0.75000000  1
  Ba  Ba7  1  0.00000000  0.00000000  0.25000000  1
  Sb  Sb8  1  0.33333300  0.66666700  0.66303642  1
  Sb  Sb9  1  0.66666700  0.33333300  0.33696358  1
  Sb  Sb10  1  0.66666700  0.33333300  0.16303642  1
  Sb  Sb11  1  0.33333300  0.66666700  0.83696358  1
  O  O12  1  0.17175882  0.34228729  0.88984550  1
  O  O13  1  0.82824118  0.65771271  0.11015450  1
  O  O14  1  0.65771271  0.82947153  0.88984550  1
  O  O15  1  0.34228729  0.17052847  0.11015450  1
  O  O16  1  0.17052847  0.82824118  0.88984550  1
  O  O17  1  0.82947153  0.17175882  0.11015450  1
  O  O18  1  0.82824118  0.65771271  0.38984550  1
  O  O19  1  0.17175882  0.34228729  0.61015450  1
  O  O20  1  0.34228729  0.17052847  0.38984550  1
  O  O21  1  0.65771271  0.82947153  0.61015450  1
  O  O22  1  0.82947153  0.17175882  0.38984550  1
  O  O23  1  0.17052847  0.82824118  0.61015450  1
  O  O24  1  0.52002185  0.03938614  0.25000000  1
  O  O25  1  0.47997815  0.96061386  0.75000000  1
  O  O26  1  0.96061386  0.48063571  0.25000000  1
  O  O27  1  0.03938614  0.51936429  0.75000000  1
  O  O28  1  0.51936429  0.47997815  0.25000000  1
  O  O29  1  0.48063571  0.52002185  0.75000000  1
