# generated using pymatgen
data_Sr3Ca5FeCo7O24
_symmetry_space_group_name_H-M   'P 1'
_cell_length_a   7.61828439
_cell_length_b   7.66564659
_cell_length_c   7.61828439
_cell_angle_alpha   89.99204403
_cell_angle_beta   89.98500227
_cell_angle_gamma   90.00795597
_symmetry_Int_Tables_number   1
_chemical_formula_structural   Sr3Ca5FeCo7O24
_chemical_formula_sum   'Sr3 Ca5 Fe1 Co7 O24'
_cell_volume   444.90074423
_cell_formula_units_Z   1
loop_
 _symmetry_equiv_pos_site_id
 _symmetry_equiv_pos_as_xyz
  1  'x, y, z'
loop_
 _atom_site_type_symbol
 _atom_site_label
 _atom_site_symmetry_multiplicity
 _atom_site_fract_x
 _atom_site_fract_y
 _atom_site_fract_z
 _atom_site_occupancy
  Sr  Sr0  1  0.25017297  0.25202359  0.24998083  1
  Sr  Sr1  1  0.25061014  0.25228472  0.74938986  1
  Sr  Sr2  1  0.75001917  0.25202359  0.74982703  1
  Ca  Ca3  1  0.24914743  0.74732063  0.24904028  1
  Ca  Ca4  1  0.24994968  0.74694344  0.75005032  1
  Ca  Ca5  1  0.75000125  0.25335981  0.24999875  1
  Ca  Ca6  1  0.74996907  0.74669779  0.25003093  1
  Ca  Ca7  1  0.75095972  0.74732063  0.75085257  1
  Fe  Fe8  1  0.99923405  0.99777411  0.00076595  1
  Co  Co9  1  0.99900048  0.99708068  0.49902868  1
  Co  Co10  1  0.99888830  0.50282444  0.00111170  1
  Co  Co11  1  0.99934379  0.50199727  0.49948115  1
  Co  Co12  1  0.50097132  0.99708068  0.00099952  1
  Co  Co13  1  0.50066730  0.99784900  0.49933270  1
  Co  Co14  1  0.50051885  0.50199727  0.00065621  1
  Co  Co15  1  0.50099242  0.50290943  0.49900758  1
  O  O16  1  0.25297036  0.99299159  0.00024360  1
  O  O17  1  0.24749338  0.99395688  0.49831185  1
  O  O18  1  0.24934432  0.50704574  0.99983283  1
  O  O19  1  0.25178269  0.50739700  0.49786313  1
  O  O20  1  0.74647153  0.99429061  0.00343777  1
  O  O21  1  0.75201846  0.99581671  0.49913322  1
  O  O22  1  0.75050348  0.50419541  0.00360802  1
  O  O23  1  0.74851971  0.50539620  0.49772415  1
  O  O24  1  0.99720998  0.25442832  0.00279002  1
  O  O25  1  0.99632800  0.25137956  0.49574901  1
  O  O26  1  0.99846110  0.74423932  0.00153890  1
  O  O27  1  0.99897481  0.74863231  0.49946848  1
  O  O28  1  0.50425099  0.25137956  0.00367200  1
  O  O29  1  0.50354715  0.25276354  0.49645285  1
  O  O30  1  0.50053152  0.74863231  0.00102519  1
  O  O31  1  0.50130118  0.74887771  0.49869882  1
  O  O32  1  0.99656223  0.99429061  0.25352847  1
  O  O33  1  0.99975640  0.99299159  0.74702964  1
  O  O34  1  0.99639198  0.50419541  0.24949652  1
  O  O35  1  0.00016717  0.50704574  0.75065568  1
  O  O36  1  0.50086678  0.99581671  0.24798154  1
  O  O37  1  0.50168815  0.99395688  0.75250662  1
  O  O38  1  0.50227585  0.50539620  0.25148029  1
  O  O39  1  0.50213687  0.50739700  0.74821731  1
