# generated using pymatgen
data_BaNaH3Pd
_symmetry_space_group_name_H-M   'P 1'
_cell_length_a   6.08970287
_cell_length_b   6.08962679
_cell_length_c   6.20974459
_cell_angle_alpha   90.00000000
_cell_angle_beta   90.00000000
_cell_angle_gamma   120.00041331
_symmetry_Int_Tables_number   1
_chemical_formula_structural   BaNaH3Pd
_chemical_formula_sum   'Ba2 Na2 H6 Pd2'
_cell_volume   199.42947284
_cell_formula_units_Z   2
loop_
 _symmetry_equiv_pos_site_id
 _symmetry_equiv_pos_as_xyz
  1  'x, y, z'
loop_
 _atom_site_type_symbol
 _atom_site_label
 _atom_site_symmetry_multiplicity
 _atom_site_fract_x
 _atom_site_fract_y
 _atom_site_fract_z
 _atom_site_occupancy
  Ba  Ba0  1  0.66666613  0.33333127  0.24999900  1
  Ba  Ba1  1  0.33333387  0.66666773  0.75000000  1
  Na  Na2  1  0.00000000  0.00000000  0.00000000  1
  Na  Na3  1  0.00000000  0.00000000  0.50000000  1
  H  H4  1  0.16805533  0.33611166  0.24999900  1
  H  H5  1  0.16806978  0.83193576  0.24999900  1
  H  H6  1  0.66386498  0.83193576  0.24999900  1
  H  H7  1  0.33613402  0.16806424  0.75000000  1
  H  H8  1  0.83192922  0.16806424  0.75000000  1
  H  H9  1  0.83194467  0.66389034  0.75000000  1
  Pd  Pd10  1  0.33332885  0.66665871  0.24999900  1
  Pd  Pd11  1  0.66667015  0.33334129  0.75000000  1
