# generated using pymatgen
data_KGd2CuSe4
_symmetry_space_group_name_H-M   'P 1'
_cell_length_a   4.16606580
_cell_length_b   7.40558066
_cell_length_c   14.50608154
_cell_angle_alpha   90.00000000
_cell_angle_beta   90.00000000
_cell_angle_gamma   73.66346125
_symmetry_Int_Tables_number   1
_chemical_formula_structural   KGd2CuSe4
_chemical_formula_sum   'K2 Gd4 Cu2 Se8'
_cell_volume   429.47452875
_cell_formula_units_Z   2
loop_
 _symmetry_equiv_pos_site_id
 _symmetry_equiv_pos_as_xyz
  1  'x, y, z'
loop_
 _atom_site_type_symbol
 _atom_site_label
 _atom_site_symmetry_multiplicity
 _atom_site_fract_x
 _atom_site_fract_y
 _atom_site_fract_z
 _atom_site_occupancy
  K  K0  1  0.61136583  0.77726633  0.25000000  1
  K  K1  1  0.38863217  0.22273367  0.75000000  1
  Gd  Gd2  1  0.86541529  0.26916642  0.06441064  1
  Gd  Gd3  1  0.86541529  0.26916642  0.43558936  1
  Gd  Gd4  1  0.13458271  0.73083458  0.56441064  1
  Gd  Gd5  1  0.13458271  0.73083458  0.93558936  1
  Cu  Cu6  1  0.33995560  0.32008680  0.25000000  1
  Cu  Cu7  1  0.66004240  0.67991220  0.75000000  1
  Se  Se8  1  0.49999900  0.00000000  0.00000000  1
  Se  Se9  1  0.23445465  0.53108871  0.11324343  1
  Se  Se10  1  0.93533140  0.12933420  0.25000000  1
  Se  Se11  1  0.23445465  0.53108871  0.38675657  1
  Se  Se12  1  0.49999900  0.00000000  0.50000000  1
  Se  Se13  1  0.76554335  0.46891029  0.61324243  1
  Se  Se14  1  0.06466660  0.87066480  0.75000000  1
  Se  Se15  1  0.76554335  0.46891029  0.88675757  1
