# generated using pymatgen
data_CaSnS3
_symmetry_space_group_name_H-M   'P 1'
_cell_length_a   8.62053293
_cell_length_b   8.74589470
_cell_length_c   12.07687584
_cell_angle_alpha   67.71907025
_cell_angle_beta   85.92768522
_cell_angle_gamma   76.28407169
_symmetry_Int_Tables_number   1
_chemical_formula_structural   CaSnS3
_chemical_formula_sum   'Ca6 Sn6 S18'
_cell_volume   818.33640931
_cell_formula_units_Z   6
loop_
 _symmetry_equiv_pos_site_id
 _symmetry_equiv_pos_as_xyz
  1  'x, y, z'
loop_
 _atom_site_type_symbol
 _atom_site_label
 _atom_site_symmetry_multiplicity
 _atom_site_fract_x
 _atom_site_fract_y
 _atom_site_fract_z
 _atom_site_occupancy
  Ca  Ca0  1  0.75835888  0.74782659  0.00265068  1
  Ca  Ca1  1  0.24164112  0.25217341  0.99734932  1
  Ca  Ca2  1  0.60461228  0.90017949  0.36372583  1
  Ca  Ca3  1  0.39538772  0.09982051  0.63627417  1
  Ca  Ca4  1  0.92557105  0.24523831  0.33506827  1
  Ca  Ca5  1  0.07442895  0.75476169  0.66493173  1
  Sn  Sn6  1  0.38850244  0.36013966  0.29797791  1
  Sn  Sn7  1  0.61149756  0.63986034  0.70202209  1
  Sn  Sn8  1  0.26794842  0.76278683  0.00283306  1
  Sn  Sn9  1  0.73205158  0.23721317  0.99716694  1
  Sn  Sn10  1  0.03196637  0.71818512  0.30751489  1
  Sn  Sn11  1  0.96803363  0.28181488  0.69248511  1
  S  S12  1  0.24536648  0.18885978  0.25307171  1
  S  S13  1  0.75463352  0.81114022  0.74692829  1
  S  S14  1  0.60751225  0.17943648  0.43138110  1
  S  S15  1  0.39248775  0.82056352  0.56861890  1
  S  S16  1  0.49680935  0.55643493  0.12688388  1
  S  S17  1  0.50319065  0.44356507  0.87311612  1
  S  S18  1  0.89781463  0.35981636  0.06929644  1
  S  S19  1  0.10218537  0.64018364  0.93070356  1
  S  S20  1  0.59069615  0.02901275  0.11400523  1
  S  S21  1  0.40930385  0.97098725  0.88599477  1
  S  S22  1  0.12867251  0.91591278  0.12855685  1
  S  S23  1  0.87132749  0.08408722  0.87144315  1
  S  S24  1  0.82764494  0.60848462  0.26103679  1
  S  S25  1  0.17235506  0.39151538  0.73896321  1
  S  S26  1  0.92393543  0.88539893  0.42370393  1
  S  S27  1  0.07606457  0.11460107  0.57629607  1
  S  S28  1  0.25659763  0.50614569  0.42665077  1
  S  S29  1  0.74340237  0.49385431  0.57334923  1
