# generated using pymatgen
data_Cs2CoH12(SO7)2
_symmetry_space_group_name_H-M   'P 1'
_cell_length_a   9.36622610
_cell_length_b   12.97873885
_cell_length_c   6.43157289
_cell_angle_alpha   89.99991589
_cell_angle_beta   106.93733910
_cell_angle_gamma   90.00018405
_symmetry_Int_Tables_number   1
_chemical_formula_structural   Cs2CoH12(SO7)2
_chemical_formula_sum   'Cs4 Co2 H24 S4 O28'
_cell_volume   747.92072769
_cell_formula_units_Z   2
loop_
 _symmetry_equiv_pos_site_id
 _symmetry_equiv_pos_as_xyz
  1  'x, y, z'
loop_
 _atom_site_type_symbol
 _atom_site_label
 _atom_site_symmetry_multiplicity
 _atom_site_fract_x
 _atom_site_fract_y
 _atom_site_fract_z
 _atom_site_occupancy
  Cs  Cs0  1  0.63061043  0.14358828  0.35142128  1
  Cs  Cs1  1  0.86939211  0.64358955  0.64857661  1
  Cs  Cs2  1  0.36938832  0.85641002  0.64857890  1
  Cs  Cs3  1  0.13061033  0.35641168  0.35142588  1
  Co  Co4  1  0.50000004  0.50000007  0.99999888  1
  Co  Co5  1  0.00000052  0.99999933  0.00000040  1
  H  H6  1  0.71665161  0.40050486  0.31977711  1
  H  H7  1  0.78335043  0.90050408  0.68022387  1
  H  H8  1  0.28334821  0.59949538  0.68022282  1
  H  H9  1  0.21665069  0.09949584  0.31977677  1
  H  H10  1  0.73783509  0.37024481  0.08461767  1
  H  H11  1  0.76216463  0.87024488  0.91538246  1
  H  H12  1  0.26216507  0.62975539  0.91538292  1
  H  H13  1  0.23783663  0.12975518  0.08461781  1
  H  H14  1  0.22736356  0.40254608  0.93061044  1
  H  H15  1  0.27263651  0.90254592  0.06938792  1
  H  H16  1  0.77263680  0.59745397  0.06938879  1
  H  H17  1  0.72736369  0.09745407  0.93061038  1
  H  H18  1  0.35051751  0.31512504  0.98388497  1
  H  H19  1  0.14948279  0.81512508  0.01611299  1
  H  H20  1  0.64948262  0.68487454  0.01611400  1
  H  H21  1  0.85051736  0.18487566  0.98388559  1
  H  H22  1  0.39782427  0.55814541  0.33128201  1
  H  H23  1  0.10217564  0.05814549  0.66871977  1
  H  H24  1  0.60217580  0.44185450  0.66871832  1
  H  H25  1  0.89782436  0.94185378  0.33128069  1
  H  H26  1  0.51966919  0.63836501  0.31272710  1
  H  H27  1  0.98033119  0.13836487  0.68727322  1
  H  H28  1  0.48033108  0.36163493  0.68727304  1
  H  H29  1  0.01966901  0.86163438  0.31272705  1
  S  S30  1  0.89826937  0.35261376  0.74001916  1
  S  S31  1  0.60173181  0.85261431  0.25998169  1
  S  S32  1  0.10173121  0.64738633  0.25998148  1
  S  S33  1  0.39826582  0.14738580  0.74001985  1
  O  O34  1  0.91831526  0.26238089  0.60775788  1
  O  O35  1  0.58168669  0.76237752  0.39224685  1
  O  O36  1  0.08168519  0.73762258  0.39224320  1
  O  O37  1  0.41831186  0.23762042  0.60775535  1
  O  O38  1  0.03544682  0.41687823  0.80400772  1
  O  O39  1  0.46455499  0.91687644  0.19599427  1
  O  O40  1  0.96455389  0.58312281  0.19599343  1
  O  O41  1  0.53544254  0.08312283  0.80400369  1
  O  O42  1  0.77219439  0.41754376  0.60404045  1
  O  O43  1  0.72780737  0.91754230  0.39596090  1
  O  O44  1  0.22780578  0.58245658  0.39596123  1
  O  O45  1  0.27219115  0.08245618  0.60403934  1
  O  O46  1  0.85985416  0.31518564  0.93831167  1
  O  O47  1  0.64014476  0.81518510  0.06169031  1
  O  O48  1  0.14014563  0.68481403  0.06168803  1
  O  O49  1  0.35985506  0.18481455  0.93831102  1
  O  O50  1  0.66488011  0.38997902  0.16230950  1
  O  O51  1  0.83512148  0.88997888  0.83769111  1
  O  O52  1  0.33512077  0.61002197  0.83769087  1
  O  O53  1  0.16487970  0.11002222  0.16230797  1
  O  O54  1  0.33276033  0.38869193  0.01469514  1
  O  O55  1  0.16724020  0.88869081  0.98530089  1
  O  O56  1  0.66723926  0.61130909  0.98530167  1
  O  O57  1  0.83275936  0.11131052  0.01469698  1
  O  O58  1  0.49306111  0.56394329  0.29439092  1
  O  O59  1  0.00693948  0.06394229  0.70561000  1
  O  O60  1  0.50694028  0.43605554  0.70560657  1
  O  O61  1  0.99305868  0.93605629  0.29439118  1
