# generated using pymatgen
data_AsPd2
_symmetry_space_group_name_H-M   'P 1'
_cell_length_a   3.33114310
_cell_length_b   6.70494520
_cell_length_c   8.75637294
_cell_angle_alpha   90.00000000
_cell_angle_beta   100.96518548
_cell_angle_gamma   90.00000000
_symmetry_Int_Tables_number   1
_chemical_formula_structural   AsPd2
_chemical_formula_sum   'As4 Pd8'
_cell_volume   192.00412544
_cell_formula_units_Z   4
loop_
 _symmetry_equiv_pos_site_id
 _symmetry_equiv_pos_as_xyz
  1  'x, y, z'
loop_
 _atom_site_type_symbol
 _atom_site_label
 _atom_site_symmetry_multiplicity
 _atom_site_fract_x
 _atom_site_fract_y
 _atom_site_fract_z
 _atom_site_occupancy
  As  As0  1  0.20387996  0.23182686  0.40775993  1
  As  As1  1  0.79612004  0.73182686  0.59224007  1
  As  As2  1  0.55839275  0.69726296  0.11678551  1
  As  As3  1  0.44160725  0.19726296  0.88321449  1
  Pd  Pd4  1  0.67459648  0.96082572  0.34919295  1
  Pd  Pd5  1  0.32540352  0.46082572  0.65080705  1
  Pd  Pd6  1  0.41500119  0.82690938  0.83000237  1
  Pd  Pd7  1  0.58499881  0.32690938  0.16999763  1
  Pd  Pd8  1  0.17094015  0.60771409  0.34188031  1
  Pd  Pd9  1  0.82905985  0.10771409  0.65811969  1
  Pd  Pd10  1  0.96167075  0.48976099  0.92334150  1
  Pd  Pd11  1  0.03832925  0.98976099  0.07665850  1
