# generated using pymatgen
data_Li2Cr5(Si2O7)2
_symmetry_space_group_name_H-M   'P 1'
_cell_length_a   7.61409183
_cell_length_b   8.04789766
_cell_length_c   5.63854558
_cell_angle_alpha   90.96636053
_cell_angle_beta   105.72297427
_cell_angle_gamma   113.88217606
_symmetry_Int_Tables_number   1
_chemical_formula_structural   Li2Cr5(Si2O7)2
_chemical_formula_sum   'Li2 Cr5 Si4 O14'
_cell_volume   300.95022277
_cell_formula_units_Z   1
loop_
 _symmetry_equiv_pos_site_id
 _symmetry_equiv_pos_as_xyz
  1  'x, y, z'
loop_
 _atom_site_type_symbol
 _atom_site_label
 _atom_site_symmetry_multiplicity
 _atom_site_fract_x
 _atom_site_fract_y
 _atom_site_fract_z
 _atom_site_occupancy
  Li  Li0  1  0.10785508  0.45192913  0.23302101  1
  Li  Li1  1  0.89214492  0.54807087  0.76697899  1
  Cr  Cr2  1  0.00000000  0.00000000  0.00000000  1
  Cr  Cr3  1  0.38426134  0.81209094  0.08006402  1
  Cr  Cr4  1  0.57427860  0.71030801  0.66424691  1
  Cr  Cr5  1  0.42572140  0.28969199  0.33575309  1
  Cr  Cr6  1  0.61573866  0.18790906  0.91993598  1
  Si  Si7  1  0.22323761  0.85614968  0.49443470  1
  Si  Si8  1  0.20933360  0.39678496  0.79555227  1
  Si  Si9  1  0.79066640  0.60321504  0.20444773  1
  Si  Si10  1  0.77676239  0.14385032  0.50556530  1
  O  O11  1  0.17026309  0.56981644  0.88487656  1
  O  O12  1  0.34753997  0.95403963  0.78147507  1
  O  O13  1  0.01737852  0.27607785  0.53690007  1
  O  O14  1  0.32472618  0.72649250  0.40815094  1
  O  O15  1  0.18716321  0.27111492  0.02717265  1
  O  O16  1  0.40849265  0.44468738  0.70786740  1
  O  O17  1  0.22912314  0.01140765  0.30665509  1
  O  O18  1  0.77087686  0.98859235  0.69334491  1
  O  O19  1  0.59150735  0.55531262  0.29213260  1
  O  O20  1  0.81283679  0.72888508  0.97282735  1
  O  O21  1  0.67527382  0.27350750  0.59184906  1
  O  O22  1  0.98262148  0.72392215  0.46309993  1
  O  O23  1  0.65246003  0.04596037  0.21852493  1
  O  O24  1  0.82973691  0.43018356  0.11512344  1
