# generated using pymatgen
data_Ta6Pb4O19
_symmetry_space_group_name_H-M   'P 1'
_cell_length_a   7.51870022
_cell_length_b   13.03906862
_cell_length_c   10.65395750
_cell_angle_alpha   114.11314154
_cell_angle_beta   90.00000000
_cell_angle_gamma   73.24293997
_symmetry_Int_Tables_number   1
_chemical_formula_structural   Ta6Pb4O19
_chemical_formula_sum   'Ta12 Pb8 O38'
_cell_volume   904.52854270
_cell_formula_units_Z   2
loop_
 _symmetry_equiv_pos_site_id
 _symmetry_equiv_pos_as_xyz
  1  'x, y, z'
loop_
 _atom_site_type_symbol
 _atom_site_label
 _atom_site_symmetry_multiplicity
 _atom_site_fract_x
 _atom_site_fract_y
 _atom_site_fract_z
 _atom_site_occupancy
  Ta  Ta0  1  0.99858459  0.50283082  0.99860658  1
  Ta  Ta1  1  0.83333300  0.83333300  0.16666700  1
  Ta  Ta2  1  0.16525267  0.66949466  0.33474733  1
  Ta  Ta3  1  0.50141433  0.99717234  0.99858567  1
  Ta  Ta4  1  0.66525267  0.66949466  0.33474733  1
  Ta  Ta5  1  0.00141433  0.99717234  0.99858567  1
  Ta  Ta6  1  0.49858459  0.50283082  0.50422424  1
  Ta  Ta7  1  0.66808241  0.16383618  0.33472642  1
  Ta  Ta8  1  0.33333300  0.83333300  0.66666700  1
  Ta  Ta9  1  0.83333300  0.33333300  0.66666700  1
  Ta  Ta10  1  0.33333300  0.33333300  0.66666700  1
  Ta  Ta11  1  0.16808241  0.16383618  0.82910976  1
  Pb  Pb12  1  0.49946698  0.50106603  0.98418243  1
  Pb  Pb13  1  0.33333300  0.83333300  0.16666700  1
  Pb  Pb14  1  0.33333300  0.33333300  0.16666700  1
  Pb  Pb15  1  0.83333300  0.33333300  0.16666700  1
  Pb  Pb16  1  0.16720002  0.16560097  0.34915057  1
  Pb  Pb17  1  0.99946698  0.50106603  0.51688260  1
  Pb  Pb18  1  0.83333300  0.83333300  0.66666700  1
  Pb  Pb19  1  0.66720002  0.16560097  0.81645040  1
  O  O20  1  0.00735100  0.87593338  0.06713244  1
  O  O21  1  0.61671562  0.87593338  0.06713244  1
  O  O22  1  0.91699222  0.66601555  0.02805417  1
  O  O23  1  0.58333300  0.33333300  0.00912202  1
  O  O24  1  0.04995138  0.79073262  0.26620056  1
  O  O25  1  0.78875819  0.54013444  0.14665235  1
  O  O26  1  0.65931500  0.79073262  0.26620056  1
  O  O27  1  0.17110738  0.54013444  0.14665235  1
  O  O28  1  0.41412332  0.67175436  0.27082650  1
  O  O29  1  0.91412332  0.67175436  0.40092786  1
  O  O30  1  0.25254368  0.99491264  0.06250750  1
  O  O31  1  0.87790781  0.12653256  0.18668065  1
  O  O32  1  0.28875819  0.54013444  0.39348209  1
  O  O33  1  0.54995138  0.79073262  0.52453305  1
  O  O34  1  0.15931500  0.79073262  0.52453305  1
  O  O35  1  0.67110738  0.54013444  0.39348209  1
  O  O36  1  0.08333300  0.33333300  0.32421198  1
  O  O37  1  0.49555962  0.12653256  0.18668065  1
  O  O38  1  0.58333300  0.33333300  0.34774943  1
  O  O39  1  0.41699222  0.66601555  0.63796138  1
  O  O40  1  0.74967478  0.00065145  0.30527883  1
  O  O41  1  0.71272278  0.45574596  0.60038607  1
  O  O42  1  0.83513474  0.21092104  0.47797311  1
  O  O43  1  0.33153226  0.45574596  0.60038607  1
  O  O44  1  0.11671562  0.87593338  0.80880095  1
  O  O45  1  0.50735100  0.87593338  0.80880095  1
  O  O46  1  0.45394422  0.21092104  0.47797311  1
  O  O47  1  0.08333300  0.33333300  0.60174830  1
  O  O48  1  0.58333300  0.33333300  0.73158470  1
  O  O49  1  0.95394422  0.21092104  0.73294693  1
  O  O50  1  0.33513474  0.21092104  0.73294693  1
  O  O51  1  0.83153226  0.45574596  0.85535989  1
  O  O52  1  0.21272278  0.45574596  0.85535989  1
  O  O53  1  0.24967478  0.00065145  0.69537262  1
  O  O54  1  0.08333300  0.33333300  0.98558357  1
  O  O55  1  0.37790781  0.12653256  0.93985191  1
  O  O56  1  0.99555962  0.12653256  0.93985191  1
  O  O57  1  0.75254368  0.99491264  0.93240514  1
