# generated using pymatgen
data_Ca10V6O25
_symmetry_space_group_name_H-M   'P 1'
_cell_length_a   6.95979499
_cell_length_b   10.06000197
_cell_length_c   10.06001203
_cell_angle_alpha   120.00026076
_cell_angle_beta   90.00014097
_cell_angle_gamma   89.99993270
_symmetry_Int_Tables_number   1
_chemical_formula_structural   Ca10V6O25
_chemical_formula_sum   'Ca10 V6 O25'
_cell_volume   609.98970234
_cell_formula_units_Z   1
loop_
 _symmetry_equiv_pos_site_id
 _symmetry_equiv_pos_as_xyz
  1  'x, y, z'
loop_
 _atom_site_type_symbol
 _atom_site_label
 _atom_site_symmetry_multiplicity
 _atom_site_fract_x
 _atom_site_fract_y
 _atom_site_fract_z
 _atom_site_occupancy
  Ca  Ca0  1  0.75185855  0.20903382  0.98251461  1
  Ca  Ca1  1  0.24910964  0.72526020  0.00931227  1
  Ca  Ca2  1  0.75186096  0.77347759  0.79096313  1
  Ca  Ca3  1  0.24911369  0.28405336  0.27473932  1
  Ca  Ca4  1  0.75185626  0.01748403  0.22651619  1
  Ca  Ca5  1  0.24911149  0.99069030  0.71594883  1
  Ca  Ca6  1  0.99806985  0.66666712  0.33333261  1
  Ca  Ca7  1  0.99501320  0.33333633  0.66666906  1
  Ca  Ca8  1  0.51184679  0.66666791  0.33333661  1
  Ca  Ca9  1  0.49561188  0.33332792  0.66666409  1
  V  V10  1  0.25033630  0.97183814  0.35698139  1
  V  V11  1  0.74829909  0.03077409  0.62034780  1
  V  V12  1  0.25033880  0.38514276  0.02816361  1
  V  V13  1  0.74829633  0.58957106  0.96922529  1
  V  V14  1  0.25034414  0.64302579  0.61485863  1
  V  V15  1  0.74829850  0.37964989  0.41042643  1
  O  O16  1  0.94887407  0.26062736  0.35291551  1
  O  O17  1  0.05145021  0.76102998  0.66711561  1
  O  O18  1  0.94887024  0.09229210  0.73937426  1
  O  O19  1  0.05144016  0.90608313  0.23897776  1
  O  O20  1  0.94887328  0.64707392  0.90770318  1
  O  O21  1  0.05144716  0.33289163  0.09391311  1
  O  O22  1  0.74174499  0.47378606  0.61108901  1
  O  O23  1  0.26410307  0.54766899  0.41110455  1
  O  O24  1  0.74174456  0.13730107  0.52621167  1
  O  O25  1  0.26410129  0.86343636  0.45233003  1
  O  O26  1  0.74173459  0.38891070  0.86269737  1
  O  O27  1  0.26410014  0.58889756  0.13656693  1
  O  O28  1  0.55296365  0.08694871  0.74376364  1
  O  O29  1  0.43530727  0.91941925  0.22557665  1
  O  O30  1  0.55296379  0.65682253  0.91305568  1
  O  O31  1  0.43531153  0.30615729  0.08058035  1
  O  O32  1  0.55296518  0.25623237  0.34317902  1
  O  O33  1  0.43531738  0.77442433  0.69383926  1
  O  O34  1  0.75174711  0.83431901  0.49538563  1
  O  O35  1  0.24657583  0.16765810  0.49027923  1
  O  O36  1  0.75174563  0.66105962  0.16568005  1
  O  O37  1  0.24657660  0.32262175  0.83234321  1
  O  O38  1  0.75174608  0.50461549  0.33893557  1
  O  O39  1  0.24658212  0.50972398  0.67738424  1
  O  O40  1  0.77409864  0.99999841  0.99999859  1
