# generated using pymatgen
data_Yb2TeO6
_symmetry_space_group_name_H-M   'P 1'
_cell_length_a   9.32937152
_cell_length_b   9.32937152
_cell_length_c   5.25744628
_cell_angle_alpha   90.00000000
_cell_angle_beta   90.00000000
_cell_angle_gamma   119.99999999
_symmetry_Int_Tables_number   1
_chemical_formula_structural   Yb2TeO6
_chemical_formula_sum   'Yb6 Te3 O18'
_cell_volume   396.28738891
_cell_formula_units_Z   3
loop_
 _symmetry_equiv_pos_site_id
 _symmetry_equiv_pos_as_xyz
  1  'x, y, z'
loop_
 _atom_site_type_symbol
 _atom_site_label
 _atom_site_symmetry_multiplicity
 _atom_site_fract_x
 _atom_site_fract_y
 _atom_site_fract_z
 _atom_site_occupancy
  O  O0  1  0.75159089  0.21968498  0.71009343  1
  O  O1  1  0.78031502  0.53190592  0.71009343  1
  O  O2  1  0.46809408  0.24840911  0.71009343  1
  O  O3  1  0.53190592  0.78031502  0.28990657  1
  O  O4  1  0.24840911  0.46809408  0.28990657  1
  O  O5  1  0.21968498  0.75159089  0.28990657  1
  O  O6  1  0.58244443  0.44574626  0.29731971  1
  O  O7  1  0.55425374  0.13669817  0.29731971  1
  O  O8  1  0.86330183  0.41755557  0.29731971  1
  O  O9  1  0.08302764  0.88602075  0.79337704  1
  O  O10  1  0.11397925  0.19700689  0.79337704  1
  O  O11  1  0.80299311  0.91697236  0.79337704  1
  O  O12  1  0.19700689  0.11397925  0.20662296  1
  O  O13  1  0.91697236  0.80299311  0.20662296  1
  O  O14  1  0.88602075  0.08302764  0.20662296  1
  O  O15  1  0.44574626  0.58244443  0.70268029  1
  O  O16  1  0.41755557  0.86330183  0.70268029  1
  O  O17  1  0.13669817  0.55425374  0.70268029  1
  Te  Te18  1  0.66666667  0.33333333  0.50856743  1
  Te  Te19  1  0.33333333  0.66666667  0.49143257  1
  Te  Te20  1  0.00000000  0.00000000  0.00000000  1
  Yb  Yb21  1  0.71598344  0.71598344  0.50000000  1
  Yb  Yb22  1  0.00000000  0.28401656  0.50000000  1
  Yb  Yb23  1  0.28401656  0.00000000  0.50000000  1
  Yb  Yb24  1  0.37036577  0.37036577  0.00000000  1
  Yb  Yb25  1  0.00000000  0.62963423  0.00000000  1
  Yb  Yb26  1  0.62963423  0.00000000  0.00000000  1
