# generated using pymatgen
data_La2Sc2O5
_symmetry_space_group_name_H-M   'P 1'
_cell_length_a   5.75054733
_cell_length_b   5.80314218
_cell_length_c   9.04692432
_cell_angle_alpha   108.70685687
_cell_angle_beta   108.53996346
_cell_angle_gamma   89.99840473
_symmetry_Int_Tables_number   1
_chemical_formula_structural   La2Sc2O5
_chemical_formula_sum   'La4 Sc4 O10'
_cell_volume   269.36441456
_cell_formula_units_Z   2
loop_
 _symmetry_equiv_pos_site_id
 _symmetry_equiv_pos_as_xyz
  1  'x, y, z'
loop_
 _atom_site_type_symbol
 _atom_site_label
 _atom_site_symmetry_multiplicity
 _atom_site_fract_x
 _atom_site_fract_y
 _atom_site_fract_z
 _atom_site_occupancy
  La  La0  1  0.37224238  0.87384166  0.74797560  1
  La  La1  1  0.62340683  0.12602056  0.25191669  1
  La  La2  1  0.87192378  0.37414534  0.74810048  1
  La  La3  1  0.12408415  0.62596733  0.25202645  1
  Sc  Sc4  1  0.00617105  0.00000771  0.99996172  1
  Sc  Sc5  1  0.50620028  0.49997611  0.00002326  1
  Sc  Sc6  1  0.76934694  0.76217402  0.49999105  1
  Sc  Sc7  1  0.26935599  0.23771573  0.49999754  1
  O  O8  1  0.78313119  0.27371905  0.06244639  1
  O  O9  1  0.72178499  0.72594221  0.93830417  1
  O  O10  1  0.28265844  0.28844602  0.06168707  1
  O  O11  1  0.22146804  0.71200760  0.93755409  1
  O  O12  1  0.90755856  0.96621582  0.74832132  1
  O  O13  1  0.16093088  0.03374887  0.25161102  1
  O  O14  1  0.40874072  0.28208488  0.74835839  1
  O  O15  1  0.65913850  0.71786801  0.25166898  1
  O  O16  1  0.06258798  0.53730546  0.49997165  1
  O  O17  1  0.56247230  0.46281162  0.50008513  1
