# generated using pymatgen
data_CrH9(BrN)3
_symmetry_space_group_name_H-M   'P 1'
_cell_length_a   6.03567179
_cell_length_b   6.93311358
_cell_length_c   9.97561292
_cell_angle_alpha   86.13368622
_cell_angle_beta   86.47699398
_cell_angle_gamma   85.03810211
_symmetry_Int_Tables_number   1
_chemical_formula_structural   CrH9(BrN)3
_chemical_formula_sum   'Cr2 H18 Br6 N6'
_cell_volume   414.27856298
_cell_formula_units_Z   2
loop_
 _symmetry_equiv_pos_site_id
 _symmetry_equiv_pos_as_xyz
  1  'x, y, z'
loop_
 _atom_site_type_symbol
 _atom_site_label
 _atom_site_symmetry_multiplicity
 _atom_site_fract_x
 _atom_site_fract_y
 _atom_site_fract_z
 _atom_site_occupancy
  Cr  Cr0  1  0.50000000  0.99999900  0.00000100  1
  Cr  Cr1  1  0.00000000  0.49999900  0.50000000  1
  H  H2  1  0.75742550  0.14972603  0.17272843  1
  H  H3  1  0.24257550  0.85027497  0.82727257  1
  H  H4  1  0.10265503  0.13090014  0.59452253  1
  H  H5  1  0.89734597  0.86909986  0.40547747  1
  H  H6  1  0.25078893  0.63172015  0.28525255  1
  H  H7  1  0.74921007  0.36827885  0.71474845  1
  H  H8  1  0.09404440  0.47188876  0.23272375  1
  H  H9  1  0.90595660  0.52811024  0.76727725  1
  H  H10  1  0.32121280  0.39699052  0.30859978  1
  H  H11  1  0.67878620  0.60300848  0.69140022  1
  H  H12  1  0.24960143  0.27211234  0.67341112  1
  H  H13  1  0.75039957  0.72788866  0.32658888  1
  H  H14  1  0.89237367  0.15942720  0.02417130  1
  H  H15  1  0.10762533  0.84057180  0.97582870  1
  H  H16  1  0.68295781  0.31742505  0.05744834  1
  H  H17  1  0.31704219  0.68257495  0.94255166  1
  H  H18  1  0.33188968  0.21008109  0.52160563  1
  H  H19  1  0.66810932  0.78991991  0.47839437  1
  Br  Br20  1  0.70388054  0.00470290  0.77256560  1
  Br  Br21  1  0.29611846  0.99529610  0.22743540  1
  Br  Br22  1  0.26579401  0.30631383  0.92916232  1
  Br  Br23  1  0.73420699  0.69368717  0.07083768  1
  Br  Br24  1  0.26172044  0.71518751  0.58620981  1
  Br  Br25  1  0.73828056  0.28481349  0.41379019  1
  N  N26  1  0.18710978  0.49969258  0.31048916  1
  N  N27  1  0.81289022  0.50030442  0.68951084  1
  N  N28  1  0.19242383  0.25100451  0.58049295  1
  N  N29  1  0.80757517  0.74899449  0.41950705  1
  N  N30  1  0.73533979  0.17346374  0.07112496  1
  N  N31  1  0.26465921  0.82653526  0.92887604  1
