# generated using pymatgen
data_Ba3MoN4
_symmetry_space_group_name_H-M   'P 1'
_cell_length_a   10.51961981
_cell_length_b   10.96535458
_cell_length_c   12.38986803
_cell_angle_alpha   90.00000000
_cell_angle_beta   90.00000000
_cell_angle_gamma   90.00000000
_symmetry_Int_Tables_number   1
_chemical_formula_structural   Ba3MoN4
_chemical_formula_sum   'Ba24 Mo8 N32'
_cell_volume   1429.18814313
_cell_formula_units_Z   8
loop_
 _symmetry_equiv_pos_site_id
 _symmetry_equiv_pos_as_xyz
  1  'x, y, z'
loop_
 _atom_site_type_symbol
 _atom_site_label
 _atom_site_symmetry_multiplicity
 _atom_site_fract_x
 _atom_site_fract_y
 _atom_site_fract_z
 _atom_site_occupancy
  N  N0  1  0.79266038  0.22552731  0.67851221  1
  N  N1  1  0.29266038  0.77447269  0.82148779  1
  N  N2  1  0.70733962  0.72552731  0.32148779  1
  N  N3  1  0.20733962  0.27447269  0.17851221  1
  N  N4  1  0.20733962  0.77447269  0.32148779  1
  N  N5  1  0.70733962  0.22552731  0.17851221  1
  N  N6  1  0.29266038  0.27447269  0.67851221  1
  N  N7  1  0.79266038  0.72552731  0.82148779  1
  N  N8  1  0.81343093  0.49317791  0.96305184  1
  N  N9  1  0.31343093  0.50682209  0.53694816  1
  N  N10  1  0.68656907  0.99317791  0.03694816  1
  N  N11  1  0.18656907  0.00682209  0.46305184  1
  N  N12  1  0.18656907  0.50682209  0.03694816  1
  N  N13  1  0.68656907  0.49317791  0.46305184  1
  N  N14  1  0.31343093  0.00682209  0.96305184  1
  N  N15  1  0.62309659  0.99412918  0.71728497  1
  N  N16  1  0.57565356  0.15214044  0.51796269  1
  N  N17  1  0.07565356  0.84785956  0.98203731  1
  N  N18  1  0.92434644  0.65214044  0.48203731  1
  N  N19  1  0.42434644  0.34785956  0.01796269  1
  N  N20  1  0.42434644  0.84785956  0.48203731  1
  N  N21  1  0.92434644  0.15214044  0.01796269  1
  N  N22  1  0.07565356  0.34785956  0.51796269  1
  N  N23  1  0.57565356  0.65214044  0.98203731  1
  N  N24  1  0.62309659  0.49412918  0.78271503  1
  N  N25  1  0.12309659  0.50587082  0.71728497  1
  N  N26  1  0.87690341  0.99412918  0.21728497  1
  N  N27  1  0.37690341  0.00587082  0.28271503  1
  N  N28  1  0.37690341  0.50587082  0.21728497  1
  N  N29  1  0.87690341  0.49412918  0.28271503  1
  N  N30  1  0.12309659  0.00587082  0.78271503  1
  N  N31  1  0.81343093  0.99317791  0.53694816  1
  Mo  Mo32  1  0.70139617  0.09493458  0.61464392  1
  Mo  Mo33  1  0.20139617  0.90506542  0.88535608  1
  Mo  Mo34  1  0.79860383  0.59493458  0.38535608  1
  Mo  Mo35  1  0.29860383  0.40506542  0.11464392  1
  Mo  Mo36  1  0.29860383  0.90506542  0.38535608  1
  Mo  Mo37  1  0.79860383  0.09493458  0.11464392  1
  Mo  Mo38  1  0.20139617  0.40506542  0.61464392  1
  Mo  Mo39  1  0.70139617  0.59493458  0.88535608  1
  Ba  Ba40  1  0.53249610  0.37440573  0.60653951  1
  Ba  Ba41  1  0.20632871  0.72135852  0.62116066  1
  Ba  Ba42  1  0.79367129  0.77864148  0.12116066  1
  Ba  Ba43  1  0.29367129  0.22135852  0.37883934  1
  Ba  Ba44  1  0.29367129  0.72135852  0.12116066  1
  Ba  Ba45  1  0.79367129  0.27864148  0.37883934  1
  Ba  Ba46  1  0.20632871  0.22135852  0.87883934  1
  Ba  Ba47  1  0.70632871  0.77864148  0.62116066  1
  Ba  Ba48  1  0.70632871  0.27864148  0.87883934  1
  Ba  Ba49  1  0.03249610  0.62559427  0.89346049  1
  Ba  Ba50  1  0.96750390  0.87440573  0.39346049  1
  Ba  Ba51  1  0.46750390  0.12559427  0.10653951  1
  Ba  Ba52  1  0.46750390  0.62559427  0.39346049  1
  Ba  Ba53  1  0.96750390  0.37440573  0.10653951  1
  Ba  Ba54  1  0.03249610  0.12559427  0.60653951  1
  Ba  Ba55  1  0.53249610  0.87440573  0.89346049  1
  Ba  Ba56  1  0.87931876  0.46973700  0.63916187  1
  Ba  Ba57  1  0.37931876  0.53026300  0.86083813  1
  Ba  Ba58  1  0.62068124  0.96973700  0.36083813  1
  Ba  Ba59  1  0.12068124  0.03026300  0.13916187  1
  Ba  Ba60  1  0.12068124  0.53026300  0.36083813  1
  Ba  Ba61  1  0.62068124  0.46973700  0.13916187  1
  Ba  Ba62  1  0.37931876  0.03026300  0.63916187  1
  Ba  Ba63  1  0.87931876  0.96973700  0.86083813  1
