# generated using pymatgen
data_ReClO3
_symmetry_space_group_name_H-M   'P 1'
_cell_length_a   5.89070144
_cell_length_b   9.34496155
_cell_length_c   7.99505391
_cell_angle_alpha   90.00000000
_cell_angle_beta   95.72775113
_cell_angle_gamma   90.00000000
_symmetry_Int_Tables_number   1
_chemical_formula_structural   ReClO3
_chemical_formula_sum   'Re4 Cl4 O12'
_cell_volume   437.91741385
_cell_formula_units_Z   4
loop_
 _symmetry_equiv_pos_site_id
 _symmetry_equiv_pos_as_xyz
  1  'x, y, z'
loop_
 _atom_site_type_symbol
 _atom_site_label
 _atom_site_symmetry_multiplicity
 _atom_site_fract_x
 _atom_site_fract_y
 _atom_site_fract_z
 _atom_site_occupancy
  Re  Re0  1  0.19942347  0.27267992  0.27405835  1
  Re  Re1  1  0.30057753  0.77267992  0.22594065  1
  Re  Re2  1  0.80057753  0.72732008  0.72594065  1
  Re  Re3  1  0.69942247  0.22732008  0.77405935  1
  Cl  Cl4  1  0.90103654  0.41884735  0.23117512  1
  Cl  Cl5  1  0.59896346  0.91884735  0.26882488  1
  Cl  Cl6  1  0.09896346  0.58115365  0.76882488  1
  Cl  Cl7  1  0.40103654  0.08115265  0.73117712  1
  O  O8  1  0.37575754  0.33033149  0.44661878  1
  O  O9  1  0.12424346  0.83033149  0.05338222  1
  O  O10  1  0.62424246  0.66966851  0.55338122  1
  O  O11  1  0.87575854  0.16966951  0.94661878  1
  O  O12  1  0.11131487  0.10081786  0.31319767  1
  O  O13  1  0.38868613  0.60081786  0.18680233  1
  O  O14  1  0.88868713  0.89918314  0.68680333  1
  O  O15  1  0.61131387  0.39918114  0.81319667  1
  O  O16  1  0.35642415  0.26834774  0.10347919  1
  O  O17  1  0.14357485  0.76834874  0.39652181  1
  O  O18  1  0.64357485  0.73165126  0.89652081  1
  O  O19  1  0.85642515  0.23165126  0.60348019  1
