# generated using pymatgen
data_CaFeF5
_symmetry_space_group_name_H-M   'P 1'
_cell_length_a   5.64381394
_cell_length_b   5.61390093
_cell_length_c   7.85147171
_cell_angle_alpha   96.68071910
_cell_angle_beta   112.03257103
_cell_angle_gamma   108.54591719
_symmetry_Int_Tables_number   1
_chemical_formula_structural   CaFeF5
_chemical_formula_sum   'Ca2 Fe2 F10'
_cell_volume   210.61614923
_cell_formula_units_Z   2
loop_
 _symmetry_equiv_pos_site_id
 _symmetry_equiv_pos_as_xyz
  1  'x, y, z'
loop_
 _atom_site_type_symbol
 _atom_site_label
 _atom_site_symmetry_multiplicity
 _atom_site_fract_x
 _atom_site_fract_y
 _atom_site_fract_z
 _atom_site_occupancy
  Ca  Ca0  1  0.29705588  0.54573463  0.75162038  1
  Ca  Ca1  1  0.71079956  0.45831593  0.25141089  1
  Fe  Fe2  1  0.00238857  0.00145158  0.00044863  1
  Fe  Fe3  1  0.50257296  0.00131191  0.50031380  1
  F  F4  1  0.33852545  0.08417285  0.24914771  1
  F  F5  1  0.66798543  0.91866084  0.75116538  1
  F  F6  1  0.59256476  0.75097046  0.38086985  1
  F  F7  1  0.87138392  0.21009968  0.12035789  1
  F  F8  1  0.75088501  0.69485085  0.03318150  1
  F  F9  1  0.16601444  0.71542024  0.46920590  1
  F  F10  1  0.25429127  0.30884834  0.96951576  1
  F  F11  1  0.84062247  0.28683361  0.53446229  1
  F  F12  1  0.12664607  0.78702079  0.87894717  1
  F  F13  1  0.40997024  0.25057829  0.61908184  1
