# generated using pymatgen
data_K2NaGaP2
_symmetry_space_group_name_H-M   'P 1'
_cell_length_a   6.43774092
_cell_length_b   6.65513059
_cell_length_c   8.65965257
_cell_angle_alpha   112.60629094
_cell_angle_beta   111.82105204
_cell_angle_gamma   89.99999996
_symmetry_Int_Tables_number   1
_chemical_formula_structural   K2NaGaP2
_chemical_formula_sum   'K4 Na2 Ga2 P4'
_cell_volume   313.51724664
_cell_formula_units_Z   2
loop_
 _symmetry_equiv_pos_site_id
 _symmetry_equiv_pos_as_xyz
  1  'x, y, z'
loop_
 _atom_site_type_symbol
 _atom_site_label
 _atom_site_symmetry_multiplicity
 _atom_site_fract_x
 _atom_site_fract_y
 _atom_site_fract_z
 _atom_site_occupancy
  Na  Na0  1  0.74998619  0.00000000  0.00000000  1
  Na  Na1  1  0.25001381  0.00000000  0.00000000  1
  P  P2  1  0.59192118  0.79095156  0.18384237  1
  P  P3  1  0.40807882  0.20904844  0.81615763  1
  P  P4  1  0.90814465  0.60714371  0.81628931  1
  P  P5  1  0.09185535  0.39285629  0.18371069  1
  K  K6  1  0.82535023  0.07208223  0.65070046  1
  K  K7  1  0.17464977  0.92791777  0.34929954  1
  K  K8  1  0.67469418  0.42124273  0.34938836  1
  K  K9  1  0.32530582  0.57875727  0.65061164  1
  Ga  Ga10  1  0.25006288  0.50000000  0.00000000  1
  Ga  Ga11  1  0.74993712  0.50000000  0.00000000  1
