# generated using pymatgen
data_CaVF5
_symmetry_space_group_name_H-M   'P 1'
_cell_length_a   5.63313164
_cell_length_b   5.65109191
_cell_length_c   7.89291308
_cell_angle_alpha   96.68345795
_cell_angle_beta   111.56913207
_cell_angle_gamma   108.54555611
_symmetry_Int_Tables_number   1
_chemical_formula_structural   CaVF5
_chemical_formula_sum   'Ca2 V2 F10'
_cell_volume   213.63266631
_cell_formula_units_Z   2
loop_
 _symmetry_equiv_pos_site_id
 _symmetry_equiv_pos_as_xyz
  1  'x, y, z'
loop_
 _atom_site_type_symbol
 _atom_site_label
 _atom_site_symmetry_multiplicity
 _atom_site_fract_x
 _atom_site_fract_y
 _atom_site_fract_z
 _atom_site_occupancy
  Ca  Ca0  1  0.29421932  0.54526522  0.75033063  1
  Ca  Ca1  1  0.70536862  0.45688639  0.25108389  1
  V  V2  1  0.99920573  0.00074707  0.00078586  1
  V  V3  1  0.50022844  0.00134452  0.50049917  1
  F  F4  1  0.33751199  0.09299310  0.25172696  1
  F  F5  1  0.66255652  0.90847257  0.74892128  1
  F  F6  1  0.59737816  0.75614074  0.38063875  1
  F  F7  1  0.86485729  0.21238580  0.11727279  1
  F  F8  1  0.74685108  0.69644085  0.03456502  1
  F  F9  1  0.16343465  0.71587641  0.46929858  1
  F  F10  1  0.24966915  0.30532253  0.96667693  1
  F  F11  1  0.83635728  0.28940273  0.53285088  1
  F  F12  1  0.13239445  0.78731934  0.88407182  1
  F  F13  1  0.40239532  0.24785373  0.61956543  1
