# generated using pymatgen
data_MgTa2O6
_symmetry_space_group_name_H-M   'P 1'
_cell_length_a   4.77834765
_cell_length_b   4.77834765
_cell_length_c   9.26435727
_cell_angle_alpha   90.00000000
_cell_angle_beta   90.00000000
_cell_angle_gamma   90.00000000
_symmetry_Int_Tables_number   1
_chemical_formula_structural   MgTa2O6
_chemical_formula_sum   'Mg2 Ta4 O12'
_cell_volume   211.52942184
_cell_formula_units_Z   2
loop_
 _symmetry_equiv_pos_site_id
 _symmetry_equiv_pos_as_xyz
  1  'x, y, z'
loop_
 _atom_site_type_symbol
 _atom_site_label
 _atom_site_symmetry_multiplicity
 _atom_site_fract_x
 _atom_site_fract_y
 _atom_site_fract_z
 _atom_site_occupancy
  O  O0  1  0.70259712  0.70259712  0.67627074  1
  O  O1  1  0.29740288  0.29740288  0.67627074  1
  O  O2  1  0.70259712  0.70259712  0.32372926  1
  O  O3  1  0.20259712  0.79740288  0.17627074  1
  O  O4  1  0.79740288  0.20259712  0.17627074  1
  O  O5  1  0.79740288  0.20259712  0.82372926  1
  O  O6  1  0.31110433  0.31110433  0.00000000  1
  O  O7  1  0.18889567  0.81110433  0.50000000  1
  O  O8  1  0.81110433  0.18889567  0.50000000  1
  O  O9  1  0.68889567  0.68889567  0.00000000  1
  O  O10  1  0.29740288  0.29740288  0.32372926  1
  O  O11  1  0.20259712  0.79740288  0.82372926  1
  Mg  Mg12  1  0.00000000  0.00000000  0.00000000  1
  Mg  Mg13  1  0.50000000  0.50000000  0.50000000  1
  Ta  Ta14  1  0.50000000  0.50000000  0.83198190  1
  Ta  Ta15  1  0.00000000  0.00000000  0.33198190  1
  Ta  Ta16  1  0.50000000  0.50000000  0.16801810  1
  Ta  Ta17  1  0.00000000  0.00000000  0.66801810  1
