# generated using pymatgen
data_Sr2SmSbO6
_symmetry_space_group_name_H-M   'P 1'
_cell_length_a   5.89046316
_cell_length_b   6.00564101
_cell_length_c   8.39901034
_cell_angle_alpha   90.00000000
_cell_angle_beta   90.31238240
_cell_angle_gamma   90.00000000
_symmetry_Int_Tables_number   1
_chemical_formula_structural   Sr2SmSbO6
_chemical_formula_sum   'Sr4 Sm2 Sb2 O12'
_cell_volume   297.11903343
_cell_formula_units_Z   2
loop_
 _symmetry_equiv_pos_site_id
 _symmetry_equiv_pos_as_xyz
  1  'x, y, z'
loop_
 _atom_site_type_symbol
 _atom_site_label
 _atom_site_symmetry_multiplicity
 _atom_site_fract_x
 _atom_site_fract_y
 _atom_site_fract_z
 _atom_site_occupancy
  Sr  Sr0  1  0.01083196  0.04259275  0.24946770  1
  Sr  Sr1  1  0.48916804  0.54259575  0.25053230  1
  Sr  Sr2  1  0.98916804  0.95740525  0.75053130  1
  Sr  Sr3  1  0.51083296  0.45740625  0.74946770  1
  Sm  Sm4  1  0.50000000  0.00000000  0.99999900  1
  Sm  Sm5  1  0.00000100  0.49999900  0.50000100  1
  Sb  Sb6  1  -0.00000000  0.49999900  -0.00000000  1
  Sb  Sb7  1  0.50000000  0.00000000  0.50000000  1
  O  O8  1  0.91169650  0.47121012  0.23203255  1
  O  O9  1  0.58830250  0.97121312  0.26796645  1
  O  O10  1  0.08830150  0.52878788  0.76796645  1
  O  O11  1  0.41169750  0.02878888  0.73203355  1
  O  O12  1  0.31239376  0.27583305  0.45124130  1
  O  O13  1  0.18760624  0.77583205  0.04875770  1
  O  O14  1  0.68760624  0.72416695  0.54875770  1
  O  O15  1  0.81239476  0.22416795  0.95124230  1
  O  O16  1  0.27483917  0.30754489  0.04521304  1
  O  O17  1  0.22516083  0.80754589  0.45478696  1
  O  O18  1  0.72516083  0.69245511  0.95478596  1
  O  O19  1  0.77483917  0.19245611  0.54521304  1
