# generated using pymatgen
data_CaSn2S5
_symmetry_space_group_name_H-M   'P 1'
_cell_length_a   8.53144992
_cell_length_b   9.93864777
_cell_length_c   10.21357682
_cell_angle_alpha   68.34549148
_cell_angle_beta   87.45461962
_cell_angle_gamma   85.23025826
_symmetry_Int_Tables_number   1
_chemical_formula_structural   CaSn2S5
_chemical_formula_sum   'Ca4 Sn8 S20'
_cell_volume   802.02598408
_cell_formula_units_Z   4
loop_
 _symmetry_equiv_pos_site_id
 _symmetry_equiv_pos_as_xyz
  1  'x, y, z'
loop_
 _atom_site_type_symbol
 _atom_site_label
 _atom_site_symmetry_multiplicity
 _atom_site_fract_x
 _atom_site_fract_y
 _atom_site_fract_z
 _atom_site_occupancy
  Ca  Ca0  1  0.17923935  0.49984348  0.69681626  1
  Ca  Ca1  1  0.82076065  0.50015652  0.30318374  1
  Ca  Ca2  1  0.35593828  0.97473755  0.78347514  1
  Ca  Ca3  1  0.64406172  0.02526245  0.21652486  1
  Sn  Sn4  1  0.50000000  0.50000000  -0.00000000  1
  Sn  Sn5  1  -0.00000000  -0.00000000  0.50000000  1
  Sn  Sn6  1  0.24138272  0.75359523  0.24654594  1
  Sn  Sn7  1  0.75861728  0.24640477  0.75345406  1
  Sn  Sn8  1  0.87344574  0.80079273  0.93900118  1
  Sn  Sn9  1  0.12655426  0.19920727  0.06099882  1
  Sn  Sn10  1  0.36740962  0.30258793  0.43801089  1
  Sn  Sn11  1  0.63259038  0.69741207  0.56198911  1
  S  S12  1  0.33767773  0.01006377  0.11182011  1
  S  S13  1  0.66232227  0.98993623  0.88817989  1
  S  S14  1  0.15654864  0.49139959  0.38213632  1
  S  S15  1  0.84345136  0.50860041  0.61786368  1
  S  S16  1  0.07484523  0.83800060  0.75925849  1
  S  S17  1  0.92515477  0.16199940  0.24074151  1
  S  S18  1  0.45086312  0.29415339  0.66572770  1
  S  S19  1  0.54913688  0.70584661  0.33427230  1
  S  S20  1  0.12213499  0.77201759  0.46882908  1
  S  S21  1  0.87786501  0.22798241  0.53117092  1
  S  S22  1  0.94682058  0.79937359  0.16788272  1
  S  S23  1  0.05317942  0.20062641  0.83211728  1
  S  S24  1  0.70510482  0.94177311  0.51515754  1
  S  S25  1  0.29489518  0.05822689  0.48484246  1
  S  S26  1  0.38636632  0.72661559  0.03637270  1
  S  S27  1  0.61363368  0.27338441  0.96362730  1
  S  S28  1  0.57066163  0.33215427  0.25998762  1
  S  S29  1  0.42933837  0.66784573  0.74001238  1
  S  S30  1  0.20432430  0.44404008  0.00041570  1
  S  S31  1  0.79567570  0.55595992  0.99958430  1
