# generated using pymatgen
data_CaCoF5
_symmetry_space_group_name_H-M   'P 1'
_cell_length_a   5.59236130
_cell_length_b   5.59355999
_cell_length_c   7.76321244
_cell_angle_alpha   96.64389615
_cell_angle_beta   112.23533499
_cell_angle_gamma   108.33131516
_symmetry_Int_Tables_number   1
_chemical_formula_structural   CaCoF5
_chemical_formula_sum   'Ca2 Co2 F10'
_cell_volume   205.62358588
_cell_formula_units_Z   2
loop_
 _symmetry_equiv_pos_site_id
 _symmetry_equiv_pos_as_xyz
  1  'x, y, z'
loop_
 _atom_site_type_symbol
 _atom_site_label
 _atom_site_symmetry_multiplicity
 _atom_site_fract_x
 _atom_site_fract_y
 _atom_site_fract_z
 _atom_site_occupancy
  Ca  Ca0  1  0.29600090  0.54637785  0.75029298  1
  Ca  Ca1  1  0.70742679  0.45772126  0.25051503  1
  Co  Co2  1  0.00287470  0.00411283  0.00136709  1
  Co  Co3  1  0.50125528  0.00020913  0.50063302  1
  F  F4  1  0.34203271  0.09313231  0.25145752  1
  F  F5  1  0.66177832  0.91302301  0.75178056  1
  F  F6  1  0.58846932  0.75784934  0.38382941  1
  F  F7  1  0.88187270  0.21391376  0.11734600  1
  F  F8  1  0.74635370  0.69893221  0.03442888  1
  F  F9  1  0.16243833  0.71069610  0.46930450  1
  F  F10  1  0.25931631  0.31128717  0.96937922  1
  F  F11  1  0.84132405  0.28495246  0.53180953  1
  F  F12  1  0.12512949  0.79680636  0.88423495  1
  F  F13  1  0.40942640  0.23824820  0.61752831  1
