# generated using pymatgen
data_Ba3Ge4
_symmetry_space_group_name_H-M   'P 1'
_cell_length_a   8.58301262
_cell_length_b   8.58301263
_cell_length_c   12.27184291
_cell_angle_alpha   90.00000000
_cell_angle_beta   90.00000000
_cell_angle_gamma   91.93905476
_symmetry_Int_Tables_number   1
_chemical_formula_structural   Ba3Ge4
_chemical_formula_sum   'Ba12 Ge16'
_cell_volume   903.52575164
_cell_formula_units_Z   4
loop_
 _symmetry_equiv_pos_site_id
 _symmetry_equiv_pos_as_xyz
  1  'x, y, z'
loop_
 _atom_site_type_symbol
 _atom_site_label
 _atom_site_symmetry_multiplicity
 _atom_site_fract_x
 _atom_site_fract_y
 _atom_site_fract_z
 _atom_site_occupancy
  Ge  Ge0  1  0.80327260  0.80327260  0.34981288  1
  Ge  Ge1  1  0.19672740  0.19672740  0.34981288  1
  Ge  Ge2  1  0.80327260  0.80327260  0.65018712  1
  Ge  Ge3  1  0.19672740  0.19672740  0.65018712  1
  Ge  Ge4  1  0.29514541  0.70485459  0.13817279  1
  Ge  Ge5  1  0.70485459  0.29514541  0.13817279  1
  Ge  Ge6  1  0.70485459  0.29514541  0.86182721  1
  Ge  Ge7  1  0.29514541  0.70485459  0.86182721  1
  Ge  Ge8  1  0.06383171  0.65978040  0.00000000  1
  Ge  Ge9  1  0.93616829  0.34021960  0.00000000  1
  Ge  Ge10  1  0.65978040  0.06383171  0.00000000  1
  Ge  Ge11  1  0.34021960  0.93616829  0.00000000  1
  Ge  Ge12  1  0.58872577  0.80052560  0.50000000  1
  Ge  Ge13  1  0.41127423  0.19947440  0.50000000  1
  Ge  Ge14  1  0.80052560  0.58872577  0.50000000  1
  Ge  Ge15  1  0.19947440  0.41127423  0.50000000  1
  Ba  Ba16  1  0.00000000  0.50000000  0.74451601  1
  Ba  Ba17  1  0.50000000  0.00000000  0.25548399  1
  Ba  Ba18  1  0.00000000  0.50000000  0.25548399  1
  Ba  Ba19  1  0.50000000  0.00000000  0.74451601  1
  Ba  Ba20  1  0.50000000  0.50000000  0.32539681  1
  Ba  Ba21  1  0.50000000  0.50000000  0.67460319  1
  Ba  Ba22  1  0.00000000  0.00000000  0.16142302  1
  Ba  Ba23  1  0.00000000  0.00000000  0.83857698  1
  Ba  Ba24  1  0.33681071  0.33681071  0.00000000  1
  Ba  Ba25  1  0.66318929  0.66318929  0.00000000  1
  Ba  Ba26  1  0.84083967  0.15916033  0.50000000  1
  Ba  Ba27  1  0.15916033  0.84083967  0.50000000  1
