# generated using pymatgen
data_Tm6GaCo2
_symmetry_space_group_name_H-M   'P 1'
_cell_length_a   8.17724644
_cell_length_b   8.17724644
_cell_length_c   8.17724644
_cell_angle_alpha   110.22135817
_cell_angle_beta   106.67649560
_cell_angle_gamma   111.55439746
_symmetry_Int_Tables_number   1
_chemical_formula_structural   Tm6GaCo2
_chemical_formula_sum   'Tm12 Ga2 Co4'
_cell_volume   420.11341995
_cell_formula_units_Z   2
loop_
 _symmetry_equiv_pos_site_id
 _symmetry_equiv_pos_as_xyz
  1  'x, y, z'
loop_
 _atom_site_type_symbol
 _atom_site_label
 _atom_site_symmetry_multiplicity
 _atom_site_fract_x
 _atom_site_fract_y
 _atom_site_fract_z
 _atom_site_occupancy
  Tm  Tm0  1  0.73551516  0.29881858  0.03433273  1
  Tm  Tm1  1  0.78205315  0.96563362  0.18358047  1
  Tm  Tm2  1  0.21794685  0.40152833  0.18358047  1
  Tm  Tm3  1  0.51524827  0.19502018  0.32022809  1
  Tm  Tm4  1  0.12520691  0.80497982  0.32022809  1
  Tm  Tm5  1  0.73551516  0.70118242  0.43669558  1
  Tm  Tm6  1  0.26448584  0.29881758  0.56330342  1
  Tm  Tm7  1  0.87479309  0.19502018  0.67977291  1
  Tm  Tm8  1  0.48475173  0.80497982  0.67977291  1
  Tm  Tm9  1  0.78205215  0.59847067  0.81641853  1
  Tm  Tm10  1  0.21794785  0.03436638  0.81641853  1
  Tm  Tm11  1  0.26448584  0.70118242  0.96566827  1
  Ga  Ga12  1  0.50000000  0.50000000  -0.00000000  1
  Ga  Ga13  1  -0.00000000  0.50000100  0.50000100  1
  Co  Co14  1  0.11428248  -0.00000000  0.11428248  1
  Co  Co15  1  0.50000000  0.86449148  0.36449048  1
  Co  Co16  1  0.50000000  0.13550852  0.63550852  1
  Co  Co17  1  0.88571752  0.00000000  0.88571752  1
