# generated using pymatgen
data_Ba3BPO3
_symmetry_space_group_name_H-M   'P 1'
_cell_length_a   5.57506735
_cell_length_b   5.57506734
_cell_length_c   13.70875981
_cell_angle_alpha   90.00000000
_cell_angle_beta   90.00000000
_cell_angle_gamma   119.99999997
_symmetry_Int_Tables_number   1
_chemical_formula_structural   Ba3BPO3
_chemical_formula_sum   'Ba6 B2 P2 O6'
_cell_volume   369.00226781
_cell_formula_units_Z   2
loop_
 _symmetry_equiv_pos_site_id
 _symmetry_equiv_pos_as_xyz
  1  'x, y, z'
loop_
 _atom_site_type_symbol
 _atom_site_label
 _atom_site_symmetry_multiplicity
 _atom_site_fract_x
 _atom_site_fract_y
 _atom_site_fract_z
 _atom_site_occupancy
  B  B0  1  0.66666667  0.33333333  0.25000000  1
  B  B1  1  0.33333333  0.66666667  0.75000000  1
  O  O2  1  0.47815059  0.95630119  0.75000000  1
  O  O3  1  0.52184941  0.47815059  0.25000000  1
  O  O4  1  0.52184941  0.04369881  0.25000000  1
  O  O5  1  0.04369881  0.52184941  0.75000000  1
  O  O6  1  0.47815059  0.52184941  0.75000000  1
  O  O7  1  0.95630119  0.47815059  0.25000000  1
  P  P8  1  0.00000000  0.00000000  0.00000000  1
  P  P9  1  0.00000000  0.00000000  0.50000000  1
  Ba  Ba10  1  0.33333333  0.66666667  0.40183495  1
  Ba  Ba11  1  0.00000000  0.00000000  0.25000000  1
  Ba  Ba12  1  0.00000000  0.00000000  0.75000000  1
  Ba  Ba13  1  0.66666667  0.33333333  0.90183495  1
  Ba  Ba14  1  0.66666667  0.33333333  0.59816505  1
  Ba  Ba15  1  0.33333333  0.66666667  0.09816505  1
