# generated using pymatgen
data_Tc2P3
_symmetry_space_group_name_H-M   'P 1'
_cell_length_a   6.32126953
_cell_length_b   6.36786735
_cell_length_c   7.72517553
_cell_angle_alpha   95.76319338
_cell_angle_beta   101.70415582
_cell_angle_gamma   104.36424952
_symmetry_Int_Tables_number   1
_chemical_formula_structural   Tc2P3
_chemical_formula_sum   'Tc8 P12'
_cell_volume   291.22859566
_cell_formula_units_Z   4
loop_
 _symmetry_equiv_pos_site_id
 _symmetry_equiv_pos_as_xyz
  1  'x, y, z'
loop_
 _atom_site_type_symbol
 _atom_site_label
 _atom_site_symmetry_multiplicity
 _atom_site_fract_x
 _atom_site_fract_y
 _atom_site_fract_z
 _atom_site_occupancy
  P  P0  1  0.73551455  0.57655560  0.36115341  1
  P  P1  1  0.26448545  0.42344440  0.63884659  1
  P  P2  1  0.23491626  0.56182863  0.38212145  1
  P  P3  1  0.76508374  0.43817137  0.61787855  1
  P  P4  1  0.86124402  0.13387623  0.31806299  1
  P  P5  1  0.13875598  0.86612377  0.68193701  1
  P  P6  1  0.37052069  0.15093200  0.32234133  1
  P  P7  1  0.62947931  0.84906800  0.67765867  1
  P  P8  1  0.53769320  0.18416690  0.96372541  1
  P  P9  1  0.46230680  0.81583310  0.03627459  1
  P  P10  1  0.03333034  0.17795092  0.95697881  1
  P  P11  1  0.96666966  0.82204908  0.04302119  1
  Tc  Tc12  1  0.90333776  0.41463085  0.14611272  1
  Tc  Tc13  1  0.09666224  0.58536915  0.85388728  1
  Tc  Tc14  1  0.37726783  0.41601592  0.14002717  1
  Tc  Tc15  1  0.62273217  0.58398408  0.85997283  1
  Tc  Tc16  1  0.53664372  0.86133212  0.36147844  1
  Tc  Tc17  1  0.46335628  0.13866788  0.63852156  1
  Tc  Tc18  1  0.07831063  0.86869700  0.36859590  1
  Tc  Tc19  1  0.92168937  0.13130300  0.63140410  1
