# generated using pymatgen
data_Al2Ge2O7
_symmetry_space_group_name_H-M   'P 1'
_cell_length_a   5.34336948
_cell_length_b   5.34336947
_cell_length_c   9.81317419
_cell_angle_alpha   103.89675178
_cell_angle_beta   103.89675178
_cell_angle_gamma   94.13483272
_symmetry_Int_Tables_number   1
_chemical_formula_structural   Al2Ge2O7
_chemical_formula_sum   'Al4 Ge4 O14'
_cell_volume   261.50382786
_cell_formula_units_Z   2
loop_
 _symmetry_equiv_pos_site_id
 _symmetry_equiv_pos_as_xyz
  1  'x, y, z'
loop_
 _atom_site_type_symbol
 _atom_site_label
 _atom_site_symmetry_multiplicity
 _atom_site_fract_x
 _atom_site_fract_y
 _atom_site_fract_z
 _atom_site_occupancy
  O  O0  1  0.98554771  0.44075577  0.37197217  1
  O  O1  1  0.55924423  0.01445229  0.12802783  1
  O  O2  1  0.01445229  0.55924423  0.62802783  1
  O  O3  1  0.44075577  0.98554771  0.87197217  1
  O  O4  1  0.68585981  0.51591594  0.10112703  1
  O  O5  1  0.48408406  0.31414019  0.39887297  1
  O  O6  1  0.31414019  0.48408406  0.89887297  1
  O  O7  1  0.51591594  0.68585981  0.60112703  1
  O  O8  1  0.83694588  0.16305412  0.75000000  1
  O  O9  1  0.16305412  0.83694588  0.25000000  1
  O  O10  1  0.28448572  0.14972999  0.60351539  1
  O  O11  1  0.85027001  0.71551428  0.89648461  1
  O  O12  1  0.71551428  0.85027001  0.39648461  1
  O  O13  1  0.14972999  0.28448572  0.10351539  1
  Al  Al14  1  0.74610147  0.59154335  0.47787416  1
  Al  Al15  1  0.40845665  0.25389853  0.02212584  1
  Al  Al16  1  0.25389853  0.40845665  0.52212584  1
  Al  Al17  1  0.59154335  0.74610147  0.97787416  1
  Ge  Ge18  1  0.01011015  0.51307139  0.20568234  1
  Ge  Ge19  1  0.48692861  0.98988985  0.29431766  1
  Ge  Ge20  1  0.98988985  0.48692861  0.79431766  1
  Ge  Ge21  1  0.51307139  0.01011015  0.70568234  1
