# generated using pymatgen
data_InPbCl3
_symmetry_space_group_name_H-M   'P 1'
_cell_length_a   4.29717404
_cell_length_b   7.32966917
_cell_length_c   10.68204177
_cell_angle_alpha   90.00001075
_cell_angle_beta   89.99993019
_cell_angle_gamma   107.02438512
_symmetry_Int_Tables_number   1
_chemical_formula_structural   InPbCl3
_chemical_formula_sum   'In2 Pb2 Cl6'
_cell_volume   321.70762237
_cell_formula_units_Z   2
loop_
 _symmetry_equiv_pos_site_id
 _symmetry_equiv_pos_as_xyz
  1  'x, y, z'
loop_
 _atom_site_type_symbol
 _atom_site_label
 _atom_site_symmetry_multiplicity
 _atom_site_fract_x
 _atom_site_fract_y
 _atom_site_fract_z
 _atom_site_occupancy
  In  In0  1  0.25427940  0.50672805  0.00000679  1
  In  In1  1  0.74572025  0.49327149  0.50000660  1
  Pb  Pb2  1  0.00001543  0.00001090  0.74998666  1
  Pb  Pb3  1  0.99998397  0.99998810  0.24998810  1
  Cl  Cl4  1  0.36488873  0.72992420  0.69292478  1
  Cl  Cl5  1  0.63510962  0.27007687  0.19292858  1
  Cl  Cl6  1  0.36487897  0.72990112  0.30703576  1
  Cl  Cl7  1  0.63512168  0.27009750  0.80703314  1
  Cl  Cl8  1  0.91652775  0.83048438  0.99998486  1
  Cl  Cl9  1  0.08347221  0.16951440  0.49998475  1
