# generated using pymatgen
data_Tm3(GePd)4
_symmetry_space_group_name_H-M   'P 1'
_cell_length_a   4.14493628
_cell_length_b   7.09606541
_cell_length_c   8.07550373
_cell_angle_alpha   116.06289093
_cell_angle_beta   104.87057071
_cell_angle_gamma   90.00000001
_symmetry_Int_Tables_number   1
_chemical_formula_structural   Tm3(GePd)4
_chemical_formula_sum   'Tm3 Ge4 Pd4'
_cell_volume   204.47693024
_cell_formula_units_Z   1
loop_
 _symmetry_equiv_pos_site_id
 _symmetry_equiv_pos_as_xyz
  1  'x, y, z'
loop_
 _atom_site_type_symbol
 _atom_site_label
 _atom_site_symmetry_multiplicity
 _atom_site_fract_x
 _atom_site_fract_y
 _atom_site_fract_z
 _atom_site_occupancy
  Ge  Ge0  1  0.50000000  0.68828378  0.00000000  1
  Ge  Ge1  1  0.50000000  0.31171622  0.00000000  1
  Ge  Ge2  1  0.21793450  0.21793450  0.43586900  1
  Ge  Ge3  1  0.78206550  0.78206550  0.56413100  1
  Pd  Pd4  1  0.32509879  0.62359795  0.65019758  1
  Pd  Pd5  1  0.67490121  0.97340037  0.34980242  1
  Pd  Pd6  1  0.32509879  0.02659963  0.65019758  1
  Pd  Pd7  1  0.67490121  0.37640205  0.34980242  1
  Tm  Tm8  1  0.87436820  0.37436820  0.74873639  1
  Tm  Tm9  1  0.12563180  0.62563180  0.25126361  1
  Tm  Tm10  1  0.00000000  0.00000000  0.00000000  1
