# generated using pymatgen
data_Li9Mn2Co5O16
_symmetry_space_group_name_H-M   'P 1'
_cell_length_a   2.91769382
_cell_length_b   9.89375151
_cell_length_c   10.49008391
_cell_angle_alpha   73.00853577
_cell_angle_beta   82.00600596
_cell_angle_gamma   89.99999479
_symmetry_Int_Tables_number   1
_chemical_formula_structural   Li9Mn2Co5O16
_chemical_formula_sum   'Li9 Mn2 Co5 O16'
_cell_volume   286.51984425
_cell_formula_units_Z   1
loop_
 _symmetry_equiv_pos_site_id
 _symmetry_equiv_pos_as_xyz
  1  'x, y, z'
loop_
 _atom_site_type_symbol
 _atom_site_label
 _atom_site_symmetry_multiplicity
 _atom_site_fract_x
 _atom_site_fract_y
 _atom_site_fract_z
 _atom_site_occupancy
  Li  Li0  1  0.43146163  0.20427249  0.13707674  1
  Li  Li1  1  0.31829880  0.56027290  0.36340239  1
  Li  Li2  1  0.18638774  0.92739721  0.62722453  1
  Li  Li3  1  0.81336034  0.07010135  0.37327933  1
  Li  Li4  1  0.68724610  0.44176238  0.62550780  1
  Li  Li5  1  0.56302305  0.79939566  0.87395391  1
  Li  Li6  1  0.06300200  0.32930945  0.87399600  1
  Li  Li7  1  0.93601749  0.67280695  0.12796502  1
  Li  Li8  1  0.87436536  0.37206199  0.25126928  1
  Mn  Mn9  1  0.00309398  0.00570887  0.99381204  1
  Mn  Mn10  1  0.25201468  0.24895064  0.49597064  1
  Co  Co11  1  0.74810572  0.74450425  0.50378856  1
  Co  Co12  1  0.62623537  0.12636024  0.74752927  1
  Co  Co13  1  0.49000817  0.49204485  0.01998367  1
  Co  Co14  1  0.37295567  0.87506449  0.25408867  1
  Co  Co15  1  0.12063554  0.62116709  0.75872892  1
  O  O16  1  0.53423295  0.14098468  0.93153409  1
  O  O17  1  0.41057791  0.53317710  0.17884418  1
  O  O18  1  0.28379135  0.89756063  0.43241730  1
  O  O19  1  0.91356439  0.02434039  0.17287122  1
  O  O20  1  0.77451642  0.38326828  0.45096717  1
  O  O21  1  0.65733501  0.77540547  0.68532997  1
  O  O22  1  0.15571487  0.25921161  0.68857026  1
  O  O23  1  0.03373926  0.64962096  0.93252148  1
  O  O24  1  0.33349852  0.21496360  0.33300295  1
  O  O25  1  0.21855355  0.60004497  0.56289291  1
  O  O26  1  0.09457635  0.99018252  0.81084730  1
  O  O27  1  0.71565400  0.10898112  0.56869200  1
  O  O28  1  0.59455668  0.47622932  0.81088663  1
  O  O29  1  0.47538567  0.86982883  0.04922867  1
  O  O30  1  0.97064817  0.35092592  0.05870366  1
  O  O31  1  0.84744327  0.73409379  0.30511345  1
