# generated using pymatgen
data_Tl2(IO3)3
_symmetry_space_group_name_H-M   'P 1'
_cell_length_a   7.21881470
_cell_length_b   7.24958920
_cell_length_c   10.70029338
_cell_angle_alpha   86.80572997
_cell_angle_beta   72.95527977
_cell_angle_gamma   72.23682166
_symmetry_Int_Tables_number   1
_chemical_formula_structural   Tl2(IO3)3
_chemical_formula_sum   'Tl4 I6 O18'
_cell_volume   509.51297293
_cell_formula_units_Z   2
loop_
 _symmetry_equiv_pos_site_id
 _symmetry_equiv_pos_as_xyz
  1  'x, y, z'
loop_
 _atom_site_type_symbol
 _atom_site_label
 _atom_site_symmetry_multiplicity
 _atom_site_fract_x
 _atom_site_fract_y
 _atom_site_fract_z
 _atom_site_occupancy
  Tl  Tl0  1  0.00000490  0.49999503  0.00001009  1
  Tl  Tl1  1  0.15931023  0.53114491  0.60139339  1
  Tl  Tl2  1  0.84069156  0.46884736  0.39860363  1
  Tl  Tl3  1  0.50000782  0.99999552  0.99999509  1
  I  I4  1  0.41215589  0.94686517  0.37001977  1
  I  I5  1  0.58785419  0.05312849  0.62997047  1
  I  I6  1  0.44619263  0.46203527  0.19157069  1
  I  I7  1  0.55379769  0.53796356  0.80843256  1
  I  I8  1  0.03408081  0.02488240  0.80900444  1
  I  I9  1  0.96592172  0.97513020  0.19099856  1
  O  O10  1  0.33724365  0.06416854  0.60821979  1
  O  O11  1  0.66276489  0.93582588  0.39176881  1
  O  O12  1  0.58971771  0.29943694  0.58327160  1
  O  O13  1  0.41028137  0.70056185  0.41672267  1
  O  O14  1  0.92261871  0.28810810  0.81319592  1
  O  O15  1  0.07738602  0.71190682  0.18680582  1
  O  O16  1  0.96004440  0.95103533  0.67468490  1
  O  O17  1  0.03993931  0.04897775  0.32532619  1
  O  O18  1  0.28749427  0.64664647  0.80900874  1
  O  O19  1  0.71249769  0.35335078  0.19099492  1
  O  O20  1  0.68001976  0.66598838  0.67532948  1
  O  O21  1  0.31997380  0.33401148  0.32467156  1
  O  O22  1  0.56437722  0.67275936  0.94946724  1
  O  O23  1  0.43561264  0.32723071  0.05053681  1
  O  O24  1  0.84311502  0.95241192  0.95000932  1
  O  O25  1  0.15689577  0.04760450  0.05000047  1
  O  O26  1  0.46676943  0.12344910  0.80862582  1
  O  O27  1  0.53322790  0.87653519  0.19136625  1
