# generated using pymatgen
data_Li9Mn2Co5O16
_symmetry_space_group_name_H-M   'P 1'
_cell_length_a   5.18266385
_cell_length_b   5.75184147
_cell_length_c   9.72992515
_cell_angle_alpha   90.00000000
_cell_angle_beta   98.21713486
_cell_angle_gamma   90.00000000
_symmetry_Int_Tables_number   1
_chemical_formula_structural   Li9Mn2Co5O16
_chemical_formula_sum   'Li9 Mn2 Co5 O16'
_cell_volume   287.06994926
_cell_formula_units_Z   1
loop_
 _symmetry_equiv_pos_site_id
 _symmetry_equiv_pos_as_xyz
  1  'x, y, z'
loop_
 _atom_site_type_symbol
 _atom_site_label
 _atom_site_symmetry_multiplicity
 _atom_site_fract_x
 _atom_site_fract_y
 _atom_site_fract_z
 _atom_site_occupancy
  Li  Li0  1  0.50000000  0.25110940  -0.00000000  1
  Li  Li1  1  0.75812088  0.50000000  0.26056093  1
  Li  Li2  1  -0.00000000  0.74784904  0.50000000  1
  Li  Li3  1  0.24187912  0.50000000  0.73943907  1
  Li  Li4  1  0.50000000  0.74889060  -0.00000000  1
  Li  Li5  1  0.74354482  -0.00000000  0.25413637  1
  Li  Li6  1  0.25645518  0.00000000  0.74586363  1
  Li  Li7  1  -0.00000000  0.25215096  0.50000000  1
  Li  Li8  1  0.50000000  0.50000000  0.50000000  1
  Mn  Mn9  1  -0.00000000  -0.00000000  -0.00000000  1
  Mn  Mn10  1  -0.00000000  0.50000000  -0.00000000  1
  Co  Co11  1  0.26402924  0.25173370  0.25874810  1
  Co  Co12  1  0.73597076  0.74826630  0.74125190  1
  Co  Co13  1  0.26402924  0.74826630  0.25874810  1
  Co  Co14  1  0.50000000  -0.00000000  0.50000000  1
  Co  Co15  1  0.73597076  0.25173370  0.74125190  1
  O  O16  1  0.11102828  0.25268151  0.88527184  1
  O  O17  1  0.34220000  0.50000000  0.11868800  1
  O  O18  1  0.60415807  0.76756374  0.38117902  1
  O  O19  1  0.87422357  0.50000000  0.64025809  1
  O  O20  1  0.11102828  0.74731849  0.88527184  1
  O  O21  1  0.37078197  -0.00000000  0.14042308  1
  O  O22  1  0.83738737  -0.00000000  0.61436875  1
  O  O23  1  0.60415807  0.23243626  0.38117902  1
  O  O24  1  0.88897172  0.25268151  0.11472816  1
  O  O25  1  0.12577643  0.50000000  0.35974191  1
  O  O26  1  0.39584193  0.76756374  0.61882098  1
  O  O27  1  0.65780000  0.50000000  0.88131200  1
  O  O28  1  0.88897172  0.74731849  0.11472816  1
  O  O29  1  0.16261263  -0.00000000  0.38563125  1
  O  O30  1  0.62921803  -0.00000000  0.85957692  1
  O  O31  1  0.39584193  0.23243626  0.61882098  1
