# generated using pymatgen
data_Ca3Sn2S7
_symmetry_space_group_name_H-M   'P 1'
_cell_length_a   10.28451242
_cell_length_b   11.39531874
_cell_length_c   12.09004661
_cell_angle_alpha   90.00000000
_cell_angle_beta   108.11899462
_cell_angle_gamma   90.00000000
_symmetry_Int_Tables_number   1
_chemical_formula_structural   Ca3Sn2S7
_chemical_formula_sum   'Ca12 Sn8 S28'
_cell_volume   1346.63650558
_cell_formula_units_Z   4
loop_
 _symmetry_equiv_pos_site_id
 _symmetry_equiv_pos_as_xyz
  1  'x, y, z'
loop_
 _atom_site_type_symbol
 _atom_site_label
 _atom_site_symmetry_multiplicity
 _atom_site_fract_x
 _atom_site_fract_y
 _atom_site_fract_z
 _atom_site_occupancy
  Ca  Ca0  1  0.21087959  0.56476794  0.51958698  1
  Ca  Ca1  1  0.28912041  0.06476794  0.98041302  1
  Ca  Ca2  1  0.78912041  0.43523206  0.48041302  1
  Ca  Ca3  1  0.71087959  0.93523206  0.01958698  1
  Ca  Ca4  1  0.46451457  0.08045548  0.67488744  1
  Ca  Ca5  1  0.03548543  0.58045548  0.82511256  1
  Ca  Ca6  1  0.53548543  0.91954452  0.32511256  1
  Ca  Ca7  1  0.96451457  0.41954452  0.17488744  1
  Ca  Ca8  1  0.57482001  0.38892468  0.84320322  1
  Ca  Ca9  1  0.92517999  0.88892468  0.65679678  1
  Ca  Ca10  1  0.42517999  0.61107532  0.15679678  1
  Ca  Ca11  1  0.07482001  0.11107532  0.34320322  1
  Sn  Sn12  1  0.59242487  0.71985318  0.57856849  1
  Sn  Sn13  1  0.90757513  0.21985318  0.92143151  1
  Sn  Sn14  1  0.40757513  0.28014682  0.42143151  1
  Sn  Sn15  1  0.09242487  0.78014682  0.07856849  1
  Sn  Sn16  1  0.35589549  0.73021986  0.80245561  1
  Sn  Sn17  1  0.14410451  0.23021986  0.69754439  1
  Sn  Sn18  1  0.64410451  0.26978014  0.19754439  1
  Sn  Sn19  1  0.85589549  0.76978014  0.30245561  1
  S  S20  1  0.44989316  0.92002238  0.85723916  1
  S  S21  1  0.05010684  0.42002238  0.64276084  1
  S  S22  1  0.55010684  0.07997762  0.14276084  1
  S  S23  1  0.94989316  0.57997762  0.35723916  1
  S  S24  1  0.13800589  0.73736430  0.65501828  1
  S  S25  1  0.36199411  0.23736430  0.84498172  1
  S  S26  1  0.86199411  0.26263570  0.34498172  1
  S  S27  1  0.63800589  0.76263570  0.15501828  1
  S  S28  1  0.33030361  0.56881147  0.91750576  1
  S  S29  1  0.16969639  0.06881147  0.58249424  1
  S  S30  1  0.66969639  0.43118853  0.08249424  1
  S  S31  1  0.83030361  0.93118853  0.41750576  1
  S  S32  1  0.48697147  0.60530448  0.70346512  1
  S  S33  1  0.01302853  0.10530448  0.79653488  1
  S  S34  1  0.51302853  0.39469552  0.29653488  1
  S  S35  1  0.98697147  0.89469552  0.20346512  1
  S  S36  1  0.64098073  0.92287760  0.61878249  1
  S  S37  1  0.85901927  0.42287760  0.88121751  1
  S  S38  1  0.35901927  0.07712240  0.38121751  1
  S  S39  1  0.14098073  0.57712240  0.11878249  1
  S  S40  1  0.81573080  0.64414109  0.60193565  1
  S  S41  1  0.68426920  0.14414109  0.89806435  1
  S  S42  1  0.18426920  0.35585891  0.39806435  1
  S  S43  1  0.31573080  0.85585891  0.10193565  1
  S  S44  1  0.42187078  0.70315728  0.39233650  1
  S  S45  1  0.07812922  0.20315728  0.10766350  1
  S  S46  1  0.57812922  0.29684272  0.60766350  1
  S  S47  1  0.92187078  0.79684272  0.89233650  1
