# generated using pymatgen
data_CaCr2F12
_symmetry_space_group_name_H-M   'P 1'
_cell_length_a   11.42009928
_cell_length_b   5.64981007
_cell_length_c   5.71143706
_cell_angle_alpha   57.73360763
_cell_angle_beta   57.61424858
_cell_angle_gamma   57.18857758
_symmetry_Int_Tables_number   1
_chemical_formula_structural   CaCr2F12
_chemical_formula_sum   'Ca1 Cr2 F12'
_cell_volume   245.65354941
_cell_formula_units_Z   1
loop_
 _symmetry_equiv_pos_site_id
 _symmetry_equiv_pos_as_xyz
  1  'x, y, z'
loop_
 _atom_site_type_symbol
 _atom_site_label
 _atom_site_symmetry_multiplicity
 _atom_site_fract_x
 _atom_site_fract_y
 _atom_site_fract_z
 _atom_site_occupancy
  Ca  Ca0  1  0.75000000  0.50000000  0.50000000  1
  Cr  Cr1  1  0.01018101  0.98881293  0.99601399  1
  Cr  Cr2  1  0.48981899  0.01118707  0.00398601  1
  F  F3  1  0.15586686  0.12568299  0.78309724  1
  F  F4  1  0.65688874  0.12526673  0.78263680  1
  F  F5  1  0.05918438  0.78873204  0.31181832  1
  F  F6  1  0.56184027  0.78271931  0.31317025  1
  F  F7  1  0.10737054  0.68412378  0.87539595  1
  F  F8  1  0.60907259  0.68316793  0.87690550  1
  F  F9  1  0.44081562  0.21126796  0.68818168  1
  F  F10  1  0.93815973  0.21728069  0.68682975  1
  F  F11  1  0.34413314  0.87431701  0.21690276  1
  F  F12  1  0.84311126  0.87473327  0.21736320  1
  F  F13  1  0.39262946  0.31587622  0.12460405  1
  F  F14  1  0.89092741  0.31683207  0.12309450  1
