# generated using pymatgen
data_Li9Mn2Co5O16
_symmetry_space_group_name_H-M   'P 1'
_cell_length_a   5.19842875
_cell_length_b   5.76092712
_cell_length_c   9.72024489
_cell_angle_alpha   90.00000000
_cell_angle_beta   98.11504112
_cell_angle_gamma   90.00000000
_symmetry_Int_Tables_number   1
_chemical_formula_structural   Li9Mn2Co5O16
_chemical_formula_sum   'Li9 Mn2 Co5 O16'
_cell_volume   288.18476279
_cell_formula_units_Z   1
loop_
 _symmetry_equiv_pos_site_id
 _symmetry_equiv_pos_as_xyz
  1  'x, y, z'
loop_
 _atom_site_type_symbol
 _atom_site_label
 _atom_site_symmetry_multiplicity
 _atom_site_fract_x
 _atom_site_fract_y
 _atom_site_fract_z
 _atom_site_occupancy
  Li  Li0  1  0.50235753  0.25000000  0.99143360  1
  Li  Li1  1  0.75235083  0.49489729  0.26112768  1
  Li  Li2  1  0.00541097  0.75000000  0.50904631  1
  Li  Li3  1  0.23953196  0.49825583  0.73598212  1
  Li  Li4  1  0.50778976  0.75000000  0.99587589  1
  Li  Li5  1  0.75235083  0.00510271  0.26112768  1
  Li  Li6  1  0.23953196  0.00174417  0.73598212  1
  Li  Li7  1  0.99452899  0.25000000  0.50592342  1
  Li  Li8  1  0.74729091  0.25000000  0.74702537  1
  Mn  Mn9  1  0.99680869  0.00093376  0.99690123  1
  Mn  Mn10  1  0.99680869  0.49906624  0.99690123  1
  Co  Co11  1  0.25015131  0.25000000  0.25088837  1
  Co  Co12  1  0.51062103  0.49604967  0.50719209  1
  Co  Co13  1  0.75559459  0.75000000  0.74979609  1
  Co  Co14  1  0.24862141  0.75000000  0.25720002  1
  Co  Co15  1  0.51062103  0.00395033  0.50719209  1
  O  O16  1  0.12420382  0.25000000  0.89027196  1
  O  O17  1  0.33398789  0.49147125  0.12688283  1
  O  O18  1  0.59920997  0.75000000  0.37570197  1
  O  O19  1  0.85175159  0.51754205  0.62831108  1
  O  O20  1  0.13499161  0.75000000  0.89565825  1
  O  O21  1  0.33398789  0.00852875  0.12688283  1
  O  O22  1  0.85175159  0.98245795  0.62831108  1
  O  O23  1  0.62339471  0.25000000  0.37995357  1
  O  O24  1  0.86811741  0.25000000  0.10349803  1
  O  O25  1  0.13884189  0.49140834  0.36356512  1
  O  O26  1  0.37802451  0.75000000  0.62115744  1
  O  O27  1  0.67285607  0.51441360  0.87868603  1
  O  O28  1  0.88995786  0.75000000  0.11536121  1
  O  O29  1  0.13884189  0.00859166  0.36356512  1
  O  O30  1  0.67285607  0.98558640  0.87868603  1
  O  O31  1  0.37685474  0.25000000  0.61391215  1
