# generated using pymatgen
data_RbCr5Te8
_symmetry_space_group_name_H-M   'P 1'
_cell_length_a   4.04944076
_cell_length_b   9.66088478
_cell_length_c   10.44579602
_cell_angle_alpha   104.00546709
_cell_angle_beta   101.17644918
_cell_angle_gamma   90.00000000
_symmetry_Int_Tables_number   1
_chemical_formula_structural   RbCr5Te8
_chemical_formula_sum   'Rb1 Cr5 Te8'
_cell_volume   388.51135254
_cell_formula_units_Z   1
loop_
 _symmetry_equiv_pos_site_id
 _symmetry_equiv_pos_as_xyz
  1  'x, y, z'
loop_
 _atom_site_type_symbol
 _atom_site_label
 _atom_site_symmetry_multiplicity
 _atom_site_fract_x
 _atom_site_fract_y
 _atom_site_fract_z
 _atom_site_occupancy
  Rb  Rb0  1  0.50000000  0.50000000  -0.00000000  1
  Cr  Cr1  1  0.00000000  0.00000000  0.00000000  1
  Cr  Cr2  1  0.65892448  0.98567896  0.31784896  1
  Cr  Cr3  1  0.70420357  0.33120776  0.40840715  1
  Cr  Cr4  1  0.29579643  0.66879224  0.59159285  1
  Cr  Cr5  1  0.34107552  0.01432004  0.68215004  1
  Te  Te6  1  0.57267923  0.16052433  0.14535745  1
  Te  Te7  1  0.08881194  0.83091635  0.17762387  1
  Te  Te8  1  0.17135267  0.49100400  0.34270534  1
  Te  Te9  1  0.23935826  0.15733338  0.47871653  1
  Te  Te10  1  0.76064274  0.84266662  0.52128447  1
  Te  Te11  1  0.82864733  0.50899500  0.65729466  1
  Te  Te12  1  0.91118806  0.16908365  0.82237613  1
  Te  Te13  1  0.42732077  0.83947467  0.85464255  1
