# generated using pymatgen
data_Rb5Tl11Cd2
_symmetry_space_group_name_H-M   'P 1'
_cell_length_a   5.86283121
_cell_length_b   11.16101340
_cell_length_c   11.16101340
_cell_angle_alpha   72.60874261
_cell_angle_beta   90.00000000
_cell_angle_gamma   90.00000000
_symmetry_Int_Tables_number   1
_chemical_formula_structural   Rb5Tl11Cd2
_chemical_formula_sum   'Rb5 Tl11 Cd2'
_cell_volume   696.93644923
_cell_formula_units_Z   1
loop_
 _symmetry_equiv_pos_site_id
 _symmetry_equiv_pos_as_xyz
  1  'x, y, z'
loop_
 _atom_site_type_symbol
 _atom_site_label
 _atom_site_symmetry_multiplicity
 _atom_site_fract_x
 _atom_site_fract_y
 _atom_site_fract_z
 _atom_site_occupancy
  Rb  Rb0  1  0.00000000  0.39479256  0.22079978  1
  Rb  Rb1  1  0.50000100  0.11308401  0.50950701  1
  Rb  Rb2  1  0.00000000  0.77920022  0.60520744  1
  Rb  Rb3  1  0.00000000  0.37232649  0.62767251  1
  Rb  Rb4  1  0.50000100  0.49049399  0.88691699  1
  Tl  Tl5  1  0.50000100  0.65606404  0.13721207  1
  Tl  Tl6  1  0.50000100  0.16755962  0.14685073  1
  Tl  Tl7  1  0.00000000  0.71130606  0.28869294  1
  Tl  Tl8  1  0.00000000  0.02924723  0.29114641  1
  Tl  Tl9  1  0.50000100  0.86278793  0.34393596  1
  Tl  Tl10  1  0.50000100  0.56150865  0.43849035  1
  Tl  Tl11  1  0.00000000  0.01893929  0.78470986  1
  Tl  Tl12  1  0.50000100  0.17267171  0.82732729  1
  Tl  Tl13  1  0.50000100  0.85314927  0.83244038  1
  Tl  Tl14  1  0.00000000  0.70885259  0.97075277  1
  Tl  Tl15  1  0.00000000  0.21529014  0.98106171  1
  Cd  Cd16  1  0.25053461  0.93891210  0.06108790  1
  Cd  Cd17  1  0.74946539  0.93891210  0.06108790  1
