# generated using pymatgen
data_La11In9Ni4
_symmetry_space_group_name_H-M   'P 1'
_cell_length_a   13.60713323
_cell_length_b   13.60713323
_cell_length_c   3.86010498
_cell_angle_alpha   90.00000000
_cell_angle_beta   90.00000000
_cell_angle_gamma   67.50215279
_symmetry_Int_Tables_number   1
_chemical_formula_structural   La11In9Ni4
_chemical_formula_sum   'La11 In9 Ni4'
_cell_volume   660.32006598
_cell_formula_units_Z   1
loop_
 _symmetry_equiv_pos_site_id
 _symmetry_equiv_pos_as_xyz
  1  'x, y, z'
loop_
 _atom_site_type_symbol
 _atom_site_label
 _atom_site_symmetry_multiplicity
 _atom_site_fract_x
 _atom_site_fract_y
 _atom_site_fract_z
 _atom_site_occupancy
  La  La0  1  0.31284249  0.68715851  0.00000000  1
  La  La1  1  0.68715851  0.31284249  0.00000000  1
  La  La2  1  0.00000000  0.00000000  0.00000000  1
  La  La3  1  0.41769348  0.92099098  0.00000000  1
  La  La4  1  0.58230652  0.07900902  0.00000000  1
  La  La5  1  0.07900902  0.58230652  0.00000000  1
  La  La6  1  0.92099098  0.41769348  0.00000000  1
  La  La7  1  0.16202919  0.16202919  0.00000000  1
  La  La8  1  0.83796981  0.83796981  0.00000000  1
  La  La9  1  0.37557624  0.37557624  0.00000000  1
  La  La10  1  0.62442376  0.62442376  0.00000000  1
  In  In11  1  0.36715645  0.16475130  0.50000200  1
  In  In12  1  0.63284355  0.83524870  0.50000200  1
  In  In13  1  0.83524870  0.63284355  0.50000200  1
  In  In14  1  0.16475130  0.36715645  0.50000200  1
  In  In15  1  0.22164301  0.91906009  0.50000200  1
  In  In16  1  0.77835699  0.08093991  0.50000200  1
  In  In17  1  0.08093991  0.77835699  0.50000200  1
  In  In18  1  0.91906009  0.22164301  0.50000200  1
  In  In19  1  0.50000000  0.50000000  0.50000200  1
  Ni  Ni20  1  0.44659793  0.75766690  0.50000200  1
  Ni  Ni21  1  0.55340207  0.24233310  0.50000200  1
  Ni  Ni22  1  0.24233310  0.55340207  0.50000200  1
  Ni  Ni23  1  0.75766690  0.44659793  0.50000200  1
