# generated using pymatgen
data_ZnNiF6
_symmetry_space_group_name_H-M   'P 1'
_cell_length_a   5.30700392
_cell_length_b   5.30700429
_cell_length_c   5.30700439
_cell_angle_alpha   58.10616400
_cell_angle_beta   58.10615934
_cell_angle_gamma   58.10615781
_symmetry_Int_Tables_number   1
_chemical_formula_structural   ZnNiF6
_chemical_formula_sum   'Zn1 Ni1 F6'
_cell_volume   101.10105782
_cell_formula_units_Z   1
loop_
 _symmetry_equiv_pos_site_id
 _symmetry_equiv_pos_as_xyz
  1  'x, y, z'
loop_
 _atom_site_type_symbol
 _atom_site_label
 _atom_site_symmetry_multiplicity
 _atom_site_fract_x
 _atom_site_fract_y
 _atom_site_fract_z
 _atom_site_occupancy
  Zn  Zn0  1  0.50000000  0.50000000  0.50000000  1
  Ni  Ni1  1  0.00000000  0.00000000  0.00000000  1
  F  F2  1  0.33331408  0.13636380  0.76726983  1
  F  F3  1  0.13636380  0.76726983  0.33331408  1
  F  F4  1  0.23273017  0.66668592  0.86363620  1
  F  F5  1  0.86363620  0.23273017  0.66668592  1
  F  F6  1  0.66668592  0.86363620  0.23273017  1
  F  F7  1  0.76726983  0.33331408  0.13636380  1
