# generated using pymatgen
data_Y2Co2O7
_symmetry_space_group_name_H-M   'P 1'
_cell_length_a   6.98960130
_cell_length_b   6.98098952
_cell_length_c   7.02380362
_cell_angle_alpha   60.26518242
_cell_angle_beta   60.41233426
_cell_angle_gamma   60.04125469
_symmetry_Int_Tables_number   1
_chemical_formula_structural   Y2Co2O7
_chemical_formula_sum   'Y4 Co4 O14'
_cell_volume   243.65019912
_cell_formula_units_Z   2
loop_
 _symmetry_equiv_pos_site_id
 _symmetry_equiv_pos_as_xyz
  1  'x, y, z'
loop_
 _atom_site_type_symbol
 _atom_site_label
 _atom_site_symmetry_multiplicity
 _atom_site_fract_x
 _atom_site_fract_y
 _atom_site_fract_z
 _atom_site_occupancy
  Y  Y0  1  0.50000021  -0.00000026  0.49999989  1
  Y  Y1  1  -0.00000016  0.50000012  0.49999993  1
  Y  Y2  1  0.50000046  0.49999970  -0.00000033  1
  Y  Y3  1  0.49999949  0.50000050  0.50000047  1
  Co  Co4  1  0.99999998  0.49999990  0.00000007  1
  Co  Co5  1  0.49999999  0.99999986  -0.00000005  1
  Co  Co6  1  0.99999991  0.00000008  0.49999999  1
  Co  Co7  1  0.00000013  0.99999990  0.00000007  1
  O  O8  1  0.62491885  0.62428900  0.62673736  1
  O  O9  1  0.37508146  0.37571108  0.37326235  1
  O  O10  1  0.32701835  0.92262664  0.92180044  1
  O  O11  1  0.07897576  0.67211938  0.67073139  1
  O  O12  1  0.92270750  0.32782868  0.92163846  1
  O  O13  1  0.92166558  0.92191148  0.32979368  1
  O  O14  1  0.32756685  0.32778302  0.92218716  1
  O  O15  1  0.33021995  0.92065917  0.32840281  1
  O  O16  1  0.92102403  0.32788066  0.32926874  1
  O  O17  1  0.67243281  0.67221690  0.07781303  1
  O  O18  1  0.07833465  0.07808852  0.67020620  1
  O  O19  1  0.67298169  0.07737345  0.07819924  1
  O  O20  1  0.66977993  0.07934110  0.67159725  1
  O  O21  1  0.07729258  0.67217110  0.07836188  1
