# generated using pymatgen
data_K2NiP2
_symmetry_space_group_name_H-M   'P 1'
_cell_length_a   5.61145707
_cell_length_b   6.42116220
_cell_length_c   7.62269574
_cell_angle_alpha   114.90955662
_cell_angle_beta   90.00000000
_cell_angle_gamma   90.00000000
_symmetry_Int_Tables_number   1
_chemical_formula_structural   K2NiP2
_chemical_formula_sum   'K4 Ni2 P4'
_cell_volume   249.11082538
_cell_formula_units_Z   2
loop_
 _symmetry_equiv_pos_site_id
 _symmetry_equiv_pos_as_xyz
  1  'x, y, z'
loop_
 _atom_site_type_symbol
 _atom_site_label
 _atom_site_symmetry_multiplicity
 _atom_site_fract_x
 _atom_site_fract_y
 _atom_site_fract_z
 _atom_site_occupancy
  P  P0  1  0.75000000  0.27043378  0.20070623  1
  P  P1  1  0.25000000  0.06972754  0.79929377  1
  P  P2  1  0.25000000  0.72956622  0.79929377  1
  P  P3  1  0.75000000  0.93027246  0.20070623  1
  K  K4  1  0.75000000  0.41664205  0.83328411  1
  K  K5  1  0.75000000  0.78686701  0.57373403  1
  K  K6  1  0.25000000  0.58335795  0.16671589  1
  K  K7  1  0.25000000  0.21313299  0.42626597  1
  Ni  Ni8  1  0.00000000  0.00000000  0.00000000  1
  Ni  Ni9  1  0.50000000  0.00000000  0.00000000  1
