# generated using pymatgen
data_K3TlAu5
_symmetry_space_group_name_H-M   'P 1'
_cell_length_a   5.77645550
_cell_length_b   8.58316068
_cell_length_c   11.32900624
_cell_angle_alpha   112.26020657
_cell_angle_beta   104.77008424
_cell_angle_gamma   90.00000000
_symmetry_Int_Tables_number   1
_chemical_formula_structural   K3TlAu5
_chemical_formula_sum   'K6 Tl2 Au10'
_cell_volume   499.72082861
_cell_formula_units_Z   2
loop_
 _symmetry_equiv_pos_site_id
 _symmetry_equiv_pos_as_xyz
  1  'x, y, z'
loop_
 _atom_site_type_symbol
 _atom_site_label
 _atom_site_symmetry_multiplicity
 _atom_site_fract_x
 _atom_site_fract_y
 _atom_site_fract_z
 _atom_site_occupancy
  K  K0  1  0.08638303  0.70533190  0.17276507  1
  K  K1  1  0.58638303  0.96743317  0.17276507  1
  K  K2  1  0.75000000  0.36914309  0.50000000  1
  K  K3  1  0.25000000  0.63085791  0.50000000  1
  K  K4  1  0.41361697  0.03256583  0.82723493  1
  K  K5  1  0.91361797  0.29466810  0.82723493  1
  Tl  Tl6  1  0.25000000  0.08409436  0.50000000  1
  Tl  Tl7  1  0.75000000  0.91590564  0.50000000  1
  Au  Au8  1  0.00000000  0.00000000  0.00000000  1
  Au  Au9  1  0.50000000  0.50000000  0.00000000  1
  Au  Au10  1  0.31029089  0.31029189  0.12058277  1
  Au  Au11  1  0.81029089  0.31029189  0.12058277  1
  Au  Au12  1  0.14381544  0.18650826  0.28762987  1
  Au  Au13  1  0.64381544  0.60112161  0.28762987  1
  Au  Au14  1  0.35618456  0.39887839  0.71236913  1
  Au  Au15  1  0.85618456  0.81349074  0.71236913  1
  Au  Au16  1  0.18971011  0.68971011  0.87941923  1
  Au  Au17  1  0.68970911  0.68971011  0.87941923  1
