# generated using pymatgen
data_Ce2ReC2
_symmetry_space_group_name_H-M   'P 1'
_cell_length_a   6.59149190
_cell_length_b   5.26653152
_cell_length_c   9.96981123
_cell_angle_alpha   90.00000000
_cell_angle_beta   90.00000000
_cell_angle_gamma   90.00000000
_symmetry_Int_Tables_number   1
_chemical_formula_structural   Ce2ReC2
_chemical_formula_sum   'Ce8 Re4 C8'
_cell_volume   346.09501654
_cell_formula_units_Z   4
loop_
 _symmetry_equiv_pos_site_id
 _symmetry_equiv_pos_as_xyz
  1  'x, y, z'
loop_
 _atom_site_type_symbol
 _atom_site_label
 _atom_site_symmetry_multiplicity
 _atom_site_fract_x
 _atom_site_fract_y
 _atom_site_fract_z
 _atom_site_occupancy
  Ce  Ce0  1  0.47650177  0.25000100  0.77688803  1
  Ce  Ce1  1  0.02349823  0.75000100  0.27688903  1
  Ce  Ce2  1  0.97650177  0.25000100  0.72311197  1
  Ce  Ce3  1  0.52349823  0.75000100  0.22311197  1
  Ce  Ce4  1  0.80753875  0.25000100  0.04579739  1
  Ce  Ce5  1  0.69246025  0.75000100  0.54579639  1
  Ce  Ce6  1  0.30754075  0.25000100  0.45420361  1
  Ce  Ce7  1  0.19246025  0.75000100  0.95420361  1
  Re  Re8  1  0.27103378  0.25000100  0.13812139  1
  Re  Re9  1  0.22896422  0.75000100  0.63812139  1
  Re  Re10  1  0.77103578  0.25000100  0.36187861  1
  Re  Re11  1  0.72896622  0.75000100  0.86187761  1
  C  C12  1  0.67456651  0.25000100  0.55056422  1
  C  C13  1  0.82543249  0.75000100  0.05056422  1
  C  C14  1  0.17456651  0.25000100  0.94943578  1
  C  C15  1  0.32543349  0.75000100  0.44943578  1
  C  C16  1  0.03228288  0.25000100  0.25660591  1
  C  C17  1  0.46771712  0.75000100  0.75660591  1
  C  C18  1  0.53228288  0.25000100  0.24339309  1
  C  C19  1  0.96771712  0.75000100  0.74339409  1
