# generated using pymatgen
data_Hg2H6CN3Cl5
_symmetry_space_group_name_H-M   'P 1'
_cell_length_a   4.38021452
_cell_length_b   7.91215533
_cell_length_c   18.59785343
_cell_angle_alpha   90.00000000
_cell_angle_beta   90.00000000
_cell_angle_gamma   106.06948423
_symmetry_Int_Tables_number   1
_chemical_formula_structural   Hg2H6CN3Cl5
_chemical_formula_sum   'Hg4 H12 C2 N6 Cl10'
_cell_volume   619.36017109
_cell_formula_units_Z   2
loop_
 _symmetry_equiv_pos_site_id
 _symmetry_equiv_pos_as_xyz
  1  'x, y, z'
loop_
 _atom_site_type_symbol
 _atom_site_label
 _atom_site_symmetry_multiplicity
 _atom_site_fract_x
 _atom_site_fract_y
 _atom_site_fract_z
 _atom_site_occupancy
  Hg  Hg0  1  0.00036643  0.74477954  0.53555998  1
  Hg  Hg1  1  0.25558690  0.25522046  0.46444002  1
  Hg  Hg2  1  0.99963357  0.25522046  0.03555998  1
  Hg  Hg3  1  0.74441310  0.74477954  0.96444002  1
  H  H4  1  0.61186228  0.79410954  0.34778772  1
  H  H5  1  0.81775274  0.20589046  0.65221228  1
  H  H6  1  0.38813772  0.20589046  0.84778772  1
  H  H7  1  0.18224726  0.79410954  0.15221228  1
  H  H8  1  0.54029339  0.98608379  0.31614146  1
  H  H9  1  0.55420960  0.01391621  0.68385854  1
  H  H10  1  0.45970661  0.01391621  0.81614146  1
  H  H11  1  0.44579040  0.98608379  0.18385854  1
  H  H12  1  0.28685889  0.52310696  0.29588895  1
  H  H13  1  0.76375193  0.47689304  0.70411105  1
  H  H14  1  0.71314111  0.47689304  0.79588895  1
  H  H15  1  0.23624807  0.52310696  0.20411105  1
  C  C16  1  0.38532148  0.77064296  0.25000000  1
  C  C17  1  0.61467852  0.22935704  0.75000000  1
  N  N18  1  0.53161812  0.85803770  0.30750743  1
  N  N19  1  0.67358041  0.14196230  0.69249257  1
  N  N20  1  0.46838188  0.14196230  0.80750743  1
  N  N21  1  0.32641959  0.85803770  0.19249257  1
  N  N22  1  0.29697325  0.59394651  0.25000000  1
  N  N23  1  0.70302675  0.40605349  0.75000000  1
  Cl  Cl24  1  0.60845059  0.00000000  0.50000000  1
  Cl  Cl25  1  0.39154941  1.00000000  -0.00000000  1
  Cl  Cl26  1  0.87877350  0.61138567  0.42113589  1
  Cl  Cl27  1  0.26738783  0.38861433  0.57886411  1
  Cl  Cl28  1  0.12122650  0.38861433  0.92113589  1
  Cl  Cl29  1  0.73261217  0.61138567  0.07886411  1
  Cl  Cl30  1  0.02331118  0.79537928  0.66046146  1
  Cl  Cl31  1  0.22793190  0.20462072  0.33953854  1
  Cl  Cl32  1  0.97668882  0.20462072  0.16046146  1
  Cl  Cl33  1  0.77206810  0.79537928  0.83953854  1
