# generated using pymatgen
data_Ge3Ir2Se3
_symmetry_space_group_name_H-M   'P 1'
_cell_length_a   8.68668663
_cell_length_b   8.68668705
_cell_length_c   8.68668662
_cell_angle_alpha   89.83148501
_cell_angle_beta   89.83147961
_cell_angle_gamma   89.83147717
_symmetry_Int_Tables_number   1
_chemical_formula_structural   Ge3Ir2Se3
_chemical_formula_sum   'Ge12 Ir8 Se12'
_cell_volume   655.47609850
_cell_formula_units_Z   4
loop_
 _symmetry_equiv_pos_site_id
 _symmetry_equiv_pos_as_xyz
  1  'x, y, z'
loop_
 _atom_site_type_symbol
 _atom_site_label
 _atom_site_symmetry_multiplicity
 _atom_site_fract_x
 _atom_site_fract_y
 _atom_site_fract_z
 _atom_site_occupancy
  Ge  Ge0  1  0.49768299  0.83158282  0.34887009  1
  Ge  Ge1  1  0.34887109  0.49768299  0.83158182  1
  Ge  Ge2  1  0.83158282  0.34887109  0.49768299  1
  Ge  Ge3  1  0.50231701  0.16841718  0.65112891  1
  Ge  Ge4  1  0.65112891  0.50231701  0.16841718  1
  Ge  Ge5  1  0.16841718  0.65112891  0.50231701  1
  Ge  Ge6  1  0.99771659  0.33124244  0.15015332  1
  Ge  Ge7  1  0.15015432  0.99771559  0.33124244  1
  Ge  Ge8  1  0.33124244  0.15015432  0.99771559  1
  Ge  Ge9  1  0.00228341  0.66875756  0.84984668  1
  Ge  Ge10  1  0.84984568  0.00228441  0.66875856  1
  Ge  Ge11  1  0.66875756  0.84984568  0.00228441  1
  Ir  Ir12  1  0.24712846  0.24712846  0.24712846  1
  Ir  Ir13  1  0.75287154  0.75287154  0.75287254  1
  Ir  Ir14  1  0.25104079  0.74615558  0.75222051  1
  Ir  Ir15  1  0.75222151  0.25104079  0.74615558  1
  Ir  Ir16  1  0.74615558  0.75222151  0.25103979  1
  Ir  Ir17  1  0.74895921  0.25384442  0.24777949  1
  Ir  Ir18  1  0.24777849  0.74895921  0.25384542  1
  Ir  Ir19  1  0.25384442  0.24777849  0.74896021  1
  Se  Se20  1  0.50313845  0.85272868  0.64272783  1
  Se  Se21  1  0.64272783  0.50313745  0.85272868  1
  Se  Se22  1  0.85272868  0.64272783  0.50313845  1
  Se  Se23  1  0.49686055  0.14727032  0.35727217  1
  Se  Se24  1  0.35727117  0.49686155  0.14727032  1
  Se  Se25  1  0.14727032  0.35727217  0.49686155  1
  Se  Se26  1  0.00046627  0.35262883  0.85634200  1
  Se  Se27  1  0.85634200  0.00046627  0.35262783  1
  Se  Se28  1  0.35262883  0.85634200  0.00046627  1
  Se  Se29  1  0.99953373  0.64737117  0.14365800  1
  Se  Se30  1  0.14365800  0.99953373  0.64737217  1
  Se  Se31  1  0.64737117  0.14365800  0.99953373  1
