# generated using pymatgen
data_Li9Mn2Co5O16
_symmetry_space_group_name_H-M   'P 1'
_cell_length_a   5.03179001
_cell_length_b   5.89971748
_cell_length_c   10.30174789
_cell_angle_alpha   73.36070771
_cell_angle_beta   99.42317261
_cell_angle_gamma   89.99999768
_symmetry_Int_Tables_number   1
_chemical_formula_structural   Li9Mn2Co5O16
_chemical_formula_sum   'Li9 Mn2 Co5 O16'
_cell_volume   288.70368327
_cell_formula_units_Z   1
loop_
 _symmetry_equiv_pos_site_id
 _symmetry_equiv_pos_as_xyz
  1  'x, y, z'
loop_
 _atom_site_type_symbol
 _atom_site_label
 _atom_site_symmetry_multiplicity
 _atom_site_fract_x
 _atom_site_fract_y
 _atom_site_fract_z
 _atom_site_occupancy
  Li  Li0  1  0.24382812  0.61961836  0.24134898  1
  Li  Li1  1  0.75536376  0.37688278  0.75895607  1
  Li  Li2  1  0.24382812  0.13903265  0.24134898  1
  Li  Li3  1  0.76110118  0.38164467  0.23671065  1
  Li  Li4  1  0.25294701  0.12173680  0.75652640  1
  Li  Li5  1  0.74352533  0.87854515  0.24290970  1
  Li  Li6  1  0.75536376  0.86416114  0.75895607  1
  Li  Li7  1  0.24606133  0.61907710  0.76184581  1
  Li  Li8  1  0.99886546  0.49983309  0.00033381  1
  Mn  Mn9  1  -0.00046104  0.00031660  -0.00063319  1
  Mn  Mn10  1  0.49878859  0.74895272  0.50209456  1
  Co  Co11  1  0.49974174  0.25203106  0.49593788  1
  Co  Co12  1  -0.00261994  0.49448994  0.50023854  1
  Co  Co13  1  0.49883834  0.25910167  0.00036148  1
  Co  Co14  1  -0.00261994  0.00527151  0.50023854  1
  Co  Co15  1  0.49883834  0.74053685  0.00036148  1
  O  O16  1  0.86302125  0.71296749  0.11159221  1
  O  O17  1  0.38078814  0.45285026  0.61226110  1
  O  O18  1  0.86302125  0.17544030  0.11159221  1
  O  O19  1  0.39583631  0.43977145  0.12045709  1
  O  O20  1  0.88981356  0.19316430  0.61367140  1
  O  O21  1  0.35389878  0.94385602  0.11228795  1
  O  O22  1  0.38078814  0.93488865  0.61226110  1
  O  O23  1  0.85832306  0.69304949  0.61390102  1
  O  O24  1  0.61965890  0.57165166  0.38750028  1
  O  O25  1  0.13748926  0.28831520  0.88839768  1
  O  O26  1  0.61965890  0.04084806  0.38750028  1
  O  O27  1  0.11880209  0.30954364  0.38091272  1
  O  O28  1  0.64619712  0.05754664  0.88490672  1
  O  O29  1  0.13647984  0.80337650  0.39324701  1
  O  O30  1  0.13748926  0.82328712  0.88839768  1
  O  O31  1  0.60734398  0.55821112  0.88357777  1
