# generated using pymatgen
data_Sr3BPO3
_symmetry_space_group_name_H-M   'P 1'
_cell_length_a   5.30854150
_cell_length_b   5.30854150
_cell_length_c   12.78243687
_cell_angle_alpha   90.00000000
_cell_angle_beta   90.00000000
_cell_angle_gamma   119.99999998
_symmetry_Int_Tables_number   1
_chemical_formula_structural   Sr3BPO3
_chemical_formula_sum   'Sr6 B2 P2 O6'
_cell_volume   311.95699070
_cell_formula_units_Z   2
loop_
 _symmetry_equiv_pos_site_id
 _symmetry_equiv_pos_as_xyz
  1  'x, y, z'
loop_
 _atom_site_type_symbol
 _atom_site_label
 _atom_site_symmetry_multiplicity
 _atom_site_fract_x
 _atom_site_fract_y
 _atom_site_fract_z
 _atom_site_occupancy
  B  B0  1  0.33333333  0.66666667  0.75000000  1
  B  B1  1  0.66666667  0.33333333  0.25000000  1
  O  O2  1  0.51563195  0.48436805  0.25000000  1
  O  O3  1  0.96873609  0.48436805  0.25000000  1
  O  O4  1  0.48436805  0.96873609  0.75000000  1
  O  O5  1  0.51563195  0.03126391  0.25000000  1
  O  O6  1  0.03126391  0.51563195  0.75000000  1
  O  O7  1  0.48436805  0.51563195  0.75000000  1
  P  P8  1  0.00000000  0.00000000  0.00000000  1
  P  P9  1  0.00000000  0.00000000  0.50000000  1
  Sr  Sr10  1  0.33333333  0.66666667  0.39968530  1
  Sr  Sr11  1  0.00000000  0.00000000  0.25000000  1
  Sr  Sr12  1  0.00000000  0.00000000  0.75000000  1
  Sr  Sr13  1  0.66666667  0.33333333  0.89968530  1
  Sr  Sr14  1  0.66666667  0.33333333  0.60031470  1
  Sr  Sr15  1  0.33333333  0.66666667  0.10031470  1
