# generated using pymatgen
data_Sr(GaAs)2
_symmetry_space_group_name_H-M   'P 1'
_cell_length_a   9.68460199
_cell_length_b   4.09819126
_cell_length_c   12.64997144
_cell_angle_alpha   90.00000000
_cell_angle_beta   95.60796109
_cell_angle_gamma   90.00000000
_symmetry_Int_Tables_number   1
_chemical_formula_structural   Sr(GaAs)2
_chemical_formula_sum   'Sr4 Ga8 As8'
_cell_volume   499.66617186
_cell_formula_units_Z   4
loop_
 _symmetry_equiv_pos_site_id
 _symmetry_equiv_pos_as_xyz
  1  'x, y, z'
loop_
 _atom_site_type_symbol
 _atom_site_label
 _atom_site_symmetry_multiplicity
 _atom_site_fract_x
 _atom_site_fract_y
 _atom_site_fract_z
 _atom_site_occupancy
  Sr  Sr0  1  0.50000000  0.00000000  0.00000000  1
  Sr  Sr1  1  0.99999900  0.00000000  0.50000000  1
  Sr  Sr2  1  0.19827035  0.50000000  0.77786774  1
  Sr  Sr3  1  0.80173065  0.50000000  0.22213226  1
  Ga  Ga4  1  0.80344871  0.50000000  0.67516213  1
  Ga  Ga5  1  0.39939298  0.00000000  0.55416644  1
  Ga  Ga6  1  0.19655129  0.50000000  0.32483787  1
  Ga  Ga7  1  0.60449093  0.50000000  0.78053341  1
  Ga  Ga8  1  0.39550807  0.50000000  0.21946659  1
  Ga  Ga9  1  0.89152666  0.00000000  0.93657640  1
  Ga  Ga10  1  0.10847334  0.00000000  0.06342360  1
  Ga  Ga11  1  0.60060702  0.00000000  0.44583256  1
  As  As12  1  0.94828302  0.00000000  0.74181937  1
  As  As13  1  0.44651848  0.00000000  0.75508369  1
  As  As14  1  0.05171798  0.00000000  0.25818163  1
  As  As15  1  0.55348152  0.00000000  0.24491531  1
  As  As16  1  0.75767067  0.50000000  0.47404426  1
  As  As17  1  0.73915560  0.50000000  0.96672380  1
  As  As18  1  0.26084440  0.50000000  0.03327520  1
  As  As19  1  0.24232933  0.50000000  0.52595574  1
