# generated using pymatgen
data_AlTlS2
_symmetry_space_group_name_H-M   'P 1'
_cell_length_a   7.36310296
_cell_length_b   7.36310296
_cell_length_c   15.35629550
_cell_angle_alpha   83.08921236
_cell_angle_beta   96.91078764
_cell_angle_gamma   89.98360460
_symmetry_Int_Tables_number   1
_chemical_formula_structural   AlTlS2
_chemical_formula_sum   'Al8 Tl8 S16'
_cell_volume   820.40042687
_cell_formula_units_Z   8
loop_
 _symmetry_equiv_pos_site_id
 _symmetry_equiv_pos_as_xyz
  1  'x, y, z'
loop_
 _atom_site_type_symbol
 _atom_site_label
 _atom_site_symmetry_multiplicity
 _atom_site_fract_x
 _atom_site_fract_y
 _atom_site_fract_z
 _atom_site_occupancy
  Al  Al0  1  0.58041445  0.29207553  0.33681266  1
  Al  Al1  1  0.29207553  0.58041445  0.16318734  1
  Al  Al2  1  0.41958455  0.70792447  0.66318734  1
  Al  Al3  1  0.70792347  0.41958555  0.83681266  1
  Al  Al4  1  0.29213494  0.08916265  0.16449002  1
  Al  Al5  1  0.08916165  0.29213594  0.33550998  1
  Al  Al6  1  0.70786406  0.91083635  0.83550998  1
  Al  Al7  1  0.91083735  0.70786306  0.66449002  1
  Tl  Tl8  1  0.34868599  0.78281944  0.38480477  1
  Tl  Tl9  1  0.78281944  0.34868599  0.11519423  1
  Tl  Tl10  1  0.65131301  0.21718156  0.61519523  1
  Tl  Tl11  1  0.21717956  0.65131501  0.88480477  1
  Tl  Tl12  1  0.77277900  0.85143459  0.11146366  1
  Tl  Tl13  1  0.85143359  0.77278000  0.38853634  1
  Tl  Tl14  1  0.22721800  0.14856541  0.88853534  1
  Tl  Tl15  1  0.14856441  0.22721900  0.61146466  1
  S  S16  1  0.56568612  0.06037711  0.25134046  1
  S  S17  1  0.06037711  0.56568512  0.24865854  1
  S  S18  1  0.43431488  0.93962389  0.74865954  1
  S  S19  1  0.93962289  0.43431588  0.75134046  1
  S  S20  1  0.56486569  0.56486469  0.25000000  1
  S  S21  1  0.43513531  0.43513631  0.75000000  1
  S  S22  1  0.06106275  0.06106275  0.25000000  1
  S  S23  1  0.93893825  0.93893925  0.75000000  1
  S  S24  1  0.27253833  0.85689004  0.07746957  1
  S  S25  1  0.85689004  0.27253833  0.42253043  1
  S  S26  1  0.72746167  0.14310896  0.92253043  1
  S  S27  1  0.14310896  0.72746167  0.57746957  1
  S  S28  1  0.35673484  0.26980454  0.42715257  1
  S  S29  1  0.26980454  0.35673484  0.07284743  1
  S  S30  1  0.64326516  0.73019646  0.57284743  1
  S  S31  1  0.73019546  0.64326616  0.92715157  1
