# generated using pymatgen
data_BaZrSe3
_symmetry_space_group_name_H-M   'P 1'
_cell_length_a   4.07531851
_cell_length_b   9.18048304
_cell_length_c   15.17879845
_cell_angle_alpha   90.00000000
_cell_angle_beta   90.00000000
_cell_angle_gamma   90.00000000
_symmetry_Int_Tables_number   1
_chemical_formula_structural   BaZrSe3
_chemical_formula_sum   'Ba4 Zr4 Se12'
_cell_volume   567.89034354
_cell_formula_units_Z   4
loop_
 _symmetry_equiv_pos_site_id
 _symmetry_equiv_pos_as_xyz
  1  'x, y, z'
loop_
 _atom_site_type_symbol
 _atom_site_label
 _atom_site_symmetry_multiplicity
 _atom_site_fract_x
 _atom_site_fract_y
 _atom_site_fract_z
 _atom_site_occupancy
  Ba  Ba0  1  0.75000000  0.06645560  0.67454453  1
  Ba  Ba1  1  0.25000000  0.93354440  0.32545547  1
  Ba  Ba2  1  0.75000000  0.56645660  0.82545547  1
  Ba  Ba3  1  0.25000000  0.43354440  0.17454453  1
  Zr  Zr4  1  0.25000000  0.16367483  0.94102429  1
  Zr  Zr5  1  0.75000000  0.83632417  0.05897571  1
  Zr  Zr6  1  0.25000000  0.66367483  0.55897571  1
  Zr  Zr7  1  0.75000000  0.33632517  0.44102429  1
  Se  Se8  1  0.75000000  0.33185110  0.00544198  1
  Se  Se9  1  0.25000000  0.66814790  0.99455902  1
  Se  Se10  1  0.75000000  0.83185210  0.49455902  1
  Se  Se11  1  0.25000000  0.16814890  0.50543998  1
  Se  Se12  1  0.25000000  0.02414379  0.10506676  1
  Se  Se13  1  0.75000000  0.97585721  0.89493324  1
  Se  Se14  1  0.25000000  0.52414379  0.39493324  1
  Se  Se15  1  0.75000000  0.47585621  0.60506676  1
  Se  Se16  1  0.25000000  0.28614251  0.78668189  1
  Se  Se17  1  0.75000000  0.71385749  0.21331911  1
  Se  Se18  1  0.25000000  0.78614251  0.71331811  1
  Se  Se19  1  0.75000000  0.21385749  0.28668089  1
