# generated using pymatgen
data_Na3Ni2SbO6
_symmetry_space_group_name_H-M   'P 1'
_cell_length_a   5.36447845
_cell_length_b   5.36447815
_cell_length_c   5.68393815
_cell_angle_alpha   99.02738955
_cell_angle_beta   99.02738832
_cell_angle_gamma   119.97828540
_symmetry_Int_Tables_number   1
_chemical_formula_structural   Na3Ni2SbO6
_chemical_formula_sum   'Na3 Ni2 Sb1 O6'
_cell_volume   134.53444836
_cell_formula_units_Z   1
loop_
 _symmetry_equiv_pos_site_id
 _symmetry_equiv_pos_as_xyz
  1  'x, y, z'
loop_
 _atom_site_type_symbol
 _atom_site_label
 _atom_site_symmetry_multiplicity
 _atom_site_fract_x
 _atom_site_fract_y
 _atom_site_fract_z
 _atom_site_occupancy
  Na  Na0  1  0.50000000  0.49999900  0.49999900  1
  Na  Na1  1  0.17475310  0.82524690  0.50000000  1
  Na  Na2  1  0.82524590  0.17475410  0.50000000  1
  Ni  Ni3  1  0.33379830  0.66620170  0.99999900  1
  Ni  Ni4  1  0.66620170  0.33379830  0.99999900  1
  Sb  Sb5  1  -0.00000000  -0.00000000  -0.00000000  1
  O  O6  1  0.06790623  0.38638505  0.20441438  1
  O  O7  1  0.24973601  0.24973501  0.79571604  1
  O  O8  1  0.75026399  0.75026399  0.20428396  1
  O  O9  1  0.38638405  0.06790623  0.20441438  1
  O  O10  1  0.61361595  0.93209277  0.79558462  1
  O  O11  1  0.93209277  0.61361595  0.79558462  1
