# generated using pymatgen
data_KCaBr3
_symmetry_space_group_name_H-M   'P 1'
_cell_length_a   4.30935890
_cell_length_b   7.52491938
_cell_length_c   10.85699100
_cell_angle_alpha   90.00001512
_cell_angle_beta   90.00000395
_cell_angle_gamma   106.57331914
_symmetry_Int_Tables_number   1
_chemical_formula_structural   KCaBr3
_chemical_formula_sum   'K2 Ca2 Br6'
_cell_volume   337.43952568
_cell_formula_units_Z   2
loop_
 _symmetry_equiv_pos_site_id
 _symmetry_equiv_pos_as_xyz
  1  'x, y, z'
loop_
 _atom_site_type_symbol
 _atom_site_label
 _atom_site_symmetry_multiplicity
 _atom_site_fract_x
 _atom_site_fract_y
 _atom_site_fract_z
 _atom_site_occupancy
  K  K0  1  0.25477590  0.51090836  0.99999042  1
  K  K1  1  0.74521793  0.48908470  0.49999019  1
  Ca  Ca2  1  0.00000413  0.00000660  0.74999369  1
  Ca  Ca3  1  0.99998909  0.99998943  0.24999181  1
  Br  Br4  1  0.36817850  0.73505664  0.69463511  1
  Br  Br5  1  0.63184080  0.26494325  0.19463456  1
  Br  Br6  1  0.36814229  0.73505293  0.30538043  1
  Br  Br7  1  0.63185541  0.26494763  0.80538116  1
  Br  Br8  1  0.92728992  0.85716819  0.99999043  1
  Br  Br9  1  0.07270803  0.14284327  0.49999018  1
