# generated using pymatgen
data_Sr16La3Co11(Cu4O23)2
_symmetry_space_group_name_H-M   'P 1'
_cell_length_a   3.94571717
_cell_length_b   3.94571717
_cell_length_c   69.62783449
_cell_angle_alpha   90.00000000
_cell_angle_beta   90.00000000
_cell_angle_gamma   90.00000000
_symmetry_Int_Tables_number   1
_chemical_formula_structural   Sr16La3Co11(Cu4O23)2
_chemical_formula_sum   'Sr16 La3 Co11 Cu8 O46'
_cell_volume   1084.01375178
_cell_formula_units_Z   1
loop_
 _symmetry_equiv_pos_site_id
 _symmetry_equiv_pos_as_xyz
  1  'x, y, z'
loop_
 _atom_site_type_symbol
 _atom_site_label
 _atom_site_symmetry_multiplicity
 _atom_site_fract_x
 _atom_site_fract_y
 _atom_site_fract_z
 _atom_site_occupancy
  Sr  Sr0  1  0.50000000  0.50000000  0.02799749  1
  Sr  Sr1  1  0.50000000  0.50000000  0.08085042  1
  Sr  Sr2  1  0.50000000  0.50000000  0.13225339  1
  Sr  Sr3  1  0.50000000  0.50000000  0.18439774  1
  Sr  Sr4  1  0.50000000  0.50000000  0.23691509  1
  Sr  Sr5  1  0.50000000  0.50000000  0.28944670  1
  Sr  Sr6  1  0.50000000  0.50000000  0.34190231  1
  Sr  Sr7  1  0.50000000  0.50000000  0.39413352  1
  Sr  Sr8  1  0.50000000  0.50000000  0.44578775  1
  Sr  Sr9  1  0.50000000  0.50000000  0.49953654  1
  Sr  Sr10  1  0.50000000  0.50000000  0.55262188  1
  Sr  Sr11  1  0.50000000  0.50000000  0.60536026  1
  Sr  Sr12  1  0.50000000  0.50000000  0.65796333  1
  Sr  Sr13  1  0.50000000  0.50000000  0.71039121  1
  Sr  Sr14  1  0.50000000  0.50000000  0.76245549  1
  Sr  Sr15  1  0.50000000  0.50000000  0.81390631  1
  La  La16  1  0.50000000  0.50000000  0.86679291  1
  La  La17  1  0.50000000  0.50000000  0.92071080  1
  La  La18  1  0.50000000  0.50000000  0.97511832  1
  Co  Co19  1  -0.00000000  0.00000000  0.00260267  1
  Co  Co20  1  0.00000000  -0.00000000  0.05328263  1
  Co  Co21  1  -0.00000000  0.00000000  0.68408568  1
  Co  Co22  1  -0.00000000  0.00000000  0.78877740  1
  Co  Co23  1  -0.00000000  -0.00000000  0.84131111  1
  Co  Co24  1  -0.00000000  -0.00000000  0.89473453  1
  Co  Co25  1  -0.00000000  0.00000000  0.47338817  1
  Co  Co26  1  -0.00000000  0.00000000  0.52497608  1
  Co  Co27  1  -0.00000000  -0.00000000  0.63111457  1
  Co  Co28  1  -0.00000000  0.00000000  0.73658320  1
  Co  Co29  1  0.00000000  0.00000000  0.94785587  1
  Cu  Cu30  1  0.00000000  -0.00000000  0.10556437  1
  Cu  Cu31  1  -0.00000000  0.00000000  0.21053836  1
  Cu  Cu32  1  0.00000000  -0.00000000  0.42083544  1
  Cu  Cu33  1  0.00000000  -0.00000000  0.15797609  1
  Cu  Cu34  1  -0.00000000  0.00000000  0.26316203  1
  Cu  Cu35  1  0.00000000  0.00000000  0.31577850  1
  Cu  Cu36  1  0.00000000  -0.00000000  0.36834619  1
  Cu  Cu37  1  0.00000000  0.00000000  0.57741543  1
  O  O38  1  0.00000000  0.50000000  0.00293220  1
  O  O39  1  0.00000000  0.50000000  0.10540281  1
  O  O40  1  -0.00000000  0.50000000  0.21050820  1
  O  O41  1  -0.00000000  0.50000000  0.42104855  1
  O  O42  1  0.00000000  0.00000000  0.65806131  1
  O  O43  1  0.00000000  -0.00000000  0.71047453  1
  O  O44  1  -0.00000000  0.50000000  0.68437027  1
  O  O45  1  0.00000000  0.00000000  0.81587152  1
  O  O46  1  0.00000000  0.00000000  0.92151772  1
  O  O47  1  -0.00000000  0.00000000  0.97414306  1
  O  O48  1  0.50000000  0.00000000  0.00293220  1
  O  O49  1  0.50000000  0.00000000  0.05338302  1
  O  O50  1  0.50000000  0.00000000  0.10540281  1
  O  O51  1  0.50000000  0.00000000  0.15789666  1
  O  O52  1  0.50000000  0.00000000  0.21050820  1
  O  O53  1  0.50000000  0.00000000  0.26316347  1
  O  O54  1  0.50000000  0.00000000  0.31581059  1
  O  O55  1  0.50000000  0.00000000  0.36844774  1
  O  O56  1  0.50000000  -0.00000000  0.42104855  1
  O  O57  1  0.50000000  -0.00000000  0.47341018  1
  O  O58  1  0.50000000  0.00000000  0.52466255  1
  O  O59  1  0.50000000  -0.00000000  0.57457866  1
  O  O60  1  0.50000000  -0.00000000  0.68437027  1
  O  O61  1  0.50000000  0.00000000  0.63181689  1
  O  O62  1  0.50000000  0.00000000  0.78958196  1
  O  O63  1  0.50000000  0.00000000  0.73678015  1
  O  O64  1  0.50000000  -0.00000000  0.84371964  1
  O  O65  1  0.50000000  0.00000000  0.89548790  1
  O  O66  1  0.50000000  0.00000000  0.94776218  1
  O  O67  1  0.00000000  0.50000000  0.05338302  1
  O  O68  1  -0.00000000  0.50000000  0.15789666  1
  O  O69  1  -0.00000000  0.50000000  0.26316347  1
  O  O70  1  0.00000000  0.50000000  0.31581059  1
  O  O71  1  0.00000000  0.50000000  0.36844774  1
  O  O72  1  -0.00000000  0.50000000  0.47341018  1
  O  O73  1  -0.00000000  0.50000000  0.52466255  1
  O  O74  1  -0.00000000  0.50000000  0.57457866  1
  O  O75  1  -0.00000000  0.50000000  0.63181689  1
  O  O76  1  0.00000000  0.50000000  0.73678015  1
  O  O77  1  -0.00000000  0.00000000  0.60585907  1
  O  O78  1  0.00000000  -0.00000000  0.76294376  1
  O  O79  1  -0.00000000  0.50000000  0.78958196  1
  O  O80  1  0.00000000  0.50000000  0.84371964  1
  O  O81  1  0.00000000  0.50000000  0.89548790  1
  O  O82  1  -0.00000000  0.50000000  0.94776218  1
  O  O83  1  0.00000000  -0.00000000  0.86852100  1
