# generated using pymatgen
data_Tb2ReC2
_symmetry_space_group_name_H-M   'P 1'
_cell_length_a   6.59178917
_cell_length_b   5.15645338
_cell_length_c   9.90454028
_cell_angle_alpha   90.00000000
_cell_angle_beta   90.00000000
_cell_angle_gamma   90.00000000
_symmetry_Int_Tables_number   1
_chemical_formula_structural   Tb2ReC2
_chemical_formula_sum   'Tb8 Re4 C8'
_cell_volume   336.65783537
_cell_formula_units_Z   4
loop_
 _symmetry_equiv_pos_site_id
 _symmetry_equiv_pos_as_xyz
  1  'x, y, z'
loop_
 _atom_site_type_symbol
 _atom_site_label
 _atom_site_symmetry_multiplicity
 _atom_site_fract_x
 _atom_site_fract_y
 _atom_site_fract_z
 _atom_site_occupancy
  Tb  Tb0  1  0.81780523  0.24999900  0.05482139  1
  Tb  Tb1  1  0.68219377  0.74999900  0.55482039  1
  Tb  Tb2  1  0.31780523  0.24999900  0.44517861  1
  Tb  Tb3  1  0.18219577  0.74999900  0.94517861  1
  Tb  Tb4  1  0.47005094  0.24999900  0.78391996  1
  Tb  Tb5  1  0.02994906  0.74999900  0.28392096  1
  Tb  Tb6  1  0.97005094  0.24999900  0.71608004  1
  Tb  Tb7  1  0.52995006  0.74999900  0.21608004  1
  Re  Re8  1  0.27696414  0.24999900  0.13500682  1
  Re  Re9  1  0.22303586  0.74999900  0.63500682  1
  Re  Re10  1  0.77696414  0.24999900  0.36499418  1
  Re  Re11  1  0.72303586  0.74999900  0.86499418  1
  C  C12  1  0.17821152  0.24999900  0.95162088  1
  C  C13  1  0.82178948  0.74999900  0.04837812  1
  C  C14  1  0.67821052  0.24999900  0.54837812  1
  C  C15  1  0.32179048  0.74999900  0.45161988  1
  C  C16  1  0.04301759  0.24999900  0.25885614  1
  C  C17  1  0.45698041  0.74999900  0.75885714  1
  C  C18  1  0.54301959  0.24999900  0.24114386  1
  C  C19  1  0.95698141  0.74999900  0.74114286  1
