# generated using pymatgen
data_Nb4Co4Si7
_symmetry_space_group_name_H-M   'P 1'
_cell_length_a   9.25821428
_cell_length_b   9.25821428
_cell_length_c   9.25821428
_cell_angle_alpha   94.19783030
_cell_angle_beta   94.19783030
_cell_angle_gamma   148.60531661
_symmetry_Int_Tables_number   1
_chemical_formula_structural   Nb4Co4Si7
_chemical_formula_sum   'Nb8 Co8 Si14'
_cell_volume   397.97365237
_cell_formula_units_Z   2
loop_
 _symmetry_equiv_pos_site_id
 _symmetry_equiv_pos_as_xyz
  1  'x, y, z'
loop_
 _atom_site_type_symbol
 _atom_site_label
 _atom_site_symmetry_multiplicity
 _atom_site_fract_x
 _atom_site_fract_y
 _atom_site_fract_z
 _atom_site_occupancy
  Nb  Nb0  1  0.50000000  0.30875757  0.80875857  1
  Nb  Nb1  1  0.49999900  0.69124143  0.19124243  1
  Nb  Nb2  1  0.69124143  0.49999900  0.19124243  1
  Nb  Nb3  1  0.30875757  0.50000000  0.80875857  1
  Nb  Nb4  1  0.13413351  0.13413351  0.26826702  1
  Nb  Nb5  1  0.86586549  0.86586549  0.73173298  1
  Nb  Nb6  1  0.86586549  0.13413251  0.00000000  1
  Nb  Nb7  1  0.13413251  0.86586549  0.00000000  1
  Co  Co8  1  0.89864652  0.39864652  0.79729405  1
  Co  Co9  1  0.60135248  0.10135248  0.20270595  1
  Co  Co10  1  0.10135248  0.89864652  0.50000000  1
  Co  Co11  1  0.39864652  0.60135248  0.50000000  1
  Co  Co12  1  0.10135248  0.60135248  0.20270595  1
  Co  Co13  1  0.39864652  0.89864652  0.79729405  1
  Co  Co14  1  0.89864652  0.10135248  0.50000000  1
  Co  Co15  1  0.60135248  0.39864652  0.50000000  1
  Si  Si16  1  0.29135285  0.29135285  0.58270471  1
  Si  Si17  1  0.70864615  0.70864615  0.41729429  1
  Si  Si18  1  0.70864615  0.29135185  0.00000000  1
  Si  Si19  1  0.29135185  0.70864615  0.00000000  1
  Si  Si20  1  0.50000000  0.09429144  0.59429244  1
  Si  Si21  1  0.49999900  0.90570656  0.40570756  1
  Si  Si22  1  0.90570656  0.49999900  0.40570756  1
  Si  Si23  1  0.09429144  0.50000000  0.59429244  1
  Si  Si24  1  0.24911120  0.24911120  0.00000000  1
  Si  Si25  1  0.75088880  0.75088880  0.00000000  1
  Si  Si26  1  0.00000000  0.29737767  0.29737767  1
  Si  Si27  1  0.00000000  0.70262233  0.70262233  1
  Si  Si28  1  0.70262233  0.00000000  0.70262233  1
  Si  Si29  1  0.29737767  0.00000000  0.29737767  1
