# generated using pymatgen
data_K3La(AsO4)2
_symmetry_space_group_name_H-M   'P 1'
_cell_length_a   7.68881842
_cell_length_b   5.92727147
_cell_length_c   10.08238515
_cell_angle_alpha   90.00000000
_cell_angle_beta   91.65385049
_cell_angle_gamma   90.00000000
_symmetry_Int_Tables_number   1
_chemical_formula_structural   K3La(AsO4)2
_chemical_formula_sum   'K6 La2 As4 O16'
_cell_volume   459.30032801
_cell_formula_units_Z   2
loop_
 _symmetry_equiv_pos_site_id
 _symmetry_equiv_pos_as_xyz
  1  'x, y, z'
loop_
 _atom_site_type_symbol
 _atom_site_label
 _atom_site_symmetry_multiplicity
 _atom_site_fract_x
 _atom_site_fract_y
 _atom_site_fract_z
 _atom_site_occupancy
  K  K0  1  0.98933808  0.49083421  0.80878213  1
  K  K1  1  0.01065992  0.99083521  0.19121687  1
  K  K2  1  0.14043096  0.48877156  0.40419537  1
  K  K3  1  0.85957004  0.98877256  0.59580463  1
  K  K4  1  0.68466473  0.50250460  0.08250502  1
  K  K5  1  0.31533727  0.00250460  0.91749498  1
  La  La6  1  0.50973699  0.00797832  0.29249852  1
  La  La7  1  0.49026301  0.50797732  0.70750148  1
  As  As8  1  0.74692474  0.00195183  0.91563728  1
  As  As9  1  0.25307526  0.50195083  0.08436172  1
  As  As10  1  0.70181291  0.48149105  0.42665959  1
  As  As11  1  0.29818709  0.98149105  0.57334041  1
  O  O12  1  0.03318631  0.51339616  0.09787201  1
  O  O13  1  0.96681269  0.01339516  0.90212799  1
  O  O14  1  0.51640701  0.92808026  0.55571129  1
  O  O15  1  0.48359399  0.42808026  0.44428871  1
  O  O16  1  0.21199084  0.00162928  0.41399759  1
  O  O17  1  0.78800916  0.50162828  0.58600241  1
  O  O18  1  0.25277912  0.22343779  0.66175866  1
  O  O19  1  0.74722088  0.72343879  0.33824134  1
  O  O20  1  0.21736078  0.74847419  0.65429208  1
  O  O21  1  0.78263922  0.24847519  0.34570892  1
  O  O22  1  0.33283627  0.25508490  0.15556695  1
  O  O23  1  0.66716373  0.75508590  0.84443305  1
  O  O24  1  0.34796149  0.72818329  0.16850461  1
  O  O25  1  0.65203951  0.22818629  0.83149539  1
  O  O26  1  0.31933089  0.50957256  0.92194166  1
  O  O27  1  0.68066911  0.00957256  0.07805834  1
