# generated using pymatgen
data_Ac3In
_symmetry_space_group_name_H-M   'P 1'
_cell_length_a   7.71833645
_cell_length_b   7.71833589
_cell_length_c   6.02833873
_cell_angle_alpha   90.00000000
_cell_angle_beta   90.00000000
_cell_angle_gamma   119.99999792
_symmetry_Int_Tables_number   1
_chemical_formula_structural   Ac3In
_chemical_formula_sum   'Ac6 In2'
_cell_volume   311.01094178
_cell_formula_units_Z   2
loop_
 _symmetry_equiv_pos_site_id
 _symmetry_equiv_pos_as_xyz
  1  'x, y, z'
loop_
 _atom_site_type_symbol
 _atom_site_label
 _atom_site_symmetry_multiplicity
 _atom_site_fract_x
 _atom_site_fract_y
 _atom_site_fract_z
 _atom_site_occupancy
  Ac  Ac0  1  0.17503946  0.35007793  0.24999900  1
  Ac  Ac1  1  0.64992207  0.82496054  0.24999900  1
  Ac  Ac2  1  0.17503946  0.82496054  0.24999900  1
  Ac  Ac3  1  0.82496154  0.64992307  0.75000000  1
  Ac  Ac4  1  0.35007793  0.17503846  0.75000000  1
  Ac  Ac5  1  0.82496054  0.17503846  0.75000000  1
  In  In6  1  0.33333300  0.66666700  0.75000000  1
  In  In7  1  0.66666600  0.33333300  0.24999900  1
