# generated using pymatgen
data_Ca3SnH2
_symmetry_space_group_name_H-M   'P 1'
_cell_length_a   5.26806887
_cell_length_b   7.21764895
_cell_length_c   7.21764895
_cell_angle_alpha   104.15149649
_cell_angle_beta   90.00000000
_cell_angle_gamma   90.00000000
_symmetry_Int_Tables_number   1
_chemical_formula_structural   Ca3SnH2
_chemical_formula_sum   'Ca6 Sn2 H4'
_cell_volume   266.10874685
_cell_formula_units_Z   2
loop_
 _symmetry_equiv_pos_site_id
 _symmetry_equiv_pos_as_xyz
  1  'x, y, z'
loop_
 _atom_site_type_symbol
 _atom_site_label
 _atom_site_symmetry_multiplicity
 _atom_site_fract_x
 _atom_site_fract_y
 _atom_site_fract_z
 _atom_site_occupancy
  Ca  Ca0  1  0.25000000  0.89011691  0.10988309  1
  Ca  Ca1  1  0.25000000  0.40749642  0.18588440  1
  Ca  Ca2  1  0.75000000  0.18588440  0.40749642  1
  Ca  Ca3  1  0.25000000  0.81411560  0.59250358  1
  Ca  Ca4  1  0.75000000  0.59250358  0.81411560  1
  Ca  Ca5  1  0.75000000  0.10988309  0.89011691  1
  Sn  Sn6  1  0.75000000  0.69240040  0.30759960  1
  Sn  Sn7  1  0.25000000  0.30759960  0.69240040  1
  H  H8  1  0.00000000  0.15097203  0.15097203  1
  H  H9  1  0.50000000  0.15097203  0.15097203  1
  H  H10  1  0.00000000  0.84902797  0.84902797  1
  H  H11  1  0.50000000  0.84902797  0.84902797  1
