# generated using pymatgen
data_KV5Se8
_symmetry_space_group_name_H-M   'P 1'
_cell_length_a   3.70184291
_cell_length_b   8.97674133
_cell_length_c   9.53638741
_cell_angle_alpha   103.92429024
_cell_angle_beta   101.19083906
_cell_angle_gamma   90.00924983
_symmetry_Int_Tables_number   1
_chemical_formula_structural   KV5Se8
_chemical_formula_sum   'K1 V5 Se8'
_cell_volume   301.37248671
_cell_formula_units_Z   1
loop_
 _symmetry_equiv_pos_site_id
 _symmetry_equiv_pos_as_xyz
  1  'x, y, z'
loop_
 _atom_site_type_symbol
 _atom_site_label
 _atom_site_symmetry_multiplicity
 _atom_site_fract_x
 _atom_site_fract_y
 _atom_site_fract_z
 _atom_site_occupancy
  K  K0  1  0.50001800  0.50001342  0.99999897  1
  V  V1  1  0.99999102  0.00000344  0.99998774  1
  V  V2  1  0.65081683  0.98960102  0.30171182  1
  V  V3  1  0.71224115  0.34883115  0.42443308  1
  V  V4  1  0.28774976  0.65116598  0.57556199  1
  V  V5  1  0.34919305  0.01038999  0.69831788  1
  Se  Se6  1  0.57217571  0.17266248  0.14417038  1
  Se  Se7  1  0.08678053  0.82058346  0.17402888  1
  Se  Se8  1  0.16208973  0.48893236  0.32410612  1
  Se  Se9  1  0.23973970  0.15657749  0.47926845  1
  Se  Se10  1  0.76023718  0.84342317  0.52069595  1
  Se  Se11  1  0.83792270  0.51105468  0.67589810  1
  Se  Se12  1  0.91324397  0.17945031  0.82598740  1
  Se  Se13  1  0.42782066  0.82731204  0.85583324  1
