# generated using pymatgen
data_La2MnZnO6
_symmetry_space_group_name_H-M   'P 1'
_cell_length_a   5.51744590
_cell_length_b   5.51744555
_cell_length_c   5.51744612
_cell_angle_alpha   61.17567112
_cell_angle_beta   61.17567223
_cell_angle_gamma   61.17567511
_symmetry_Int_Tables_number   1
_chemical_formula_structural   La2MnZnO6
_chemical_formula_sum   'La2 Mn1 Zn1 O6'
_cell_volume   121.90938329
_cell_formula_units_Z   1
loop_
 _symmetry_equiv_pos_site_id
 _symmetry_equiv_pos_as_xyz
  1  'x, y, z'
loop_
 _atom_site_type_symbol
 _atom_site_label
 _atom_site_symmetry_multiplicity
 _atom_site_fract_x
 _atom_site_fract_y
 _atom_site_fract_z
 _atom_site_occupancy
  La  La0  1  0.75089218  0.75089218  0.75089218  1
  La  La1  1  0.24910782  0.24910782  0.24910782  1
  Mn  Mn2  1  0.00000000  0.00000000  0.00000000  1
  Zn  Zn3  1  0.50000000  0.50000000  0.50000000  1
  O  O4  1  0.31119727  0.76412589  0.16954909  1
  O  O5  1  0.76412589  0.16954909  0.31119727  1
  O  O6  1  0.16954909  0.31119727  0.76412589  1
  O  O7  1  0.68880273  0.23587411  0.83045091  1
  O  O8  1  0.83045091  0.68880273  0.23587411  1
  O  O9  1  0.23587411  0.83045091  0.68880273  1
