# generated using pymatgen
data_Ce2HfS5
_symmetry_space_group_name_H-M   'P 1'
_cell_length_a   11.36455107
_cell_length_b   7.32349854
_cell_length_c   8.10896493
_cell_angle_alpha   90.05366956
_cell_angle_beta   89.96932080
_cell_angle_gamma   89.98909080
_symmetry_Int_Tables_number   1
_chemical_formula_structural   Ce2HfS5
_chemical_formula_sum   'Ce8 Hf4 S20'
_cell_volume   674.89474280
_cell_formula_units_Z   4
loop_
 _symmetry_equiv_pos_site_id
 _symmetry_equiv_pos_as_xyz
  1  'x, y, z'
loop_
 _atom_site_type_symbol
 _atom_site_label
 _atom_site_symmetry_multiplicity
 _atom_site_fract_x
 _atom_site_fract_y
 _atom_site_fract_z
 _atom_site_occupancy
  Ce  Ce0  1  0.32886686  0.44034904  0.00093631  1
  Ce  Ce1  1  0.17137786  0.94068179  0.99913214  1
  Ce  Ce2  1  0.82842311  0.05933805  0.49901380  1
  Ce  Ce3  1  0.67134312  0.55951716  0.50094597  1
  Ce  Ce4  1  0.67101529  0.55922240  0.99909612  1
  Ce  Ce5  1  0.82875310  0.05935601  0.00083364  1
  Ce  Ce6  1  0.17129476  0.94072638  0.50085357  1
  Ce  Ce7  1  0.32894800  0.44086717  0.49910136  1
  Hf  Hf8  1  0.49057183  0.92822577  0.24995933  1
  Hf  Hf9  1  0.00948028  0.42834623  0.75005420  1
  Hf  Hf10  1  0.99052657  0.57162953  0.24995687  1
  Hf  Hf11  1  0.50943973  0.07173097  0.75019384  1
  S  S12  1  0.30644754  0.14074056  0.24968411  1
  S  S13  1  0.19368971  0.64054708  0.75032710  1
  S  S14  1  0.80625958  0.35936772  0.25007527  1
  S  S15  1  0.69359922  0.85927869  0.74992715  1
  S  S16  1  0.57395039  0.17916805  0.46429911  1
  S  S17  1  0.92598559  0.67912178  0.53570572  1
  S  S18  1  0.07398718  0.32080306  0.03567162  1
  S  S19  1  0.42609344  0.82064561  0.96432664  1
  S  S20  1  0.42625548  0.82099374  0.53573190  1
  S  S21  1  0.07380476  0.32097301  0.46424396  1
  S  S22  1  0.92609433  0.67915280  0.96427960  1
  S  S23  1  0.57383821  0.17923411  0.03563642  1
  S  S24  1  0.70931150  0.84004513  0.25005661  1
  S  S25  1  0.79062724  0.34020514  0.74998276  1
  S  S26  1  0.20932579  0.65975146  0.24956803  1
  S  S27  1  0.29076902  0.15997367  0.75038064  1
  S  S28  1  0.49541590  0.55703816  0.24969457  1
  S  S29  1  0.00457133  0.05713327  0.75025806  1
  S  S30  1  0.99525506  0.94288864  0.24977838  1
  S  S31  1  0.50467523  0.44294981  0.75030922  1
