# generated using pymatgen
data_Te7As5I
_symmetry_space_group_name_H-M   'P 1'
_cell_length_a   7.43054016
_cell_length_b   8.51445711
_cell_length_c   6.82256081
_cell_angle_alpha   101.53059766
_cell_angle_beta   88.87246544
_cell_angle_gamma   74.99608574
_symmetry_Int_Tables_number   1
_chemical_formula_structural   Te7As5I
_chemical_formula_sum   'Te7 As5 I1'
_cell_volume   407.34807695
_cell_formula_units_Z   1
loop_
 _symmetry_equiv_pos_site_id
 _symmetry_equiv_pos_as_xyz
  1  'x, y, z'
loop_
 _atom_site_type_symbol
 _atom_site_label
 _atom_site_symmetry_multiplicity
 _atom_site_fract_x
 _atom_site_fract_y
 _atom_site_fract_z
 _atom_site_occupancy
  Te  Te0  1  0.15128013  0.55220396  0.35432611  1
  Te  Te1  1  0.15705999  0.05228352  0.63085827  1
  Te  Te2  1  0.22541579  0.66807012  0.92090353  1
  Te  Te3  1  0.44225612  0.19396123  0.83518318  1
  Te  Te4  1  0.51500833  0.80049446  0.13968208  1
  Te  Te5  1  0.83087936  0.93623078  0.38573264  1
  Te  Te6  1  0.92561709  0.51747143  0.68280731  1
  As  As7  1  0.97128941  0.97203393  0.98436517  1
  As  As8  1  0.33667275  0.12827812  0.22913082  1
  As  As9  1  0.36890268  0.72916558  0.55028576  1
  As  As10  1  0.57347685  0.22770648  0.43473966  1
  As  As11  1  0.72425647  0.85535697  0.77947739  1
  I  I12  1  0.77788504  0.36674343  0.07250807  1
