# generated using pymatgen
data_WN2
_symmetry_space_group_name_H-M   'P 1'
_cell_length_a   3.78476549
_cell_length_b   6.61904098
_cell_length_c   6.88175393
_cell_angle_alpha   74.08791639
_cell_angle_beta   90.00000006
_cell_angle_gamma   73.38735971
_symmetry_Int_Tables_number   1
_chemical_formula_structural   WN2
_chemical_formula_sum   'W4 N8'
_cell_volume   158.29668696
_cell_formula_units_Z   4
loop_
 _symmetry_equiv_pos_site_id
 _symmetry_equiv_pos_as_xyz
  1  'x, y, z'
loop_
 _atom_site_type_symbol
 _atom_site_label
 _atom_site_symmetry_multiplicity
 _atom_site_fract_x
 _atom_site_fract_y
 _atom_site_fract_z
 _atom_site_occupancy
  W  W0  1  0.09800143  0.80399615  0.71236006  1
  W  W1  1  0.19151357  0.61697187  0.27614116  1
  W  W2  1  0.80848643  0.38302813  0.72385884  1
  W  W3  1  0.90199857  0.19600385  0.28763994  1
  N  N4  1  0.05602909  0.88794281  0.36061236  1
  N  N5  1  0.63986269  0.72027562  0.70713623  1
  N  N6  1  0.13402424  0.73195152  0.00152066  1
  N  N7  1  0.26298347  0.47403306  0.64643709  1
  N  N8  1  0.73701653  0.52596694  0.35356291  1
  N  N9  1  0.86597576  0.26804848  0.99847934  1
  N  N10  1  0.36013731  0.27972438  0.29286277  1
  N  N11  1  0.94397091  0.11205719  0.63938764  1
