# generated using pymatgen
data_Ba
_symmetry_space_group_name_H-M   'P 1'
_cell_length_a   7.55154771
_cell_length_b   7.00534681
_cell_length_c   7.00534608
_cell_angle_alpha   73.11184423
_cell_angle_beta   57.38546052
_cell_angle_gamma   57.38545197
_symmetry_Int_Tables_number   1
_chemical_formula_structural   Ba
_chemical_formula_sum   Ba4
_cell_volume   262.93288409
_cell_formula_units_Z   4
loop_
 _symmetry_equiv_pos_site_id
 _symmetry_equiv_pos_as_xyz
  1  'x, y, z'
loop_
 _atom_site_type_symbol
 _atom_site_label
 _atom_site_symmetry_multiplicity
 _atom_site_fract_x
 _atom_site_fract_y
 _atom_site_fract_z
 _atom_site_occupancy
  Ba  Ba0  1  0.17498906  0.50000000  0.15002188  1
  Ba  Ba1  1  0.82501094  0.50000000  0.84997812  1
  Ba  Ba2  1  0.67498906  0.15002188  0.50000000  1
  Ba  Ba3  1  0.32501094  0.84997812  0.50000000  1
