# generated using pymatgen
data_UGePt
_symmetry_space_group_name_H-M   'P 1'
_cell_length_a   6.90124034
_cell_length_b   4.44844899
_cell_length_c   7.62878748
_cell_angle_alpha   90.00000000
_cell_angle_beta   90.00000000
_cell_angle_gamma   90.00000000
_symmetry_Int_Tables_number   1
_chemical_formula_structural   UGePt
_chemical_formula_sum   'U4 Ge4 Pt4'
_cell_volume   234.20236904
_cell_formula_units_Z   4
loop_
 _symmetry_equiv_pos_site_id
 _symmetry_equiv_pos_as_xyz
  1  'x, y, z'
loop_
 _atom_site_type_symbol
 _atom_site_label
 _atom_site_symmetry_multiplicity
 _atom_site_fract_x
 _atom_site_fract_y
 _atom_site_fract_z
 _atom_site_occupancy
  U  U0  1  0.99282657  0.24999900  0.20178798  1
  U  U1  1  0.49282657  0.24999900  0.29821202  1
  U  U2  1  0.50717343  0.75000000  0.70178698  1
  U  U3  1  0.00717343  0.75000000  0.79821302  1
  Ge  Ge4  1  0.69630939  0.75000000  0.08987253  1
  Ge  Ge5  1  0.19630939  0.75000000  0.41012747  1
  Ge  Ge6  1  0.80369161  0.24999900  0.58987253  1
  Ge  Ge7  1  0.30369061  0.24999900  0.91012747  1
  Pt  Pt8  1  0.29485877  0.75000000  0.08188375  1
  Pt  Pt9  1  0.79485877  0.75000000  0.41811725  1
  Pt  Pt10  1  0.20514123  0.24999900  0.58188375  1
  Pt  Pt11  1  0.70514023  0.24999900  0.91811625  1
