# generated using pymatgen
data_Ca7(H6Cl)2
_symmetry_space_group_name_H-M   'P 1'
_cell_length_a   9.32612575
_cell_length_b   9.32613417
_cell_length_c   3.68356866
_cell_angle_alpha   90.00000000
_cell_angle_beta   90.00000000
_cell_angle_gamma   119.99975173
_symmetry_Int_Tables_number   1
_chemical_formula_structural   Ca7(H6Cl)2
_chemical_formula_sum   'Ca7 H12 Cl2'
_cell_volume   277.46193702
_cell_formula_units_Z   1
loop_
 _symmetry_equiv_pos_site_id
 _symmetry_equiv_pos_as_xyz
  1  'x, y, z'
loop_
 _atom_site_type_symbol
 _atom_site_label
 _atom_site_symmetry_multiplicity
 _atom_site_fract_x
 _atom_site_fract_y
 _atom_site_fract_z
 _atom_site_occupancy
  Ca  Ca0  1  0.66666333  0.33333187  0.00000000  1
  Ca  Ca1  1  0.07709814  0.43843378  0.00000000  1
  Ca  Ca2  1  0.56156917  0.63866725  0.00000000  1
  Ca  Ca3  1  0.36133446  0.92290201  0.00000000  1
  Ca  Ca4  1  0.78110375  0.05145596  0.50000100  1
  Ca  Ca5  1  0.27035402  0.21889705  0.50000100  1
  Ca  Ca6  1  0.94854250  0.72964528  0.50000100  1
  H  H7  1  0.39117196  0.17618622  0.00000000  1
  H  H8  1  0.82381230  0.21498627  0.00000000  1
  H  H9  1  0.30210421  0.39197133  0.00000000  1
  H  H10  1  0.78501462  0.60882486  0.00000000  1
  H  H11  1  0.08986912  0.69789944  0.00000000  1
  H  H12  1  0.60802770  0.91012959  0.00000000  1
  H  H13  1  0.56419441  0.11845330  0.50000100  1
  H  H14  1  0.05727159  0.28509482  0.50000100  1
  H  H15  1  0.55425987  0.43580458  0.50000100  1
  H  H16  1  0.88154588  0.44574017  0.50000100  1
  H  H17  1  0.71490459  0.77217586  0.50000100  1
  H  H18  1  0.22782351  0.94272829  0.50000100  1
  Cl  Cl19  1  0.00000134  0.00000034  0.00000000  1
  Cl  Cl20  1  0.33333751  0.66666974  0.50000100  1
