# generated using pymatgen
data_Na3AgS2
_symmetry_space_group_name_H-M   'P 1'
_cell_length_a   6.44631602
_cell_length_b   7.01219089
_cell_length_c   7.91525938
_cell_angle_alpha   116.29250743
_cell_angle_beta   114.02957442
_cell_angle_gamma   89.99999998
_symmetry_Int_Tables_number   1
_chemical_formula_structural   Na3AgS2
_chemical_formula_sum   'Na6 Ag2 S4'
_cell_volume   285.77993645
_cell_formula_units_Z   2
loop_
 _symmetry_equiv_pos_site_id
 _symmetry_equiv_pos_as_xyz
  1  'x, y, z'
loop_
 _atom_site_type_symbol
 _atom_site_label
 _atom_site_symmetry_multiplicity
 _atom_site_fract_x
 _atom_site_fract_y
 _atom_site_fract_z
 _atom_site_occupancy
  Na  Na0  1  0.50000000  0.75000000  0.00000000  1
  Na  Na1  1  0.50000000  0.25000000  0.00000000  1
  Na  Na2  1  0.76792919  0.51792919  0.53585837  1
  Na  Na3  1  0.23207081  0.98207081  0.46414163  1
  Na  Na4  1  0.23207081  0.48207081  0.46414163  1
  Na  Na5  1  0.76792919  0.01792919  0.53585837  1
  S  S6  1  0.13853875  0.36853495  0.73706990  1
  S  S7  1  0.40146885  0.13146505  0.26293010  1
  S  S8  1  0.59853115  0.86853495  0.73706990  1
  S  S9  1  0.86146125  0.63146505  0.26293010  1
  Ag  Ag10  1  0.00000000  0.50000000  0.00000000  1
  Ag  Ag11  1  0.00000000  0.00000000  0.00000000  1
