# generated using pymatgen
data_KTi5Se8
_symmetry_space_group_name_H-M   'P 1'
_cell_length_a   3.62092175
_cell_length_b   9.23470235
_cell_length_c   9.62581838
_cell_angle_alpha   104.62017385
_cell_angle_beta   100.84097726
_cell_angle_gamma   90.00000000
_symmetry_Int_Tables_number   1
_chemical_formula_structural   KTi5Se8
_chemical_formula_sum   'K1 Ti5 Se8'
_cell_volume   305.50708512
_cell_formula_units_Z   1
loop_
 _symmetry_equiv_pos_site_id
 _symmetry_equiv_pos_as_xyz
  1  'x, y, z'
loop_
 _atom_site_type_symbol
 _atom_site_label
 _atom_site_symmetry_multiplicity
 _atom_site_fract_x
 _atom_site_fract_y
 _atom_site_fract_z
 _atom_site_occupancy
  K  K0  1  0.49999900  0.50000000  -0.00000000  1
  Ti  Ti1  1  -0.00000000  0.00000000  0.00000000  1
  Ti  Ti2  1  0.65573397  0.99902071  0.31146994  1
  Ti  Ti3  1  0.70847136  0.34813911  0.41694473  1
  Ti  Ti4  1  0.29152764  0.65186089  0.58305527  1
  Ti  Ti5  1  0.34426503  0.00097929  0.68853006  1
  Se  Se6  1  0.57391647  0.17477123  0.14783494  1
  Se  Se7  1  0.08666919  0.82083601  0.17333839  1
  Se  Se8  1  0.16046343  0.49774480  0.32092587  1
  Se  Se9  1  0.24344066  0.16529350  0.48688131  1
  Se  Se10  1  0.75655834  0.83470650  0.51311869  1
  Se  Se11  1  0.83953557  0.50225520  0.67907413  1
  Se  Se12  1  0.91332981  0.17916499  0.82666161  1
  Se  Se13  1  0.42608253  0.82522877  0.85216506  1
