# generated using pymatgen
data_Nd11In9Ni4
_symmetry_space_group_name_H-M   'P 1'
_cell_length_a   13.29464470
_cell_length_b   13.29464470
_cell_length_c   3.74413580
_cell_angle_alpha   90.00000000
_cell_angle_beta   90.00000000
_cell_angle_gamma   67.30239903
_symmetry_Int_Tables_number   1
_chemical_formula_structural   Nd11In9Ni4
_chemical_formula_sum   'Nd11 In9 Ni4'
_cell_volume   610.51589430
_cell_formula_units_Z   1
loop_
 _symmetry_equiv_pos_site_id
 _symmetry_equiv_pos_as_xyz
  1  'x, y, z'
loop_
 _atom_site_type_symbol
 _atom_site_label
 _atom_site_symmetry_multiplicity
 _atom_site_fract_x
 _atom_site_fract_y
 _atom_site_fract_z
 _atom_site_occupancy
  Nd  Nd0  1  0.41619957  0.92153627  0.00000000  1
  Nd  Nd1  1  0.58380043  0.07846373  0.00000000  1
  Nd  Nd2  1  0.07846373  0.58380043  0.00000000  1
  Nd  Nd3  1  0.92153627  0.41619957  0.00000000  1
  Nd  Nd4  1  0.37452218  0.37452218  0.00000000  1
  Nd  Nd5  1  0.62547782  0.62547782  0.00000000  1
  Nd  Nd6  1  0.16247911  0.16247911  0.00000000  1
  Nd  Nd7  1  0.83752089  0.83752089  0.00000000  1
  Nd  Nd8  1  0.00000000  0.00000000  0.00000000  1
  Nd  Nd9  1  0.31273014  0.68726986  0.00000000  1
  Nd  Nd10  1  0.68726986  0.31273014  0.00000000  1
  In  In11  1  0.36816689  0.16209623  0.50000100  1
  In  In12  1  0.63183311  0.83790377  0.50000100  1
  In  In13  1  0.83790377  0.63183311  0.50000100  1
  In  In14  1  0.16209623  0.36816689  0.50000100  1
  In  In15  1  0.22017215  0.91982399  0.50000100  1
  In  In16  1  0.77982785  0.08017701  0.50000100  1
  In  In17  1  0.08017701  0.77982785  0.50000100  1
  In  In18  1  0.91982399  0.22017215  0.50000100  1
  In  In19  1  0.50000000  0.50000000  0.50000100  1
  Ni  Ni20  1  0.44866370  0.75382858  0.50000100  1
  Ni  Ni21  1  0.55133630  0.24617142  0.50000100  1
  Ni  Ni22  1  0.24617142  0.55133630  0.50000100  1
  Ni  Ni23  1  0.75382858  0.44866370  0.50000100  1
