# generated using pymatgen
data_AgAs3H2O9
_symmetry_space_group_name_H-M   'P 1'
_cell_length_a   7.33788331
_cell_length_b   7.80116900
_cell_length_c   8.05323738
_cell_angle_alpha   111.11043809
_cell_angle_beta   106.54837848
_cell_angle_gamma   105.98918155
_symmetry_Int_Tables_number   1
_chemical_formula_structural   AgAs3H2O9
_chemical_formula_sum   'Ag2 As6 H4 O18'
_cell_volume   373.59890874
_cell_formula_units_Z   2
loop_
 _symmetry_equiv_pos_site_id
 _symmetry_equiv_pos_as_xyz
  1  'x, y, z'
loop_
 _atom_site_type_symbol
 _atom_site_label
 _atom_site_symmetry_multiplicity
 _atom_site_fract_x
 _atom_site_fract_y
 _atom_site_fract_z
 _atom_site_occupancy
  Ag  Ag0  1  0.29665509  0.82912367  0.04188087  1
  Ag  Ag1  1  0.70334491  0.17087633  0.95811813  1
  As  As2  1  0.37163987  0.35233597  0.16571753  1
  As  As3  1  0.18460252  0.83402992  0.45689091  1
  As  As4  1  0.15606420  0.43665478  0.47616336  1
  As  As5  1  0.84393580  0.56334522  0.52383564  1
  As  As6  1  0.81539848  0.16597108  0.54310909  1
  As  As7  1  0.62836113  0.64766403  0.83428347  1
  H  H8  1  0.86864522  0.63499049  0.07781322  1
  H  H9  1  0.63644058  0.81239792  0.39062462  1
  H  H10  1  0.36355942  0.18760308  0.60937638  1
  H  H11  1  0.13135378  0.36500951  0.92218578  1
  O  O12  1  0.28124311  0.46790729  0.03227113  1
  O  O13  1  0.39838618  0.14636332  0.03925771  1
  O  O14  1  0.09365090  0.79069812  0.22262773  1
  O  O15  1  0.19003596  0.28572266  0.26056748  1
  O  O16  1  0.91342243  0.43665286  0.31971786  1
  O  O17  1  0.60756876  0.56190303  0.35434800  1
  O  O18  1  0.61026325  0.92668545  0.37708543  1
  O  O19  1  0.00498085  0.18021705  0.44862418  1
  O  O20  1  0.68119165  0.31072852  0.49461821  1
  O  O21  1  0.31880735  0.68927148  0.50538179  1
  O  O22  1  0.99501915  0.81978295  0.55137482  1
  O  O23  1  0.38973775  0.07331455  0.62291457  1
  O  O24  1  0.39243024  0.43809697  0.64565200  1
  O  O25  1  0.08657757  0.56334714  0.68028114  1
  O  O26  1  0.80996404  0.71427834  0.73943352  1
  O  O27  1  0.90635010  0.20930288  0.77737327  1
  O  O28  1  0.60161382  0.85363768  0.96074229  1
  O  O29  1  0.71875689  0.53209371  0.96772987  1
