# generated using pymatgen
data_Pr6IrCl11
_symmetry_space_group_name_H-M   'P 1'
_cell_length_a   7.41165149
_cell_length_b   8.30206431
_cell_length_c   8.30206431
_cell_angle_alpha   101.70455377
_cell_angle_beta   92.88278449
_cell_angle_gamma   92.88278449
_symmetry_Int_Tables_number   1
_chemical_formula_structural   Pr6IrCl11
_chemical_formula_sum   'Pr6 Ir1 Cl11'
_cell_volume   498.63080644
_cell_formula_units_Z   1
loop_
 _symmetry_equiv_pos_site_id
 _symmetry_equiv_pos_as_xyz
  1  'x, y, z'
loop_
 _atom_site_type_symbol
 _atom_site_label
 _atom_site_symmetry_multiplicity
 _atom_site_fract_x
 _atom_site_fract_y
 _atom_site_fract_z
 _atom_site_occupancy
  Pr  Pr0  1  0.22785469  0.70767024  0.01695639  1
  Pr  Pr1  1  0.24007398  0.19556878  0.19556878  1
  Pr  Pr2  1  0.77214531  0.98304361  0.29232876  1
  Pr  Pr3  1  0.22785469  0.01695639  0.70767024  1
  Pr  Pr4  1  0.75992602  0.80443122  0.80443122  1
  Pr  Pr5  1  0.77214531  0.29232876  0.98304361  1
  Ir  Ir6  1  0.00000000  0.00000000  0.00000000  1
  Cl  Cl7  1  0.50000000  0.00000000  0.00000000  1
  Cl  Cl8  1  0.63584364  0.66053918  0.09455793  1
  Cl  Cl9  1  0.05618564  0.49145078  0.20338286  1
  Cl  Cl10  1  0.63485645  0.30663989  0.30663989  1
  Cl  Cl11  1  0.36415636  0.90544207  0.33946182  1
  Cl  Cl12  1  0.05618564  0.20338286  0.49145078  1
  Cl  Cl13  1  0.94381536  0.79661714  0.50854922  1
  Cl  Cl14  1  0.63584364  0.09455793  0.66053918  1
  Cl  Cl15  1  0.36514455  0.69336011  0.69336011  1
  Cl  Cl16  1  0.94381536  0.50854922  0.79661714  1
  Cl  Cl17  1  0.36415636  0.33946182  0.90544207  1
