# generated using pymatgen
data_SrLaI5
_symmetry_space_group_name_H-M   'P 1'
_cell_length_a   6.43363325
_cell_length_b   11.48082982
_cell_length_c   8.01422999
_cell_angle_alpha   88.51383781
_cell_angle_beta   95.31111577
_cell_angle_gamma   106.27156290
_symmetry_Int_Tables_number   1
_chemical_formula_structural   SrLaI5
_chemical_formula_sum   'Sr2 La2 I10'
_cell_volume   565.80782574
_cell_formula_units_Z   2
loop_
 _symmetry_equiv_pos_site_id
 _symmetry_equiv_pos_as_xyz
  1  'x, y, z'
loop_
 _atom_site_type_symbol
 _atom_site_label
 _atom_site_symmetry_multiplicity
 _atom_site_fract_x
 _atom_site_fract_y
 _atom_site_fract_z
 _atom_site_occupancy
  Sr  Sr0  1  0.32328708  0.64657516  0.25000000  1
  Sr  Sr1  1  0.67671292  0.35342484  0.75000000  1
  La  La2  1  0.07920859  0.15841817  0.25000000  1
  La  La3  1  0.92079141  0.84158183  0.75000000  1
  I  I4  1  0.21091704  0.92424318  0.10669716  1
  I  I5  1  0.19409232  0.39273173  0.99280184  1
  I  I6  1  0.36917987  0.73835975  0.75000000  1
  I  I7  1  0.19863941  0.39273173  0.50719816  1
  I  I8  1  0.28667486  0.07575682  0.60669716  1
  I  I9  1  0.71332514  0.92424318  0.39330284  1
  I  I10  1  0.80136059  0.60726827  0.49280184  1
  I  I11  1  0.63082013  0.26164025  0.25000000  1
  I  I12  1  0.80590768  0.60726827  0.00719816  1
  I  I13  1  0.78908296  0.07575682  0.89330284  1
