# generated using pymatgen
data_Lu2Co12P7
_symmetry_space_group_name_H-M   'P 1'
_cell_length_a   3.56121236
_cell_length_b   8.96278639
_cell_length_c   8.96211513
_cell_angle_alpha   119.99884282
_cell_angle_beta   90.00000000
_cell_angle_gamma   90.00000000
_symmetry_Int_Tables_number   1
_chemical_formula_structural   Lu2Co12P7
_chemical_formula_sum   'Lu2 Co12 P7'
_cell_volume   247.73486558
_cell_formula_units_Z   1
loop_
 _symmetry_equiv_pos_site_id
 _symmetry_equiv_pos_as_xyz
  1  'x, y, z'
loop_
 _atom_site_type_symbol
 _atom_site_label
 _atom_site_symmetry_multiplicity
 _atom_site_fract_x
 _atom_site_fract_y
 _atom_site_fract_z
 _atom_site_occupancy
  Lu  Lu0  1  -0.00000000  0.66668215  0.33330560  1
  Lu  Lu1  1  0.50000000  0.33327031  0.66669404  1
  Co  Co2  1  0.00000000  0.37478986  0.93938931  1
  Co  Co3  1  -0.00000000  0.06051141  0.43543079  1
  Co  Co4  1  0.00000000  0.56448909  0.62511264  1
  Co  Co5  1  -0.00000000  0.88128616  0.72630368  1
  Co  Co6  1  -0.00000000  0.27366309  0.15497478  1
  Co  Co7  1  0.00000000  0.84491417  0.11866959  1
  Co  Co8  1  0.50000000  0.94639775  0.56338644  1
  Co  Co9  1  0.50000000  0.43668803  0.38300465  1
  Co  Co10  1  0.50000000  0.61706829  0.05368148  1
  Co  Co11  1  0.50000000  0.13253905  0.89842978  1
  Co  Co12  1  0.50000000  0.10161097  0.23409100  1
  Co  Co13  1  0.50000000  0.76597877  0.86756012  1
  P  P14  1  -0.00000000  0.11490555  0.70689115  1
  P  P15  1  -0.00000000  0.29319186  0.40799590  1
  P  P16  1  -0.00000000  0.59207919  0.88522529  1
  P  P17  1  0.50000000  0.70918829  0.59521225  1
  P  P18  1  0.50000000  0.40473188  0.11403076  1
  P  P19  1  0.50000000  0.88599829  0.29069092  1
  P  P20  1  0.00000000  0.00001583  0.99991982  1
