# generated using pymatgen
data_Tb2Re2Si2C
_symmetry_space_group_name_H-M   'P 1'
_cell_length_a   4.00810670
_cell_length_b   5.84694733
_cell_length_c   5.99750292
_cell_angle_alpha   72.05088364
_cell_angle_beta   70.47926599
_cell_angle_gamma   69.95536547
_symmetry_Int_Tables_number   1
_chemical_formula_structural   Tb2Re2Si2C
_chemical_formula_sum   'Tb2 Re2 Si2 C1'
_cell_volume   121.43663598
_cell_formula_units_Z   1
loop_
 _symmetry_equiv_pos_site_id
 _symmetry_equiv_pos_as_xyz
  1  'x, y, z'
loop_
 _atom_site_type_symbol
 _atom_site_label
 _atom_site_symmetry_multiplicity
 _atom_site_fract_x
 _atom_site_fract_y
 _atom_site_fract_z
 _atom_site_occupancy
  Tb  Tb0  1  0.42813565  0.84354619  0.30018252  1
  Tb  Tb1  1  0.57186435  0.15645381  0.69981748  1
  Re  Re2  1  0.79332634  0.32142166  0.09192567  1
  Re  Re3  1  0.20667366  0.67857834  0.90807433  1
  Si  Si4  1  0.85713902  0.60193447  0.68378750  1
  Si  Si5  1  0.14286098  0.39806553  0.31621250  1
  C  C6  1  0.00000000  -0.00000000  0.00000000  1
