# generated using pymatgen
data_YbGe2Pt
_symmetry_space_group_name_H-M   'P 1'
_cell_length_a   4.37612244
_cell_length_b   8.92589707
_cell_length_c   9.50414111
_cell_angle_alpha   118.00699214
_cell_angle_beta   103.31013191
_cell_angle_gamma   90.00000000
_symmetry_Int_Tables_number   1
_chemical_formula_structural   YbGe2Pt
_chemical_formula_sum   'Yb4 Ge8 Pt4'
_cell_volume   316.42441531
_cell_formula_units_Z   4
loop_
 _symmetry_equiv_pos_site_id
 _symmetry_equiv_pos_as_xyz
  1  'x, y, z'
loop_
 _atom_site_type_symbol
 _atom_site_label
 _atom_site_symmetry_multiplicity
 _atom_site_fract_x
 _atom_site_fract_y
 _atom_site_fract_z
 _atom_site_occupancy
  Yb  Yb0  1  1.00000000  0.25911985  1.00000000  1
  Yb  Yb1  1  0.00000000  0.74088015  0.00000000  1
  Yb  Yb2  1  0.79700453  0.29700453  0.59400905  1
  Yb  Yb3  1  0.20299547  0.70299547  0.40599095  1
  Ge  Ge4  1  0.42275617  0.92275617  0.84551235  1
  Ge  Ge5  1  0.57724383  0.07724383  0.15448765  1
  Ge  Ge6  1  0.42532823  0.42532823  0.85065645  1
  Ge  Ge7  1  0.57467177  0.57467177  0.14934355  1
  Ge  Ge8  1  0.19925326  0.05132128  0.39850651  1
  Ge  Ge9  1  0.80074674  0.94867872  0.60149349  1
  Ge  Ge10  1  0.19925326  0.34718524  0.39850651  1
  Ge  Ge11  1  0.80074674  0.65281476  0.60149349  1
  Pt  Pt12  1  0.35264261  0.10423032  0.70528522  1
  Pt  Pt13  1  0.64735739  0.89576968  0.29471478  1
  Pt  Pt14  1  0.35264261  0.60105490  0.70528522  1
  Pt  Pt15  1  0.64735739  0.39894510  0.29471478  1
