# generated using pymatgen
data_Nd2Re2Si2C
_symmetry_space_group_name_H-M   'P 1'
_cell_length_a   4.07216443
_cell_length_b   5.94181073
_cell_length_c   6.13049889
_cell_angle_alpha   73.00113512
_cell_angle_beta   70.60229114
_cell_angle_gamma   69.96035148
_symmetry_Int_Tables_number   1
_chemical_formula_structural   Nd2Re2Si2C
_chemical_formula_sum   'Nd2 Re2 Si2 C1'
_cell_volume   128.74698493
_cell_formula_units_Z   1
loop_
 _symmetry_equiv_pos_site_id
 _symmetry_equiv_pos_as_xyz
  1  'x, y, z'
loop_
 _atom_site_type_symbol
 _atom_site_label
 _atom_site_symmetry_multiplicity
 _atom_site_fract_x
 _atom_site_fract_y
 _atom_site_fract_z
 _atom_site_occupancy
  Nd  Nd0  1  0.42839285  0.83982312  0.30339118  1
  Nd  Nd1  1  0.57160715  0.16017688  0.69660882  1
  Re  Re2  1  0.79597984  0.32075089  0.08728942  1
  Re  Re3  1  0.20402016  0.67924911  0.91271058  1
  Si  Si4  1  0.85062907  0.60094191  0.69779995  1
  Si  Si5  1  0.14937093  0.39905809  0.30220005  1
  C  C6  1  0.00000000  -0.00000000  -0.00000000  1
