# generated using pymatgen
data_TmSnGe
_symmetry_space_group_name_H-M   'P 1'
_cell_length_a   4.06049605
_cell_length_b   4.25296535
_cell_length_c   8.32384784
_cell_angle_alpha   104.80136026
_cell_angle_beta   90.00000000
_cell_angle_gamma   90.00000000
_symmetry_Int_Tables_number   1
_chemical_formula_structural   TmSnGe
_chemical_formula_sum   'Tm2 Sn2 Ge2'
_cell_volume   138.97589930
_cell_formula_units_Z   2
loop_
 _symmetry_equiv_pos_site_id
 _symmetry_equiv_pos_as_xyz
  1  'x, y, z'
loop_
 _atom_site_type_symbol
 _atom_site_label
 _atom_site_symmetry_multiplicity
 _atom_site_fract_x
 _atom_site_fract_y
 _atom_site_fract_z
 _atom_site_occupancy
  Tm  Tm0  1  0.25000000  0.59383192  0.18766384  1
  Tm  Tm1  1  0.75000000  0.40616808  0.81233616  1
  Sn  Sn2  1  0.25000000  0.24593908  0.49187817  1
  Sn  Sn3  1  0.75000000  0.75406092  0.50812183  1
  Ge  Ge4  1  0.25000000  0.94474706  0.88949412  1
  Ge  Ge5  1  0.75000000  0.05525294  0.11050588  1
