# generated using pymatgen
data_EuSi2Ni
_symmetry_space_group_name_H-M   'P 1'
_cell_length_a   4.02248682
_cell_length_b   4.16068094
_cell_length_c   8.52949993
_cell_angle_alpha   104.11680486
_cell_angle_beta   90.00000000
_cell_angle_gamma   90.00000000
_symmetry_Int_Tables_number   1
_chemical_formula_structural   EuSi2Ni
_chemical_formula_sum   'Eu2 Si4 Ni2'
_cell_volume   138.44109524
_cell_formula_units_Z   2
loop_
 _symmetry_equiv_pos_site_id
 _symmetry_equiv_pos_as_xyz
  1  'x, y, z'
loop_
 _atom_site_type_symbol
 _atom_site_label
 _atom_site_symmetry_multiplicity
 _atom_site_fract_x
 _atom_site_fract_y
 _atom_site_fract_z
 _atom_site_occupancy
  Eu  Eu0  1  0.25000000  0.39299511  0.78599022  1
  Eu  Eu1  1  0.75000000  0.60700489  0.21400978  1
  Si  Si2  1  0.25000000  0.04153734  0.08307469  1
  Si  Si3  1  0.75000000  0.95846266  0.91692531  1
  Si  Si4  1  0.25000000  0.74951698  0.49903395  1
  Si  Si5  1  0.75000000  0.25048302  0.50096605  1
  Ni  Ni6  1  0.25000000  0.18062327  0.36124653  1
  Ni  Ni7  1  0.75000000  0.81937673  0.63875347  1
