# generated using pymatgen
data_Ca2NbN3
_symmetry_space_group_name_H-M   'P 1'
_cell_length_a   6.30708730
_cell_length_b   11.16783499
_cell_length_c   11.68963985
_cell_angle_alpha   90.00000000
_cell_angle_beta   90.00000000
_cell_angle_gamma   27.70659473
_symmetry_Int_Tables_number   1
_chemical_formula_structural   Ca2NbN3
_chemical_formula_sum   'Ca8 Nb4 N12'
_cell_volume   382.82435912
_cell_formula_units_Z   4
loop_
 _symmetry_equiv_pos_site_id
 _symmetry_equiv_pos_as_xyz
  1  'x, y, z'
loop_
 _atom_site_type_symbol
 _atom_site_label
 _atom_site_symmetry_multiplicity
 _atom_site_fract_x
 _atom_site_fract_y
 _atom_site_fract_z
 _atom_site_occupancy
  Ca  Ca0  1  0.00000000  0.46376320  0.64838094  1
  Ca  Ca1  1  0.00000000  0.53623680  0.35161906  1
  Ca  Ca2  1  0.00000000  0.03623680  0.14838094  1
  Ca  Ca3  1  0.00000000  0.96376320  0.85161906  1
  Ca  Ca4  1  0.00000000  0.12704146  0.58018693  1
  Ca  Ca5  1  0.00000000  0.87295854  0.41981307  1
  Ca  Ca6  1  0.00000000  0.37295854  0.08018693  1
  Ca  Ca7  1  0.00000000  0.62704146  0.91981307  1
  Nb  Nb8  1  0.00000000  0.24638440  0.84175979  1
  Nb  Nb9  1  1.00000000  0.75361560  0.15824021  1
  Nb  Nb10  1  1.00000000  0.25361560  0.34175979  1
  Nb  Nb11  1  0.00000000  0.74638440  0.65824021  1
  N  N12  1  1.00000000  0.15825772  0.98166949  1
  N  N13  1  0.00000000  0.84174228  0.01833051  1
  N  N14  1  0.00000000  0.34174228  0.48166949  1
  N  N15  1  1.00000000  0.65825772  0.51833051  1
  N  N16  1  0.00000000  0.41989647  0.86339221  1
  N  N17  1  1.00000000  0.58010353  0.13660779  1
  N  N18  1  1.00000000  0.08010353  0.36339221  1
  N  N19  1  0.00000000  0.91989647  0.63660779  1
  N  N20  1  0.50000000  0.42425745  0.75000000  1
  N  N21  1  0.50000000  0.07574255  0.25000000  1
  N  N22  1  0.50000000  0.57574255  0.25000000  1
  N  N23  1  0.50000000  0.92425745  0.75000000  1
