# generated using pymatgen
data_NpCl4
_symmetry_space_group_name_H-M   'P 1'
_cell_length_a   7.04777300
_cell_length_b   7.04777300
_cell_length_c   7.04777300
_cell_angle_alpha   107.67768126
_cell_angle_beta   107.67768124
_cell_angle_gamma   113.12111798
_symmetry_Int_Tables_number   1
_chemical_formula_structural   NpCl4
_chemical_formula_sum   'Np2 Cl8'
_cell_volume   268.65877653
_cell_formula_units_Z   2
loop_
 _symmetry_equiv_pos_site_id
 _symmetry_equiv_pos_as_xyz
  1  'x, y, z'
loop_
 _atom_site_type_symbol
 _atom_site_label
 _atom_site_symmetry_multiplicity
 _atom_site_fract_x
 _atom_site_fract_y
 _atom_site_fract_z
 _atom_site_occupancy
  Cl  Cl0  1  0.18959541  0.25088855  0.56129314  1
  Cl  Cl1  1  0.62830227  0.18959541  0.43870686  1
  Cl  Cl2  1  0.37169773  0.81040459  0.56129314  1
  Cl  Cl3  1  0.81040459  0.74911145  0.43870686  1
  Cl  Cl4  1  0.81040459  0.37169773  0.06129314  1
  Cl  Cl5  1  0.74911145  0.81040459  0.93870686  1
  Cl  Cl6  1  0.18959541  0.62830227  0.93870686  1
  Cl  Cl7  1  0.25088855  0.18959541  0.06129314  1
  Np  Np8  1  0.87500000  0.12500000  0.75000000  1
  Np  Np9  1  0.12500000  0.87500000  0.25000000  1
