# generated using pymatgen
data_Cs3Re2N5
_symmetry_space_group_name_H-M   'P 1'
_cell_length_a   14.10735611
_cell_length_b   14.10735611
_cell_length_c   9.82218165
_cell_angle_alpha   90.00000000
_cell_angle_beta   90.00000000
_cell_angle_gamma   90.00000000
_symmetry_Int_Tables_number   1
_chemical_formula_structural   Cs3Re2N5
_chemical_formula_sum   'Cs24 Re16 N40'
_cell_volume   1954.78600131
_cell_formula_units_Z   8
loop_
 _symmetry_equiv_pos_site_id
 _symmetry_equiv_pos_as_xyz
  1  'x, y, z'
loop_
 _atom_site_type_symbol
 _atom_site_label
 _atom_site_symmetry_multiplicity
 _atom_site_fract_x
 _atom_site_fract_y
 _atom_site_fract_z
 _atom_site_occupancy
  Cs  Cs0  1  0.07136833  0.27068864  0.77822380  1
  Cs  Cs1  1  0.92863167  0.72931136  0.77822380  1
  Cs  Cs2  1  0.77068864  0.92863167  0.02822380  1
  Cs  Cs3  1  0.22931136  0.07136833  0.02822380  1
  Cs  Cs4  1  0.07454345  0.75650811  0.43730210  1
  Cs  Cs5  1  0.92545655  0.24349189  0.43730210  1
  Cs  Cs6  1  0.25650811  0.92545655  0.68730210  1
  Cs  Cs7  1  0.74349189  0.07454345  0.68730210  1
  Cs  Cs8  1  0.00000000  0.50000000  0.98603556  1
  Cs  Cs9  1  0.00000000  0.00000000  0.23603556  1
  Cs  Cs10  1  0.00000000  0.00000000  0.72860162  1
  Cs  Cs11  1  0.00000000  0.50000000  0.47860162  1
  Cs  Cs12  1  0.57136833  0.77068864  0.27822380  1
  Cs  Cs13  1  0.42863167  0.22931136  0.27822380  1
  Cs  Cs14  1  0.27068864  0.42863167  0.52822380  1
  Cs  Cs15  1  0.72931136  0.57136833  0.52822380  1
  Cs  Cs16  1  0.57454345  0.25650811  0.93730210  1
  Cs  Cs17  1  0.42545655  0.74349189  0.93730210  1
  Cs  Cs18  1  0.75650811  0.42545655  0.18730210  1
  Cs  Cs19  1  0.24349189  0.57454345  0.18730210  1
  Cs  Cs20  1  0.50000000  0.00000000  0.48603556  1
  Cs  Cs21  1  0.50000000  0.50000000  0.73603556  1
  Cs  Cs22  1  0.50000000  0.50000000  0.22860162  1
  Cs  Cs23  1  0.50000000  0.00000000  0.97860162  1
  Re  Re24  1  0.19642484  0.12274038  0.42118796  1
  Re  Re25  1  0.80357516  0.87725962  0.42118796  1
  Re  Re26  1  0.12274038  0.30357516  0.17118796  1
  Re  Re27  1  0.87725962  0.69642484  0.17118796  1
  Re  Re28  1  0.88539071  0.21095933  0.04996811  1
  Re  Re29  1  0.11460929  0.78904067  0.04996811  1
  Re  Re30  1  0.71095933  0.11460929  0.29996811  1
  Re  Re31  1  0.28904067  0.88539071  0.29996811  1
  Re  Re32  1  0.69642484  0.62274038  0.92118796  1
  Re  Re33  1  0.30357516  0.37725962  0.92118796  1
  Re  Re34  1  0.62274038  0.80357516  0.67118796  1
  Re  Re35  1  0.37725962  0.19642484  0.67118796  1
  Re  Re36  1  0.38539071  0.71095933  0.54996811  1
  Re  Re37  1  0.61460929  0.28904067  0.54996811  1
  Re  Re38  1  0.21095933  0.61460929  0.79996811  1
  Re  Re39  1  0.78904067  0.38539071  0.79996811  1
  N  N40  1  0.09672160  0.12166322  0.53094402  1
  N  N41  1  0.90327840  0.87833678  0.53094402  1
  N  N42  1  0.62166322  0.90327840  0.78094402  1
  N  N43  1  0.37833678  0.09672160  0.78094402  1
  N  N44  1  0.61303708  0.09373245  0.19168171  1
  N  N45  1  0.38696292  0.90626755  0.19168171  1
  N  N46  1  0.09373245  0.88696292  0.94168171  1
  N  N47  1  0.90626755  0.11303708  0.94168171  1
  N  N48  1  0.30479637  0.17529610  0.51628419  1
  N  N49  1  0.69520363  0.82470390  0.51628419  1
  N  N50  1  0.17529610  0.19520363  0.26628419  1
  N  N51  1  0.82470390  0.80479637  0.26628419  1
  N  N52  1  0.81042940  0.17807318  0.19851641  1
  N  N53  1  0.18957060  0.82192682  0.19851641  1
  N  N54  1  0.17807318  0.68957060  0.94851641  1
  N  N55  1  0.82192682  0.31042940  0.94851641  1
  N  N56  1  0.99942391  0.26454413  0.11712211  1
  N  N57  1  0.00057609  0.73545587  0.11712211  1
  N  N58  1  0.76454413  0.00057609  0.36712211  1
  N  N59  1  0.23545587  0.99942391  0.36712211  1
  N  N60  1  0.59672160  0.62166322  0.03094402  1
  N  N61  1  0.40327840  0.37833678  0.03094402  1
  N  N62  1  0.12166322  0.40327840  0.28094402  1
  N  N63  1  0.87833678  0.59672160  0.28094402  1
  N  N64  1  0.11303708  0.59373245  0.69168171  1
  N  N65  1  0.88696292  0.40626755  0.69168171  1
  N  N66  1  0.59373245  0.38696292  0.44168171  1
  N  N67  1  0.40626755  0.61303708  0.44168171  1
  N  N68  1  0.80479637  0.67529610  0.01628419  1
  N  N69  1  0.19520363  0.32470390  0.01628419  1
  N  N70  1  0.67529610  0.69520363  0.76628419  1
  N  N71  1  0.32470390  0.30479637  0.76628419  1
  N  N72  1  0.31042940  0.67807318  0.69851641  1
  N  N73  1  0.68957060  0.32192682  0.69851641  1
  N  N74  1  0.67807318  0.18957060  0.44851641  1
  N  N75  1  0.32192682  0.81042940  0.44851641  1
  N  N76  1  0.49942391  0.76454413  0.61712211  1
  N  N77  1  0.50057609  0.23545587  0.61712211  1
  N  N78  1  0.26454413  0.50057609  0.86712211  1
  N  N79  1  0.73545587  0.49942391  0.86712211  1
