# generated using pymatgen
data_CaCuGe
_symmetry_space_group_name_H-M   'P 1'
_cell_length_a   4.36850609
_cell_length_b   7.49942958
_cell_length_c   21.35803709
_cell_angle_alpha   90.00000000
_cell_angle_beta   90.00000000
_cell_angle_gamma   90.00000000
_symmetry_Int_Tables_number   1
_chemical_formula_structural   CaCuGe
_chemical_formula_sum   'Ca12 Cu12 Ge12'
_cell_volume   699.71714150
_cell_formula_units_Z   12
loop_
 _symmetry_equiv_pos_site_id
 _symmetry_equiv_pos_as_xyz
  1  'x, y, z'
loop_
 _atom_site_type_symbol
 _atom_site_label
 _atom_site_symmetry_multiplicity
 _atom_site_fract_x
 _atom_site_fract_y
 _atom_site_fract_z
 _atom_site_occupancy
  Ca  Ca0  1  0.25000000  0.71434163  0.00155174  1
  Ca  Ca1  1  0.75000000  0.28565837  0.99844826  1
  Ca  Ca2  1  0.75000000  0.21434163  0.49844826  1
  Ca  Ca3  1  0.25000000  0.78565837  0.50155174  1
  Ca  Ca4  1  0.25000000  0.79206962  0.16628879  1
  Ca  Ca5  1  0.75000000  0.20793038  0.83371121  1
  Ca  Ca6  1  0.75000000  0.29206962  0.33371121  1
  Ca  Ca7  1  0.25000000  0.70793038  0.66628879  1
  Ca  Ca8  1  0.25000000  0.70617207  0.33316793  1
  Ca  Ca9  1  0.75000000  0.29382793  0.66683207  1
  Ca  Ca10  1  0.75000000  0.20617207  0.16683207  1
  Ca  Ca11  1  0.25000000  0.79382793  0.83316793  1
  Cu  Cu12  1  0.25000000  0.41451660  0.09737282  1
  Cu  Cu13  1  0.75000000  0.58548340  0.90262718  1
  Cu  Cu14  1  0.75000000  0.91451660  0.40262718  1
  Cu  Cu15  1  0.25000000  0.08548340  0.59737282  1
  Cu  Cu16  1  0.25000000  0.41308231  0.23512428  1
  Cu  Cu17  1  0.75000000  0.58691769  0.76487572  1
  Cu  Cu18  1  0.75000000  0.91308231  0.26487572  1
  Cu  Cu19  1  0.25000000  0.08691769  0.73512428  1
  Cu  Cu20  1  0.25000000  0.41903462  0.43616949  1
  Cu  Cu21  1  0.75000000  0.58096538  0.56383051  1
  Cu  Cu22  1  0.75000000  0.91903462  0.06383051  1
  Cu  Cu23  1  0.25000000  0.08096538  0.93616949  1
  Ge  Ge24  1  0.25000000  0.09033822  0.06882223  1
  Ge  Ge25  1  0.75000000  0.90966178  0.93117777  1
  Ge  Ge26  1  0.75000000  0.59033822  0.43117777  1
  Ge  Ge27  1  0.25000000  0.40966178  0.56882223  1
  Ge  Ge28  1  0.25000000  0.08219686  0.26907659  1
  Ge  Ge29  1  0.75000000  0.91780314  0.73092341  1
  Ge  Ge30  1  0.75000000  0.58219686  0.23092341  1
  Ge  Ge31  1  0.25000000  0.41780314  0.76907659  1
  Ge  Ge32  1  0.25000000  0.08490293  0.39832640  1
  Ge  Ge33  1  0.75000000  0.91509707  0.60167360  1
  Ge  Ge34  1  0.75000000  0.58490293  0.10167360  1
  Ge  Ge35  1  0.25000000  0.41509707  0.89832640  1
