# generated using pymatgen
data_Cu(Mo3Se4)2
_symmetry_space_group_name_H-M   'P 1'
_cell_length_a   6.74989028
_cell_length_b   6.74989028
_cell_length_c   6.74989050
_cell_angle_alpha   93.07823722
_cell_angle_beta   93.07823722
_cell_angle_gamma   93.07824331
_symmetry_Int_Tables_number   1
_chemical_formula_structural   Cu(Mo3Se4)2
_chemical_formula_sum   'Cu1 Mo6 Se8'
_cell_volume   306.15094754
_cell_formula_units_Z   1
loop_
 _symmetry_equiv_pos_site_id
 _symmetry_equiv_pos_as_xyz
  1  'x, y, z'
loop_
 _atom_site_type_symbol
 _atom_site_label
 _atom_site_symmetry_multiplicity
 _atom_site_fract_x
 _atom_site_fract_y
 _atom_site_fract_z
 _atom_site_occupancy
  Cu  Cu0  1  -0.00000000  -0.00000000  -0.00000000  1
  Mo  Mo1  1  0.58793747  0.77376062  0.45393835  1
  Mo  Mo2  1  0.77376062  0.45393835  0.58793747  1
  Mo  Mo3  1  0.45393835  0.58793747  0.77376062  1
  Mo  Mo4  1  0.41206253  0.22623938  0.54606165  1
  Mo  Mo5  1  0.22623938  0.54606165  0.41206253  1
  Mo  Mo6  1  0.54606165  0.41206253  0.22623938  1
  Se  Se7  1  0.78844678  0.78844678  0.78844678  1
  Se  Se8  1  0.21155322  0.21155322  0.21155322  1
  Se  Se9  1  0.62229402  0.26244724  0.87098407  1
  Se  Se10  1  0.26244724  0.87098407  0.62229402  1
  Se  Se11  1  0.87098407  0.62229402  0.26244724  1
  Se  Se12  1  0.37770598  0.73755276  0.12901593  1
  Se  Se13  1  0.73755276  0.12901593  0.37770598  1
  Se  Se14  1  0.12901593  0.37770598  0.73755276  1
