# generated using pymatgen
data_MgCoF6
_symmetry_space_group_name_H-M   'P 1'
_cell_length_a   5.39061592
_cell_length_b   5.39061538
_cell_length_c   5.39061507
_cell_angle_alpha   58.21050662
_cell_angle_beta   58.21050530
_cell_angle_gamma   58.21051012
_symmetry_Int_Tables_number   1
_chemical_formula_structural   MgCoF6
_chemical_formula_sum   'Mg1 Co1 F6'
_cell_volume   106.22280660
_cell_formula_units_Z   1
loop_
 _symmetry_equiv_pos_site_id
 _symmetry_equiv_pos_as_xyz
  1  'x, y, z'
loop_
 _atom_site_type_symbol
 _atom_site_label
 _atom_site_symmetry_multiplicity
 _atom_site_fract_x
 _atom_site_fract_y
 _atom_site_fract_z
 _atom_site_occupancy
  Mg  Mg0  1  0.50000000  0.50000000  0.50000000  1
  Co  Co1  1  0.00000000  0.00000000  0.00000000  1
  F  F2  1  0.32662165  0.15378676  0.76091831  1
  F  F3  1  0.15378676  0.76091831  0.32662165  1
  F  F4  1  0.23908169  0.67337835  0.84621324  1
  F  F5  1  0.84621324  0.23908169  0.67337835  1
  F  F6  1  0.67337835  0.84621324  0.23908169  1
  F  F7  1  0.76091831  0.32662165  0.15378676  1
