# generated using pymatgen
data_ZnBiF6
_symmetry_space_group_name_H-M   'P 1'
_cell_length_a   5.82567354
_cell_length_b   5.82567287
_cell_length_c   5.82567247
_cell_angle_alpha   57.91615482
_cell_angle_beta   57.91615324
_cell_angle_gamma   57.91615874
_symmetry_Int_Tables_number   1
_chemical_formula_structural   ZnBiF6
_chemical_formula_sum   'Zn1 Bi1 F6'
_cell_volume   133.11935437
_cell_formula_units_Z   1
loop_
 _symmetry_equiv_pos_site_id
 _symmetry_equiv_pos_as_xyz
  1  'x, y, z'
loop_
 _atom_site_type_symbol
 _atom_site_label
 _atom_site_symmetry_multiplicity
 _atom_site_fract_x
 _atom_site_fract_y
 _atom_site_fract_z
 _atom_site_occupancy
  Zn  Zn0  1  0.50000000  0.50000000  0.50000000  1
  Bi  Bi1  1  0.00000000  0.00000000  0.00000000  1
  F  F2  1  0.35776446  0.16250850  0.74049376  1
  F  F3  1  0.16250851  0.74049376  0.35776446  1
  F  F4  1  0.25950624  0.64223554  0.83749150  1
  F  F5  1  0.83749149  0.25950624  0.64223554  1
  F  F6  1  0.64223554  0.83749150  0.25950624  1
  F  F7  1  0.74049376  0.35776446  0.16250850  1
