# generated using pymatgen
data_La2Re2Si2C
_symmetry_space_group_name_H-M   'P 1'
_cell_length_a   4.13740660
_cell_length_b   6.04440053
_cell_length_c   6.21669115
_cell_angle_alpha   73.36413020
_cell_angle_beta   70.56325474
_cell_angle_gamma   69.98591152
_symmetry_Int_Tables_number   1
_chemical_formula_structural   La2Re2Si2C
_chemical_formula_sum   'La2 Re2 Si2 C1'
_cell_volume   135.12123202
_cell_formula_units_Z   1
loop_
 _symmetry_equiv_pos_site_id
 _symmetry_equiv_pos_as_xyz
  1  'x, y, z'
loop_
 _atom_site_type_symbol
 _atom_site_label
 _atom_site_symmetry_multiplicity
 _atom_site_fract_x
 _atom_site_fract_y
 _atom_site_fract_z
 _atom_site_occupancy
  La  La0  1  0.43062795  0.83551038  0.30323372  1
  La  La1  1  0.56937205  0.16448962  0.69676628  1
  Re  Re2  1  0.79884432  0.31596644  0.08634493  1
  Re  Re3  1  0.20115568  0.68403356  0.91365507  1
  Si  Si4  1  0.84261254  0.60229911  0.71247581  1
  Si  Si5  1  0.15738746  0.39770089  0.28752419  1
  C  C6  1  -0.00000000  -0.00000000  0.00000000  1
