# generated using pymatgen
data_U2Re2C3
_symmetry_space_group_name_H-M   'P 1'
_cell_length_a   3.11476975
_cell_length_b   5.59072219
_cell_length_c   6.16849686
_cell_angle_alpha   112.04966242
_cell_angle_beta   104.62395722
_cell_angle_gamma   90.00000000
_symmetry_Int_Tables_number   1
_chemical_formula_structural   U2Re2C3
_chemical_formula_sum   'U2 Re2 C3'
_cell_volume   95.79554053
_cell_formula_units_Z   1
loop_
 _symmetry_equiv_pos_site_id
 _symmetry_equiv_pos_as_xyz
  1  'x, y, z'
loop_
 _atom_site_type_symbol
 _atom_site_label
 _atom_site_symmetry_multiplicity
 _atom_site_fract_x
 _atom_site_fract_y
 _atom_site_fract_z
 _atom_site_occupancy
  U  U0  1  0.39795506  0.19321143  0.79591011  1
  U  U1  1  0.60204494  0.80678857  0.20408989  1
  Re  Re2  1  0.15446165  0.33537768  0.30892330  1
  Re  Re3  1  0.84553835  0.66462232  0.69107670  1
  C  C4  1  0.24885660  0.75306536  0.49771320  1
  C  C5  1  0.75114340  0.24693464  0.50228680  1
  C  C6  1  0.00000000  0.00000000  0.00000000  1
