# generated using pymatgen
data_PrSiP3
_symmetry_space_group_name_H-M   'P 1'
_cell_length_a   5.72471328
_cell_length_b   5.89740622
_cell_length_c   25.49637247
_cell_angle_alpha   90.00000000
_cell_angle_beta   90.00000000
_cell_angle_gamma   90.00000000
_symmetry_Int_Tables_number   1
_chemical_formula_structural   PrSiP3
_chemical_formula_sum   'Pr8 Si8 P24'
_cell_volume   860.78200359
_cell_formula_units_Z   8
loop_
 _symmetry_equiv_pos_site_id
 _symmetry_equiv_pos_as_xyz
  1  'x, y, z'
loop_
 _atom_site_type_symbol
 _atom_site_label
 _atom_site_symmetry_multiplicity
 _atom_site_fract_x
 _atom_site_fract_y
 _atom_site_fract_z
 _atom_site_occupancy
  Pr  Pr0  1  0.75418799  0.52367879  0.41041017  1
  Pr  Pr1  1  0.25418799  0.47632121  0.58958983  1
  Pr  Pr2  1  0.25418799  0.97632121  0.91041017  1
  Pr  Pr3  1  0.75418799  0.02367879  0.08958983  1
  Pr  Pr4  1  0.25268227  0.02390424  0.40209675  1
  Pr  Pr5  1  0.75268227  0.97609576  0.59790325  1
  Pr  Pr6  1  0.75268227  0.47609576  0.90209675  1
  Pr  Pr7  1  0.25268227  0.52390424  0.09790325  1
  Si  Si8  1  0.33647166  0.44442738  0.29465535  1
  Si  Si9  1  0.83647166  0.55557262  0.70534465  1
  Si  Si10  1  0.83647166  0.05557262  0.79465535  1
  Si  Si11  1  0.33647166  0.94442738  0.20534465  1
  Si  Si12  1  0.83410997  0.11552847  0.29102427  1
  Si  Si13  1  0.33410997  0.88447153  0.70897573  1
  Si  Si14  1  0.33410997  0.38447153  0.79102427  1
  Si  Si15  1  0.83410997  0.61552847  0.20897573  1
  P  P16  1  0.46372983  0.81590276  0.49727636  1
  P  P17  1  0.96372983  0.18409724  0.50272364  1
  P  P18  1  0.96372983  0.68409724  0.99727636  1
  P  P19  1  0.46372983  0.31590276  0.00272364  1
  P  P20  1  0.56174880  0.18737782  0.50152335  1
  P  P21  1  0.06174880  0.81262218  0.49847665  1
  P  P22  1  0.06174880  0.31262218  0.00152335  1
  P  P23  1  0.56174880  0.68737782  0.99847665  1
  P  P24  1  0.75063934  0.01673483  0.37271015  1
  P  P25  1  0.25063934  0.98326517  0.62728985  1
  P  P26  1  0.25063934  0.48326517  0.87271015  1
  P  P27  1  0.75063934  0.51673483  0.12728985  1
  P  P28  1  0.25181115  0.52757258  0.37670540  1
  P  P29  1  0.75181115  0.47242742  0.62329460  1
  P  P30  1  0.75181115  0.97242742  0.87670540  1
  P  P31  1  0.25181115  0.02757258  0.12329460  1
  P  P32  1  0.22621562  0.08259275  0.28431384  1
  P  P33  1  0.72621562  0.91740725  0.71568616  1
  P  P34  1  0.72621562  0.41740725  0.78431384  1
  P  P35  1  0.22621562  0.58259275  0.21568616  1
  P  P36  1  0.72840336  0.48102589  0.28919198  1
  P  P37  1  0.22840336  0.51897411  0.71080802  1
  P  P38  1  0.22840336  0.01897411  0.78919198  1
  P  P39  1  0.72840336  0.98102589  0.21080802  1
