# generated using pymatgen
data_K3NbO8
_symmetry_space_group_name_H-M   'P 1'
_cell_length_a   6.33835400
_cell_length_b   6.33835400
_cell_length_c   6.33835400
_cell_angle_alpha   101.11460816
_cell_angle_beta   113.80429763
_cell_angle_gamma   113.80429762
_symmetry_Int_Tables_number   1
_chemical_formula_structural   K3NbO8
_chemical_formula_sum   'K3 Nb1 O8'
_cell_volume   192.96121914
_cell_formula_units_Z   1
loop_
 _symmetry_equiv_pos_site_id
 _symmetry_equiv_pos_as_xyz
  1  'x, y, z'
loop_
 _atom_site_type_symbol
 _atom_site_label
 _atom_site_symmetry_multiplicity
 _atom_site_fract_x
 _atom_site_fract_y
 _atom_site_fract_z
 _atom_site_occupancy
  O  O0  1  0.57434183  0.80814729  0.80814729  1
  O  O1  1  0.00000000  0.19185271  0.76619454  1
  O  O2  1  0.00000000  0.76619454  0.19185271  1
  O  O3  1  0.42565817  0.23380546  0.23380546  1
  O  O4  1  0.28295873  0.32784804  0.32784804  1
  O  O5  1  0.00000000  0.67215196  0.95511068  1
  O  O6  1  0.00000000  0.95511068  0.67215196  1
  O  O7  1  0.71704127  0.04488932  0.04488932  1
  K  K8  1  0.50000000  0.25000000  0.75000000  1
  K  K9  1  0.50000000  0.75000000  0.25000000  1
  K  K10  1  0.00000000  0.50000000  0.50000000  1
  Nb  Nb11  1  0.00000000  0.00000000  0.00000000  1
