# generated using pymatgen
data_TeF6
_symmetry_space_group_name_H-M   'P 1'
_cell_length_a   5.70273266
_cell_length_b   5.70273352
_cell_length_c   5.70273368
_cell_angle_alpha   57.63703462
_cell_angle_beta   57.63702270
_cell_angle_gamma   57.63702756
_symmetry_Int_Tables_number   1
_chemical_formula_structural   TeF6
_chemical_formula_sum   'Te1 F6'
_cell_volume   124.01771142
_cell_formula_units_Z   1
loop_
 _symmetry_equiv_pos_site_id
 _symmetry_equiv_pos_as_xyz
  1  'x, y, z'
loop_
 _atom_site_type_symbol
 _atom_site_label
 _atom_site_symmetry_multiplicity
 _atom_site_fract_x
 _atom_site_fract_y
 _atom_site_fract_z
 _atom_site_occupancy
  Te  Te0  1  0.00000000  0.00000000  0.00000000  1
  F  F1  1  0.32336168  0.12710863  0.77678386  1
  F  F2  1  0.12710863  0.77678386  0.32336168  1
  F  F3  1  0.22321614  0.67663832  0.87289137  1
  F  F4  1  0.87289137  0.22321614  0.67663832  1
  F  F5  1  0.67663832  0.87289137  0.22321614  1
  F  F6  1  0.77678386  0.32336168  0.12710863  1
