# generated using pymatgen
data_NdB4
_symmetry_space_group_name_H-M   'P 1'
_cell_length_a   4.11995758
_cell_length_b   7.23841713
_cell_length_c   7.23841713
_cell_angle_alpha   90.00000000
_cell_angle_beta   90.00000000
_cell_angle_gamma   90.00000000
_symmetry_Int_Tables_number   1
_chemical_formula_structural   NdB4
_chemical_formula_sum   'Nd4 B16'
_cell_volume   215.86386951
_cell_formula_units_Z   4
loop_
 _symmetry_equiv_pos_site_id
 _symmetry_equiv_pos_as_xyz
  1  'x, y, z'
loop_
 _atom_site_type_symbol
 _atom_site_label
 _atom_site_symmetry_multiplicity
 _atom_site_fract_x
 _atom_site_fract_y
 _atom_site_fract_z
 _atom_site_occupancy
  B  B0  1  0.50000000  0.58801101  0.91198899  1
  B  B1  1  0.50000000  0.08801101  0.58801101  1
  B  B2  1  0.50000000  0.91198899  0.41198899  1
  B  B3  1  0.50000000  0.41198899  0.08801101  1
  B  B4  1  0.50000000  0.17421962  0.03886967  1
  B  B5  1  0.50000000  0.96113033  0.17421962  1
  B  B6  1  0.50000000  0.03886967  0.82578038  1
  B  B7  1  0.50000000  0.82578038  0.96113033  1
  B  B8  1  0.50000000  0.67421962  0.46113033  1
  B  B9  1  0.50000000  0.32578038  0.53886967  1
  B  B10  1  0.50000000  0.53886967  0.67421962  1
  B  B11  1  0.50000000  0.46113033  0.32578038  1
  B  B12  1  0.20479599  0.00000000  0.00000000  1
  B  B13  1  0.79520401  0.50000000  0.50000000  1
  B  B14  1  0.79520401  0.00000000  0.00000000  1
  B  B15  1  0.20479599  0.50000000  0.50000000  1
  Nd  Nd16  1  0.00000000  0.68285256  0.18285256  1
  Nd  Nd17  1  0.00000000  0.81714744  0.68285256  1
  Nd  Nd18  1  0.00000000  0.18285256  0.31714744  1
  Nd  Nd19  1  0.00000000  0.31714744  0.81714744  1
