# generated using pymatgen
data_NdCrGeO5
_symmetry_space_group_name_H-M   'P 1'
_cell_length_a   5.87993698
_cell_length_b   7.58483504
_cell_length_c   8.63670620
_cell_angle_alpha   90.00000000
_cell_angle_beta   90.00000000
_cell_angle_gamma   90.00000000
_symmetry_Int_Tables_number   1
_chemical_formula_structural   NdCrGeO5
_chemical_formula_sum   'Nd4 Cr4 Ge4 O20'
_cell_volume   385.18286356
_cell_formula_units_Z   4
loop_
 _symmetry_equiv_pos_site_id
 _symmetry_equiv_pos_as_xyz
  1  'x, y, z'
loop_
 _atom_site_type_symbol
 _atom_site_label
 _atom_site_symmetry_multiplicity
 _atom_site_fract_x
 _atom_site_fract_y
 _atom_site_fract_z
 _atom_site_occupancy
  Nd  Nd0  1  0.50000000  0.35863782  0.32582368  1
  Nd  Nd1  1  0.50000000  0.64136218  0.67417632  1
  Nd  Nd2  1  0.50000000  0.14136218  0.82582368  1
  Nd  Nd3  1  0.50000000  0.85863782  0.17417632  1
  Cr  Cr4  1  0.24657970  -0.00000000  0.50000000  1
  Cr  Cr5  1  0.75342030  -0.00000000  0.50000000  1
  Cr  Cr6  1  0.75342030  0.50000000  -0.00000000  1
  Cr  Cr7  1  0.24657970  0.50000000  0.00000000  1
  Ge  Ge8  1  0.00000000  0.11565448  0.14305751  1
  Ge  Ge9  1  -0.00000000  0.88434552  0.85694249  1
  Ge  Ge10  1  -0.00000000  0.38434552  0.64305751  1
  Ge  Ge11  1  -0.00000000  0.61565448  0.35694249  1
  O  O12  1  0.24286152  0.10478683  0.28206079  1
  O  O13  1  0.75713848  0.89521317  0.71793921  1
  O  O14  1  0.24286152  0.89521317  0.71793921  1
  O  O15  1  0.75713848  0.39521317  0.78206079  1
  O  O16  1  0.75713848  0.10478683  0.28206079  1
  O  O17  1  0.24286152  0.60478683  0.21793921  1
  O  O18  1  0.75713848  0.60478683  0.21793921  1
  O  O19  1  0.24286152  0.39521317  0.78206079  1
  O  O20  1  0.00000000  0.33804971  0.07629572  1
  O  O21  1  0.00000000  0.66195029  0.92370428  1
  O  O22  1  -0.00000000  0.16195029  0.57629572  1
  O  O23  1  -0.00000000  0.83804971  0.42370428  1
  O  O24  1  0.50000000  0.33550033  0.05231372  1
  O  O25  1  0.50000000  0.66449967  0.94768628  1
  O  O26  1  0.50000000  0.16449967  0.55231372  1
  O  O27  1  0.50000000  0.83550033  0.44768628  1
  O  O28  1  0.20701154  -0.00000000  0.00000000  1
  O  O29  1  0.79298846  -0.00000000  -0.00000000  1
  O  O30  1  0.79298846  0.50000000  0.50000000  1
  O  O31  1  0.20701154  0.50000000  0.50000000  1
