# generated using pymatgen
data_NdSiO4
_symmetry_space_group_name_H-M   'P 1'
_cell_length_a   6.04629495
_cell_length_b   6.04629495
_cell_length_c   6.04629495
_cell_angle_alpha   106.49330330
_cell_angle_beta   106.49330330
_cell_angle_gamma   115.60684254
_symmetry_Int_Tables_number   1
_chemical_formula_structural   NdSiO4
_chemical_formula_sum   'Nd2 Si2 O8'
_cell_volume   168.67661264
_cell_formula_units_Z   2
loop_
 _symmetry_equiv_pos_site_id
 _symmetry_equiv_pos_as_xyz
  1  'x, y, z'
loop_
 _atom_site_type_symbol
 _atom_site_label
 _atom_site_symmetry_multiplicity
 _atom_site_fract_x
 _atom_site_fract_y
 _atom_site_fract_z
 _atom_site_occupancy
  Nd  Nd0  1  0.87500000  0.12500000  0.75000000  1
  Nd  Nd1  1  0.12500000  0.87500000  0.25000000  1
  Si  Si2  1  0.62500000  0.37500000  0.25000000  1
  Si  Si3  1  0.37500000  0.62500000  0.75000000  1
  O  O4  1  0.78756570  0.36191395  0.07434825  1
  O  O5  1  0.63808605  0.21243430  0.42565175  1
  O  O6  1  0.28678255  0.21243430  0.07434825  1
  O  O7  1  0.78756570  0.71321745  0.42565175  1
  O  O8  1  0.21243430  0.28678255  0.57434825  1
  O  O9  1  0.71321745  0.78756570  0.92565175  1
  O  O10  1  0.36191395  0.78756570  0.57434825  1
  O  O11  1  0.21243430  0.63808605  0.92565175  1
