# generated using pymatgen
data_Eu(BIr)4
_symmetry_space_group_name_H-M   'P 1'
_cell_length_a   3.98075117
_cell_length_b   7.69960208
_cell_length_c   7.69960208
_cell_angle_alpha   90.00000000
_cell_angle_beta   90.00000000
_cell_angle_gamma   90.00000000
_symmetry_Int_Tables_number   1
_chemical_formula_structural   Eu(BIr)4
_chemical_formula_sum   'Eu2 B8 Ir8'
_cell_volume   235.99434358
_cell_formula_units_Z   2
loop_
 _symmetry_equiv_pos_site_id
 _symmetry_equiv_pos_as_xyz
  1  'x, y, z'
loop_
 _atom_site_type_symbol
 _atom_site_label
 _atom_site_symmetry_multiplicity
 _atom_site_fract_x
 _atom_site_fract_y
 _atom_site_fract_z
 _atom_site_occupancy
  B  B0  1  0.85835356  0.02878255  0.90791223  1
  B  B1  1  0.14164644  0.52878255  0.40791223  1
  B  B2  1  0.35835356  0.09208777  0.52878255  1
  B  B3  1  0.35835356  0.40791223  0.97121745  1
  B  B4  1  0.85835356  0.47121745  0.59208777  1
  B  B5  1  0.14164644  0.97121745  0.09208777  1
  B  B6  1  0.64164644  0.90791223  0.47121745  1
  B  B7  1  0.64164644  0.59208777  0.02878255  1
  Eu  Eu8  1  0.75000000  0.25000000  0.25000000  1
  Eu  Eu9  1  0.25000000  0.75000000  0.75000000  1
  Ir  Ir10  1  0.35753197  0.36073330  0.59433695  1
  Ir  Ir11  1  0.35753197  0.13926670  0.90566305  1
  Ir  Ir12  1  0.85753197  0.40566305  0.86073330  1
  Ir  Ir13  1  0.14246803  0.90566305  0.36073330  1
  Ir  Ir14  1  0.64246803  0.63926670  0.40566305  1
  Ir  Ir15  1  0.64246803  0.86073330  0.09433695  1
  Ir  Ir16  1  0.14246803  0.59433695  0.13926670  1
  Ir  Ir17  1  0.85753197  0.09433695  0.63926670  1
