# generated using pymatgen
data_V3Co2P6WO24
_symmetry_space_group_name_H-M   'P 1'
_cell_length_a   8.66742342
_cell_length_b   8.70641286
_cell_length_c   8.70641193
_cell_angle_alpha   60.00000163
_cell_angle_beta   59.85108425
_cell_angle_gamma   59.85108756
_symmetry_Int_Tables_number   1
_chemical_formula_structural   V3Co2P6WO24
_chemical_formula_sum   'V3 Co2 P6 W1 O24'
_cell_volume   463.52406639
_cell_formula_units_Z   1
loop_
 _symmetry_equiv_pos_site_id
 _symmetry_equiv_pos_as_xyz
  1  'x, y, z'
loop_
 _atom_site_type_symbol
 _atom_site_label
 _atom_site_symmetry_multiplicity
 _atom_site_fract_x
 _atom_site_fract_y
 _atom_site_fract_z
 _atom_site_occupancy
  V  V0  1  0.07374103  0.64208632  0.64208632  1
  V  V1  1  0.42949543  0.85683419  0.85683419  1
  V  V2  1  0.92625990  0.35791337  0.35791337  1
  Co  Co3  1  0.01481909  0.99506030  0.99506030  1
  Co  Co4  1  0.50055667  0.49981444  0.49981444  1
  P  P5  1  0.24579169  0.25218831  0.54586624  1
  P  P6  1  0.24579169  0.95615276  0.25218831  1
  P  P7  1  0.24579169  0.54586624  0.95615276  1
  P  P8  1  0.74925890  0.46396348  0.04188180  1
  P  P9  1  0.74925890  0.04188180  0.74489582  1
  P  P10  1  0.74925890  0.74489582  0.46396348  1
  W  W11  1  0.57309030  0.14230357  0.14230357  1
  O  O12  1  0.07073649  0.11748880  0.30893097  1
  O  O13  1  0.07073649  0.50284274  0.11748880  1
  O  O14  1  0.07073649  0.30893097  0.50284274  1
  O  O15  1  0.23795573  0.08583371  0.73456423  1
  O  O16  1  0.43063462  0.18988972  0.38336671  1
  O  O17  1  0.26717708  0.41327483  0.55506981  1
  O  O18  1  0.23795573  0.94164733  0.08583371  1
  O  O19  1  0.26717708  0.76447929  0.41327483  1
  O  O20  1  0.56826206  0.61929242  0.00472518  1
  O  O21  1  0.26717708  0.55506981  0.76447929  1
  O  O22  1  0.75784624  0.26732782  0.06161915  1
  O  O23  1  0.56826206  0.00472518  0.80772033  1
  O  O24  1  0.43063462  0.99610894  0.18988972  1
  O  O25  1  0.23795573  0.73456423  0.94164733  1
  O  O26  1  0.73599833  0.44085449  0.23663258  1
  O  O27  1  0.43063462  0.38336671  0.99610894  1
  O  O28  1  0.73599833  0.23663258  0.58651460  1
  O  O29  1  0.75784624  0.06161915  0.91320680  1
  O  O30  1  0.73599833  0.58651460  0.44085449  1
  O  O31  1  0.56826206  0.80772033  0.61929242  1
  O  O32  1  0.75784624  0.91320680  0.26732782  1
  O  O33  1  0.93035006  0.69420408  0.49334146  1
  O  O34  1  0.93035006  0.49334146  0.88210440  1
  O  O35  1  0.93035006  0.88210440  0.69420408  1
