# generated using pymatgen
data_Tm2Cr2C3
_symmetry_space_group_name_H-M   'P 1'
_cell_length_a   3.31028906
_cell_length_b   5.50981308
_cell_length_c   5.47564915
_cell_angle_alpha   105.66448471
_cell_angle_beta   107.59421593
_cell_angle_gamma   90.00000000
_symmetry_Int_Tables_number   1
_chemical_formula_structural   Tm2Cr2C3
_chemical_formula_sum   'Tm2 Cr2 C3'
_cell_volume   91.30005618
_cell_formula_units_Z   1
loop_
 _symmetry_equiv_pos_site_id
 _symmetry_equiv_pos_as_xyz
  1  'x, y, z'
loop_
 _atom_site_type_symbol
 _atom_site_label
 _atom_site_symmetry_multiplicity
 _atom_site_fract_x
 _atom_site_fract_y
 _atom_site_fract_z
 _atom_site_occupancy
  Tm  Tm0  1  0.60838161  0.31645259  0.21676322  1
  Tm  Tm1  1  0.39161839  0.68354741  0.78323678  1
  Cr  Cr2  1  0.84502440  0.11336227  0.69004880  1
  Cr  Cr3  1  0.15497560  0.88663773  0.30995120  1
  C  C4  1  0.28079725  0.23544398  0.56159450  1
  C  C5  1  0.71920275  0.76455602  0.43840550  1
  C  C6  1  -0.00000000  -0.00000000  0.00000000  1
