# generated using pymatgen
data_La6TlCo13
_symmetry_space_group_name_H-M   'P 1'
_cell_length_a   8.07401788
_cell_length_b   8.07401788
_cell_length_c   13.01424716
_cell_angle_alpha   108.07123738
_cell_angle_beta   108.07123738
_cell_angle_gamma   90.00000000
_symmetry_Int_Tables_number   1
_chemical_formula_structural   La6TlCo13
_chemical_formula_sum   'La12 Tl2 Co26'
_cell_volume   762.40186179
_cell_formula_units_Z   2
loop_
 _symmetry_equiv_pos_site_id
 _symmetry_equiv_pos_as_xyz
  1  'x, y, z'
loop_
 _atom_site_type_symbol
 _atom_site_label
 _atom_site_symmetry_multiplicity
 _atom_site_fract_x
 _atom_site_fract_y
 _atom_site_fract_z
 _atom_site_occupancy
  La  La0  1  0.59874155  0.59874155  0.19748310  1
  La  La1  1  0.09874155  0.09874155  0.19748310  1
  La  La2  1  0.40125845  0.40125845  0.80251690  1
  La  La3  1  0.90125845  0.90125845  0.80251690  1
  La  La4  1  0.98493429  0.48493429  0.64545554  1
  La  La5  1  0.66052125  0.16052125  0.64545554  1
  La  La6  1  0.16052125  0.98493429  0.64545554  1
  La  La7  1  0.48493429  0.66052125  0.64545554  1
  La  La8  1  0.01506571  0.51506571  0.35454446  1
  La  La9  1  0.33947875  0.83947875  0.35454446  1
  La  La10  1  0.83947875  0.01506571  0.35454446  1
  La  La11  1  0.51506571  0.33947875  0.35454446  1
  Tl  Tl12  1  0.25000000  0.25000000  0.50000000  1
  Tl  Tl13  1  0.75000000  0.75000000  0.50000000  1
  Co  Co14  1  0.00000000  0.50000000  0.00000000  1
  Co  Co15  1  0.50000000  0.00000000  0.00000000  1
  Co  Co16  1  0.71377530  0.56466982  0.00000000  1
  Co  Co17  1  0.28622470  0.43533018  1.00000000  1
  Co  Co18  1  0.78622470  0.06466982  0.00000000  1
  Co  Co19  1  0.21377530  0.93533018  1.00000000  1
  Co  Co20  1  0.56466982  0.28622470  0.00000000  1
  Co  Co21  1  0.43533018  0.71377530  1.00000000  1
  Co  Co22  1  0.06466982  0.21377530  0.00000000  1
  Co  Co23  1  0.93533018  0.78622470  1.00000000  1
  Co  Co24  1  0.12166508  0.62166508  0.89029461  1
  Co  Co25  1  0.76862953  0.26862953  0.89029461  1
  Co  Co26  1  0.26862953  0.12166508  0.89029461  1
  Co  Co27  1  0.62166508  0.76862953  0.89029461  1
  Co  Co28  1  0.87833492  0.37833492  0.10970539  1
  Co  Co29  1  0.23137047  0.73137047  0.10970539  1
  Co  Co30  1  0.73137047  0.87833492  0.10970539  1
  Co  Co31  1  0.37833492  0.23137047  0.10970539  1
  Co  Co32  1  0.29912209  0.79912209  0.82489239  1
  Co  Co33  1  0.52577030  0.02577030  0.82489239  1
  Co  Co34  1  0.02577030  0.29912209  0.82489239  1
  Co  Co35  1  0.79912209  0.52577030  0.82489239  1
  Co  Co36  1  0.70087791  0.20087791  0.17510761  1
  Co  Co37  1  0.47422970  0.97422970  0.17510761  1
  Co  Co38  1  0.97422970  0.70087791  0.17510761  1
  Co  Co39  1  0.20087791  0.47422970  0.17510761  1
