# generated using pymatgen
data_ThFe5P3
_symmetry_space_group_name_H-M   'P 1'
_cell_length_a   3.72633814
_cell_length_b   10.41676838
_cell_length_c   11.91026327
_cell_angle_alpha   90.00000000
_cell_angle_beta   90.00000000
_cell_angle_gamma   90.00000000
_symmetry_Int_Tables_number   1
_chemical_formula_structural   ThFe5P3
_chemical_formula_sum   'Th4 Fe20 P12'
_cell_volume   462.31355880
_cell_formula_units_Z   4
loop_
 _symmetry_equiv_pos_site_id
 _symmetry_equiv_pos_as_xyz
  1  'x, y, z'
loop_
 _atom_site_type_symbol
 _atom_site_label
 _atom_site_symmetry_multiplicity
 _atom_site_fract_x
 _atom_site_fract_y
 _atom_site_fract_z
 _atom_site_occupancy
  Th  Th0  1  0.75000000  0.41919753  0.29671771  1
  Th  Th1  1  0.25000000  0.58080247  0.70328229  1
  Th  Th2  1  0.25000000  0.91919753  0.20328229  1
  Th  Th3  1  0.75000000  0.08080247  0.79671771  1
  Fe  Fe4  1  0.75000000  0.37918205  0.80046753  1
  Fe  Fe5  1  0.75000000  0.29428899  0.01144732  1
  Fe  Fe6  1  0.75000000  0.59651486  0.51078943  1
  Fe  Fe7  1  0.25000000  0.70571101  0.98855268  1
  Fe  Fe8  1  0.25000000  0.22203691  0.17406363  1
  Fe  Fe9  1  0.25000000  0.62081795  0.19953247  1
  Fe  Fe10  1  0.25000000  0.09651486  0.98921057  1
  Fe  Fe11  1  0.25000000  0.27796309  0.67406363  1
  Fe  Fe12  1  0.25000000  0.87918205  0.69953247  1
  Fe  Fe13  1  0.75000000  0.90348514  0.01078943  1
  Fe  Fe14  1  0.25000000  0.40348514  0.48921057  1
  Fe  Fe15  1  0.75000000  0.96578992  0.56669960  1
  Fe  Fe16  1  0.75000000  0.53421008  0.06669960  1
  Fe  Fe17  1  0.25000000  0.79428899  0.48855268  1
  Fe  Fe18  1  0.75000000  0.77796309  0.82593637  1
  Fe  Fe19  1  0.75000000  0.12081795  0.30046753  1
  Fe  Fe20  1  0.25000000  0.46578992  0.93330040  1
  Fe  Fe21  1  0.75000000  0.72203691  0.32593637  1
  Fe  Fe22  1  0.75000000  0.20571101  0.51144732  1
  Fe  Fe23  1  0.25000000  0.03421008  0.43330040  1
  P  P24  1  0.25000000  0.07742668  0.60948832  1
  P  P25  1  0.75000000  0.72561964  0.13103286  1
  P  P26  1  0.75000000  0.92257332  0.39051168  1
  P  P27  1  0.25000000  0.42257332  0.10948832  1
  P  P28  1  0.75000000  0.57742668  0.89051168  1
  P  P29  1  0.25000000  0.22561964  0.36896714  1
  P  P30  1  0.25000000  0.89248871  0.89636979  1
  P  P31  1  0.25000000  0.60751129  0.39636979  1
  P  P32  1  0.25000000  0.27438036  0.86896714  1
  P  P33  1  0.75000000  0.39248871  0.60363021  1
  P  P34  1  0.75000000  0.10751129  0.10363021  1
  P  P35  1  0.75000000  0.77438036  0.63103286  1
