# generated using pymatgen
data_V2OF6
_symmetry_space_group_name_H-M   'P 1'
_cell_length_a   8.42676951
_cell_length_b   6.84933367
_cell_length_c   5.27407967
_cell_angle_alpha   88.02865916
_cell_angle_beta   100.58914664
_cell_angle_gamma   110.09029300
_symmetry_Int_Tables_number   1
_chemical_formula_structural   V2OF6
_chemical_formula_sum   'V4 O2 F12'
_cell_volume   280.88092058
_cell_formula_units_Z   2
loop_
 _symmetry_equiv_pos_site_id
 _symmetry_equiv_pos_as_xyz
  1  'x, y, z'
loop_
 _atom_site_type_symbol
 _atom_site_label
 _atom_site_symmetry_multiplicity
 _atom_site_fract_x
 _atom_site_fract_y
 _atom_site_fract_z
 _atom_site_occupancy
  V  V0  1  0.17535689  0.26896037  0.28158214  1
  V  V1  1  0.32377124  0.52490192  0.81690238  1
  V  V2  1  0.80594754  0.72184900  0.70479830  1
  V  V3  1  0.66588305  0.47936481  0.15593258  1
  O  O4  1  0.14723022  0.40608880  0.96736615  1
  O  O5  1  0.58158482  0.57056096  0.84533541  1
  F  F6  1  0.01725031  0.78771847  0.64212799  1
  F  F7  1  0.23322708  0.55431086  0.46163245  1
  F  F8  1  0.38617238  0.79414183  0.90739831  1
  F  F9  1  0.29570016  0.25613079  0.63271485  1
  F  F10  1  0.17508968  0.02717699  0.18239565  1
  F  F11  1  0.42947504  0.41979622  0.20946089  1
  F  F12  1  0.79762666  0.95627370  0.81404586  1
  F  F13  1  0.70894332  0.75102040  0.34480289  1
  F  F14  1  0.64398572  0.22253840  0.10190241  1
  F  F15  1  0.75648067  0.44900990  0.53437376  1
  F  F16  1  0.88395293  0.61916720  0.04974962  1
  F  F17  1  0.96230530  0.18008637  0.33975337  1
