# generated using pymatgen
data_V3(P2O7)2
_symmetry_space_group_name_H-M   'P 1'
_cell_length_a   5.27209390
_cell_length_b   6.60168868
_cell_length_c   15.70143062
_cell_angle_alpha   81.64808991
_cell_angle_beta   82.45649433
_cell_angle_gamma   73.15073615
_symmetry_Int_Tables_number   1
_chemical_formula_structural   V3(P2O7)2
_chemical_formula_sum   'V6 P8 O28'
_cell_volume   515.17697638
_cell_formula_units_Z   2
loop_
 _symmetry_equiv_pos_site_id
 _symmetry_equiv_pos_as_xyz
  1  'x, y, z'
loop_
 _atom_site_type_symbol
 _atom_site_label
 _atom_site_symmetry_multiplicity
 _atom_site_fract_x
 _atom_site_fract_y
 _atom_site_fract_z
 _atom_site_occupancy
  V  V0  1  0.16374284  0.28458883  0.58167517  1
  V  V1  1  0.03734264  0.61699792  0.82861445  1
  V  V2  1  0.25262921  0.96492322  0.32348278  1
  V  V3  1  0.74737079  0.03507678  0.67651722  1
  V  V4  1  0.96265736  0.38300208  0.17138555  1
  V  V5  1  0.83625716  0.71541117  0.41832483  1
  P  P6  1  0.17422402  0.10313407  0.79132251  1
  P  P7  1  0.39138898  0.43242090  0.31755693  1
  P  P8  1  0.56801727  0.23901058  0.06762080  1
  P  P9  1  0.27454478  0.78572351  0.53921814  1
  P  P10  1  0.72545522  0.21427749  0.46078186  1
  P  P11  1  0.43198273  0.76098942  0.93237920  1
  P  P12  1  0.60861102  0.56757910  0.68244307  1
  P  P13  1  0.82577598  0.89686593  0.20867749  1
  O  O14  1  0.01723034  0.02930898  0.22624922  1
  O  O15  1  0.26834082  0.33438137  0.09004109  1
  O  O16  1  0.02669928  0.31117131  0.82351717  1
  O  O17  1  0.23180501  0.29622376  0.28855211  1
  O  O18  1  0.12565361  0.62124003  0.53488290  1
  O  O19  1  0.20809931  0.65409184  0.33802237  1
  O  O20  1  0.33290078  0.84437883  0.01541039  1
  O  O21  1  0.35054915  0.13650370  0.70177170  1
  O  O22  1  0.61278543  0.04020090  0.15140631  1
  O  O23  1  0.09794725  0.97141879  0.58891084  1
  O  O24  1  0.45954469  0.31601954  0.41423141  1
  O  O25  1  0.59983036  0.13635419  0.54954538  1
  O  O26  1  0.28816703  0.60893506  0.90464091  1
  O  O27  1  0.34930368  0.55980697  0.73155613  1
  O  O28  1  0.65069632  0.44019303  0.26844387  1
  O  O29  1  0.71183297  0.39106494  0.09535909  1
  O  O30  1  0.40016964  0.86364581  0.45045462  1
  O  O31  1  0.54045531  0.68398046  0.58576859  1
  O  O32  1  0.90205275  0.02858121  0.41108916  1
  O  O33  1  0.38721457  0.95979910  0.84859369  1
  O  O34  1  0.64945085  0.86349630  0.29822830  1
  O  O35  1  0.66709922  0.15562117  0.98458961  1
  O  O36  1  0.79190069  0.34590816  0.66197763  1
  O  O37  1  0.87434639  0.37875997  0.46511710  1
  O  O38  1  0.76819499  0.70377624  0.71144789  1
  O  O39  1  0.97330072  0.68882869  0.17648283  1
  O  O40  1  0.73165918  0.66561863  0.90995891  1
  O  O41  1  0.98276966  0.97069102  0.77375078  1
