# generated using pymatgen
data_TiZnF6
_symmetry_space_group_name_H-M   'P 1'
_cell_length_a   5.49309209
_cell_length_b   5.49309151
_cell_length_c   5.49309118
_cell_angle_alpha   58.15879266
_cell_angle_beta   58.15879125
_cell_angle_gamma   58.15879624
_symmetry_Int_Tables_number   1
_chemical_formula_structural   TiZnF6
_chemical_formula_sum   'Ti1 Zn1 F6'
_cell_volume   112.25634419
_cell_formula_units_Z   1
loop_
 _symmetry_equiv_pos_site_id
 _symmetry_equiv_pos_as_xyz
  1  'x, y, z'
loop_
 _atom_site_type_symbol
 _atom_site_label
 _atom_site_symmetry_multiplicity
 _atom_site_fract_x
 _atom_site_fract_y
 _atom_site_fract_z
 _atom_site_occupancy
  Ti  Ti0  1  0.00000000  0.00000000  0.00000000  1
  Zn  Zn1  1  0.50000000  0.50000000  0.50000000  1
  F  F2  1  0.32639322  0.15211164  0.76182608  1
  F  F3  1  0.15211164  0.76182608  0.32639322  1
  F  F4  1  0.23817392  0.67360678  0.84788836  1
  F  F5  1  0.84788836  0.23817392  0.67360678  1
  F  F6  1  0.67360678  0.84788836  0.23817392  1
  F  F7  1  0.76182608  0.32639322  0.15211164  1
