# generated using pymatgen
data_Dy2Re2Si2C
_symmetry_space_group_name_H-M   'P 1'
_cell_length_a   3.99431387
_cell_length_b   5.83003730
_cell_length_c   5.98830902
_cell_angle_alpha   71.94602513
_cell_angle_beta   70.51808343
_cell_angle_gamma   69.96687750
_symmetry_Int_Tables_number   1
_chemical_formula_structural   Dy2Re2Si2C
_chemical_formula_sum   'Dy2 Re2 Si2 C1'
_cell_volume   120.45986967
_cell_formula_units_Z   1
loop_
 _symmetry_equiv_pos_site_id
 _symmetry_equiv_pos_as_xyz
  1  'x, y, z'
loop_
 _atom_site_type_symbol
 _atom_site_label
 _atom_site_symmetry_multiplicity
 _atom_site_fract_x
 _atom_site_fract_y
 _atom_site_fract_z
 _atom_site_occupancy
  Dy  Dy0  1  0.42818761  0.84380532  0.29981946  1
  Dy  Dy1  1  0.57181239  0.15619468  0.70018054  1
  Re  Re2  1  0.79286195  0.32186967  0.09240644  1
  Re  Re3  1  0.20713805  0.67813033  0.90759356  1
  Si  Si4  1  0.85788484  0.60203824  0.68219208  1
  Si  Si5  1  0.14211516  0.39796176  0.31780792  1
  C  C6  1  -0.00000000  0.00000000  -0.00000000  1
