# generated using pymatgen
data_Ni(PO3)4
_symmetry_space_group_name_H-M   'P 1'
_cell_length_a   5.17517629
_cell_length_b   10.60912071
_cell_length_c   10.62496743
_cell_angle_alpha   71.89519291
_cell_angle_beta   97.24108423
_cell_angle_gamma   97.20814057
_symmetry_Int_Tables_number   1
_chemical_formula_structural   Ni(PO3)4
_chemical_formula_sum   'Ni2 P8 O24'
_cell_volume   547.74078987
_cell_formula_units_Z   2
loop_
 _symmetry_equiv_pos_site_id
 _symmetry_equiv_pos_as_xyz
  1  'x, y, z'
loop_
 _atom_site_type_symbol
 _atom_site_label
 _atom_site_symmetry_multiplicity
 _atom_site_fract_x
 _atom_site_fract_y
 _atom_site_fract_z
 _atom_site_occupancy
  Ni  Ni0  1  0.99934418  0.50065982  0.00020870  1
  Ni  Ni1  1  -0.00000459  0.00014653  0.49896543  1
  P  P2  1  0.47096487  0.30324432  0.06241994  1
  P  P3  1  0.82246709  0.20426129  0.64383042  1
  P  P4  1  0.17758878  0.35627763  0.79567008  1
  P  P5  1  0.17907277  0.79546198  0.35617083  1
  P  P6  1  0.52598804  0.69802540  0.93820628  1
  P  P7  1  0.52876864  0.93722153  0.69654210  1
  P  P8  1  0.47389494  0.06230139  0.30182148  1
  P  P9  1  0.82150620  0.64376794  0.20461870  1
  O  O10  1  0.39643026  0.15423750  0.15370555  1
  O  O11  1  0.99211699  0.55747973  0.16787760  1
  O  O12  1  0.00900329  0.44343293  0.83215848  1
  O  O13  1  0.00741691  0.83271555  0.44151839  1
  O  O14  1  0.00099614  0.22746865  0.77214092  1
  O  O15  1  0.00078639  0.77172535  0.22815690  1
  O  O16  1  0.23440257  0.67129742  0.93023849  1
  O  O17  1  0.23742445  0.93043783  0.66841447  1
  O  O18  1  0.33038913  0.42968949  0.67816391  1
  O  O19  1  0.32779088  0.67734336  0.43322768  1
  O  O20  1  0.36284980  0.27900078  0.92099312  1
  O  O21  1  0.36723295  0.91946412  0.27853803  1
  O  O22  1  0.60232796  0.84597242  0.84557383  1
  O  O23  1  0.31668950  0.09070773  0.39788027  1
  O  O24  1  0.31409331  0.39907537  0.09190227  1
  O  O25  1  0.76228795  0.33117988  0.07004650  1
  O  O26  1  0.68529398  0.90745345  0.60091522  1
  O  O27  1  0.99012576  0.16806002  0.55619213  1
  O  O28  1  0.63827841  0.07857261  0.72114237  1
  O  O29  1  0.63406313  0.72184407  0.08047993  1
  O  O30  1  0.66904583  0.32191981  0.57112279  1
  O  O31  1  0.67266984  0.56717590  0.32263276  1
  O  O32  1  0.76553343  0.07076930  0.32842711  1
  O  O33  1  0.68316022  0.60161190  0.91009634  1
