# generated using pymatgen
data_CaMnF6
_symmetry_space_group_name_H-M   'P 1'
_cell_length_a   5.72771750
_cell_length_b   5.72771686
_cell_length_c   5.72771648
_cell_angle_alpha   57.99305023
_cell_angle_beta   57.99304869
_cell_angle_gamma   57.99305403
_symmetry_Int_Tables_number   1
_chemical_formula_structural   CaMnF6
_chemical_formula_sum   'Ca1 Mn1 F6'
_cell_volume   126.75361074
_cell_formula_units_Z   1
loop_
 _symmetry_equiv_pos_site_id
 _symmetry_equiv_pos_as_xyz
  1  'x, y, z'
loop_
 _atom_site_type_symbol
 _atom_site_label
 _atom_site_symmetry_multiplicity
 _atom_site_fract_x
 _atom_site_fract_y
 _atom_site_fract_z
 _atom_site_occupancy
  Ca  Ca0  1  0.50000000  0.50000000  0.50000000  1
  Mn  Mn1  1  0.00000000  0.00000000  0.00000000  1
  F  F2  1  0.31386528  0.12958201  0.78076862  1
  F  F3  1  0.12958201  0.78076862  0.31386528  1
  F  F4  1  0.21923138  0.68613472  0.87041799  1
  F  F5  1  0.87041799  0.21923138  0.68613472  1
  F  F6  1  0.68613472  0.87041799  0.21923138  1
  F  F7  1  0.78076862  0.31386528  0.12958201  1
