# generated using pymatgen
data_Sc2Cr4Si5
_symmetry_space_group_name_H-M   'P 1'
_cell_length_a   4.89786253
_cell_length_b   7.56052632
_cell_length_c   9.23746036
_cell_angle_alpha   114.15732966
_cell_angle_beta   105.37341291
_cell_angle_gamma   90.00000001
_symmetry_Int_Tables_number   1
_chemical_formula_structural   Sc2Cr4Si5
_chemical_formula_sum   'Sc4 Cr8 Si10'
_cell_volume   298.64567340
_cell_formula_units_Z   2
loop_
 _symmetry_equiv_pos_site_id
 _symmetry_equiv_pos_as_xyz
  1  'x, y, z'
loop_
 _atom_site_type_symbol
 _atom_site_label
 _atom_site_symmetry_multiplicity
 _atom_site_fract_x
 _atom_site_fract_y
 _atom_site_fract_z
 _atom_site_occupancy
  Si  Si0  1  0.74998356  0.00000000  0.00000000  1
  Si  Si1  1  0.71089012  0.41822009  0.42178024  1
  Si  Si2  1  0.28910988  0.58177991  0.57821976  1
  Si  Si3  1  0.78910191  0.99642740  0.57820381  1
  Si  Si4  1  0.25001644  0.00000000  0.00000000  1
  Si  Si5  1  0.43620945  0.35870313  0.87241891  1
  Si  Si6  1  0.56379055  0.64129687  0.12758109  1
  Si  Si7  1  0.06378848  0.48627657  0.12757697  1
  Si  Si8  1  0.93621152  0.51372343  0.87242303  1
  Si  Si9  1  0.21089809  0.00357260  0.42179619  1
  Sc  Sc10  1  0.35786938  0.97714232  0.71573875  1
  Sc  Sc11  1  0.85786704  0.73859275  0.71573407  1
  Sc  Sc12  1  0.14213296  0.26140725  0.28426593  1
  Sc  Sc13  1  0.64213062  0.02285768  0.28426125  1
  Cr  Cr14  1  0.05939539  0.30940651  0.61878618  1
  Cr  Cr15  1  0.55939079  0.30940651  0.61878618  1
  Cr  Cr16  1  0.94060461  0.69059349  0.38121382  1
  Cr  Cr17  1  0.06192416  0.80763002  0.12384832  1
  Cr  Cr18  1  0.93807584  0.19236998  0.87615168  1
  Cr  Cr19  1  0.43808292  0.68378405  0.87616584  1
  Cr  Cr20  1  0.56191708  0.31621595  0.12383416  1
  Cr  Cr21  1  0.44060921  0.69059349  0.38121382  1
