# generated using pymatgen
data_Yb11Sb10
_symmetry_space_group_name_H-M   'P 1'
_cell_length_a   11.98356588
_cell_length_b   11.98356615
_cell_length_c   12.10231216
_cell_angle_alpha   119.67595425
_cell_angle_beta   119.67595497
_cell_angle_gamma   90.00000026
_symmetry_Int_Tables_number   1
_chemical_formula_structural   Yb11Sb10
_chemical_formula_sum   'Yb22 Sb20'
_cell_volume   1240.86617343
_cell_formula_units_Z   2
loop_
 _symmetry_equiv_pos_site_id
 _symmetry_equiv_pos_as_xyz
  1  'x, y, z'
loop_
 _atom_site_type_symbol
 _atom_site_label
 _atom_site_symmetry_multiplicity
 _atom_site_fract_x
 _atom_site_fract_y
 _atom_site_fract_z
 _atom_site_occupancy
  Yb  Yb0  1  0.26555380  0.60329263  0.20658526  1
  Yb  Yb1  1  0.18896514  0.93716999  0.37793028  1
  Yb  Yb2  1  0.44076029  0.18896514  0.37793028  1
  Yb  Yb3  1  0.83374369  0.83374369  0.00000000  1
  Yb  Yb4  1  0.94103146  0.60329263  0.20658526  1
  Yb  Yb5  1  0.81103486  0.55923971  0.62206972  1
  Yb  Yb6  1  0.16625631  0.83374369  1.00000000  1
  Yb  Yb7  1  0.73444620  0.39670737  0.79341474  1
  Yb  Yb8  1  0.39670737  0.05896854  0.79341474  1
  Yb  Yb9  1  0.18896514  0.44076029  0.37793028  1
  Yb  Yb10  1  0.55923971  0.81103486  0.62206972  1
  Yb  Yb11  1  0.60329263  0.94103146  0.20658526  1
  Yb  Yb12  1  0.83374369  0.16625631  0.00000000  1
  Yb  Yb13  1  0.81103486  0.06283001  0.62206972  1
  Yb  Yb14  1  0.05896854  0.39670737  0.79341474  1
  Yb  Yb15  1  0.39670737  0.73444620  0.79341474  1
  Yb  Yb16  1  0.06283001  0.81103486  0.62206972  1
  Yb  Yb17  1  0.33690290  0.33690290  0.67380581  1
  Yb  Yb18  1  0.66309710  0.66309710  0.32619419  1
  Yb  Yb19  1  0.93716999  0.18896514  0.37793028  1
  Yb  Yb20  1  0.60329263  0.26555380  0.20658526  1
  Yb  Yb21  1  0.16625631  0.16625631  1.00000000  1
  Sb  Sb22  1  0.11688574  0.11688574  0.64747496  1
  Sb  Sb23  1  0.00000000  0.65009315  0.00000000  1
  Sb  Sb24  1  0.62632852  0.37367148  1.00000000  1
  Sb  Sb25  1  0.46941078  0.46941078  0.35252504  1
  Sb  Sb26  1  0.37367148  0.37367148  0.00000000  1
  Sb  Sb27  1  0.34990685  1.00000000  1.00000000  1
  Sb  Sb28  1  0.88311426  0.88311426  0.35252504  1
  Sb  Sb29  1  0.11688574  0.53058922  0.64747496  1
  Sb  Sb30  1  0.12787323  0.12787323  0.25574646  1
  Sb  Sb31  1  0.62632852  0.62632852  1.00000000  1
  Sb  Sb32  1  0.87212677  0.87212677  0.74425354  1
  Sb  Sb33  1  0.88311426  0.46941078  0.35252504  1
  Sb  Sb34  1  0.53058922  0.53058922  0.64747496  1
  Sb  Sb35  1  -0.00000000  0.34990685  -0.00000000  1
  Sb  Sb36  1  0.65009315  0.00000000  0.00000000  1
  Sb  Sb37  1  0.46941078  0.88311426  0.35252504  1
  Sb  Sb38  1  0.37367148  0.62632852  0.00000000  1
  Sb  Sb39  1  0.25000000  0.75000000  0.50000000  1
  Sb  Sb40  1  0.53058922  0.11688574  0.64747496  1
  Sb  Sb41  1  0.75000000  0.25000000  0.50000000  1
