# generated using pymatgen
data_La(YS2)3
_symmetry_space_group_name_H-M   'P 1'
_cell_length_a   4.02488909
_cell_length_b   11.14868201
_cell_length_c   11.42215898
_cell_angle_alpha   108.85693221
_cell_angle_beta   90.00000000
_cell_angle_gamma   90.00000000
_symmetry_Int_Tables_number   1
_chemical_formula_structural   La(YS2)3
_chemical_formula_sum   'La2 Y6 S12'
_cell_volume   485.02888046
_cell_formula_units_Z   2
loop_
 _symmetry_equiv_pos_site_id
 _symmetry_equiv_pos_as_xyz
  1  'x, y, z'
loop_
 _atom_site_type_symbol
 _atom_site_label
 _atom_site_symmetry_multiplicity
 _atom_site_fract_x
 _atom_site_fract_y
 _atom_site_fract_z
 _atom_site_occupancy
  La  La0  1  0.75000000  0.94929094  0.30439378  1
  La  La1  1  0.25000000  0.05070906  0.69560622  1
  Y  Y2  1  0.75000000  0.55588842  0.16636153  1
  Y  Y3  1  0.25000000  0.44411158  0.83363847  1
  Y  Y4  1  0.75000000  0.32033320  0.49920846  1
  Y  Y5  1  0.25000000  0.67966680  0.50079154  1
  Y  Y6  1  0.75000000  0.83891459  0.91260187  1
  Y  Y7  1  0.25000000  0.16108541  0.08739813  1
  S  S8  1  0.75000000  0.52080600  0.38774018  1
  S  S9  1  0.25000000  0.47919400  0.61225982  1
  S  S10  1  0.75000000  0.08207274  0.90670142  1
  S  S11  1  0.25000000  0.91792726  0.09329858  1
  S  S12  1  0.75000000  0.60706454  0.94374078  1
  S  S13  1  0.25000000  0.39293546  0.05625922  1
  S  S14  1  0.75000000  0.26782577  0.72992449  1
  S  S15  1  0.25000000  0.73217423  0.27007551  1
  S  S16  1  0.75000000  0.88069182  0.53680925  1
  S  S17  1  0.25000000  0.11930818  0.46319075  1
  S  S18  1  0.75000000  0.19699433  0.24861758  1
  S  S19  1  0.25000000  0.80300567  0.75138242  1
