# generated using pymatgen
data_Ba4UCr2S9
_symmetry_space_group_name_H-M   'P 1'
_cell_length_a   12.07909205
_cell_length_b   12.07909148
_cell_length_c   9.66305060
_cell_angle_alpha   90.00000000
_cell_angle_beta   90.00000000
_cell_angle_gamma   120.00000152
_symmetry_Int_Tables_number   1
_chemical_formula_structural   Ba4UCr2S9
_chemical_formula_sum   'Ba12 U3 Cr6 S27'
_cell_volume   1220.99374791
_cell_formula_units_Z   3
loop_
 _symmetry_equiv_pos_site_id
 _symmetry_equiv_pos_as_xyz
  1  'x, y, z'
loop_
 _atom_site_type_symbol
 _atom_site_label
 _atom_site_symmetry_multiplicity
 _atom_site_fract_x
 _atom_site_fract_y
 _atom_site_fract_z
 _atom_site_occupancy
  Ba  Ba0  1  0.95716470  0.29697896  0.75036380  1
  Ba  Ba1  1  0.00000000  0.68123244  -0.00000000  1
  Ba  Ba2  1  0.68123244  -0.00000000  -0.00000000  1
  Ba  Ba3  1  0.29697896  0.95716470  0.24963620  1
  Ba  Ba4  1  0.70302104  0.66018574  0.75036380  1
  Ba  Ba5  1  0.66018574  0.70302104  0.24963620  1
  Ba  Ba6  1  0.37457128  0.37457128  0.50000000  1
  Ba  Ba7  1  0.04283530  0.33981426  0.24963620  1
  Ba  Ba8  1  0.31876756  0.31876756  -0.00000000  1
  Ba  Ba9  1  0.33981426  0.04283530  0.75036380  1
  Ba  Ba10  1  0.62542872  -0.00000000  0.50000000  1
  Ba  Ba11  1  0.00000000  0.62542872  0.50000000  1
  U  U12  1  0.33333300  0.66666700  0.74385747  1
  U  U13  1  0.66666700  0.33333300  0.25614253  1
  U  U14  1  -0.00000000  -0.00000000  0.50000000  1
  Cr  Cr15  1  0.33333300  0.66666700  0.39845709  1
  Cr  Cr16  1  0.66666700  0.33333300  0.60154291  1
  Cr  Cr17  1  -0.00000000  -0.00000000  0.15935654  1
  Cr  Cr18  1  0.33333300  0.66666700  0.08195276  1
  Cr  Cr19  1  0.66666700  0.33333300  0.91804724  1
  Cr  Cr20  1  -0.00000000  -0.00000000  0.84064346  1
  S  S21  1  0.50643476  0.68729998  0.55006697  1
  S  S22  1  0.31986981  0.82061830  0.93265636  1
  S  S23  1  0.64697478  0.16489091  0.76058088  1
  S  S24  1  0.68729998  0.50643476  0.44993303  1
  S  S25  1  0.84688709  0.84688709  -0.00000000  1
  S  S26  1  0.68013019  0.50074848  0.06734364  1
  S  S27  1  0.31270002  0.81913477  0.55006697  1
  S  S28  1  0.15311291  -0.00000000  -0.00000000  1
  S  S29  1  0.17938170  0.49925152  0.93265636  1
  S  S30  1  0.82061830  0.31986981  0.06734364  1
  S  S31  1  0.18086523  0.49356524  0.55006697  1
  S  S32  1  0.48208388  0.83510909  0.23941912  1
  S  S33  1  0.49356524  0.18086523  0.44993303  1
  S  S34  1  0.16489090  0.64697478  0.23941912  1
  S  S35  1  0.83031013  0.98590414  0.68992849  1
  S  S36  1  0.49925152  0.17938170  0.06734364  1
  S  S37  1  1.00000000  0.15311291  -0.00000000  1
  S  S38  1  0.01409586  0.84440599  0.68992849  1
  S  S39  1  0.50074848  0.68013019  0.93265636  1
  S  S40  1  0.35302522  0.51791612  0.23941912  1
  S  S41  1  0.16968987  0.15559401  0.31007151  1
  S  S42  1  0.84440599  0.01409586  0.31007151  1
  S  S43  1  0.15559401  0.16968987  0.68992849  1
  S  S44  1  0.51791612  0.35302522  0.76058088  1
  S  S45  1  0.83510910  0.48208388  0.76058088  1
  S  S46  1  0.98590414  0.83031013  0.31007151  1
  S  S47  1  0.81913477  0.31270002  0.44993303  1
