# generated using pymatgen
data_Yb2Sn5Pt3
_symmetry_space_group_name_H-M   'P 1'
_cell_length_a   4.49333965
_cell_length_b   7.43751442
_cell_length_c   26.74316126
_cell_angle_alpha   90.00000000
_cell_angle_beta   90.00000000
_cell_angle_gamma   90.00000000
_symmetry_Int_Tables_number   1
_chemical_formula_structural   Yb2Sn5Pt3
_chemical_formula_sum   'Yb8 Sn20 Pt12'
_cell_volume   893.73715254
_cell_formula_units_Z   4
loop_
 _symmetry_equiv_pos_site_id
 _symmetry_equiv_pos_as_xyz
  1  'x, y, z'
loop_
 _atom_site_type_symbol
 _atom_site_label
 _atom_site_symmetry_multiplicity
 _atom_site_fract_x
 _atom_site_fract_y
 _atom_site_fract_z
 _atom_site_occupancy
  Yb  Yb0  1  0.75000000  0.75139359  0.42294166  1
  Yb  Yb1  1  0.75000000  0.78298876  0.72705204  1
  Yb  Yb2  1  0.25000000  0.71701124  0.22705204  1
  Yb  Yb3  1  0.75000000  0.28298876  0.77294796  1
  Yb  Yb4  1  0.75000000  0.25139359  0.07705834  1
  Yb  Yb5  1  0.25000000  0.24860641  0.57705834  1
  Yb  Yb6  1  0.25000000  0.21701124  0.27294796  1
  Yb  Yb7  1  0.25000000  0.74860641  0.92294166  1
  Sn  Sn8  1  0.75000000  0.71538124  0.13111966  1
  Sn  Sn9  1  0.75000000  0.37967682  0.20174134  1
  Sn  Sn10  1  0.75000000  0.96165170  0.54343056  1
  Sn  Sn11  1  0.25000000  0.09388540  0.15313574  1
  Sn  Sn12  1  0.75000000  0.40611460  0.65313574  1
  Sn  Sn13  1  0.25000000  0.53834830  0.04343056  1
  Sn  Sn14  1  0.25000000  0.28461876  0.86888034  1
  Sn  Sn15  1  0.25000000  0.96471175  0.04348038  1
  Sn  Sn16  1  0.25000000  0.03834830  0.45656944  1
  Sn  Sn17  1  0.25000000  0.78461876  0.63111966  1
  Sn  Sn18  1  0.25000000  0.46471175  0.45651962  1
  Sn  Sn19  1  0.25000000  0.12032318  0.70174134  1
  Sn  Sn20  1  0.75000000  0.87967682  0.29825866  1
  Sn  Sn21  1  0.25000000  0.62032318  0.79825866  1
  Sn  Sn22  1  0.75000000  0.53528825  0.54348038  1
  Sn  Sn23  1  0.75000000  0.21538124  0.36888034  1
  Sn  Sn24  1  0.75000000  0.03528825  0.95651962  1
  Sn  Sn25  1  0.75000000  0.46165170  0.95656944  1
  Sn  Sn26  1  0.75000000  0.90611460  0.84686426  1
  Sn  Sn27  1  0.25000000  0.59388540  0.34686426  1
  Pt  Pt28  1  0.25000000  0.50072858  0.70125084  1
  Pt  Pt29  1  0.25000000  0.46458912  0.14341293  1
  Pt  Pt30  1  0.75000000  0.99927142  0.20125084  1
  Pt  Pt31  1  0.75000000  0.53541088  0.85658707  1
  Pt  Pt32  1  0.75000000  0.75730323  0.02778055  1
  Pt  Pt33  1  0.75000000  0.25730323  0.47221945  1
  Pt  Pt34  1  0.75000000  0.49927142  0.29874916  1
  Pt  Pt35  1  0.25000000  0.74269677  0.52778055  1
  Pt  Pt36  1  0.75000000  0.03541088  0.64341293  1
  Pt  Pt37  1  0.25000000  0.96458912  0.35658707  1
  Pt  Pt38  1  0.25000000  0.24269677  0.97221945  1
  Pt  Pt39  1  0.25000000  0.00072858  0.79874916  1
