# generated using pymatgen
data_BaSn(HO)6
_symmetry_space_group_name_H-M   'P 1'
_cell_length_a   6.47661736
_cell_length_b   9.49934437
_cell_length_c   10.65088721
_cell_angle_alpha   112.91870909
_cell_angle_beta   90.00000000
_cell_angle_gamma   90.00000000
_symmetry_Int_Tables_number   1
_chemical_formula_structural   BaSn(HO)6
_chemical_formula_sum   'Ba4 Sn4 H24 O24'
_cell_volume   603.55211339
_cell_formula_units_Z   4
loop_
 _symmetry_equiv_pos_site_id
 _symmetry_equiv_pos_as_xyz
  1  'x, y, z'
loop_
 _atom_site_type_symbol
 _atom_site_label
 _atom_site_symmetry_multiplicity
 _atom_site_fract_x
 _atom_site_fract_y
 _atom_site_fract_z
 _atom_site_occupancy
  Ba  Ba0  1  0.50589364  0.53946324  0.71764940  1
  Ba  Ba1  1  0.99410636  0.03946324  0.21764940  1
  Ba  Ba2  1  0.49410636  0.46053676  0.28235060  1
  Ba  Ba3  1  0.00589364  0.96053676  0.78235060  1
  Sn  Sn4  1  0.50000000  -0.00000000  0.00000000  1
  Sn  Sn5  1  -0.00000000  0.50000000  0.50000000  1
  Sn  Sn6  1  -0.00000000  0.50000000  0.00000000  1
  Sn  Sn7  1  0.50000000  -0.00000000  0.50000000  1
  H  H8  1  0.66560838  0.21536844  0.70142071  1
  H  H9  1  0.83439162  0.71536844  0.20142071  1
  H  H10  1  0.33439162  0.78463156  0.29857929  1
  H  H11  1  0.16560838  0.28463156  0.79857929  1
  H  H12  1  0.27158825  0.28361631  0.46758615  1
  H  H13  1  0.22841175  0.78361631  0.96758615  1
  H  H14  1  0.72841175  0.71638369  0.53241385  1
  H  H15  1  0.77158825  0.21638369  0.03241385  1
  H  H16  1  0.56978571  0.84803347  0.15741498  1
  H  H17  1  0.93021429  0.34803347  0.65741498  1
  H  H18  1  0.43021429  0.15196653  0.84258502  1
  H  H19  1  0.06978571  0.65196653  0.34258502  1
  H  H20  1  0.37128906  0.61331806  0.03112814  1
  H  H21  1  0.12871094  0.11331806  0.53112814  1
  H  H22  1  0.62871094  0.38668194  0.96887186  1
  H  H23  1  0.87128906  0.88668194  0.46887186  1
  H  H24  1  0.51446355  0.86667866  0.73636041  1
  H  H25  1  0.98553645  0.36667866  0.23636041  1
  H  H26  1  0.48553645  0.13332134  0.26363959  1
  H  H27  1  0.01446355  0.63332134  0.76363959  1
  H  H28  1  0.22020277  0.29826445  0.03640206  1
  H  H29  1  0.27979723  0.79826445  0.53640206  1
  H  H30  1  0.77979723  0.70173555  0.96359794  1
  H  H31  1  0.72020277  0.20173555  0.46359794  1
  O  O32  1  0.51711474  0.19433246  0.68890579  1
  O  O33  1  0.98288526  0.69433246  0.18890579  1
  O  O34  1  0.48288526  0.80566754  0.31109421  1
  O  O35  1  0.01711474  0.30566754  0.81109421  1
  O  O36  1  0.28857423  0.39310040  0.48359011  1
  O  O37  1  0.21142577  0.89310040  0.98359011  1
  O  O38  1  0.71142577  0.60689960  0.51640989  1
  O  O39  1  0.78857423  0.10689960  0.01640989  1
  O  O40  1  0.64873561  0.85922388  0.08168098  1
  O  O41  1  0.85126439  0.35922388  0.58168098  1
  O  O42  1  0.35126439  0.14077612  0.91831902  1
  O  O43  1  0.14873561  0.64077612  0.41831902  1
  O  O44  1  0.28025412  0.58516376  0.95239039  1
  O  O45  1  0.21974588  0.08516376  0.45239039  1
  O  O46  1  0.71974588  0.41483624  0.04760961  1
  O  O47  1  0.78025412  0.91483624  0.54760961  1
  O  O48  1  0.59663977  0.84781156  0.80747681  1
  O  O49  1  0.90336023  0.34781156  0.30747681  1
  O  O50  1  0.40336023  0.15218844  0.19252319  1
  O  O51  1  0.09663977  0.65218844  0.69252319  1
  O  O52  1  0.15988044  0.39351331  0.10582813  1
  O  O53  1  0.34011956  0.89351331  0.60582813  1
  O  O54  1  0.84011956  0.60648669  0.89417187  1
  O  O55  1  0.65988044  0.10648669  0.39417187  1
