# generated using pymatgen
data_La2MgNiO6
_symmetry_space_group_name_H-M   'P 1'
_cell_length_a   5.42701662
_cell_length_b   5.42701630
_cell_length_c   5.42701682
_cell_angle_alpha   61.21166274
_cell_angle_beta   61.21166392
_cell_angle_gamma   61.21166650
_symmetry_Int_Tables_number   1
_chemical_formula_structural   La2MgNiO6
_chemical_formula_sum   'La2 Mg1 Ni1 O6'
_cell_volume   116.10367350
_cell_formula_units_Z   1
loop_
 _symmetry_equiv_pos_site_id
 _symmetry_equiv_pos_as_xyz
  1  'x, y, z'
loop_
 _atom_site_type_symbol
 _atom_site_label
 _atom_site_symmetry_multiplicity
 _atom_site_fract_x
 _atom_site_fract_y
 _atom_site_fract_z
 _atom_site_occupancy
  La  La0  1  0.75150534  0.75150534  0.75150534  1
  La  La1  1  0.24849466  0.24849466  0.24849466  1
  Mg  Mg2  1  0.50000000  0.50000000  0.50000000  1
  Ni  Ni3  1  0.00000000  0.00000000  0.00000000  1
  O  O4  1  0.30108782  0.76439368  0.17891289  1
  O  O5  1  0.76439368  0.17891289  0.30108782  1
  O  O6  1  0.17891289  0.30108782  0.76439368  1
  O  O7  1  0.69891218  0.23560632  0.82108711  1
  O  O8  1  0.82108711  0.69891218  0.23560632  1
  O  O9  1  0.23560632  0.82108711  0.69891218  1
