# generated using pymatgen
data_Sm2Re2Si2C
_symmetry_space_group_name_H-M   'P 1'
_cell_length_a   4.03173193
_cell_length_b   5.89263864
_cell_length_c   6.08651403
_cell_angle_alpha   72.59197772
_cell_angle_beta   70.65824835
_cell_angle_gamma   69.99519000
_symmetry_Int_Tables_number   1
_chemical_formula_structural   Sm2Re2Si2C
_chemical_formula_sum   'Sm2 Re2 Si2 C1'
_cell_volume   125.35824149
_cell_formula_units_Z   1
loop_
 _symmetry_equiv_pos_site_id
 _symmetry_equiv_pos_as_xyz
  1  'x, y, z'
loop_
 _atom_site_type_symbol
 _atom_site_label
 _atom_site_symmetry_multiplicity
 _atom_site_fract_x
 _atom_site_fract_y
 _atom_site_fract_z
 _atom_site_occupancy
  Sm  Sm0  1  0.42790801  0.84135579  0.30282819  1
  Sm  Sm1  1  0.57209199  0.15864421  0.69717181  1
  Re  Re2  1  0.79466460  0.32176501  0.08890579  1
  Re  Re3  1  0.20533540  0.67823499  0.91109421  1
  Si  Si4  1  0.85463985  0.60091009  0.68981021  1
  Si  Si5  1  0.14536015  0.39908991  0.31018979  1
  C  C6  1  0.00000000  0.00000000  0.00000000  1
