# generated using pymatgen
data_Ti4Cu2O
_symmetry_space_group_name_H-M   'P 1'
_cell_length_a   8.09428120
_cell_length_b   8.09428119
_cell_length_c   8.09428119
_cell_angle_alpha   59.99999998
_cell_angle_beta   59.99999998
_cell_angle_gamma   60.00000001
_symmetry_Int_Tables_number   1
_chemical_formula_structural   Ti4Cu2O
_chemical_formula_sum   'Ti16 Cu8 O4'
_cell_volume   374.99015414
_cell_formula_units_Z   4
loop_
 _symmetry_equiv_pos_site_id
 _symmetry_equiv_pos_as_xyz
  1  'x, y, z'
loop_
 _atom_site_type_symbol
 _atom_site_label
 _atom_site_symmetry_multiplicity
 _atom_site_fract_x
 _atom_site_fract_y
 _atom_site_fract_z
 _atom_site_occupancy
  O  O0  1  0.50000000  0.50000000  0.00000000  1
  O  O1  1  0.00000000  0.50000000  0.50000000  1
  O  O2  1  0.50000000  0.00000000  0.50000000  1
  O  O3  1  0.50000000  0.50000000  0.50000000  1
  Ti  Ti4  1  0.80570773  0.44429227  0.80570773  1
  Ti  Ti5  1  0.44429227  0.80570773  0.44429227  1
  Ti  Ti6  1  0.19429227  0.55570773  0.19429227  1
  Ti  Ti7  1  0.19429227  0.19429227  0.55570773  1
  Ti  Ti8  1  0.55570773  0.55570773  0.19429227  1
  Ti  Ti9  1  0.55570773  0.19429227  0.55570773  1
  Ti  Ti10  1  0.44429227  0.80570773  0.80570773  1
  Ti  Ti11  1  0.19429227  0.55570773  0.55570773  1
  Ti  Ti12  1  0.50000000  0.00000000  0.00000000  1
  Ti  Ti13  1  0.00000000  0.00000000  0.50000000  1
  Ti  Ti14  1  0.00000000  0.50000000  0.00000000  1
  Ti  Ti15  1  0.00000000  0.00000000  0.00000000  1
  Ti  Ti16  1  0.44429227  0.44429227  0.80570773  1
  Ti  Ti17  1  0.80570773  0.80570773  0.44429227  1
  Ti  Ti18  1  0.55570773  0.19429227  0.19429227  1
  Ti  Ti19  1  0.80570773  0.44429227  0.44429227  1
  Cu  Cu20  1  0.20843513  0.20843513  0.20843513  1
  Cu  Cu21  1  0.79156487  0.79156487  0.12530540  1
  Cu  Cu22  1  0.79156487  0.12530540  0.79156487  1
  Cu  Cu23  1  0.12530540  0.79156487  0.79156487  1
  Cu  Cu24  1  0.20843513  0.87469460  0.20843513  1
  Cu  Cu25  1  0.20843513  0.20843513  0.87469460  1
  Cu  Cu26  1  0.79156487  0.79156487  0.79156487  1
  Cu  Cu27  1  0.87469460  0.20843513  0.20843513  1
