# generated using pymatgen
data_Ca4SiP4
_symmetry_space_group_name_H-M   'P 1'
_cell_length_a   11.88158768
_cell_length_b   11.88158768
_cell_length_c   11.88158768
_cell_angle_alpha   90.00000000
_cell_angle_beta   90.00000000
_cell_angle_gamma   90.00000000
_symmetry_Int_Tables_number   1
_chemical_formula_structural   Ca4SiP4
_chemical_formula_sum   'Ca32 Si8 P32'
_cell_volume   1677.34899064
_cell_formula_units_Z   8
loop_
 _symmetry_equiv_pos_site_id
 _symmetry_equiv_pos_as_xyz
  1  'x, y, z'
loop_
 _atom_site_type_symbol
 _atom_site_label
 _atom_site_symmetry_multiplicity
 _atom_site_fract_x
 _atom_site_fract_y
 _atom_site_fract_z
 _atom_site_occupancy
  Ca  Ca0  1  0.35436530  0.35436530  0.35436530  1
  Ca  Ca1  1  0.64563470  0.64563470  0.35436530  1
  Ca  Ca2  1  0.64563470  0.35436530  0.64563470  1
  Ca  Ca3  1  0.85436530  0.85436530  0.85436530  1
  Ca  Ca4  1  0.35436530  0.64563470  0.64563470  1
  Ca  Ca5  1  0.14563470  0.14563470  0.85436530  1
  Ca  Ca6  1  0.85436530  0.14563470  0.14563470  1
  Ca  Ca7  1  0.14563470  0.85436530  0.14563470  1
  Ca  Ca8  1  0.09482279  0.13305860  0.35466771  1
  Ca  Ca9  1  0.90517721  0.86694140  0.35466771  1
  Ca  Ca10  1  0.90517721  0.13305860  0.64533229  1
  Ca  Ca11  1  0.35466771  0.09482279  0.13305860  1
  Ca  Ca12  1  0.63305860  0.59482279  0.85466771  1
  Ca  Ca13  1  0.09482279  0.86694140  0.64533229  1
  Ca  Ca14  1  0.35466771  0.90517721  0.86694140  1
  Ca  Ca15  1  0.36694140  0.40517721  0.85466771  1
  Ca  Ca16  1  0.64533229  0.90517721  0.13305860  1
  Ca  Ca17  1  0.63305860  0.40517721  0.14533229  1
  Ca  Ca18  1  0.64533229  0.09482279  0.86694140  1
  Ca  Ca19  1  0.36694140  0.59482279  0.14533229  1
  Ca  Ca20  1  0.13305860  0.35466771  0.09482279  1
  Ca  Ca21  1  0.59482279  0.85466771  0.63305860  1
  Ca  Ca22  1  0.13305860  0.64533229  0.90517721  1
  Ca  Ca23  1  0.40517721  0.14533229  0.63305860  1
  Ca  Ca24  1  0.86694140  0.64533229  0.09482279  1
  Ca  Ca25  1  0.59482279  0.14533229  0.36694140  1
  Ca  Ca26  1  0.86694140  0.35466771  0.90517721  1
  Ca  Ca27  1  0.40517721  0.85466771  0.36694140  1
  Ca  Ca28  1  0.85466771  0.63305860  0.59482279  1
  Ca  Ca29  1  0.85466771  0.36694140  0.40517721  1
  Ca  Ca30  1  0.14533229  0.36694140  0.59482279  1
  Ca  Ca31  1  0.14533229  0.63305860  0.40517721  1
  Si  Si32  1  0.25000000  0.00000000  0.50000000  1
  Si  Si33  1  0.75000000  0.00000000  0.50000000  1
  Si  Si34  1  0.50000000  0.25000000  0.00000000  1
  Si  Si35  1  0.50000000  0.75000000  0.00000000  1
  Si  Si36  1  0.00000000  0.50000000  0.25000000  1
  Si  Si37  1  0.00000000  0.50000000  0.75000000  1
  Si  Si38  1  0.00000000  0.00000000  0.00000000  1
  Si  Si39  1  0.50000000  0.50000000  0.50000000  1
  P  P40  1  0.10802764  0.38162977  0.35345420  1
  P  P41  1  0.89197236  0.61837023  0.35345420  1
  P  P42  1  0.89197236  0.38162977  0.64654580  1
  P  P43  1  0.35345420  0.10802764  0.38162977  1
  P  P44  1  0.88162977  0.60802764  0.85345420  1
  P  P45  1  0.10802764  0.61837023  0.64654580  1
  P  P46  1  0.35345420  0.89197236  0.61837023  1
  P  P47  1  0.11837023  0.39197236  0.85345420  1
  P  P48  1  0.64654580  0.89197236  0.38162977  1
  P  P49  1  0.88162977  0.39197236  0.14654580  1
  P  P50  1  0.64654580  0.10802764  0.61837023  1
  P  P51  1  0.11837023  0.60802764  0.14654580  1
  P  P52  1  0.38162977  0.35345420  0.10802764  1
  P  P53  1  0.60802764  0.85345420  0.88162977  1
  P  P54  1  0.38162977  0.64654580  0.89197236  1
  P  P55  1  0.39197236  0.14654580  0.88162977  1
  P  P56  1  0.61837023  0.64654580  0.10802764  1
  P  P57  1  0.60802764  0.14654580  0.11837023  1
  P  P58  1  0.61837023  0.35345420  0.89197236  1
  P  P59  1  0.39197236  0.85345420  0.11837023  1
  P  P60  1  0.85345420  0.88162977  0.60802764  1
  P  P61  1  0.85345420  0.11837023  0.39197236  1
  P  P62  1  0.14654580  0.11837023  0.60802764  1
  P  P63  1  0.14654580  0.88162977  0.39197236  1
  P  P64  1  0.10975324  0.10975324  0.10975324  1
  P  P65  1  0.89024676  0.89024676  0.10975324  1
  P  P66  1  0.89024676  0.10975324  0.89024676  1
  P  P67  1  0.60975324  0.60975324  0.60975324  1
  P  P68  1  0.10975324  0.89024676  0.89024676  1
  P  P69  1  0.39024676  0.39024676  0.60975324  1
  P  P70  1  0.60975324  0.39024676  0.39024676  1
  P  P71  1  0.39024676  0.60975324  0.39024676  1
