# generated using pymatgen
data_Nb2Co12P7
_symmetry_space_group_name_H-M   'P 1'
_cell_length_a   8.84164615
_cell_length_b   8.84164616
_cell_length_c   3.52847529
_cell_angle_alpha   90.00000000
_cell_angle_beta   90.00000000
_cell_angle_gamma   120.00000000
_symmetry_Int_Tables_number   1
_chemical_formula_structural   Nb2Co12P7
_chemical_formula_sum   'Nb2 Co12 P7'
_cell_volume   238.88230048
_cell_formula_units_Z   1
loop_
 _symmetry_equiv_pos_site_id
 _symmetry_equiv_pos_as_xyz
  1  'x, y, z'
loop_
 _atom_site_type_symbol
 _atom_site_label
 _atom_site_symmetry_multiplicity
 _atom_site_fract_x
 _atom_site_fract_y
 _atom_site_fract_z
 _atom_site_occupancy
  P  P0  1  0.00000000  0.00000000  0.00000000  1
  P  P1  1  0.59315773  0.71313777  0.50000000  1
  P  P2  1  0.70923604  0.12120131  0.00000000  1
  P  P3  1  0.87879869  0.58803473  0.00000000  1
  P  P4  1  0.41196527  0.29076396  0.00000000  1
  P  P5  1  0.28686223  0.88001996  0.50000000  1
  P  P6  1  0.11998004  0.40684227  0.50000000  1
  Co  Co7  1  0.11742671  0.83533105  0.00000000  1
  Co  Co8  1  0.39032506  0.43988057  0.50000000  1
  Co  Co9  1  0.71790434  0.88257329  0.00000000  1
  Co  Co10  1  0.56011943  0.95044449  0.50000000  1
  Co  Co11  1  0.21226991  0.08705583  0.50000000  1
  Co  Co12  1  0.87478592  0.78773009  0.50000000  1
  Co  Co13  1  0.91294417  0.12521408  0.50000000  1
  Co  Co14  1  0.93543270  0.37522018  0.00000000  1
  Co  Co15  1  0.62477982  0.56021252  0.00000000  1
  Co  Co16  1  0.43978748  0.06456730  0.00000000  1
  Co  Co17  1  0.04955551  0.60967494  0.50000000  1
  Co  Co18  1  0.16466895  0.28209566  0.00000000  1
  Nb  Nb19  1  0.66666667  0.33333333  0.50000000  1
  Nb  Nb20  1  0.33333333  0.66666667  0.00000000  1
