# generated using pymatgen
data_Nd4Br9
_symmetry_space_group_name_H-M   'P 1'
_cell_length_a   7.15606062
_cell_length_b   7.65483451
_cell_length_c   29.37923920
_cell_angle_alpha   90.41585351
_cell_angle_beta   90.00000000
_cell_angle_gamma   90.00000000
_symmetry_Int_Tables_number   1
_chemical_formula_structural   Nd4Br9
_chemical_formula_sum   'Nd16 Br36'
_cell_volume   1609.30708410
_cell_formula_units_Z   4
loop_
 _symmetry_equiv_pos_site_id
 _symmetry_equiv_pos_as_xyz
  1  'x, y, z'
loop_
 _atom_site_type_symbol
 _atom_site_label
 _atom_site_symmetry_multiplicity
 _atom_site_fract_x
 _atom_site_fract_y
 _atom_site_fract_z
 _atom_site_occupancy
  Nd  Nd0  1  0.47749201  0.83962117  0.42913467  1
  Nd  Nd1  1  0.04029070  0.34068071  0.43082418  1
  Nd  Nd2  1  0.97060060  0.69470115  0.80626456  1
  Nd  Nd3  1  0.52250799  0.83962117  0.92913467  1
  Nd  Nd4  1  0.45769853  0.15243262  0.07133303  1
  Nd  Nd5  1  0.02456259  0.65065305  0.07018730  1
  Nd  Nd6  1  0.49302532  0.18643641  0.30776224  1
  Nd  Nd7  1  0.54230147  0.15243262  0.57133303  1
  Nd  Nd8  1  0.48269372  0.79515357  0.19379776  1
  Nd  Nd9  1  0.50697468  0.18643641  0.80776224  1
  Nd  Nd10  1  0.02939940  0.69470115  0.30626456  1
  Nd  Nd11  1  0.97543741  0.65065305  0.57018730  1
  Nd  Nd12  1  0.02229279  0.29737104  0.19209199  1
  Nd  Nd13  1  0.95970930  0.34068071  0.93082418  1
  Nd  Nd14  1  0.97770721  0.29737104  0.69209199  1
  Nd  Nd15  1  0.51730628  0.79515357  0.69379776  1
  Br  Br16  1  0.23893646  0.61092171  0.48983985  1
  Br  Br17  1  0.18475963  0.02192469  0.37143474  1
  Br  Br18  1  0.66680650  0.83322705  0.10134415  1
  Br  Br19  1  0.33319350  0.83322705  0.60134415  1
  Br  Br20  1  0.19252562  -0.00171583  0.25034594  1
  Br  Br21  1  0.32012207  0.48865445  0.25006106  1
  Br  Br22  1  0.32209463  0.47341756  0.12899578  1
  Br  Br23  1  0.36699149  0.15261484  0.70546350  1
  Br  Br24  1  0.11860472  0.33646868  0.79506831  1
  Br  Br25  1  0.67790537  0.47341756  0.62899578  1
  Br  Br26  1  0.67987793  0.48865445  0.75006106  1
  Br  Br27  1  0.88214367  0.65887551  0.20372352  1
  Br  Br28  1  0.88139528  0.33646868  0.29506831  1
  Br  Br29  1  0.17670521  0.33021882  0.60133370  1
  Br  Br30  1  0.33160126  0.51879718  0.37088879  1
  Br  Br31  1  0.76106354  0.61092171  0.98983985  1
  Br  Br32  1  0.77063269  0.38880713  0.50993083  1
  Br  Br33  1  0.22936731  0.38880713  0.00993083  1
  Br  Br34  1  0.62989666  0.82524800  0.29519995  1
  Br  Br35  1  0.83722481  0.65855274  0.39807907  1
  Br  Br36  1  0.31279367  0.15555414  0.89867351  1
  Br  Br37  1  0.74361564  0.88924988  0.50993663  1
  Br  Br38  1  0.80747438  -0.00171583  0.75034594  1
  Br  Br39  1  0.66839874  0.51879718  0.87088879  1
  Br  Br40  1  0.16277519  0.65855274  0.89807907  1
  Br  Br41  1  0.71732186  0.10991407  0.98980303  1
  Br  Br42  1  0.11785633  0.65887551  0.70372352  1
  Br  Br43  1  0.37010334  0.82524800  0.79519995  1
  Br  Br44  1  0.81524037  0.02192469  0.87143474  1
  Br  Br45  1  0.63300851  0.15261484  0.20546350  1
  Br  Br46  1  0.68720633  0.15555414  0.39867351  1
  Br  Br47  1  0.17176663  0.96582965  0.12985191  1
  Br  Br48  1  0.28267814  0.10991407  0.48980303  1
  Br  Br49  1  0.82329479  0.33021882  0.10133370  1
  Br  Br50  1  0.25638436  0.88924988  0.00993663  1
  Br  Br51  1  0.82823337  0.96582965  0.62985191  1
