# generated using pymatgen
data_La3Al11
_symmetry_space_group_name_H-M   'P 1'
_cell_length_a   4.44621602
_cell_length_b   8.59152856
_cell_length_c   8.59152855
_cell_angle_alpha   72.18536549
_cell_angle_beta   75.00375037
_cell_angle_gamma   75.00375034
_symmetry_Int_Tables_number   1
_chemical_formula_structural   La3Al11
_chemical_formula_sum   'La3 Al11'
_cell_volume   296.00541619
_cell_formula_units_Z   1
loop_
 _symmetry_equiv_pos_site_id
 _symmetry_equiv_pos_as_xyz
  1  'x, y, z'
loop_
 _atom_site_type_symbol
 _atom_site_label
 _atom_site_symmetry_multiplicity
 _atom_site_fract_x
 _atom_site_fract_y
 _atom_site_fract_z
 _atom_site_occupancy
  Al  Al0  1  0.00000000  0.50000000  0.50000000  1
  Al  Al1  1  0.50000000  0.71448722  0.28551278  1
  Al  Al2  1  0.50000000  0.28551278  0.71448722  1
  Al  Al3  1  0.33492385  0.03304240  0.29710990  1
  Al  Al4  1  0.66507615  0.96695760  0.70289010  1
  Al  Al5  1  0.66507615  0.70289010  0.96695760  1
  Al  Al6  1  0.33492385  0.29710990  0.03304240  1
  Al  Al7  1  0.13798916  0.13579897  0.58822271  1
  Al  Al8  1  0.86201084  0.86420103  0.41177729  1
  Al  Al9  1  0.86201084  0.41177729  0.86420103  1
  Al  Al10  1  0.13798916  0.58822271  0.13579897  1
  La  La11  1  0.00000000  0.00000000  0.00000000  1
  La  La12  1  0.31622536  0.68377464  0.68377464  1
  La  La13  1  0.68377464  0.31622536  0.31622536  1
