# generated using pymatgen
data_ZnWF6
_symmetry_space_group_name_H-M   'P 1'
_cell_length_a   5.70086265
_cell_length_b   5.70086202
_cell_length_c   5.70086167
_cell_angle_alpha   57.40824284
_cell_angle_beta   57.40824128
_cell_angle_gamma   57.40824647
_symmetry_Int_Tables_number   1
_chemical_formula_structural   ZnWF6
_chemical_formula_sum   'Zn1 W1 F6'
_cell_volume   123.19754707
_cell_formula_units_Z   1
loop_
 _symmetry_equiv_pos_site_id
 _symmetry_equiv_pos_as_xyz
  1  'x, y, z'
loop_
 _atom_site_type_symbol
 _atom_site_label
 _atom_site_symmetry_multiplicity
 _atom_site_fract_x
 _atom_site_fract_y
 _atom_site_fract_z
 _atom_site_occupancy
  Zn  Zn0  1  0.50000000  0.50000000  0.50000000  1
  W  W1  1  0.00000000  0.00000000  0.00000000  1
  F  F2  1  0.33947578  0.15565190  0.75677840  1
  F  F3  1  0.15565190  0.75677840  0.33947578  1
  F  F4  1  0.24322160  0.66052422  0.84434810  1
  F  F5  1  0.84434810  0.24322160  0.66052422  1
  F  F6  1  0.66052422  0.84434810  0.24322160  1
  F  F7  1  0.75677840  0.33947578  0.15565190  1
