# generated using pymatgen
data_V3Cr2Cu(PO4)6
_symmetry_space_group_name_H-M   'P 1'
_cell_length_a   8.47476542
_cell_length_b   8.65214600
_cell_length_c   8.65214577
_cell_angle_alpha   60.00000012
_cell_angle_beta   59.30517408
_cell_angle_gamma   59.30517682
_symmetry_Int_Tables_number   1
_chemical_formula_structural   V3Cr2Cu(PO4)6
_chemical_formula_sum   'V3 Cr2 Cu1 P6 O24'
_cell_volume   443.83191818
_cell_formula_units_Z   1
loop_
 _symmetry_equiv_pos_site_id
 _symmetry_equiv_pos_as_xyz
  1  'x, y, z'
loop_
 _atom_site_type_symbol
 _atom_site_label
 _atom_site_symmetry_multiplicity
 _atom_site_fract_x
 _atom_site_fract_y
 _atom_site_fract_z
 _atom_site_occupancy
  V  V0  1  0.06540472  0.64486543  0.64486543  1
  V  V1  1  0.42681792  0.85772769  0.85772769  1
  V  V2  1  0.93244238  0.35585287  0.35585287  1
  Cr  Cr3  1  0.99342568  0.00219144  0.00219144  1
  Cr  Cr4  1  0.49939147  0.50020251  0.50020251  1
  Cu  Cu5  1  0.55744479  0.14751874  0.14751874  1
  P  P6  1  0.25000357  0.24854378  0.54681401  1
  P  P7  1  0.25000357  0.95463864  0.24854378  1
  P  P8  1  0.25000357  0.54681401  0.95463864  1
  P  P9  1  0.75288144  0.45282588  0.04396766  1
  P  P10  1  0.75288144  0.04396766  0.75032602  1
  P  P11  1  0.75288144  0.75032602  0.45282588  1
  O  O12  1  0.06546745  0.11642895  0.31571668  1
  O  O13  1  0.06546745  0.50238692  0.11642895  1
  O  O14  1  0.06546745  0.31571668  0.50238692  1
  O  O15  1  0.21323082  0.09354771  0.75053611  1
  O  O16  1  0.43892911  0.18123271  0.39920266  1
  O  O17  1  0.26439061  0.41136339  0.56964282  1
  O  O18  1  0.21323082  0.94268536  0.09354771  1
  O  O19  1  0.26439061  0.75460318  0.41136339  1
  O  O20  1  0.56695331  0.61035116  0.00772570  1
  O  O21  1  0.26439061  0.56964282  0.75460318  1
  O  O22  1  0.79112492  0.25519613  0.05039275  1
  O  O23  1  0.56695331  0.00772570  0.81496883  1
  O  O24  1  0.43892911  0.98063652  0.18123271  1
  O  O25  1  0.21323082  0.75053611  0.94268536  1
  O  O26  1  0.72957803  0.43751681  0.24391330  1
  O  O27  1  0.43892911  0.39920266  0.98063652  1
  O  O28  1  0.72957803  0.24391330  0.58899286  1
  O  O29  1  0.79112492  0.05039275  0.90328620  1
  O  O30  1  0.72957803  0.58899286  0.43751681  1
  O  O31  1  0.56695331  0.81496883  0.61035116  1
  O  O32  1  0.79112492  0.90328620  0.25519613  1
  O  O33  1  0.93579841  0.67124970  0.50462900  1
  O  O34  1  0.93579841  0.50462900  0.88832289  1
  O  O35  1  0.93579841  0.88832289  0.67124970  1
