# generated using pymatgen
data_Y4Se3N2
_symmetry_space_group_name_H-M   'P 1'
_cell_length_a   6.97260172
_cell_length_b   3.94525061
_cell_length_c   10.49468771
_cell_angle_alpha   89.99999798
_cell_angle_beta   51.25783596
_cell_angle_gamma   73.56598240
_symmetry_Int_Tables_number   1
_chemical_formula_structural   Y4Se3N2
_chemical_formula_sum   'Y4 Se3 N2'
_cell_volume   209.83857577
_cell_formula_units_Z   1
loop_
 _symmetry_equiv_pos_site_id
 _symmetry_equiv_pos_as_xyz
  1  'x, y, z'
loop_
 _atom_site_type_symbol
 _atom_site_label
 _atom_site_symmetry_multiplicity
 _atom_site_fract_x
 _atom_site_fract_y
 _atom_site_fract_z
 _atom_site_occupancy
  Y  Y0  1  0.23523800  0.88238100  0.64143000  1
  Y  Y1  1  0.76476200  0.11761900  0.35857000  1
  Y  Y2  1  0.57914100  0.71043000  0.15241700  1
  Y  Y3  1  0.42085900  0.28957000  0.84758300  1
  Se  Se4  1  0.00000000  0.00000000  0.00000000  1
  Se  Se5  1  0.78805200  0.60597400  0.77507800  1
  Se  Se6  1  0.21194800  0.39402600  0.22492200  1
  N  N7  1  0.56847500  0.71576200  0.36281800  1
  N  N8  1  0.43152500  0.28423800  0.63718200  1
