# generated using pymatgen
data_Rb2Mo3P3O17
_symmetry_space_group_name_H-M   'P 1'
_cell_length_a   9.67745297
_cell_length_b   11.02645691
_cell_length_c   15.71485655
_cell_angle_alpha   109.24824473
_cell_angle_beta   90.00000000
_cell_angle_gamma   90.00000000
_symmetry_Int_Tables_number   1
_chemical_formula_structural   Rb2Mo3P3O17
_chemical_formula_sum   'Rb8 Mo12 P12 O68'
_cell_volume   1583.16094492
_cell_formula_units_Z   4
loop_
 _symmetry_equiv_pos_site_id
 _symmetry_equiv_pos_as_xyz
  1  'x, y, z'
loop_
 _atom_site_type_symbol
 _atom_site_label
 _atom_site_symmetry_multiplicity
 _atom_site_fract_x
 _atom_site_fract_y
 _atom_site_fract_z
 _atom_site_occupancy
  Rb  Rb0  1  0.62173286  0.67229939  0.49123336  1
  Rb  Rb1  1  0.37826714  0.32770061  0.50876664  1
  Rb  Rb2  1  0.12173286  0.82770061  0.00876664  1
  Rb  Rb3  1  0.87826714  0.17229939  0.99123336  1
  Rb  Rb4  1  0.12722782  0.38870920  0.79200259  1
  Rb  Rb5  1  0.87277218  0.61129080  0.20799741  1
  Rb  Rb6  1  0.62722782  0.11129080  0.70799741  1
  Rb  Rb7  1  0.37277218  0.88870920  0.29200259  1
  Mo  Mo8  1  0.88300114  0.80252497  0.75605099  1
  Mo  Mo9  1  0.11699886  0.19747503  0.24394901  1
  Mo  Mo10  1  0.38300114  0.69747503  0.74394901  1
  Mo  Mo11  1  0.61699886  0.30252497  0.25605099  1
  Mo  Mo12  1  0.38140809  0.18387147  0.93672408  1
  Mo  Mo13  1  0.61859191  0.81612853  0.06327592  1
  Mo  Mo14  1  0.88140809  0.31612853  0.56327592  1
  Mo  Mo15  1  0.11859191  0.68387147  0.43672408  1
  Mo  Mo16  1  0.24584539  0.01690423  0.59553109  1
  Mo  Mo17  1  0.75415461  0.98309577  0.40446891  1
  Mo  Mo18  1  0.74584539  0.48309577  0.90446891  1
  Mo  Mo19  1  0.25415461  0.51690423  0.09553109  1
  P  P20  1  0.17730335  0.95967569  0.79741119  1
  P  P21  1  0.82269665  0.04032431  0.20258881  1
  P  P22  1  0.67730335  0.54032431  0.70258881  1
  P  P23  1  0.32269665  0.45967569  0.29741119  1
  P  P24  1  0.40429415  0.59957349  0.93080288  1
  P  P25  1  0.59570585  0.40042651  0.06919712  1
  P  P26  1  0.90429415  0.90042651  0.56919712  1
  P  P27  1  0.09570585  0.09957349  0.43080288  1
  P  P28  1  0.60080453  0.92161439  0.87873325  1
  P  P29  1  0.39919547  0.07838561  0.12126675  1
  P  P30  1  0.10080453  0.57838561  0.62126675  1
  P  P31  1  0.89919547  0.42161439  0.37873325  1
  O  O32  1  0.02828866  0.70867602  0.66503666  1
  O  O33  1  0.97171134  0.29132398  0.33496334  1
  O  O34  1  0.52828866  0.79132398  0.83496334  1
  O  O35  1  0.47171134  0.20867602  0.16503666  1
  O  O36  1  0.56025219  0.26650575  0.99820224  1
  O  O37  1  0.43974781  0.73349425  0.00179776  1
  O  O38  1  0.06025219  0.23349425  0.50179776  1
  O  O39  1  0.93974781  0.76650575  0.49820224  1
  O  O40  1  0.23854443  0.98061796  0.71257624  1
  O  O41  1  0.76145557  0.01938204  0.28742376  1
  O  O42  1  0.73854443  0.51938204  0.78742376  1
  O  O43  1  0.26145557  0.48061796  0.21257624  1
  O  O44  1  0.41759934  0.97181337  0.57297504  1
  O  O45  1  0.58240066  0.02818663  0.42702496  1
  O  O46  1  0.91759934  0.52818663  0.92702496  1
  O  O47  1  0.08240066  0.47181337  0.07297504  1
  O  O48  1  0.25544132  0.18333443  0.64595262  1
  O  O49  1  0.74455868  0.81666557  0.35404738  1
  O  O50  1  0.75544132  0.31666557  0.85404738  1
  O  O51  1  0.24455868  0.68333443  0.14595262  1
  O  O52  1  0.21299137  0.07565598  0.88267918  1
  O  O53  1  0.78700863  0.92434402  0.11732082  1
  O  O54  1  0.71299137  0.42434402  0.61732082  1
  O  O55  1  0.28700863  0.57565598  0.38267918  1
  O  O56  1  0.32941681  0.61922777  0.85038032  1
  O  O57  1  0.67058319  0.38077223  0.14961968  1
  O  O58  1  0.82941681  0.88077223  0.64961968  1
  O  O59  1  0.17058319  0.11922777  0.35038032  1
  O  O60  1  0.01762044  0.95791299  0.79740241  1
  O  O61  1  0.98237956  0.04208701  0.20259759  1
  O  O62  1  0.51762044  0.54208701  0.70259759  1
  O  O63  1  0.48237956  0.45791299  0.29740241  1
  O  O64  1  0.39005520  0.24345056  0.84754401  1
  O  O65  1  0.60994480  0.75654944  0.15245599  1
  O  O66  1  0.89005520  0.25654944  0.65245599  1
  O  O67  1  0.10994480  0.74345056  0.34754401  1
  O  O68  1  0.29246348  0.53304414  0.97304449  1
  O  O69  1  0.70753652  0.46695586  0.02695551  1
  O  O70  1  0.79246348  0.96695586  0.52695551  1
  O  O71  1  0.20753652  0.03304414  0.47304449  1
  O  O72  1  0.13945863  0.56270444  0.52408057  1
  O  O73  1  0.86054137  0.43729556  0.47591943  1
  O  O74  1  0.63945863  0.93729556  0.97591943  1
  O  O75  1  0.36054137  0.06270444  0.02408057  1
  O  O76  1  0.50984013  0.03328621  0.86997829  1
  O  O77  1  0.49015987  0.96671379  0.13002171  1
  O  O78  1  0.00984013  0.46671379  0.63002171  1
  O  O79  1  0.99015987  0.53328621  0.36997829  1
  O  O80  1  0.21277283  0.80521598  0.51849568  1
  O  O81  1  0.78722717  0.19478402  0.48150432  1
  O  O82  1  0.71277283  0.69478402  0.98150432  1
  O  O83  1  0.28722717  0.30521598  0.01849568  1
  O  O84  1  0.23763945  0.83567781  0.80736088  1
  O  O85  1  0.76236055  0.16432219  0.19263912  1
  O  O86  1  0.73763945  0.66432219  0.69263912  1
  O  O87  1  0.26236055  0.33567781  0.30736088  1
  O  O88  1  0.73383607  0.93003160  0.82425830  1
  O  O89  1  0.26616393  0.06996840  0.17574170  1
  O  O90  1  0.23383607  0.56996840  0.67574170  1
  O  O91  1  0.76616393  0.43003160  0.32425830  1
  O  O92  1  0.43100555  0.75324041  0.65819716  1
  O  O93  1  0.56899445  0.24675959  0.34180284  1
  O  O94  1  0.93100555  0.74675959  0.84180284  1
  O  O95  1  0.06899445  0.25324041  0.15819716  1
  O  O96  1  0.03086366  0.98813281  0.59677715  1
  O  O97  1  0.96913634  0.01186719  0.40322285  1
  O  O98  1  0.53086366  0.51186719  0.90322285  1
  O  O99  1  0.46913634  0.48813281  0.09677715  1
