# generated using pymatgen
data_Tb2Si5Os3
_symmetry_space_group_name_H-M   'P 1'
_cell_length_a   5.69952776
_cell_length_b   10.74754452
_cell_length_c   10.74754452
_cell_angle_alpha   90.00000000
_cell_angle_beta   90.00000000
_cell_angle_gamma   90.00000000
_symmetry_Int_Tables_number   1
_chemical_formula_structural   Tb2Si5Os3
_chemical_formula_sum   'Tb8 Si20 Os12'
_cell_volume   658.35081699
_cell_formula_units_Z   4
loop_
 _symmetry_equiv_pos_site_id
 _symmetry_equiv_pos_as_xyz
  1  'x, y, z'
loop_
 _atom_site_type_symbol
 _atom_site_label
 _atom_site_symmetry_multiplicity
 _atom_site_fract_x
 _atom_site_fract_y
 _atom_site_fract_z
 _atom_site_occupancy
  Tb  Tb0  1  0.50000000  0.92950406  0.76450561  1
  Tb  Tb1  1  -0.00000000  0.26450561  0.42950406  1
  Tb  Tb2  1  -0.00000000  0.57049594  0.26450561  1
  Tb  Tb3  1  0.00000000  0.73549439  0.57049594  1
  Tb  Tb4  1  0.50000000  0.07049594  0.23549439  1
  Tb  Tb5  1  0.50000000  0.76450561  0.07049594  1
  Tb  Tb6  1  0.00000000  0.42950406  0.73549439  1
  Tb  Tb7  1  0.50000000  0.23549439  0.92950406  1
  Si  Si8  1  0.74319936  0.50000000  0.50000000  1
  Si  Si9  1  0.00000000  0.32007590  0.97377552  1
  Si  Si10  1  -0.00000000  0.67992410  0.02622448  1
  Si  Si11  1  0.25000000  0.17283856  0.67283856  1
  Si  Si12  1  0.75000000  0.17283856  0.67283856  1
  Si  Si13  1  0.75000000  0.82716144  0.32716144  1
  Si  Si14  1  0.25000000  0.82716144  0.32716144  1
  Si  Si15  1  -0.00000000  0.02622448  0.32007590  1
  Si  Si16  1  0.75680064  -0.00000000  -0.00000000  1
  Si  Si17  1  0.25680064  0.50000000  0.50000000  1
  Si  Si18  1  0.50000000  0.52622448  0.17992410  1
  Si  Si19  1  0.50000000  0.82007590  0.52622448  1
  Si  Si20  1  0.25000000  0.32716144  0.17283856  1
  Si  Si21  1  0.00000000  0.97377552  0.67992410  1
  Si  Si22  1  0.24319936  -0.00000000  -0.00000000  1
  Si  Si23  1  0.50000000  0.17992410  0.47377552  1
  Si  Si24  1  0.25000000  0.67283856  0.82716144  1
  Si  Si25  1  0.50000000  0.47377552  0.82007590  1
  Si  Si26  1  0.75000000  0.32716144  0.17283856  1
  Si  Si27  1  0.75000000  0.67283856  0.82716144  1
  Os  Os28  1  0.50000000  0.37439760  0.35344261  1
  Os  Os29  1  0.75000000  -0.00000000  0.50000000  1
  Os  Os30  1  -0.00000000  0.12560240  0.85344261  1
  Os  Os31  1  0.00000000  0.85344261  0.87439760  1
  Os  Os32  1  0.25000000  0.50000000  -0.00000000  1
  Os  Os33  1  -0.00000000  0.14655739  0.12560240  1
  Os  Os34  1  0.50000000  0.62560240  0.64655739  1
  Os  Os35  1  0.00000000  0.87439760  0.14655739  1
  Os  Os36  1  0.50000000  0.64655739  0.37439760  1
  Os  Os37  1  0.25000000  -0.00000000  0.50000000  1
  Os  Os38  1  0.50000000  0.35344261  0.62560240  1
  Os  Os39  1  0.75000000  0.50000000  -0.00000000  1
