# generated using pymatgen
data_K4Br2O
_symmetry_space_group_name_H-M   'P 1'
_cell_length_a   5.23533330
_cell_length_b   5.23533330
_cell_length_c   9.16094532
_cell_angle_alpha   106.60320542
_cell_angle_beta   106.60320543
_cell_angle_gamma   89.99999999
_symmetry_Int_Tables_number   1
_chemical_formula_structural   K4Br2O
_chemical_formula_sum   'K4 Br2 O1'
_cell_volume   229.67548211
_cell_formula_units_Z   1
loop_
 _symmetry_equiv_pos_site_id
 _symmetry_equiv_pos_as_xyz
  1  'x, y, z'
loop_
 _atom_site_type_symbol
 _atom_site_label
 _atom_site_symmetry_multiplicity
 _atom_site_fract_x
 _atom_site_fract_y
 _atom_site_fract_z
 _atom_site_occupancy
  O  O0  1  0.00000000  0.00000000  0.00000000  1
  K  K1  1  0.15458688  0.15458688  0.30917377  1
  K  K2  1  0.00000000  0.50000000  0.00000000  1
  K  K3  1  0.84541312  0.84541312  0.69082623  1
  K  K4  1  0.50000000  0.00000000  0.00000000  1
  Br  Br5  1  0.35437219  0.35437219  0.70874439  1
  Br  Br6  1  0.64562781  0.64562781  0.29125561  1
