# generated using pymatgen
data_Tb3(CuGe)4
_symmetry_space_group_name_H-M   'P 1'
_cell_length_a   4.21457909
_cell_length_b   6.67356520
_cell_length_c   8.02813696
_cell_angle_alpha   114.55937378
_cell_angle_beta   105.21774204
_cell_angle_gamma   90.00000000
_symmetry_Int_Tables_number   1
_chemical_formula_structural   Tb3(CuGe)4
_chemical_formula_sum   'Tb3 Cu4 Ge4'
_cell_volume   196.63499596
_cell_formula_units_Z   1
loop_
 _symmetry_equiv_pos_site_id
 _symmetry_equiv_pos_as_xyz
  1  'x, y, z'
loop_
 _atom_site_type_symbol
 _atom_site_label
 _atom_site_symmetry_multiplicity
 _atom_site_fract_x
 _atom_site_fract_y
 _atom_site_fract_z
 _atom_site_occupancy
  Cu  Cu0  1  0.66845210  0.85745544  0.33690419  1
  Cu  Cu1  1  0.33154790  0.14254456  0.66309581  1
  Cu  Cu2  1  0.66845210  0.47944875  0.33690419  1
  Cu  Cu3  1  0.33154790  0.52055125  0.66309581  1
  Ge  Ge4  1  0.78316661  0.28316661  0.56633321  1
  Ge  Ge5  1  0.50000000  0.80888071  0.00000000  1
  Ge  Ge6  1  0.50000000  0.19111929  0.00000000  1
  Ge  Ge7  1  0.21683339  0.71683339  0.43366679  1
  Tb  Tb8  1  0.86952482  0.86952482  0.73904964  1
  Tb  Tb9  1  0.13047518  0.13047518  0.26095036  1
  Tb  Tb10  1  0.00000000  0.50000000  0.00000000  1
