# generated using pymatgen
data_RbGeBr3
_symmetry_space_group_name_H-M   'P 1'
_cell_length_a   7.78259945
_cell_length_b   8.36803851
_cell_length_c   11.40551749
_cell_angle_alpha   90.00000000
_cell_angle_beta   90.00000000
_cell_angle_gamma   90.00000000
_symmetry_Int_Tables_number   1
_chemical_formula_structural   RbGeBr3
_chemical_formula_sum   'Rb4 Ge4 Br12'
_cell_volume   742.78537477
_cell_formula_units_Z   4
loop_
 _symmetry_equiv_pos_site_id
 _symmetry_equiv_pos_as_xyz
  1  'x, y, z'
loop_
 _atom_site_type_symbol
 _atom_site_label
 _atom_site_symmetry_multiplicity
 _atom_site_fract_x
 _atom_site_fract_y
 _atom_site_fract_z
 _atom_site_occupancy
  Ge  Ge0  1  0.48371609  0.46921975  0.48094175  1
  Ge  Ge1  1  0.51628391  0.53078025  0.98094175  1
  Ge  Ge2  1  0.01628391  0.96921975  0.48094175  1
  Ge  Ge3  1  0.98371609  0.03078025  0.98094175  1
  Br  Br4  1  0.32368057  0.78128226  0.96257070  1
  Br  Br5  1  0.17631943  0.28128226  0.96257070  1
  Br  Br6  1  0.82368057  0.71871774  0.46257070  1
  Br  Br7  1  0.29275150  0.81626711  0.53113890  1
  Br  Br8  1  0.20724850  0.31626711  0.53113890  1
  Br  Br9  1  0.79275150  0.68373289  0.03113890  1
  Br  Br10  1  0.42815173  0.49888092  0.25956280  1
  Br  Br11  1  0.70724850  0.18373289  0.03113890  1
  Br  Br12  1  0.92815173  0.00111908  0.75956280  1
  Br  Br13  1  0.57184827  0.50111908  0.75956280  1
  Br  Br14  1  0.07184827  0.99888092  0.25956280  1
  Br  Br15  1  0.67631943  0.21871774  0.46257070  1
  Rb  Rb16  1  0.97493063  0.42247489  0.25058585  1
  Rb  Rb17  1  0.47493063  0.07752511  0.75058585  1
  Rb  Rb18  1  0.52506937  0.92247489  0.25058585  1
  Rb  Rb19  1  0.02506937  0.57752511  0.75058585  1
