# generated using pymatgen
data_KU2F9
_symmetry_space_group_name_H-M   'P 1'
_cell_length_a   11.56506810
_cell_length_b   8.74084709
_cell_length_c   7.11852880
_cell_angle_alpha   90.00000000
_cell_angle_beta   90.00000000
_cell_angle_gamma   90.00000000
_symmetry_Int_Tables_number   1
_chemical_formula_structural   KU2F9
_chemical_formula_sum   'K4 U8 F36'
_cell_volume   719.60134057
_cell_formula_units_Z   4
loop_
 _symmetry_equiv_pos_site_id
 _symmetry_equiv_pos_as_xyz
  1  'x, y, z'
loop_
 _atom_site_type_symbol
 _atom_site_label
 _atom_site_symmetry_multiplicity
 _atom_site_fract_x
 _atom_site_fract_y
 _atom_site_fract_z
 _atom_site_occupancy
  K  K0  1  0.25000000  0.04334124  0.65116649  1
  K  K1  1  0.75000000  0.95665876  0.34883351  1
  K  K2  1  0.75000000  0.45665876  0.15116649  1
  K  K3  1  0.25000000  0.54334124  0.84883351  1
  U  U4  1  0.95011851  0.82390849  0.84709934  1
  U  U5  1  0.54988149  0.82390849  0.84709934  1
  U  U6  1  0.04988149  0.17609151  0.15290066  1
  U  U7  1  0.45011851  0.17609151  0.15290066  1
  U  U8  1  0.95011851  0.32390849  0.65290066  1
  U  U9  1  0.54988149  0.32390849  0.65290066  1
  U  U10  1  0.45011851  0.67609151  0.34709934  1
  U  U11  1  0.04988149  0.67609151  0.34709934  1
  F  F12  1  0.75000000  0.32592150  0.66314061  1
  F  F13  1  0.07694007  0.43353388  0.19779462  1
  F  F14  1  0.75000000  0.82592150  0.83685939  1
  F  F15  1  0.25000000  0.67407850  0.33685939  1
  F  F16  1  0.90114873  0.00148963  0.07158298  1
  F  F17  1  0.90461801  0.28942970  0.97269875  1
  F  F18  1  0.25000000  0.17407850  0.16314061  1
  F  F19  1  0.40114873  0.49851037  0.57158298  1
  F  F20  1  0.59885127  0.00148963  0.07158298  1
  F  F21  1  0.10652082  0.28908933  0.85288837  1
  F  F22  1  0.89347918  0.21091067  0.35288837  1
  F  F23  1  0.40461801  0.71057030  0.02730125  1
  F  F24  1  0.90114873  0.50148963  0.42841702  1
  F  F25  1  0.07694007  0.93353388  0.30220538  1
  F  F26  1  0.40461801  0.21057030  0.47269875  1
  F  F27  1  0.89347918  0.71091067  0.14711163  1
  F  F28  1  0.59885127  0.50148963  0.42841702  1
  F  F29  1  0.90461801  0.78942970  0.52730125  1
  F  F30  1  0.39347918  0.78908933  0.64711163  1
  F  F31  1  0.59538199  0.28942970  0.97269875  1
  F  F32  1  0.42305993  0.43353388  0.19779462  1
  F  F33  1  0.57694007  0.06646612  0.69779462  1
  F  F34  1  0.09538199  0.71057030  0.02730125  1
  F  F35  1  0.40114873  0.99851037  0.92841702  1
  F  F36  1  0.09885127  0.49851037  0.57158298  1
  F  F37  1  0.92305993  0.06646612  0.69779462  1
  F  F38  1  0.60652082  0.21091067  0.35288837  1
  F  F39  1  0.10652082  0.78908933  0.64711163  1
  F  F40  1  0.57694007  0.56646612  0.80220538  1
  F  F41  1  0.42305993  0.93353388  0.30220538  1
  F  F42  1  0.09538199  0.21057030  0.47269875  1
  F  F43  1  0.92305993  0.56646612  0.80220538  1
  F  F44  1  0.39347918  0.28908933  0.85288837  1
  F  F45  1  0.59538199  0.78942970  0.52730125  1
  F  F46  1  0.09885127  0.99851037  0.92841702  1
  F  F47  1  0.60652082  0.71091067  0.14711163  1
