# generated using pymatgen
data_Ca3C3Cl2
_symmetry_space_group_name_H-M   'P 1'
_cell_length_a   3.86051683
_cell_length_b   7.02627847
_cell_length_c   11.56697812
_cell_angle_alpha   90.00000000
_cell_angle_beta   90.00000000
_cell_angle_gamma   105.94532181
_symmetry_Int_Tables_number   1
_chemical_formula_structural   Ca3C3Cl2
_chemical_formula_sum   'Ca6 C6 Cl4'
_cell_volume   301.68310413
_cell_formula_units_Z   2
loop_
 _symmetry_equiv_pos_site_id
 _symmetry_equiv_pos_as_xyz
  1  'x, y, z'
loop_
 _atom_site_type_symbol
 _atom_site_label
 _atom_site_symmetry_multiplicity
 _atom_site_fract_x
 _atom_site_fract_y
 _atom_site_fract_z
 _atom_site_occupancy
  C  C0  1  0.73271213  0.46542426  0.63514817  1
  C  C1  1  0.26728787  0.53457574  0.36485183  1
  C  C2  1  0.26728787  0.53457574  0.13514817  1
  C  C3  1  0.73271213  0.46542426  0.86485183  1
  C  C4  1  0.25782733  0.51565466  0.25000000  1
  C  C5  1  0.74217267  0.48434534  0.75000000  1
  Cl  Cl6  1  0.47100695  0.94201390  0.75000000  1
  Cl  Cl7  1  0.52899305  0.05798610  0.25000000  1
  Cl  Cl8  1  0.00000000  0.00000000  0.00000000  1
  Cl  Cl9  1  0.00000000  0.00000000  0.50000000  1
  Ca  Ca10  1  0.34321833  0.68643666  0.56090978  1
  Ca  Ca11  1  0.65678167  0.31356334  0.43909022  1
  Ca  Ca12  1  0.65678167  0.31356334  0.06090978  1
  Ca  Ca13  1  0.34321833  0.68643666  0.93909022  1
  Ca  Ca14  1  0.87872103  0.75744206  0.25000000  1
  Ca  Ca15  1  0.12127897  0.24255794  0.75000000  1
