# generated using pymatgen
data_Nb4CrS8
_symmetry_space_group_name_H-M   'P 1'
_cell_length_a   6.69420258
_cell_length_b   6.69420259
_cell_length_c   12.08494419
_cell_angle_alpha   90.00000000
_cell_angle_beta   90.00000000
_cell_angle_gamma   119.99999997
_symmetry_Int_Tables_number   1
_chemical_formula_structural   Nb4CrS8
_chemical_formula_sum   'Nb8 Cr2 S16'
_cell_volume   469.00015157
_cell_formula_units_Z   2
loop_
 _symmetry_equiv_pos_site_id
 _symmetry_equiv_pos_as_xyz
  1  'x, y, z'
loop_
 _atom_site_type_symbol
 _atom_site_label
 _atom_site_symmetry_multiplicity
 _atom_site_fract_x
 _atom_site_fract_y
 _atom_site_fract_z
 _atom_site_occupancy
  S  S0  1  0.83395349  0.16604651  0.11983179  1
  S  S1  1  0.83395349  0.66790699  0.11983179  1
  S  S2  1  0.33209301  0.16604651  0.11983179  1
  S  S3  1  0.66790699  0.83395349  0.61983179  1
  S  S4  1  0.16604651  0.33209301  0.88016821  1
  S  S5  1  0.16604651  0.83395349  0.61983179  1
  S  S6  1  0.16604651  0.33209301  0.61983179  1
  S  S7  1  0.83395349  0.16604651  0.38016821  1
  S  S8  1  0.33209301  0.16604651  0.38016821  1
  S  S9  1  0.66790699  0.83395349  0.88016821  1
  S  S10  1  0.33333333  0.66666667  0.11682179  1
  S  S11  1  0.66666667  0.33333333  0.61682179  1
  S  S12  1  0.66666667  0.33333333  0.88317821  1
  S  S13  1  0.33333333  0.66666667  0.38317821  1
  S  S14  1  0.83395349  0.66790699  0.38016821  1
  S  S15  1  0.16604651  0.83395349  0.88016821  1
  Cr  Cr16  1  0.00000000  0.00000000  0.50000000  1
  Cr  Cr17  1  0.00000000  0.00000000  0.00000000  1
  Nb  Nb18  1  0.50629123  0.01258247  0.75000000  1
  Nb  Nb19  1  0.49370877  0.50629123  0.25000000  1
  Nb  Nb20  1  0.01258247  0.50629123  0.25000000  1
  Nb  Nb21  1  0.98741753  0.49370877  0.75000000  1
  Nb  Nb22  1  0.50629123  0.49370877  0.75000000  1
  Nb  Nb23  1  0.49370877  0.98741753  0.25000000  1
  Nb  Nb24  1  0.00000000  0.00000000  0.75000000  1
  Nb  Nb25  1  0.00000000  0.00000000  0.25000000  1
