# generated using pymatgen
data_NaNb10O18
_symmetry_space_group_name_H-M   'P 1'
_cell_length_a   7.93192787
_cell_length_b   9.47834701
_cell_length_c   10.41917074
_cell_angle_alpha   90.00000000
_cell_angle_beta   110.40426895
_cell_angle_gamma   90.00000000
_symmetry_Int_Tables_number   1
_chemical_formula_structural   NaNb10O18
_chemical_formula_sum   'Na2 Nb20 O36'
_cell_volume   734.18034339
_cell_formula_units_Z   2
loop_
 _symmetry_equiv_pos_site_id
 _symmetry_equiv_pos_as_xyz
  1  'x, y, z'
loop_
 _atom_site_type_symbol
 _atom_site_label
 _atom_site_symmetry_multiplicity
 _atom_site_fract_x
 _atom_site_fract_y
 _atom_site_fract_z
 _atom_site_occupancy
  Na  Na0  1  0.00000000  0.00000000  -0.00000000  1
  Na  Na1  1  0.00000000  0.50000000  0.50000000  1
  Nb  Nb2  1  0.99581379  0.61594130  0.83143827  1
  Nb  Nb3  1  0.17989359  0.62998614  0.12320024  1
  Nb  Nb4  1  0.80276340  0.62608278  0.01884592  1
  Nb  Nb5  1  0.39753450  0.63025338  0.43898762  1
  Nb  Nb6  1  0.99581379  0.88405870  0.33143827  1
  Nb  Nb7  1  0.00418621  0.11594130  0.66856173  1
  Nb  Nb8  1  0.17989359  0.87001386  0.62320024  1
  Nb  Nb9  1  0.82010641  0.12998614  0.37679976  1
  Nb  Nb10  1  0.39753450  0.86974662  0.93898762  1
  Nb  Nb11  1  0.60345434  0.88707399  0.72997379  1
  Nb  Nb12  1  0.60345434  0.61292601  0.22997379  1
  Nb  Nb13  1  0.19723660  0.37391722  0.98115408  1
  Nb  Nb14  1  0.60246550  0.13025338  0.06101238  1
  Nb  Nb15  1  0.60246550  0.36974662  0.56101238  1
  Nb  Nb16  1  0.82010641  0.37001386  0.87679976  1
  Nb  Nb17  1  0.00418621  0.38405870  0.16856173  1
  Nb  Nb18  1  0.19723660  0.12608278  0.48115408  1
  Nb  Nb19  1  0.80276340  0.87391722  0.51884592  1
  Nb  Nb20  1  0.39654566  0.38707399  0.77002621  1
  Nb  Nb21  1  0.39654566  0.11292601  0.27002621  1
  O  O22  1  0.80009796  0.01252615  0.19621694  1
  O  O23  1  0.41070460  0.76290905  0.77397253  1
  O  O24  1  0.80037686  0.99483916  0.69747430  1
  O  O25  1  0.19990204  0.51252615  0.30378306  1
  O  O26  1  0.39954308  0.50295652  0.10819134  1
  O  O27  1  0.19962314  0.00516084  0.30252570  1
  O  O28  1  0.60556008  0.50721770  0.40171655  1
  O  O29  1  0.79771030  0.74707803  0.35447254  1
  O  O30  1  0.60045692  0.49704348  0.89180866  1
  O  O31  1  0.01051715  0.26127883  0.34955540  1
  O  O32  1  0.41749728  0.25630611  0.93173446  1
  O  O33  1  0.39954308  0.99704348  0.60819134  1
  O  O34  1  0.98948285  0.76127883  0.15044460  1
  O  O35  1  0.58250272  0.74369389  0.06826554  1
  O  O36  1  0.39443992  0.00721770  0.09828345  1
  O  O37  1  0.80426231  0.24702613  0.03875868  1
  O  O38  1  0.41749728  0.24369389  0.43173446  1
  O  O39  1  0.98948285  0.73872117  0.65044460  1
  O  O40  1  0.20228970  0.25292197  0.64552746  1
  O  O41  1  0.80037686  0.50516084  0.19747430  1
  O  O42  1  0.41070460  0.73709095  0.27397253  1
  O  O43  1  0.19573769  0.74702613  0.46124132  1
  O  O44  1  0.80426231  0.25297387  0.53875868  1
  O  O45  1  0.80009796  0.48747385  0.69621694  1
  O  O46  1  0.60045692  0.00295652  0.39180866  1
  O  O47  1  0.60556008  0.99278230  0.90171655  1
  O  O48  1  0.79771030  0.75292197  0.85447254  1
  O  O49  1  0.19962314  0.49483916  0.80252570  1
  O  O50  1  0.58929540  0.23709095  0.22602747  1
  O  O51  1  0.01051715  0.23872117  0.84955540  1
  O  O52  1  0.39443992  0.49278230  0.59828345  1
  O  O53  1  0.58250272  0.75630611  0.56826554  1
  O  O54  1  0.20228970  0.24707803  0.14552746  1
  O  O55  1  0.58929540  0.26290905  0.72602747  1
  O  O56  1  0.19573769  0.75297387  0.96124132  1
  O  O57  1  0.19990204  0.98747385  0.80378306  1
