# generated using pymatgen
data_LaRhO3
_symmetry_space_group_name_H-M   'P 1'
_cell_length_a   5.52133011
_cell_length_b   5.87862659
_cell_length_c   7.94544403
_cell_angle_alpha   90.00000000
_cell_angle_beta   90.00000000
_cell_angle_gamma   90.00000000
_symmetry_Int_Tables_number   1
_chemical_formula_structural   LaRhO3
_chemical_formula_sum   'La4 Rh4 O12'
_cell_volume   257.89193514
_cell_formula_units_Z   4
loop_
 _symmetry_equiv_pos_site_id
 _symmetry_equiv_pos_as_xyz
  1  'x, y, z'
loop_
 _atom_site_type_symbol
 _atom_site_label
 _atom_site_symmetry_multiplicity
 _atom_site_fract_x
 _atom_site_fract_y
 _atom_site_fract_z
 _atom_site_occupancy
  O  O0  1  0.81064930  0.19782068  0.44720194  1
  O  O1  1  0.31064930  0.30217932  0.55279806  1
  O  O2  1  0.68935070  0.69782068  0.05279806  1
  O  O3  1  0.18935070  0.80217932  0.94720194  1
  O  O4  1  0.18935070  0.80217932  0.55279806  1
  O  O5  1  0.68935070  0.69782068  0.44720194  1
  O  O6  1  0.31064930  0.30217932  0.94720194  1
  O  O7  1  0.81064930  0.19782068  0.05279806  1
  O  O8  1  0.39418144  0.03116679  0.25000000  1
  O  O9  1  0.89418144  0.46883321  0.75000000  1
  O  O10  1  0.10581856  0.53116679  0.25000000  1
  O  O11  1  0.60581856  0.96883321  0.75000000  1
  Rh  Rh12  1  0.50000000  0.00000000  0.50000000  1
  Rh  Rh13  1  0.00000000  0.50000000  0.50000000  1
  Rh  Rh14  1  0.00000000  0.50000000  0.00000000  1
  Rh  Rh15  1  0.50000000  0.00000000  0.00000000  1
  La  La16  1  0.47982737  0.57006720  0.75000000  1
  La  La17  1  0.97982737  0.92993280  0.25000000  1
  La  La18  1  0.02017263  0.07006720  0.75000000  1
  La  La19  1  0.52017263  0.42993280  0.25000000  1
