# generated using pymatgen
data_Li5ReO6
_symmetry_space_group_name_H-M   'P 1'
_cell_length_a   5.08413541
_cell_length_b   5.09908765
_cell_length_c   5.09908765
_cell_angle_alpha   119.75193192
_cell_angle_beta   99.95101650
_cell_angle_gamma   99.95101641
_symmetry_Int_Tables_number   1
_chemical_formula_structural   Li5ReO6
_chemical_formula_sum   'Li5 Re1 O6'
_cell_volume   107.74815005
_cell_formula_units_Z   1
loop_
 _symmetry_equiv_pos_site_id
 _symmetry_equiv_pos_as_xyz
  1  'x, y, z'
loop_
 _atom_site_type_symbol
 _atom_site_label
 _atom_site_symmetry_multiplicity
 _atom_site_fract_x
 _atom_site_fract_y
 _atom_site_fract_z
 _atom_site_occupancy
  Li  Li0  1  0.00000000  0.33362112  0.66637888  1
  Li  Li1  1  0.00000000  0.66637888  0.33362112  1
  Li  Li2  1  0.50000000  0.50000000  0.50000000  1
  Li  Li3  1  0.50000000  0.17629472  0.82370528  1
  Li  Li4  1  0.50000000  0.82370528  0.17629472  1
  O  O5  1  0.23396077  0.38307144  0.07713462  1
  O  O6  1  0.23396077  0.07713462  0.38307144  1
  O  O7  1  0.76603923  0.92286538  0.61692856  1
  O  O8  1  0.76603923  0.61692856  0.92286538  1
  O  O9  1  0.77404353  0.22771045  0.22771045  1
  O  O10  1  0.22595647  0.77228955  0.77228955  1
  Re  Re11  1  0.00000000  0.00000000  0.00000000  1
