# generated using pymatgen
data_Sm3Sb5O12
_symmetry_space_group_name_H-M   'P 1'
_cell_length_a   9.57315390
_cell_length_b   9.57315390
_cell_length_c   9.57315390
_cell_angle_alpha   109.47122063
_cell_angle_beta   109.47122064
_cell_angle_gamma   109.47122064
_symmetry_Int_Tables_number   1
_chemical_formula_structural   Sm3Sb5O12
_chemical_formula_sum   'Sm6 Sb10 O24'
_cell_volume   675.37228009
_cell_formula_units_Z   2
loop_
 _symmetry_equiv_pos_site_id
 _symmetry_equiv_pos_as_xyz
  1  'x, y, z'
loop_
 _atom_site_type_symbol
 _atom_site_label
 _atom_site_symmetry_multiplicity
 _atom_site_fract_x
 _atom_site_fract_y
 _atom_site_fract_z
 _atom_site_occupancy
  O  O0  1  0.27569773  0.80102955  0.80102955  1
  O  O1  1  0.52533182  0.52533182  0.72430227  1
  O  O2  1  0.52533182  0.72430227  0.52533182  1
  O  O3  1  0.19897045  0.00000000  0.47466818  1
  O  O4  1  0.19897045  0.47466818  0.00000000  1
  O  O5  1  0.00000000  0.19897045  0.47466818  1
  O  O6  1  0.00000000  0.47466818  0.19897045  1
  O  O7  1  0.47466818  0.19897045  0.00000000  1
  O  O8  1  0.80102955  0.80102955  0.27569773  1
  O  O9  1  0.80102955  0.27569773  0.80102955  1
  O  O10  1  0.47466818  0.00000000  0.19897045  1
  O  O11  1  0.72430227  0.52533182  0.52533182  1
  O  O12  1  0.80027448  0.29342658  0.29342658  1
  O  O13  1  0.49315210  0.49315210  0.19972552  1
  O  O14  1  0.49315210  0.19972552  0.49315210  1
  O  O15  1  0.70657342  0.00000000  0.50684790  1
  O  O16  1  0.19972552  0.49315210  0.49315210  1
  O  O17  1  0.50684790  0.00000000  0.70657342  1
  O  O18  1  0.29342658  0.80027448  0.29342658  1
  O  O19  1  0.29342658  0.29342658  0.80027448  1
  O  O20  1  0.50684790  0.70657342  0.00000000  1
  O  O21  1  0.00000000  0.50684790  0.70657342  1
  O  O22  1  0.00000000  0.70657342  0.50684790  1
  O  O23  1  0.70657342  0.50684790  0.00000000  1
  Sb  Sb24  1  0.00000000  0.00000000  0.50898258  1
  Sb  Sb25  1  0.00000000  0.50898258  0.00000000  1
  Sb  Sb26  1  0.50898258  0.00000000  0.00000000  1
  Sb  Sb27  1  0.49101742  0.49101742  0.49101742  1
  Sb  Sb28  1  0.71799890  0.00000000  0.71799890  1
  Sb  Sb29  1  0.28200110  0.00000000  0.28200110  1
  Sb  Sb30  1  0.00000000  0.28200110  0.28200110  1
  Sb  Sb31  1  0.00000000  0.71799890  0.71799890  1
  Sb  Sb32  1  0.71799890  0.71799890  0.00000000  1
  Sb  Sb33  1  0.28200110  0.28200110  0.00000000  1
  Sm  Sm34  1  0.50000000  0.75000000  0.25000000  1
  Sm  Sm35  1  0.25000000  0.75000000  0.50000000  1
  Sm  Sm36  1  0.75000000  0.25000000  0.50000000  1
  Sm  Sm37  1  0.25000000  0.50000000  0.75000000  1
  Sm  Sm38  1  0.75000000  0.50000000  0.25000000  1
  Sm  Sm39  1  0.50000000  0.25000000  0.75000000  1
