# generated using pymatgen
data_Ta6Fe16Si7
_symmetry_space_group_name_H-M   'P 1'
_cell_length_a   7.92545532
_cell_length_b   7.92545479
_cell_length_c   7.92545511
_cell_angle_alpha   59.99999870
_cell_angle_beta   60.00000093
_cell_angle_gamma   59.99999841
_symmetry_Int_Tables_number   1
_chemical_formula_structural   Ta6Fe16Si7
_chemical_formula_sum   'Ta6 Fe16 Si7'
_cell_volume   352.01212350
_cell_formula_units_Z   1
loop_
 _symmetry_equiv_pos_site_id
 _symmetry_equiv_pos_as_xyz
  1  'x, y, z'
loop_
 _atom_site_type_symbol
 _atom_site_label
 _atom_site_symmetry_multiplicity
 _atom_site_fract_x
 _atom_site_fract_y
 _atom_site_fract_z
 _atom_site_occupancy
  Si  Si0  1  0.50000000  0.50000000  0.50000000  1
  Si  Si1  1  0.50000000  0.00000000  0.00000000  1
  Si  Si2  1  0.00000000  0.00000000  0.50000000  1
  Si  Si3  1  0.50000000  0.50000000  0.00000000  1
  Si  Si4  1  0.00000000  0.50000000  0.50000000  1
  Si  Si5  1  0.00000000  0.50000000  0.00000000  1
  Si  Si6  1  0.50000000  0.00000000  0.50000000  1
  Ta  Ta7  1  0.79640712  0.20359288  0.20359288  1
  Ta  Ta8  1  0.79640712  0.79640712  0.20359288  1
  Ta  Ta9  1  0.20359288  0.20359288  0.79640712  1
  Ta  Ta10  1  0.79640712  0.20359288  0.79640712  1
  Ta  Ta11  1  0.20359288  0.79640712  0.20359288  1
  Ta  Ta12  1  0.20359288  0.79640712  0.79640712  1
  Fe  Fe13  1  0.17324053  0.17324053  0.17324053  1
  Fe  Fe14  1  0.82675947  0.82675947  0.51972158  1
  Fe  Fe15  1  0.51972158  0.82675947  0.82675947  1
  Fe  Fe16  1  0.82675947  0.51972158  0.82675947  1
  Fe  Fe17  1  0.48027842  0.17324053  0.17324053  1
  Fe  Fe18  1  0.17324053  0.48027842  0.17324053  1
  Fe  Fe19  1  0.17324053  0.17324053  0.48027842  1
  Fe  Fe20  1  0.82675947  0.82675947  0.82675947  1
  Fe  Fe21  1  0.38025133  0.38025133  0.38025133  1
  Fe  Fe22  1  0.61974867  0.61974867  0.14075400  1
  Fe  Fe23  1  0.14075400  0.61974867  0.61974867  1
  Fe  Fe24  1  0.61974867  0.14075400  0.61974867  1
  Fe  Fe25  1  0.85924600  0.38025133  0.38025133  1
  Fe  Fe26  1  0.38025133  0.85924600  0.38025133  1
  Fe  Fe27  1  0.38025133  0.38025133  0.85924600  1
  Fe  Fe28  1  0.61974867  0.61974867  0.61974867  1
