# generated using pymatgen
data_CaNb2O4
_symmetry_space_group_name_H-M   'P 1'
_cell_length_a   5.11701909
_cell_length_b   5.91216335
_cell_length_c   12.00524764
_cell_angle_alpha   90.00000000
_cell_angle_beta   90.00000000
_cell_angle_gamma   90.00000000
_symmetry_Int_Tables_number   1
_chemical_formula_structural   CaNb2O4
_chemical_formula_sum   'Ca4 Nb8 O16'
_cell_volume   363.19058773
_cell_formula_units_Z   4
loop_
 _symmetry_equiv_pos_site_id
 _symmetry_equiv_pos_as_xyz
  1  'x, y, z'
loop_
 _atom_site_type_symbol
 _atom_site_label
 _atom_site_symmetry_multiplicity
 _atom_site_fract_x
 _atom_site_fract_y
 _atom_site_fract_z
 _atom_site_occupancy
  O  O0  1  0.98553048  0.75000000  0.14297259  1
  O  O1  1  0.98553048  0.25000000  0.35702741  1
  O  O2  1  0.01446952  0.25000000  0.85702741  1
  O  O3  1  0.01446952  0.75000000  0.64297259  1
  O  O4  1  0.99382705  0.75000000  0.36049266  1
  O  O5  1  0.99382705  0.25000000  0.13950734  1
  O  O6  1  0.00617295  0.25000000  0.63950734  1
  O  O7  1  0.00617295  0.75000000  0.86049266  1
  O  O8  1  0.50777526  0.99558400  0.63729826  1
  O  O9  1  0.50777526  0.00441600  0.86270174  1
  O  O10  1  0.49222474  0.49558400  0.36270174  1
  O  O11  1  0.49222474  0.50441600  0.13729826  1
  O  O12  1  0.50777526  0.49558400  0.86270174  1
  O  O13  1  0.50777526  0.50441600  0.63729826  1
  O  O14  1  0.49222474  0.99558400  0.13729826  1
  O  O15  1  0.49222474  0.00441600  0.36270174  1
  Ca  Ca16  1  0.69206727  0.25000000  0.50403157  1
  Ca  Ca17  1  0.69206727  0.75000000  0.99596843  1
  Ca  Ca18  1  0.30793273  0.75000000  0.49596843  1
  Ca  Ca19  1  0.30793273  0.25000000  0.00403157  1
  Nb  Nb20  1  0.84425200  0.00000000  0.75000000  1
  Nb  Nb21  1  0.15574800  0.50000000  0.25000000  1
  Nb  Nb22  1  0.15574800  0.00000000  0.25000000  1
  Nb  Nb23  1  0.84425200  0.50000000  0.75000000  1
  Nb  Nb24  1  0.65927759  0.75000000  0.25368627  1
  Nb  Nb25  1  0.65927759  0.25000000  0.24631373  1
  Nb  Nb26  1  0.34072241  0.25000000  0.74631373  1
  Nb  Nb27  1  0.34072241  0.75000000  0.75368627  1
