# generated using pymatgen
data_Li2Ce2Ge3
_symmetry_space_group_name_H-M   'P 1'
_cell_length_a   4.44983249
_cell_length_b   6.88055812
_cell_length_c   9.59382008
_cell_angle_alpha   90.00000000
_cell_angle_beta   103.40963006
_cell_angle_gamma   90.00000000
_symmetry_Int_Tables_number   1
_chemical_formula_structural   Li2Ce2Ge3
_chemical_formula_sum   'Li4 Ce4 Ge6'
_cell_volume   285.72898336
_cell_formula_units_Z   2
loop_
 _symmetry_equiv_pos_site_id
 _symmetry_equiv_pos_as_xyz
  1  'x, y, z'
loop_
 _atom_site_type_symbol
 _atom_site_label
 _atom_site_symmetry_multiplicity
 _atom_site_fract_x
 _atom_site_fract_y
 _atom_site_fract_z
 _atom_site_occupancy
  Li  Li0  1  0.69100177  0.06242678  0.38200353  1
  Li  Li1  1  0.30899823  0.93757322  0.61799647  1
  Li  Li2  1  0.30899823  0.56242678  0.61799647  1
  Li  Li3  1  0.69100177  0.43757322  0.38200353  1
  Ge  Ge4  1  0.22037603  0.25000000  0.44075206  1
  Ge  Ge5  1  0.77962397  0.75000000  0.55924794  1
  Ge  Ge6  1  0.56308513  0.56479558  0.12617027  1
  Ge  Ge7  1  0.43691487  0.43520442  0.87382973  1
  Ge  Ge8  1  0.43691487  0.06479558  0.87382973  1
  Ge  Ge9  1  0.56308513  0.93520442  0.12617027  1
  Ce  Ce10  1  0.15649823  0.75000000  0.31299646  1
  Ce  Ce11  1  0.84350177  0.25000000  0.68700354  1
  Ce  Ce12  1  0.94956427  0.75000000  0.89912854  1
  Ce  Ce13  1  0.05043573  0.25000000  0.10087146  1
