# generated using pymatgen
data_Na3Ga3(TeO6)2
_symmetry_space_group_name_H-M   'P 1'
_cell_length_a   10.86438235
_cell_length_b   10.86438289
_cell_length_c   10.86438231
_cell_angle_alpha   109.47121955
_cell_angle_beta   109.47122055
_cell_angle_gamma   109.47121971
_symmetry_Int_Tables_number   1
_chemical_formula_structural   Na3Ga3(TeO6)2
_chemical_formula_sum   'Na12 Ga12 Te8 O48'
_cell_volume   987.17299123
_cell_formula_units_Z   4
loop_
 _symmetry_equiv_pos_site_id
 _symmetry_equiv_pos_as_xyz
  1  'x, y, z'
loop_
 _atom_site_type_symbol
 _atom_site_label
 _atom_site_symmetry_multiplicity
 _atom_site_fract_x
 _atom_site_fract_y
 _atom_site_fract_z
 _atom_site_occupancy
  Na  Na0  1  0.25000000  0.37500000  0.12500000  1
  Na  Na1  1  0.87500000  0.62500000  0.25000000  1
  Na  Na2  1  0.75000000  0.62500000  0.87500000  1
  Na  Na3  1  0.37500000  0.75000000  0.12500000  1
  Na  Na4  1  0.12500000  0.37500000  0.75000000  1
  Na  Na5  1  0.37500000  0.12500000  0.25000000  1
  Na  Na6  1  0.62500000  0.25000000  0.87500000  1
  Na  Na7  1  0.25000000  0.87500000  0.62500000  1
  Na  Na8  1  0.87500000  0.75000000  0.62500000  1
  Na  Na9  1  0.12500000  0.25000000  0.37500000  1
  Na  Na10  1  0.62500000  0.87500000  0.75000000  1
  Na  Na11  1  0.75000000  0.12500000  0.37500000  1
  Ga  Ga12  1  0.87500000  0.12500000  0.75000000  1
  Ga  Ga13  1  0.62500000  0.75000000  0.37500000  1
  Ga  Ga14  1  0.25000000  0.62500000  0.37500000  1
  Ga  Ga15  1  0.12500000  0.75000000  0.87500000  1
  Ga  Ga16  1  0.25000000  0.12500000  0.87500000  1
  Ga  Ga17  1  0.87500000  0.25000000  0.12500000  1
  Ga  Ga18  1  0.37500000  0.25000000  0.62500000  1
  Ga  Ga19  1  0.37500000  0.62500000  0.75000000  1
  Ga  Ga20  1  0.62500000  0.37500000  0.25000000  1
  Ga  Ga21  1  0.75000000  0.37500000  0.62500000  1
  Ga  Ga22  1  0.75000000  0.87500000  0.12500000  1
  Ga  Ga23  1  0.12500000  0.87500000  0.25000000  1
  Te  Te24  1  0.00000000  0.00000000  0.50000000  1
  Te  Te25  1  0.50000000  0.00000000  0.50000000  1
  Te  Te26  1  0.50000000  0.00000000  0.00000000  1
  Te  Te27  1  0.00000000  0.00000000  0.00000000  1
  Te  Te28  1  0.00000000  0.50000000  0.00000000  1
  Te  Te29  1  0.00000000  0.50000000  0.50000000  1
  Te  Te30  1  0.50000000  0.50000000  0.50000000  1
  Te  Te31  1  0.50000000  0.50000000  0.00000000  1
  O  O32  1  0.17542892  0.48345362  0.59884908  1
  O  O33  1  0.57657983  0.17542892  0.19197529  1
  O  O34  1  0.19197529  0.57657983  0.17542892  1
  O  O35  1  0.82457108  0.51654638  0.40115092  1
  O  O36  1  0.51654638  0.61539546  0.69197529  1
  O  O37  1  0.07657983  0.69197529  0.67542892  1
  O  O38  1  0.09884908  0.61539546  0.42342017  1
  O  O39  1  0.92342017  0.11539546  0.59884908  1
  O  O40  1  0.01654638  0.19197529  0.11539546  1
  O  O41  1  0.30802471  0.48345362  0.38460454  1
  O  O42  1  0.01654638  0.32457108  0.90115092  1
  O  O43  1  0.67542892  0.09884908  0.98345362  1
  O  O44  1  0.30802471  0.32457108  0.92342017  1
  O  O45  1  0.98345362  0.67542892  0.09884908  1
  O  O46  1  0.07657983  0.88460454  0.40115092  1
  O  O47  1  0.38460454  0.30802471  0.48345362  1
  O  O48  1  0.90115092  0.38460454  0.57657983  1
  O  O49  1  0.90115092  0.01654638  0.32457108  1
  O  O50  1  0.17542892  0.19197529  0.57657983  1
  O  O51  1  0.11539546  0.59884908  0.92342017  1
  O  O52  1  0.57657983  0.90115092  0.38460454  1
  O  O53  1  0.32457108  0.90115092  0.01654638  1
  O  O54  1  0.67542892  0.07657983  0.69197529  1
  O  O55  1  0.11539546  0.01654638  0.19197529  1
  O  O56  1  0.82457108  0.80802471  0.42342017  1
  O  O57  1  0.69197529  0.67542892  0.07657983  1
  O  O58  1  0.88460454  0.40115092  0.07657983  1
  O  O59  1  0.61539546  0.69197529  0.51654638  1
  O  O60  1  0.88460454  0.98345362  0.80802471  1
  O  O61  1  0.48345362  0.59884908  0.17542892  1
  O  O62  1  0.98345362  0.80802471  0.88460454  1
  O  O63  1  0.40115092  0.82457108  0.51654638  1
  O  O64  1  0.48345362  0.38460454  0.30802471  1
  O  O65  1  0.38460454  0.57657983  0.90115092  1
  O  O66  1  0.80802471  0.88460454  0.98345362  1
  O  O67  1  0.61539546  0.42342017  0.09884908  1
  O  O68  1  0.59884908  0.92342017  0.11539546  1
  O  O69  1  0.42342017  0.82457108  0.80802471  1
  O  O70  1  0.32457108  0.92342017  0.30802471  1
  O  O71  1  0.51654638  0.40115092  0.82457108  1
  O  O72  1  0.69197529  0.51654638  0.61539546  1
  O  O73  1  0.42342017  0.09884908  0.61539546  1
  O  O74  1  0.92342017  0.30802471  0.32457108  1
  O  O75  1  0.09884908  0.98345362  0.67542892  1
  O  O76  1  0.59884908  0.17542892  0.48345362  1
  O  O77  1  0.80802471  0.42342017  0.82457108  1
  O  O78  1  0.40115092  0.07657983  0.88460454  1
  O  O79  1  0.19197529  0.11539546  0.01654638  1
