# generated using pymatgen
data_Lu3Ge3Ir2
_symmetry_space_group_name_H-M   'P 1'
_cell_length_a   4.28432688
_cell_length_b   5.56828078
_cell_length_c   14.11159964
_cell_angle_alpha   90.00000000
_cell_angle_beta   90.00000000
_cell_angle_gamma   112.62562798
_symmetry_Int_Tables_number   1
_chemical_formula_structural   Lu3Ge3Ir2
_chemical_formula_sum   'Lu6 Ge6 Ir4'
_cell_volume   310.74178900
_cell_formula_units_Z   2
loop_
 _symmetry_equiv_pos_site_id
 _symmetry_equiv_pos_as_xyz
  1  'x, y, z'
loop_
 _atom_site_type_symbol
 _atom_site_label
 _atom_site_symmetry_multiplicity
 _atom_site_fract_x
 _atom_site_fract_y
 _atom_site_fract_z
 _atom_site_occupancy
  Ge  Ge0  1  0.12166659  0.24333319  0.53514827  1
  Ge  Ge1  1  0.12166659  0.24333319  0.96485173  1
  Ge  Ge2  1  0.15190231  0.30380463  0.25000000  1
  Ge  Ge3  1  0.87833341  0.75666681  0.03514827  1
  Ge  Ge4  1  0.87833341  0.75666681  0.46485173  1
  Ge  Ge5  1  0.84809769  0.69619537  0.75000000  1
  Lu  Lu6  1  0.58427679  0.16855357  0.38970874  1
  Lu  Lu7  1  0.58427679  0.16855357  0.11029126  1
  Lu  Lu8  1  0.14314050  0.28628100  0.75000000  1
  Lu  Lu9  1  0.85685950  0.71371900  0.25000000  1
  Lu  Lu10  1  0.41572321  0.83144643  0.61029126  1
  Lu  Lu11  1  0.41572321  0.83144643  0.88970874  1
  Ir  Ir12  1  0.70024554  0.40049108  0.60321426  1
  Ir  Ir13  1  0.29975446  0.59950892  0.10321426  1
  Ir  Ir14  1  0.70024554  0.40049108  0.89678574  1
  Ir  Ir15  1  0.29975446  0.59950892  0.39678574  1
