# generated using pymatgen
data_HfSnRh
_symmetry_space_group_name_H-M   'P 1'
_cell_length_a   7.38848149
_cell_length_b   7.38848150
_cell_length_c   7.24159561
_cell_angle_alpha   90.00000000
_cell_angle_beta   90.00000000
_cell_angle_gamma   120.00000002
_symmetry_Int_Tables_number   1
_chemical_formula_structural   HfSnRh
_chemical_formula_sum   'Hf6 Sn6 Rh6'
_cell_volume   342.35390053
_cell_formula_units_Z   6
loop_
 _symmetry_equiv_pos_site_id
 _symmetry_equiv_pos_as_xyz
  1  'x, y, z'
loop_
 _atom_site_type_symbol
 _atom_site_label
 _atom_site_symmetry_multiplicity
 _atom_site_fract_x
 _atom_site_fract_y
 _atom_site_fract_z
 _atom_site_occupancy
  Rh  Rh0  1  0.33333333  0.66666667  0.46387338  1
  Rh  Rh1  1  0.66666667  0.33333333  0.53612662  1
  Rh  Rh2  1  0.33333333  0.66666667  0.03612662  1
  Rh  Rh3  1  0.00000000  0.00000000  0.75000000  1
  Rh  Rh4  1  0.00000000  0.00000000  0.25000000  1
  Rh  Rh5  1  0.66666667  0.33333333  0.96387338  1
  Sn  Sn6  1  0.27063654  0.27063654  0.50000000  1
  Sn  Sn7  1  0.00000000  0.72936346  0.50000000  1
  Sn  Sn8  1  0.00000000  0.72936346  0.00000000  1
  Sn  Sn9  1  0.72936346  0.00000000  0.50000000  1
  Sn  Sn10  1  0.72936346  0.00000000  0.00000000  1
  Sn  Sn11  1  0.27063654  0.27063654  0.00000000  1
  Hf  Hf12  1  0.01794153  0.40586976  0.75000000  1
  Hf  Hf13  1  0.59413024  0.61207177  0.75000000  1
  Hf  Hf14  1  0.38792823  0.98205847  0.75000000  1
  Hf  Hf15  1  0.98205847  0.38792823  0.25000000  1
  Hf  Hf16  1  0.61207177  0.59413024  0.25000000  1
  Hf  Hf17  1  0.40586976  0.01794153  0.25000000  1
