# generated using pymatgen
data_NbTe4Ir
_symmetry_space_group_name_H-M   'P 1'
_cell_length_a   3.82461391
_cell_length_b   12.72824702
_cell_length_c   13.61996951
_cell_angle_alpha   90.00000000
_cell_angle_beta   90.00000000
_cell_angle_gamma   90.00000000
_symmetry_Int_Tables_number   1
_chemical_formula_structural   NbTe4Ir
_chemical_formula_sum   'Nb4 Te16 Ir4'
_cell_volume   663.02870454
_cell_formula_units_Z   4
loop_
 _symmetry_equiv_pos_site_id
 _symmetry_equiv_pos_as_xyz
  1  'x, y, z'
loop_
 _atom_site_type_symbol
 _atom_site_label
 _atom_site_symmetry_multiplicity
 _atom_site_fract_x
 _atom_site_fract_y
 _atom_site_fract_z
 _atom_site_occupancy
  Nb  Nb0  1  0.00000000  0.05595313  0.00456032  1
  Nb  Nb1  1  0.50000000  0.94404687  0.50456032  1
  Nb  Nb2  1  0.00000000  0.27014433  0.49184588  1
  Nb  Nb3  1  0.50000000  0.72985567  0.99184588  1
  Ir  Ir4  1  0.00000000  0.53564650  0.00011975  1
  Ir  Ir5  1  0.50000000  0.46435350  0.50011975  1
  Ir  Ir6  1  0.00000000  0.75221594  0.49239993  1
  Ir  Ir7  1  0.50000000  0.24778406  0.99239993  1
  Te  Te8  1  0.00000000  0.06559514  0.39493039  1
  Te  Te9  1  0.50000000  0.93440486  0.89493039  1
  Te  Te10  1  0.00000000  0.19481465  0.85747917  1
  Te  Te11  1  0.50000000  0.80518535  0.35747917  1
  Te  Te12  1  0.00000000  0.34675529  0.09293025  1
  Te  Te13  1  0.50000000  0.65324471  0.59293025  1
  Te  Te14  1  0.00000000  0.41336657  0.63493200  1
  Te  Te15  1  0.50000000  0.58663343  0.13493200  1
  Te  Te16  1  0.00000000  0.56338405  0.39894282  1
  Te  Te17  1  0.50000000  0.43661595  0.89894282  1
  Te  Te18  1  0.00000000  0.67636929  0.85123623  1
  Te  Te19  1  0.50000000  0.32363071  0.35123623  1
  Te  Te20  1  0.00000000  0.85088589  0.10389060  1
  Te  Te21  1  0.50000000  0.14911411  0.60389060  1
  Te  Te22  1  0.00000000  0.88990697  0.64493266  1
  Te  Te23  1  0.50000000  0.11009303  0.14493266  1
