# generated using pymatgen
data_Na2CuF4
_symmetry_space_group_name_H-M   'P 1'
_cell_length_a   3.35432291
_cell_length_b   5.70277557
_cell_length_c   9.39536359
_cell_angle_alpha   90.00000000
_cell_angle_beta   90.00000000
_cell_angle_gamma   93.29987024
_symmetry_Int_Tables_number   1
_chemical_formula_structural   Na2CuF4
_chemical_formula_sum   'Na4 Cu2 F8'
_cell_volume   179.42545635
_cell_formula_units_Z   2
loop_
 _symmetry_equiv_pos_site_id
 _symmetry_equiv_pos_as_xyz
  1  'x, y, z'
loop_
 _atom_site_type_symbol
 _atom_site_label
 _atom_site_symmetry_multiplicity
 _atom_site_fract_x
 _atom_site_fract_y
 _atom_site_fract_z
 _atom_site_occupancy
  F  F0  1  0.98836387  0.37590032  0.69080533  1
  F  F1  1  0.01163613  0.12409968  0.19080533  1
  F  F2  1  0.01163613  0.62409968  0.30919467  1
  F  F3  1  0.98836387  0.87590032  0.80919467  1
  F  F4  1  0.41640398  0.23761580  0.95018893  1
  F  F5  1  0.58359602  0.26238420  0.45018893  1
  F  F6  1  0.41640398  0.73761580  0.54981107  1
  F  F7  1  0.58359602  0.76238420  0.04981107  1
  Na  Na8  1  0.48141704  0.58343137  0.81783795  1
  Na  Na9  1  0.51858296  0.91656863  0.31783795  1
  Na  Na10  1  0.48141704  0.08343137  0.68216205  1
  Na  Na11  1  0.51858296  0.41656863  0.18216205  1
  Cu  Cu12  1  0.00000000  0.00000000  0.00000000  1
  Cu  Cu13  1  0.00000000  0.50000000  0.50000000  1
