# generated using pymatgen
data_Tl(BH)6
_symmetry_space_group_name_H-M   'P 1'
_cell_length_a   7.67207307
_cell_length_b   7.67207307
_cell_length_c   7.67207307
_cell_angle_alpha   59.99999997
_cell_angle_beta   59.99999997
_cell_angle_gamma   59.99999996
_symmetry_Int_Tables_number   1
_chemical_formula_structural   Tl(BH)6
_chemical_formula_sum   'Tl2 B12 H12'
_cell_volume   319.31784795
_cell_formula_units_Z   2
loop_
 _symmetry_equiv_pos_site_id
 _symmetry_equiv_pos_as_xyz
  1  'x, y, z'
loop_
 _atom_site_type_symbol
 _atom_site_label
 _atom_site_symmetry_multiplicity
 _atom_site_fract_x
 _atom_site_fract_y
 _atom_site_fract_z
 _atom_site_occupancy
  H  H0  1  0.08788976  0.36744094  0.63255906  1
  H  H1  1  0.63255906  0.91211024  0.08788976  1
  H  H2  1  0.36744094  0.91211024  0.63255906  1
  H  H3  1  0.91211024  0.08788976  0.63255906  1
  H  H4  1  0.63255906  0.08788976  0.36744094  1
  H  H5  1  0.08788976  0.63255906  0.91211024  1
  H  H6  1  0.63255906  0.36744094  0.91211024  1
  H  H7  1  0.08788976  0.91211024  0.36744094  1
  H  H8  1  0.91211024  0.36744094  0.08788976  1
  H  H9  1  0.36744094  0.08788976  0.91211024  1
  H  H10  1  0.91211024  0.63255906  0.36744094  1
  H  H11  1  0.36744094  0.63255906  0.08788976  1
  B  B12  1  0.78543810  0.94890061  0.05109939  1
  B  B13  1  0.05109939  0.21456190  0.78543810  1
  B  B14  1  0.21456190  0.94890061  0.78543810  1
  B  B15  1  0.94890061  0.05109939  0.78543810  1
  B  B16  1  0.78543810  0.05109939  0.21456190  1
  B  B17  1  0.05109939  0.78543810  0.94890061  1
  B  B18  1  0.78543810  0.21456190  0.94890061  1
  B  B19  1  0.05109939  0.94890061  0.21456190  1
  B  B20  1  0.94890061  0.21456190  0.05109939  1
  B  B21  1  0.21456190  0.05109939  0.94890061  1
  B  B22  1  0.94890061  0.78543810  0.21456190  1
  B  B23  1  0.21456190  0.78543810  0.05109939  1
  Tl  Tl24  1  0.75000000  0.75000000  0.75000000  1
  Tl  Tl25  1  0.25000000  0.25000000  0.25000000  1
