# generated using pymatgen
data_Na2SiF6
_symmetry_space_group_name_H-M   'P 1'
_cell_length_a   9.01998580
_cell_length_b   9.01998580
_cell_length_c   5.11475439
_cell_angle_alpha   90.00000000
_cell_angle_beta   90.00000000
_cell_angle_gamma   119.99999998
_symmetry_Int_Tables_number   1
_chemical_formula_structural   Na2SiF6
_chemical_formula_sum   'Na6 Si3 F18'
_cell_volume   360.38534607
_cell_formula_units_Z   3
loop_
 _symmetry_equiv_pos_site_id
 _symmetry_equiv_pos_as_xyz
  1  'x, y, z'
loop_
 _atom_site_type_symbol
 _atom_site_label
 _atom_site_symmetry_multiplicity
 _atom_site_fract_x
 _atom_site_fract_y
 _atom_site_fract_z
 _atom_site_occupancy
  F  F0  1  0.73972284  0.22690685  0.68696131  1
  F  F1  1  0.77309315  0.51281598  0.68696131  1
  F  F2  1  0.48718402  0.26027716  0.68696131  1
  F  F3  1  0.51281598  0.77309315  0.31303869  1
  F  F4  1  0.26027716  0.48718402  0.31303869  1
  F  F5  1  0.22690685  0.73972284  0.31303869  1
  F  F6  1  0.59678233  0.44215740  0.29963874  1
  F  F7  1  0.55784260  0.15462493  0.29963874  1
  F  F8  1  0.84537507  0.40321767  0.29963874  1
  F  F9  1  0.08489766  0.90449558  0.80826434  1
  F  F10  1  0.09550442  0.18040208  0.80826434  1
  F  F11  1  0.81959792  0.91510234  0.80826434  1
  F  F12  1  0.18040208  0.09550442  0.19173566  1
  F  F13  1  0.91510234  0.81959792  0.19173566  1
  F  F14  1  0.90449558  0.08489766  0.19173566  1
  F  F15  1  0.44215740  0.59678233  0.70036126  1
  F  F16  1  0.40321767  0.84537507  0.70036126  1
  F  F17  1  0.15462493  0.55784260  0.70036126  1
  Na  Na18  1  0.00000000  0.28835931  0.50000000  1
  Na  Na19  1  0.28835931  0.00000000  0.50000000  1
  Na  Na20  1  0.71164069  0.71164069  0.50000000  1
  Na  Na21  1  0.00000000  0.62274953  0.00000000  1
  Na  Na22  1  0.62274953  0.00000000  0.00000000  1
  Na  Na23  1  0.37725047  0.37725047  0.00000000  1
  Si  Si24  1  0.66666667  0.33333333  0.49348698  1
  Si  Si25  1  0.33333333  0.66666667  0.50651302  1
  Si  Si26  1  0.00000000  0.00000000  0.00000000  1
