# generated using pymatgen
data_Ba(PN2)2
_symmetry_space_group_name_H-M   'P 1'
_cell_length_a   10.34160503
_cell_length_b   10.34160503
_cell_length_c   10.34160503
_cell_angle_alpha   90.00000000
_cell_angle_beta   90.00000000
_cell_angle_gamma   90.00000000
_symmetry_Int_Tables_number   1
_chemical_formula_structural   Ba(PN2)2
_chemical_formula_sum   'Ba12 P24 N48'
_cell_volume   1106.02219215
_cell_formula_units_Z   12
loop_
 _symmetry_equiv_pos_site_id
 _symmetry_equiv_pos_as_xyz
  1  'x, y, z'
loop_
 _atom_site_type_symbol
 _atom_site_label
 _atom_site_symmetry_multiplicity
 _atom_site_fract_x
 _atom_site_fract_y
 _atom_site_fract_z
 _atom_site_occupancy
  N  N0  1  0.71963646  0.48860291  0.40866349  1
  N  N1  1  0.21963646  0.01139709  0.59133651  1
  N  N2  1  0.28036354  0.98860291  0.09133651  1
  N  N3  1  0.01139709  0.59133651  0.21963646  1
  N  N4  1  0.09133651  0.28036354  0.98860291  1
  N  N5  1  0.59133651  0.21963646  0.01139709  1
  N  N6  1  0.48860291  0.40866349  0.71963646  1
  N  N7  1  0.40866349  0.71963646  0.48860291  1
  N  N8  1  0.98860291  0.09133651  0.28036354  1
  N  N9  1  0.51139709  0.90866349  0.78036354  1
  N  N10  1  0.90866349  0.78036354  0.51139709  1
  N  N11  1  0.78036354  0.51139709  0.90866349  1
  N  N12  1  0.28036354  0.51139709  0.59133651  1
  N  N13  1  0.78036354  0.98860291  0.40866349  1
  N  N14  1  0.71963646  0.01139709  0.90866349  1
  N  N15  1  0.98860291  0.40866349  0.78036354  1
  N  N16  1  0.90866349  0.71963646  0.01139709  1
  N  N17  1  0.40866349  0.78036354  0.98860291  1
  N  N18  1  0.51139709  0.59133651  0.28036354  1
  N  N19  1  0.59133651  0.28036354  0.51139709  1
  N  N20  1  0.18066002  0.75091554  0.61066940  1
  N  N21  1  0.01139709  0.90866349  0.71963646  1
  N  N22  1  0.09133651  0.21963646  0.48860291  1
  N  N23  1  0.21963646  0.48860291  0.09133651  1
  N  N24  1  0.81933998  0.24908446  0.38933060  1
  N  N25  1  0.31933998  0.25091554  0.61066940  1
  N  N26  1  0.18066002  0.74908446  0.11066940  1
  N  N27  1  0.25091554  0.61066940  0.31933998  1
  N  N28  1  0.11066940  0.18066002  0.74908446  1
  N  N29  1  0.61066940  0.31933998  0.25091554  1
  N  N30  1  0.24908446  0.38933060  0.81933998  1
  N  N31  1  0.38933060  0.81933998  0.24908446  1
  N  N32  1  0.74908446  0.11066940  0.18066002  1
  N  N33  1  0.75091554  0.88933060  0.68066002  1
  N  N34  1  0.88933060  0.68066002  0.75091554  1
  N  N35  1  0.68066002  0.75091554  0.88933060  1
  N  N36  1  0.31933998  0.24908446  0.11066940  1
  N  N37  1  0.11066940  0.31933998  0.24908446  1
  N  N38  1  0.24908446  0.11066940  0.31933998  1
  N  N39  1  0.25091554  0.88933060  0.81933998  1
  N  N40  1  0.61066940  0.18066002  0.75091554  1
  N  N41  1  0.75091554  0.61066940  0.18066002  1
  N  N42  1  0.38933060  0.68066002  0.74908446  1
  N  N43  1  0.88933060  0.81933998  0.25091554  1
  N  N44  1  0.74908446  0.38933060  0.68066002  1
  N  N45  1  0.81933998  0.25091554  0.88933060  1
  N  N46  1  0.68066002  0.74908446  0.38933060  1
  N  N47  1  0.48860291  0.09133651  0.21963646  1
  P  P48  1  0.68439781  0.33333867  0.39255222  1
  P  P49  1  0.18439781  0.16666133  0.60744778  1
  P  P50  1  0.31560219  0.83333867  0.10744778  1
  P  P51  1  0.16666133  0.60744778  0.18439781  1
  P  P52  1  0.10744778  0.31560219  0.83333867  1
  P  P53  1  0.60744778  0.18439781  0.16666133  1
  P  P54  1  0.33333867  0.39255222  0.68439781  1
  P  P55  1  0.39255222  0.68439781  0.33333867  1
  P  P56  1  0.83333867  0.10744778  0.31560219  1
  P  P57  1  0.66666133  0.89255222  0.81560219  1
  P  P58  1  0.89255222  0.81560219  0.66666133  1
  P  P59  1  0.81560219  0.66666133  0.89255222  1
  P  P60  1  0.31560219  0.66666133  0.60744778  1
  P  P61  1  0.81560219  0.83333867  0.39255222  1
  P  P62  1  0.68439781  0.16666133  0.89255222  1
  P  P63  1  0.83333867  0.39255222  0.81560219  1
  P  P64  1  0.89255222  0.68439781  0.16666133  1
  P  P65  1  0.39255222  0.81560219  0.83333867  1
  P  P66  1  0.66666133  0.60744778  0.31560219  1
  P  P67  1  0.60744778  0.31560219  0.66666133  1
  P  P68  1  0.16666133  0.89255222  0.68439781  1
  P  P69  1  0.33333867  0.10744778  0.18439781  1
  P  P70  1  0.10744778  0.18439781  0.33333867  1
  P  P71  1  0.18439781  0.33333867  0.10744778  1
  Ba  Ba72  1  0.36770000  0.13230000  0.86770000  1
  Ba  Ba73  1  0.13230000  0.86770000  0.36770000  1
  Ba  Ba74  1  0.86770000  0.36770000  0.13230000  1
  Ba  Ba75  1  0.63230000  0.63230000  0.63230000  1
  Ba  Ba76  1  0.63230000  0.86770000  0.13230000  1
  Ba  Ba77  1  0.86770000  0.13230000  0.63230000  1
  Ba  Ba78  1  0.13230000  0.63230000  0.86770000  1
  Ba  Ba79  1  0.36770000  0.36770000  0.36770000  1
  Ba  Ba80  1  0.00000000  0.50000000  0.50000000  1
  Ba  Ba81  1  0.50000000  0.50000000  0.00000000  1
  Ba  Ba82  1  0.50000000  0.00000000  0.50000000  1
  Ba  Ba83  1  0.00000000  0.00000000  0.00000000  1
