# generated using pymatgen
data_Ca2Os2O7
_symmetry_space_group_name_H-M   'P 1'
_cell_length_a   7.25692466
_cell_length_b   7.30664496
_cell_length_c   7.30664496
_cell_angle_alpha   61.63933980
_cell_angle_beta   60.22484701
_cell_angle_gamma   60.22484699
_symmetry_Int_Tables_number   1
_chemical_formula_structural   Ca2Os2O7
_chemical_formula_sum   'Ca4 Os4 O14'
_cell_volume   278.14538531
_cell_formula_units_Z   2
loop_
 _symmetry_equiv_pos_site_id
 _symmetry_equiv_pos_as_xyz
  1  'x, y, z'
loop_
 _atom_site_type_symbol
 _atom_site_label
 _atom_site_symmetry_multiplicity
 _atom_site_fract_x
 _atom_site_fract_y
 _atom_site_fract_z
 _atom_site_occupancy
  O  O0  1  0.31864122  0.31572382  0.45071842  1
  O  O1  1  0.08508346  0.68427618  0.54928158  1
  O  O2  1  0.18135878  0.04928158  0.18427618  1
  O  O3  1  0.41491654  0.95071842  0.81572382  1
  O  O4  1  0.68135878  0.68427618  0.54928158  1
  O  O5  1  0.91491654  0.31572382  0.45071842  1
  O  O6  1  0.81864122  0.95071842  0.81572382  1
  O  O7  1  0.58508346  0.04928158  0.18427618  1
  O  O8  1  0.25000000  0.91405812  0.58594188  1
  O  O9  1  0.75000000  0.08594188  0.41405812  1
  O  O10  1  0.40337565  0.32778951  0.86545920  1
  O  O11  1  0.59662435  0.67221049  0.13454080  1
  O  O12  1  0.09662435  0.63454080  0.17221049  1
  O  O13  1  0.90337565  0.36545920  0.82778951  1
  Ca  Ca14  1  0.00000000  0.00000000  0.00000000  1
  Ca  Ca15  1  0.50000000  0.50000000  0.50000000  1
  Ca  Ca16  1  0.50000000  0.50000000  0.00000000  1
  Ca  Ca17  1  0.00000000  0.50000000  0.00000000  1
  Os  Os18  1  0.50000000  0.00000000  0.50000000  1
  Os  Os19  1  0.00000000  0.00000000  0.50000000  1
  Os  Os20  1  0.00000000  0.50000000  0.50000000  1
  Os  Os21  1  0.50000000  0.00000000  0.00000000  1
