# generated using pymatgen
data_Er2Mo2C3
_symmetry_space_group_name_H-M   'P 1'
_cell_length_a   3.32855125
_cell_length_b   5.68890421
_cell_length_c   6.05543444
_cell_angle_alpha   110.95348860
_cell_angle_beta   105.95247970
_cell_angle_gamma   90.00000002
_symmetry_Int_Tables_number   1
_chemical_formula_structural   Er2Mo2C3
_chemical_formula_sum   'Er2 Mo2 C3'
_cell_volume   102.33951425
_cell_formula_units_Z   1
loop_
 _symmetry_equiv_pos_site_id
 _symmetry_equiv_pos_as_xyz
  1  'x, y, z'
loop_
 _atom_site_type_symbol
 _atom_site_label
 _atom_site_symmetry_multiplicity
 _atom_site_fract_x
 _atom_site_fract_y
 _atom_site_fract_z
 _atom_site_occupancy
  C  C0  1  0.75234453  0.26452024  0.50468906  1
  C  C1  1  0.24765547  0.73547976  0.49531094  1
  C  C2  1  0.00000000  0.00000000  0.00000000  1
  Mo  Mo3  1  0.15664099  0.32658560  0.31328198  1
  Mo  Mo4  1  0.84335901  0.67341440  0.68671802  1
  Er  Er5  1  0.38940868  0.17307067  0.77881735  1
  Er  Er6  1  0.61059132  0.82692933  0.22118265  1
