# generated using pymatgen
data_NaTaO3
_symmetry_space_group_name_H-M   'P 1'
_cell_length_a   5.52965123
_cell_length_b   5.58393391
_cell_length_c   7.86973008
_cell_angle_alpha   90.00000000
_cell_angle_beta   90.00000000
_cell_angle_gamma   90.00000000
_symmetry_Int_Tables_number   1
_chemical_formula_structural   NaTaO3
_chemical_formula_sum   'Na4 Ta4 O12'
_cell_volume   242.99528482
_cell_formula_units_Z   4
loop_
 _symmetry_equiv_pos_site_id
 _symmetry_equiv_pos_as_xyz
  1  'x, y, z'
loop_
 _atom_site_type_symbol
 _atom_site_label
 _atom_site_symmetry_multiplicity
 _atom_site_fract_x
 _atom_site_fract_y
 _atom_site_fract_z
 _atom_site_occupancy
  O  O0  1  0.21489975  0.78453155  0.95457114  1
  O  O1  1  0.78510025  0.21546845  0.45457114  1
  O  O2  1  0.28510025  0.28453155  0.95457114  1
  O  O3  1  0.71489975  0.71546845  0.45457114  1
  O  O4  1  0.21512394  0.78402307  0.51810885  1
  O  O5  1  0.78487606  0.21597693  0.01810885  1
  O  O6  1  0.28487606  0.28402307  0.51810885  1
  O  O7  1  0.71512394  0.71597693  0.01810885  1
  O  O8  1  0.06239797  0.51119886  0.23621159  1
  O  O9  1  0.93760203  0.48880114  0.73621159  1
  O  O10  1  0.43760203  0.01119886  0.23621159  1
  O  O11  1  0.56239797  0.98880114  0.73621159  1
  Na  Na12  1  0.99709609  0.98001629  0.23551620  1
  Na  Na13  1  0.00290391  0.01998371  0.73551620  1
  Na  Na14  1  0.50290391  0.48001629  0.23551620  1
  Na  Na15  1  0.49709609  0.51998371  0.73551620  1
  Ta  Ta16  1  0.50013717  0.99997759  0.98559222  1
  Ta  Ta17  1  0.49986283  0.00002241  0.48559222  1
  Ta  Ta18  1  0.99986283  0.49997759  0.98559222  1
  Ta  Ta19  1  0.00013717  0.50002241  0.48559222  1
