# generated using pymatgen
data_SrSnO3
_symmetry_space_group_name_H-M   'P 1'
_cell_length_a   5.81747161
_cell_length_b   5.78637814
_cell_length_c   8.19065565
_cell_angle_alpha   90.00000000
_cell_angle_beta   90.00000000
_cell_angle_gamma   90.00000000
_symmetry_Int_Tables_number   1
_chemical_formula_structural   SrSnO3
_chemical_formula_sum   'Sr4 Sn4 O12'
_cell_volume   275.71459219
_cell_formula_units_Z   4
loop_
 _symmetry_equiv_pos_site_id
 _symmetry_equiv_pos_as_xyz
  1  'x, y, z'
loop_
 _atom_site_type_symbol
 _atom_site_label
 _atom_site_symmetry_multiplicity
 _atom_site_fract_x
 _atom_site_fract_y
 _atom_site_fract_z
 _atom_site_occupancy
  O  O0  1  0.71421585  0.28662595  0.53900945  1
  O  O1  1  0.21421585  0.21337405  0.96099055  1
  O  O2  1  0.78578415  0.78662595  0.46099055  1
  O  O3  1  0.28578415  0.71337405  0.03900945  1
  O  O4  1  0.28578415  0.71337405  0.46099055  1
  O  O5  1  0.78578415  0.78662595  0.03900945  1
  O  O6  1  0.21421585  0.21337405  0.53900945  1
  O  O7  1  0.71421585  0.28662595  0.96099055  1
  O  O8  1  0.51846190  0.92616732  0.75000000  1
  O  O9  1  0.01846190  0.57383268  0.75000000  1
  O  O10  1  0.98153810  0.42616732  0.25000000  1
  O  O11  1  0.48153810  0.07383268  0.25000000  1
  Sr  Sr12  1  0.46754213  0.49294821  0.75000000  1
  Sr  Sr13  1  0.96754213  0.00705179  0.75000000  1
  Sr  Sr14  1  0.03245787  0.99294821  0.25000000  1
  Sr  Sr15  1  0.53245787  0.50705179  0.25000000  1
  Sn  Sn16  1  0.50000000  0.00000000  0.00000000  1
  Sn  Sn17  1  0.00000000  0.50000000  0.50000000  1
  Sn  Sn18  1  0.00000000  0.50000000  0.00000000  1
  Sn  Sn19  1  0.50000000  0.00000000  0.50000000  1
