# generated using pymatgen
data_NaZnF3
_symmetry_space_group_name_H-M   'P 1'
_cell_length_a   5.49013121
_cell_length_b   5.68395039
_cell_length_c   7.89140096
_cell_angle_alpha   90.00000000
_cell_angle_beta   90.00000000
_cell_angle_gamma   90.00000000
_symmetry_Int_Tables_number   1
_chemical_formula_structural   NaZnF3
_chemical_formula_sum   'Na4 Zn4 F12'
_cell_volume   246.25616562
_cell_formula_units_Z   4
loop_
 _symmetry_equiv_pos_site_id
 _symmetry_equiv_pos_as_xyz
  1  'x, y, z'
loop_
 _atom_site_type_symbol
 _atom_site_label
 _atom_site_symmetry_multiplicity
 _atom_site_fract_x
 _atom_site_fract_y
 _atom_site_fract_z
 _atom_site_occupancy
  F  F0  1  0.69709965  0.29925891  0.44338630  1
  F  F1  1  0.19709965  0.20074109  0.55661370  1
  F  F2  1  0.80290035  0.79925891  0.05661370  1
  F  F3  1  0.30290035  0.70074109  0.94338630  1
  F  F4  1  0.30290035  0.70074109  0.55661370  1
  F  F5  1  0.80290035  0.79925891  0.44338630  1
  F  F6  1  0.19709965  0.20074109  0.94338630  1
  F  F7  1  0.69709965  0.29925891  0.05661370  1
  F  F8  1  0.10790154  0.46018176  0.25000000  1
  F  F9  1  0.60790154  0.03981824  0.75000000  1
  F  F10  1  0.39209846  0.96018176  0.25000000  1
  F  F11  1  0.89209846  0.53981824  0.75000000  1
  Na  Na12  1  0.01602216  0.94308373  0.75000000  1
  Na  Na13  1  0.51602216  0.55691627  0.25000000  1
  Na  Na14  1  0.48397784  0.44308373  0.75000000  1
  Na  Na15  1  0.98397784  0.05691627  0.25000000  1
  Zn  Zn16  1  0.50000000  0.00000000  0.50000000  1
  Zn  Zn17  1  0.00000000  0.50000000  0.50000000  1
  Zn  Zn18  1  0.00000000  0.50000000  0.00000000  1
  Zn  Zn19  1  0.50000000  0.00000000  0.00000000  1
