# generated using pymatgen
data_Ni(NO3)2
_symmetry_space_group_name_H-M   'P 1'
_cell_length_a   7.52740079
_cell_length_b   7.52740079
_cell_length_c   7.52740079
_cell_angle_alpha   90.00000000
_cell_angle_beta   90.00000000
_cell_angle_gamma   90.00000000
_symmetry_Int_Tables_number   1
_chemical_formula_structural   Ni(NO3)2
_chemical_formula_sum   'Ni4 N8 O24'
_cell_volume   426.51579696
_cell_formula_units_Z   4
loop_
 _symmetry_equiv_pos_site_id
 _symmetry_equiv_pos_as_xyz
  1  'x, y, z'
loop_
 _atom_site_type_symbol
 _atom_site_label
 _atom_site_symmetry_multiplicity
 _atom_site_fract_x
 _atom_site_fract_y
 _atom_site_fract_z
 _atom_site_occupancy
  Ni  Ni0  1  0.00000000  0.00000000  0.00000000  1
  Ni  Ni1  1  0.50000000  0.00000000  0.50000000  1
  Ni  Ni2  1  0.50000000  0.50000000  0.00000000  1
  Ni  Ni3  1  0.00000000  0.50000000  0.50000000  1
  N  N4  1  0.32431913  0.32431913  0.32431913  1
  N  N5  1  0.17568087  0.67568087  0.82431913  1
  N  N6  1  0.82431913  0.17568087  0.67568087  1
  N  N7  1  0.67568087  0.82431913  0.17568087  1
  N  N8  1  0.67568087  0.67568087  0.67568087  1
  N  N9  1  0.82431913  0.32431913  0.17568087  1
  N  N10  1  0.17568087  0.82431913  0.32431913  1
  N  N11  1  0.32431913  0.17568087  0.82431913  1
  O  O12  1  0.20683801  0.32115244  0.44411645  1
  O  O13  1  0.44411645  0.20683801  0.32115244  1
  O  O14  1  0.32115244  0.44411645  0.20683801  1
  O  O15  1  0.17884756  0.55588355  0.70683801  1
  O  O16  1  0.94411645  0.29316199  0.67884756  1
  O  O17  1  0.67884756  0.94411645  0.29316199  1
  O  O18  1  0.05588355  0.79316199  0.82115244  1
  O  O19  1  0.55588355  0.70683801  0.17884756  1
  O  O20  1  0.82115244  0.05588355  0.79316199  1
  O  O21  1  0.70683801  0.17884756  0.55588355  1
  O  O22  1  0.79316199  0.82115244  0.05588355  1
  O  O23  1  0.29316199  0.67884756  0.94411645  1
  O  O24  1  0.79316199  0.67884756  0.55588355  1
  O  O25  1  0.55588355  0.79316199  0.67884756  1
  O  O26  1  0.67884756  0.55588355  0.79316199  1
  O  O27  1  0.82115244  0.44411645  0.29316199  1
  O  O28  1  0.05588355  0.70683801  0.32115244  1
  O  O29  1  0.32115244  0.05588355  0.70683801  1
  O  O30  1  0.94411645  0.20683801  0.17884756  1
  O  O31  1  0.44411645  0.29316199  0.82115244  1
  O  O32  1  0.17884756  0.94411645  0.20683801  1
  O  O33  1  0.29316199  0.82115244  0.44411645  1
  O  O34  1  0.20683801  0.17884756  0.94411645  1
  O  O35  1  0.70683801  0.32115244  0.05588355  1
