# generated using pymatgen
data_YbSnPd
_symmetry_space_group_name_H-M   'P 1'
_cell_length_a   4.54933326
_cell_length_b   7.23642864
_cell_length_c   8.19801651
_cell_angle_alpha   90.00000000
_cell_angle_beta   90.00000000
_cell_angle_gamma   90.00000000
_symmetry_Int_Tables_number   1
_chemical_formula_structural   YbSnPd
_chemical_formula_sum   'Yb4 Sn4 Pd4'
_cell_volume   269.88629074
_cell_formula_units_Z   4
loop_
 _symmetry_equiv_pos_site_id
 _symmetry_equiv_pos_as_xyz
  1  'x, y, z'
loop_
 _atom_site_type_symbol
 _atom_site_label
 _atom_site_symmetry_multiplicity
 _atom_site_fract_x
 _atom_site_fract_y
 _atom_site_fract_z
 _atom_site_occupancy
  Pd  Pd0  1  0.75000000  0.22540129  0.88051281  1
  Pd  Pd1  1  0.25000000  0.27459871  0.38051281  1
  Pd  Pd2  1  0.75000000  0.72540129  0.61948719  1
  Pd  Pd3  1  0.25000000  0.77459871  0.11948719  1
  Sn  Sn4  1  0.25000000  0.15750729  0.06493306  1
  Sn  Sn5  1  0.75000000  0.34249271  0.56493306  1
  Sn  Sn6  1  0.25000000  0.65750729  0.43506694  1
  Sn  Sn7  1  0.75000000  0.84249271  0.93506694  1
  Yb  Yb8  1  0.25000000  0.52848206  0.81796358  1
  Yb  Yb9  1  0.75000000  0.47151794  0.18203642  1
  Yb  Yb10  1  0.25000000  0.02848206  0.68203642  1
  Yb  Yb11  1  0.75000000  0.97151794  0.31796358  1
