# generated using pymatgen
data_H4I3N
_symmetry_space_group_name_H-M   'P 1'
_cell_length_a   6.83542551
_cell_length_b   9.89663719
_cell_length_c   10.88486710
_cell_angle_alpha   90.00000000
_cell_angle_beta   90.00000000
_cell_angle_gamma   90.00000000
_symmetry_Int_Tables_number   1
_chemical_formula_structural   H4I3N
_chemical_formula_sum   'H16 I12 N4'
_cell_volume   736.33651052
_cell_formula_units_Z   4
loop_
 _symmetry_equiv_pos_site_id
 _symmetry_equiv_pos_as_xyz
  1  'x, y, z'
loop_
 _atom_site_type_symbol
 _atom_site_label
 _atom_site_symmetry_multiplicity
 _atom_site_fract_x
 _atom_site_fract_y
 _atom_site_fract_z
 _atom_site_occupancy
  H  H0  1  0.62594208  0.46775227  0.17337927  1
  H  H1  1  0.12594208  0.53224773  0.82662073  1
  H  H2  1  0.37405792  0.96775227  0.32662073  1
  H  H3  1  0.87405792  0.03224773  0.67337927  1
  H  H4  1  0.37405792  0.53224773  0.82662073  1
  H  H5  1  0.87405792  0.46775227  0.17337927  1
  H  H6  1  0.62594208  0.03224773  0.67337927  1
  H  H7  1  0.12594208  0.96775227  0.32662073  1
  H  H8  1  0.25000000  0.39441859  0.77526686  1
  H  H9  1  0.25000000  0.06629247  0.42699330  1
  H  H10  1  0.75000000  0.89441859  0.72473314  1
  H  H11  1  0.25000000  0.10558141  0.27526686  1
  H  H12  1  0.25000000  0.43370753  0.92699330  1
  H  H13  1  0.75000000  0.56629247  0.07300670  1
  H  H14  1  0.75000000  0.93370753  0.57300670  1
  H  H15  1  0.75000000  0.60558141  0.22473314  1
  N  N16  1  0.25000000  0.02668642  0.33835562  1
  N  N17  1  0.75000000  0.52668642  0.16164438  1
  N  N18  1  0.75000000  0.97331358  0.66164438  1
  N  N19  1  0.25000000  0.47331358  0.83835562  1
  I  I20  1  0.25000000  0.94655186  0.87479374  1
  I  I21  1  0.75000000  0.23405324  0.92182160  1
  I  I22  1  0.75000000  0.26594676  0.42182160  1
  I  I23  1  0.25000000  0.73405324  0.57817840  1
  I  I24  1  0.25000000  0.76594676  0.07817840  1
  I  I25  1  0.75000000  0.05344814  0.12520626  1
  I  I26  1  0.75000000  0.44655186  0.62520626  1
  I  I27  1  0.25000000  0.55344814  0.37479374  1
  I  I28  1  0.25000000  0.15124962  0.65848961  1
  I  I29  1  0.75000000  0.84875038  0.34151039  1
  I  I30  1  0.75000000  0.65124962  0.84151039  1
  I  I31  1  0.25000000  0.34875038  0.15848961  1
