# generated using pymatgen
data_ThP2O7
_symmetry_space_group_name_H-M   'P 1'
_cell_length_a   9.02677846
_cell_length_b   9.02677846
_cell_length_c   9.02677846
_cell_angle_alpha   90.00000000
_cell_angle_beta   90.00000000
_cell_angle_gamma   90.00000000
_symmetry_Int_Tables_number   1
_chemical_formula_structural   ThP2O7
_chemical_formula_sum   'Th4 P8 O28'
_cell_volume   735.52654630
_cell_formula_units_Z   4
loop_
 _symmetry_equiv_pos_site_id
 _symmetry_equiv_pos_as_xyz
  1  'x, y, z'
loop_
 _atom_site_type_symbol
 _atom_site_label
 _atom_site_symmetry_multiplicity
 _atom_site_fract_x
 _atom_site_fract_y
 _atom_site_fract_z
 _atom_site_occupancy
  O  O0  1  0.76160465  0.57062826  0.55601444  1
  O  O1  1  0.26160465  0.92937174  0.44398556  1
  O  O2  1  0.23839535  0.07062826  0.94398556  1
  O  O3  1  0.92937174  0.44398556  0.26160465  1
  O  O4  1  0.94398556  0.23839535  0.07062826  1
  O  O5  1  0.44398556  0.26160465  0.92937174  1
  O  O6  1  0.57062826  0.55601444  0.76160465  1
  O  O7  1  0.55601444  0.76160465  0.57062826  1
  O  O8  1  0.07062826  0.94398556  0.23839535  1
  O  O9  1  0.42937174  0.05601444  0.73839535  1
  O  O10  1  0.05601444  0.73839535  0.42937174  1
  O  O11  1  0.73839535  0.42937174  0.05601444  1
  O  O12  1  0.50000000  0.50000000  0.50000000  1
  O  O13  1  0.00000000  0.50000000  0.00000000  1
  O  O14  1  0.00000000  0.00000000  0.50000000  1
  O  O15  1  0.50000000  0.00000000  0.00000000  1
  O  O16  1  0.26160465  0.57062826  0.94398556  1
  O  O17  1  0.94398556  0.26160465  0.57062826  1
  O  O18  1  0.57062826  0.94398556  0.26160465  1
  O  O19  1  0.92937174  0.05601444  0.76160465  1
  O  O20  1  0.44398556  0.23839535  0.42937174  1
  O  O21  1  0.42937174  0.44398556  0.23839535  1
  O  O22  1  0.55601444  0.73839535  0.07062826  1
  O  O23  1  0.05601444  0.76160465  0.92937174  1
  O  O24  1  0.07062826  0.55601444  0.73839535  1
  O  O25  1  0.76160465  0.92937174  0.05601444  1
  O  O26  1  0.73839535  0.07062826  0.55601444  1
  O  O27  1  0.23839535  0.42937174  0.44398556  1
  P  P28  1  0.39851990  0.10148010  0.89851990  1
  P  P29  1  0.10148010  0.89851990  0.39851990  1
  P  P30  1  0.89851990  0.39851990  0.10148010  1
  P  P31  1  0.60148010  0.60148010  0.60148010  1
  P  P32  1  0.60148010  0.89851990  0.10148010  1
  P  P33  1  0.89851990  0.10148010  0.60148010  1
  P  P34  1  0.10148010  0.60148010  0.89851990  1
  P  P35  1  0.39851990  0.39851990  0.39851990  1
  Th  Th36  1  0.00000000  0.50000000  0.50000000  1
  Th  Th37  1  0.50000000  0.50000000  0.00000000  1
  Th  Th38  1  0.50000000  0.00000000  0.50000000  1
  Th  Th39  1  0.00000000  0.00000000  0.00000000  1
