# generated using pymatgen
data_BaCuN
_symmetry_space_group_name_H-M   'P 1'
_cell_length_a   5.61671007
_cell_length_b   7.80897605
_cell_length_c   9.56267001
_cell_angle_alpha   101.96085012
_cell_angle_beta   90.00000000
_cell_angle_gamma   111.07757681
_symmetry_Int_Tables_number   1
_chemical_formula_structural   BaCuN
_chemical_formula_sum   'Ba6 Cu6 N6'
_cell_volume   381.58892031
_cell_formula_units_Z   6
loop_
 _symmetry_equiv_pos_site_id
 _symmetry_equiv_pos_as_xyz
  1  'x, y, z'
loop_
 _atom_site_type_symbol
 _atom_site_label
 _atom_site_symmetry_multiplicity
 _atom_site_fract_x
 _atom_site_fract_y
 _atom_site_fract_z
 _atom_site_occupancy
  N  N0  1  0.00000000  0.00000000  0.50000000  1
  N  N1  1  0.00000000  0.00000000  0.00000000  1
  N  N2  1  0.38345683  0.68249374  0.60624664  1
  N  N3  1  0.70096309  0.31750626  0.89375336  1
  N  N4  1  0.61654317  0.31750626  0.39375336  1
  N  N5  1  0.29903691  0.68249374  0.10624664  1
  Cu  Cu6  1  0.15844493  0.85235109  0.05946929  1
  Cu  Cu7  1  0.30609385  0.14764891  0.44053071  1
  Cu  Cu8  1  0.84155507  0.14764891  0.94053071  1
  Cu  Cu9  1  0.69390615  0.85235109  0.55946929  1
  Cu  Cu10  1  0.00000000  0.50000000  0.00000000  1
  Cu  Cu11  1  0.50000000  0.50000000  0.50000000  1
  Ba  Ba12  1  0.28229328  0.00000000  0.75000000  1
  Ba  Ba13  1  0.71770672  0.00000000  0.25000000  1
  Ba  Ba14  1  0.59394066  0.66348370  0.87108353  1
  Ba  Ba15  1  0.93045696  0.33651630  0.62891647  1
  Ba  Ba16  1  0.40605934  0.33651630  0.12891647  1
  Ba  Ba17  1  0.06954304  0.66348370  0.37108353  1
