# generated using pymatgen
data_Na2SeO4
_symmetry_space_group_name_H-M   'P 1'
_cell_length_a   6.02957815
_cell_length_b   6.02957815
_cell_length_c   7.10570990
_cell_angle_alpha   102.96683238
_cell_angle_beta   102.96683244
_cell_angle_gamma   118.10773231
_symmetry_Int_Tables_number   1
_chemical_formula_structural   Na2SeO4
_chemical_formula_sum   'Na4 Se2 O8'
_cell_volume   205.02892529
_cell_formula_units_Z   2
loop_
 _symmetry_equiv_pos_site_id
 _symmetry_equiv_pos_as_xyz
  1  'x, y, z'
loop_
 _atom_site_type_symbol
 _atom_site_label
 _atom_site_symmetry_multiplicity
 _atom_site_fract_x
 _atom_site_fract_y
 _atom_site_fract_z
 _atom_site_occupancy
  O  O0  1  0.79922999  0.74536111  0.60501363  1
  O  O1  1  0.25463889  0.20077001  0.89498637  1
  O  O2  1  0.85965252  0.30578364  0.10501363  1
  O  O3  1  0.20077001  0.25463889  0.39498637  1
  O  O4  1  0.69421636  0.14034748  0.39498637  1
  O  O5  1  0.30578364  0.85965252  0.60501363  1
  O  O6  1  0.14034748  0.69421636  0.89498637  1
  O  O7  1  0.74536111  0.79922999  0.10501363  1
  Na  Na8  1  0.18990853  0.81009147  0.25000000  1
  Na  Na9  1  0.43990853  0.56009147  0.75000000  1
  Na  Na10  1  0.56009147  0.43990853  0.25000000  1
  Na  Na11  1  0.81009147  0.18990853  0.75000000  1
  Se  Se12  1  0.12500000  0.87500000  0.75000000  1
  Se  Se13  1  0.87500000  0.12500000  0.25000000  1
