# generated using pymatgen
data_BaB8O13
_symmetry_space_group_name_H-M   'P 1'
_cell_length_a   8.75519465
_cell_length_b   8.75519465
_cell_length_c   13.33318025
_cell_angle_alpha   90.00000000
_cell_angle_beta   90.00000000
_cell_angle_gamma   90.00000000
_symmetry_Int_Tables_number   1
_chemical_formula_structural   BaB8O13
_chemical_formula_sum   'Ba4 B32 O52'
_cell_volume   1022.03404376
_cell_formula_units_Z   4
loop_
 _symmetry_equiv_pos_site_id
 _symmetry_equiv_pos_as_xyz
  1  'x, y, z'
loop_
 _atom_site_type_symbol
 _atom_site_label
 _atom_site_symmetry_multiplicity
 _atom_site_fract_x
 _atom_site_fract_y
 _atom_site_fract_z
 _atom_site_occupancy
  B  B0  1  0.78138774  0.07024947  0.99804551  1
  B  B1  1  0.21861226  0.92975053  0.49804551  1
  B  B2  1  0.07024947  0.78138774  0.75195449  1
  B  B3  1  0.07024947  0.21861226  0.74804551  1
  B  B4  1  0.92975053  0.78138774  0.24804551  1
  B  B5  1  0.21861226  0.07024947  0.00195449  1
  B  B6  1  0.78138774  0.92975053  0.50195449  1
  B  B7  1  0.92975053  0.21861226  0.25195449  1
  B  B8  1  0.73752645  0.80696938  0.03321477  1
  B  B9  1  0.26247355  0.19303062  0.53321477  1
  B  B10  1  0.80696938  0.73752645  0.71678523  1
  B  B11  1  0.80696938  0.26247355  0.78321477  1
  B  B12  1  0.19303062  0.73752645  0.28321477  1
  B  B13  1  0.26247355  0.80696938  0.96678523  1
  B  B14  1  0.73752645  0.19303062  0.46678523  1
  B  B15  1  0.19303062  0.26247355  0.21678523  1
  B  B16  1  0.63285500  0.55714361  0.11008130  1
  B  B17  1  0.36714500  0.44285639  0.61008130  1
  B  B18  1  0.55714361  0.63285500  0.63991870  1
  B  B19  1  0.55714361  0.36714500  0.86008130  1
  B  B20  1  0.44285639  0.63285500  0.36008130  1
  B  B21  1  0.36714500  0.55714361  0.88991870  1
  B  B22  1  0.63285500  0.44285639  0.38991870  1
  B  B23  1  0.44285639  0.36714500  0.13991870  1
  B  B24  1  0.87036299  0.87036299  0.87500000  1
  B  B25  1  0.12963701  0.87036299  0.12500000  1
  B  B26  1  0.87036299  0.12963701  0.62500000  1
  B  B27  1  0.12963701  0.12963701  0.37500000  1
  B  B28  1  0.28205845  0.71794155  0.62500000  1
  B  B29  1  0.28205845  0.28205845  0.87500000  1
  B  B30  1  0.71794155  0.71794155  0.37500000  1
  B  B31  1  0.71794155  0.28205845  0.12500000  1
  O  O32  1  0.70034525  0.95963762  0.05249735  1
  O  O33  1  0.29965475  0.04036238  0.55249735  1
  O  O34  1  0.95963762  0.70034525  0.69750265  1
  O  O35  1  0.95963762  0.29965475  0.80249735  1
  O  O36  1  0.04036238  0.70034525  0.30249735  1
  O  O37  1  0.29965475  0.95963762  0.94750265  1
  O  O38  1  0.70034525  0.04036238  0.44750265  1
  O  O39  1  0.04036238  0.29965475  0.19750265  1
  O  O40  1  0.84927708  0.02924411  0.90987819  1
  O  O41  1  0.15072292  0.97075589  0.40987819  1
  O  O42  1  0.02924411  0.84927708  0.84012181  1
  O  O43  1  0.02924411  0.15072292  0.65987819  1
  O  O44  1  0.97075589  0.84927708  0.15987819  1
  O  O45  1  0.15072292  0.02924411  0.09012181  1
  O  O46  1  0.84927708  0.97075589  0.59012181  1
  O  O47  1  0.97075589  0.15072292  0.34012181  1
  O  O48  1  0.83333192  0.76094815  0.95861918  1
  O  O49  1  0.16666808  0.23905185  0.45861918  1
  O  O50  1  0.76094815  0.83333192  0.79138082  1
  O  O51  1  0.76094815  0.16666808  0.70861918  1
  O  O52  1  0.23905185  0.83333192  0.20861918  1
  O  O53  1  0.16666808  0.76094815  0.04138082  1
  O  O54  1  0.83333192  0.23905185  0.54138082  1
  O  O55  1  0.23905185  0.16666808  0.29138082  1
  O  O56  1  0.74689893  0.45076424  0.11714766  1
  O  O57  1  0.25310107  0.54923576  0.61714766  1
  O  O58  1  0.45076424  0.74689893  0.63285234  1
  O  O59  1  0.45076424  0.25310107  0.86714766  1
  O  O60  1  0.54923576  0.74689893  0.36714766  1
  O  O61  1  0.25310107  0.45076424  0.88285234  1
  O  O62  1  0.74689893  0.54923576  0.38285234  1
  O  O63  1  0.54923576  0.25310107  0.13285234  1
  O  O64  1  0.78633500  0.21729845  0.03348947  1
  O  O65  1  0.21366500  0.78270155  0.53348947  1
  O  O66  1  0.21729845  0.78633500  0.71651053  1
  O  O67  1  0.21729845  0.21366500  0.78348947  1
  O  O68  1  0.78270155  0.78633500  0.28348947  1
  O  O69  1  0.21366500  0.21729845  0.96651053  1
  O  O70  1  0.78633500  0.78270155  0.46651053  1
  O  O71  1  0.78270155  0.21366500  0.21651053  1
  O  O72  1  0.65680436  0.70832130  0.09274574  1
  O  O73  1  0.34319564  0.29167870  0.59274574  1
  O  O74  1  0.70832130  0.65680436  0.65725426  1
  O  O75  1  0.70832130  0.34319564  0.84274574  1
  O  O76  1  0.29167870  0.65680436  0.34274574  1
  O  O77  1  0.34319564  0.70832130  0.90725426  1
  O  O78  1  0.65680436  0.29167870  0.40725426  1
  O  O79  1  0.29167870  0.34319564  0.15725426  1
  O  O80  1  0.51818594  0.48181406  0.62500000  1
  O  O81  1  0.51818594  0.51818594  0.87500000  1
  O  O82  1  0.48181406  0.48181406  0.37500000  1
  O  O83  1  0.48181406  0.51818594  0.12500000  1
  Ba  Ba84  1  0.00000000  0.53927691  0.50000000  1
  Ba  Ba85  1  0.46072309  0.00000000  0.75000000  1
  Ba  Ba86  1  0.53927691  0.00000000  0.25000000  1
  Ba  Ba87  1  0.00000000  0.46072309  0.00000000  1
