# generated using pymatgen
data_Ba3(PO4)2
_symmetry_space_group_name_H-M   'P 1'
_cell_length_a   7.84418869
_cell_length_b   7.84418870
_cell_length_c   7.84418869
_cell_angle_alpha   42.52358841
_cell_angle_beta   42.52358839
_cell_angle_gamma   42.52358838
_symmetry_Int_Tables_number   1
_chemical_formula_structural   Ba3(PO4)2
_chemical_formula_sum   'Ba3 P2 O8'
_cell_volume   199.66455088
_cell_formula_units_Z   1
loop_
 _symmetry_equiv_pos_site_id
 _symmetry_equiv_pos_as_xyz
  1  'x, y, z'
loop_
 _atom_site_type_symbol
 _atom_site_label
 _atom_site_symmetry_multiplicity
 _atom_site_fract_x
 _atom_site_fract_y
 _atom_site_fract_z
 _atom_site_occupancy
  O  O0  1  0.28265307  0.28265307  0.73146782  1
  O  O1  1  0.28265307  0.73146782  0.28265307  1
  O  O2  1  0.73146782  0.28265307  0.28265307  1
  O  O3  1  0.26853218  0.71734693  0.71734693  1
  O  O4  1  0.71734693  0.71734693  0.26853218  1
  O  O5  1  0.66513246  0.66513246  0.66513246  1
  O  O6  1  0.33486754  0.33486754  0.33486754  1
  O  O7  1  0.71734693  0.26853218  0.71734693  1
  P  P8  1  0.40737264  0.40737264  0.40737264  1
  P  P9  1  0.59262736  0.59262736  0.59262736  1
  Ba  Ba10  1  0.21012255  0.21012255  0.21012255  1
  Ba  Ba11  1  0.78987745  0.78987745  0.78987745  1
  Ba  Ba12  1  0.00000000  0.00000000  0.00000000  1
