# generated using pymatgen
data_TiTe3O8
_symmetry_space_group_name_H-M   'P 1'
_cell_length_a   9.72208116
_cell_length_b   9.72208116
_cell_length_c   9.72208116
_cell_angle_alpha   109.47122063
_cell_angle_beta   109.47122064
_cell_angle_gamma   109.47122063
_symmetry_Int_Tables_number   1
_chemical_formula_structural   TiTe3O8
_chemical_formula_sum   'Ti4 Te12 O32'
_cell_volume   707.38498326
_cell_formula_units_Z   4
loop_
 _symmetry_equiv_pos_site_id
 _symmetry_equiv_pos_as_xyz
  1  'x, y, z'
loop_
 _atom_site_type_symbol
 _atom_site_label
 _atom_site_symmetry_multiplicity
 _atom_site_fract_x
 _atom_site_fract_y
 _atom_site_fract_z
 _atom_site_occupancy
  O  O0  1  0.84364021  0.50000000  0.00000000  1
  O  O1  1  0.50000000  0.00000000  0.84364021  1
  O  O2  1  0.00000000  0.84364021  0.50000000  1
  O  O3  1  0.65635979  0.65635979  0.65635979  1
  O  O4  1  0.15635979  0.50000000  0.00000000  1
  O  O5  1  0.50000000  0.00000000  0.15635979  1
  O  O6  1  0.00000000  0.15635979  0.50000000  1
  O  O7  1  0.34364021  0.34364021  0.34364021  1
  O  O8  1  0.03774309  0.46542496  0.69564449  1
  O  O9  1  0.26978047  0.34209860  0.80435551  1
  O  O10  1  0.23021953  0.03457504  0.07231814  1
  O  O11  1  0.15790140  0.42768186  0.46225691  1
  O  O12  1  0.42768186  0.46225691  0.15790140  1
  O  O13  1  0.69564449  0.03774309  0.46542496  1
  O  O14  1  0.34209860  0.80435551  0.26978047  1
  O  O15  1  0.07231814  0.23021953  0.03457504  1
  O  O16  1  0.53774309  0.84209860  0.57231814  1
  O  O17  1  0.96542496  0.92768186  0.76978047  1
  O  O18  1  0.19564449  0.73021953  0.65790140  1
  O  O19  1  0.53457504  0.30435551  0.96225691  1
  O  O20  1  0.92768186  0.76978047  0.96542496  1
  O  O21  1  0.65790140  0.19564449  0.73021953  1
  O  O22  1  0.30435551  0.96225691  0.53457504  1
  O  O23  1  0.57231814  0.53774309  0.84209860  1
  O  O24  1  0.84209860  0.57231814  0.53774309  1
  O  O25  1  0.76978047  0.96542496  0.92768186  1
  O  O26  1  0.73021953  0.65790140  0.19564449  1
  O  O27  1  0.96225691  0.53457504  0.30435551  1
  O  O28  1  0.46225691  0.15790140  0.42768186  1
  O  O29  1  0.03457504  0.07231814  0.23021953  1
  O  O30  1  0.80435551  0.26978047  0.34209860  1
  O  O31  1  0.46542496  0.69564449  0.03774309  1
  Ti  Ti32  1  0.00000000  0.00000000  0.00000000  1
  Ti  Ti33  1  0.00000000  0.50000000  0.50000000  1
  Ti  Ti34  1  0.50000000  0.00000000  0.50000000  1
  Ti  Ti35  1  0.50000000  0.50000000  0.00000000  1
  Te  Te36  1  0.95396448  0.70396448  0.25000000  1
  Te  Te37  1  0.75000000  0.54603552  0.79603552  1
  Te  Te38  1  0.75000000  0.04603552  0.29603552  1
  Te  Te39  1  0.20396448  0.25000000  0.45396448  1
  Te  Te40  1  0.45396448  0.20396448  0.25000000  1
  Te  Te41  1  0.29603552  0.75000000  0.04603552  1
  Te  Te42  1  0.04603552  0.29603552  0.75000000  1
  Te  Te43  1  0.25000000  0.45396448  0.20396448  1
  Te  Te44  1  0.70396448  0.25000000  0.95396448  1
  Te  Te45  1  0.54603552  0.79603552  0.75000000  1
  Te  Te46  1  0.79603552  0.75000000  0.54603552  1
  Te  Te47  1  0.25000000  0.95396448  0.70396448  1
