# generated using pymatgen
data_CaZr(PO4)2
_symmetry_space_group_name_H-M   'P 1'
_cell_length_a   6.31303001
_cell_length_b   6.80786571
_cell_length_c   14.80569477
_cell_angle_alpha   90.00000000
_cell_angle_beta   90.00000000
_cell_angle_gamma   90.00000000
_symmetry_Int_Tables_number   1
_chemical_formula_structural   CaZr(PO4)2
_chemical_formula_sum   'Ca4 Zr4 P8 O32'
_cell_volume   636.32300717
_cell_formula_units_Z   4
loop_
 _symmetry_equiv_pos_site_id
 _symmetry_equiv_pos_as_xyz
  1  'x, y, z'
loop_
 _atom_site_type_symbol
 _atom_site_label
 _atom_site_symmetry_multiplicity
 _atom_site_fract_x
 _atom_site_fract_y
 _atom_site_fract_z
 _atom_site_occupancy
  Ca  Ca0  1  0.80256131  0.00057445  0.15046233  1
  Ca  Ca1  1  0.30256131  0.99942555  0.34953767  1
  Ca  Ca2  1  0.19743869  0.49942555  0.65046233  1
  Ca  Ca3  1  0.69743869  0.50057445  0.84953767  1
  Zr  Zr4  1  0.42560970  0.00064074  0.89088888  1
  Zr  Zr5  1  0.07439030  0.50064074  0.10911112  1
  Zr  Zr6  1  0.92560970  0.99935926  0.60911112  1
  Zr  Zr7  1  0.57439030  0.49935926  0.39088888  1
  P  P8  1  0.38117119  0.99945711  0.64829394  1
  P  P9  1  0.11882881  0.49945711  0.35170606  1
  P  P10  1  0.29130461  0.00111787  0.11555551  1
  P  P11  1  0.61882881  0.50054289  0.14829394  1
  P  P12  1  0.79130461  0.99888213  0.38444449  1
  P  P13  1  0.88117119  0.00054289  0.85170606  1
  P  P14  1  0.20869539  0.50111787  0.88444449  1
  P  P15  1  0.70869539  0.49888213  0.61555551  1
  O  O16  1  0.63992561  0.17947565  0.38674555  1
  O  O17  1  0.09158023  0.00007304  0.90224874  1
  O  O18  1  0.59158023  0.99992696  0.59775126  1
  O  O19  1  0.13851050  0.18055136  0.11241342  1
  O  O20  1  0.86148950  0.31944864  0.61241342  1
  O  O21  1  0.63851050  0.81944864  0.38758658  1
  O  O22  1  0.41873959  0.99915882  0.75103279  1
  O  O23  1  0.36007439  0.32052435  0.88674555  1
  O  O24  1  0.76590721  0.32752511  0.12012659  1
  O  O25  1  0.13992561  0.82052435  0.11325445  1
  O  O26  1  0.40841977  0.50007304  0.09775126  1
  O  O27  1  0.44532524  0.00095886  0.03282118  1
  O  O28  1  0.43112462  0.00243640  0.20083501  1
  O  O29  1  0.90841977  0.49992696  0.40224874  1
  O  O30  1  0.26590721  0.67247489  0.37987341  1
  O  O31  1  0.91873959  0.00084118  0.74896721  1
  O  O32  1  0.26560872  0.32625968  0.38006751  1
  O  O33  1  0.08126041  0.49915882  0.24896721  1
  O  O34  1  0.94532524  0.99904114  0.46717882  1
  O  O35  1  0.05467476  0.50095886  0.96717882  1
  O  O36  1  0.23439128  0.82625968  0.61993249  1
  O  O37  1  0.73409279  0.82752511  0.87987341  1
  O  O38  1  0.76560872  0.67374032  0.11993249  1
  O  O39  1  0.56887538  0.49756360  0.70083501  1
  O  O40  1  0.93112462  0.99756360  0.29916499  1
  O  O41  1  0.23409279  0.17247489  0.62012659  1
  O  O42  1  0.58126041  0.50084118  0.25103279  1
  O  O43  1  0.86007439  0.67947565  0.61325445  1
  O  O44  1  0.73439128  0.17374032  0.88006751  1
  O  O45  1  0.06887538  0.50243640  0.79916499  1
  O  O46  1  0.55467476  0.49904114  0.53282118  1
  O  O47  1  0.36148950  0.68055136  0.88758658  1
