# generated using pymatgen
data_DyB4
_symmetry_space_group_name_H-M   'P 1'
_cell_length_a   4.01929206
_cell_length_b   7.10183756
_cell_length_c   7.10183756
_cell_angle_alpha   90.00000000
_cell_angle_beta   90.00000000
_cell_angle_gamma   90.00000000
_symmetry_Int_Tables_number   1
_chemical_formula_structural   DyB4
_chemical_formula_sum   'Dy4 B16'
_cell_volume   202.71740312
_cell_formula_units_Z   4
loop_
 _symmetry_equiv_pos_site_id
 _symmetry_equiv_pos_as_xyz
  1  'x, y, z'
loop_
 _atom_site_type_symbol
 _atom_site_label
 _atom_site_symmetry_multiplicity
 _atom_site_fract_x
 _atom_site_fract_y
 _atom_site_fract_z
 _atom_site_occupancy
  B  B0  1  0.50000000  0.46126753  0.32390867  1
  B  B1  1  0.50000000  0.53873247  0.67609133  1
  B  B2  1  0.50000000  0.32390867  0.53873247  1
  B  B3  1  0.50000000  0.67609133  0.46126753  1
  B  B4  1  0.20300189  0.00000000  0.00000000  1
  B  B5  1  0.79699811  0.50000000  0.50000000  1
  B  B6  1  0.79699811  0.00000000  0.00000000  1
  B  B7  1  0.20300189  0.50000000  0.50000000  1
  B  B8  1  0.50000000  0.08709674  0.58709674  1
  B  B9  1  0.50000000  0.41290326  0.08709674  1
  B  B10  1  0.50000000  0.58709674  0.91290326  1
  B  B11  1  0.50000000  0.91290326  0.41290326  1
  B  B12  1  0.50000000  0.17609133  0.03873247  1
  B  B13  1  0.50000000  0.96126753  0.17609133  1
  B  B14  1  0.50000000  0.03873247  0.82390867  1
  B  B15  1  0.50000000  0.82390867  0.96126753  1
  Dy  Dy16  1  0.00000000  0.68225268  0.18225268  1
  Dy  Dy17  1  0.00000000  0.81774732  0.68225268  1
  Dy  Dy18  1  0.00000000  0.18225268  0.31774732  1
  Dy  Dy19  1  0.00000000  0.31774732  0.81774732  1
