# generated using pymatgen
data_AlTlF4
_symmetry_space_group_name_H-M   'P 1'
_cell_length_a   5.17264355
_cell_length_b   5.20513247
_cell_length_c   7.42035646
_cell_angle_alpha   110.16348883
_cell_angle_beta   110.39829424
_cell_angle_gamma   90.00000001
_symmetry_Int_Tables_number   1
_chemical_formula_structural   AlTlF4
_chemical_formula_sum   'Al2 Tl2 F8'
_cell_volume   174.13650994
_cell_formula_units_Z   2
loop_
 _symmetry_equiv_pos_site_id
 _symmetry_equiv_pos_as_xyz
  1  'x, y, z'
loop_
 _atom_site_type_symbol
 _atom_site_label
 _atom_site_symmetry_multiplicity
 _atom_site_fract_x
 _atom_site_fract_y
 _atom_site_fract_z
 _atom_site_occupancy
  F  F0  1  0.69283447  0.64012271  0.27318255  1
  F  F1  1  0.91965192  0.85987729  0.72681745  1
  F  F2  1  0.30716553  0.35987729  0.72681745  1
  F  F3  1  0.08034808  0.14012271  0.27318255  1
  F  F4  1  0.24243923  0.74270749  0.03745166  1
  F  F5  1  0.70498757  0.75729251  0.96254834  1
  F  F6  1  0.75756077  0.25729251  0.96254834  1
  F  F7  1  0.29501243  0.24270749  0.03745166  1
  Al  Al8  1  0.50000000  0.50000000  0.00000000  1
  Al  Al9  1  0.00000000  0.00000000  0.00000000  1
  Tl  Tl10  1  0.74338452  0.25000000  0.50000000  1
  Tl  Tl11  1  0.25661548  0.75000000  0.50000000  1
