# generated using pymatgen
data_SrCO3
_symmetry_space_group_name_H-M   'P 1'
_cell_length_a   5.16318577
_cell_length_b   6.13691090
_cell_length_c   8.51126874
_cell_angle_alpha   90.00000000
_cell_angle_beta   90.00000000
_cell_angle_gamma   90.00000000
_symmetry_Int_Tables_number   1
_chemical_formula_structural   SrCO3
_chemical_formula_sum   'Sr4 C4 O12'
_cell_volume   269.68815518
_cell_formula_units_Z   4
loop_
 _symmetry_equiv_pos_site_id
 _symmetry_equiv_pos_as_xyz
  1  'x, y, z'
loop_
 _atom_site_type_symbol
 _atom_site_label
 _atom_site_symmetry_multiplicity
 _atom_site_fract_x
 _atom_site_fract_y
 _atom_site_fract_z
 _atom_site_occupancy
  C  C0  1  0.25000000  0.91718275  0.25821948  1
  C  C1  1  0.75000000  0.08281725  0.74178052  1
  C  C2  1  0.25000000  0.41718275  0.24178052  1
  C  C3  1  0.75000000  0.58281725  0.75821948  1
  O  O4  1  0.46804524  0.41598395  0.31856616  1
  O  O5  1  0.96804524  0.58401605  0.68143384  1
  O  O6  1  0.03195476  0.91598395  0.18143384  1
  O  O7  1  0.53195476  0.08401605  0.81856616  1
  O  O8  1  0.75000000  0.59144406  0.91062652  1
  O  O9  1  0.25000000  0.40855594  0.08937348  1
  O  O10  1  0.75000000  0.09144406  0.58937348  1
  O  O11  1  0.25000000  0.90855594  0.41062652  1
  O  O12  1  0.53195476  0.58401605  0.68143384  1
  O  O13  1  0.03195476  0.41598395  0.31856616  1
  O  O14  1  0.96804524  0.08401605  0.81856616  1
  O  O15  1  0.46804524  0.91598395  0.18143384  1
  Sr  Sr16  1  0.25000000  0.75612557  0.91613358  1
  Sr  Sr17  1  0.75000000  0.24387443  0.08386642  1
  Sr  Sr18  1  0.25000000  0.25612557  0.58386642  1
  Sr  Sr19  1  0.75000000  0.74387443  0.41613358  1
