# generated using pymatgen
data_Na2PdCl4
_symmetry_space_group_name_H-M   'P 1'
_cell_length_a   7.68433072
_cell_length_b   9.69582317
_cell_length_c   9.69582317
_cell_angle_alpha   90.00000000
_cell_angle_beta   90.00000000
_cell_angle_gamma   90.00000000
_symmetry_Int_Tables_number   1
_chemical_formula_structural   Na2PdCl4
_chemical_formula_sum   'Na8 Pd4 Cl16'
_cell_volume   722.39614633
_cell_formula_units_Z   4
loop_
 _symmetry_equiv_pos_site_id
 _symmetry_equiv_pos_as_xyz
  1  'x, y, z'
loop_
 _atom_site_type_symbol
 _atom_site_label
 _atom_site_symmetry_multiplicity
 _atom_site_fract_x
 _atom_site_fract_y
 _atom_site_fract_z
 _atom_site_occupancy
  Na  Na0  1  0.25000000  0.94395058  0.05604942  1
  Na  Na1  1  0.25000000  0.44395058  0.94395058  1
  Na  Na2  1  0.25000000  0.05604942  0.55604942  1
  Na  Na3  1  0.25000000  0.55604942  0.44395058  1
  Na  Na4  1  0.75000000  0.05604942  0.94395058  1
  Na  Na5  1  0.75000000  0.55604942  0.05604942  1
  Na  Na6  1  0.75000000  0.94395058  0.44395058  1
  Na  Na7  1  0.75000000  0.44395058  0.55604942  1
  Cl  Cl8  1  0.56888352  0.01511786  0.19574012  1
  Cl  Cl9  1  0.56888352  0.30425988  0.01511786  1
  Cl  Cl10  1  0.56888352  0.19574012  0.48488214  1
  Cl  Cl11  1  0.06888352  0.30425988  0.48488214  1
  Cl  Cl12  1  0.06888352  0.01511786  0.30425988  1
  Cl  Cl13  1  0.06888352  0.19574012  0.01511786  1
  Cl  Cl14  1  0.43111648  0.80425988  0.51511786  1
  Cl  Cl15  1  0.06888352  0.48488214  0.19574012  1
  Cl  Cl16  1  0.43111648  0.51511786  0.69574012  1
  Cl  Cl17  1  0.43111648  0.98488214  0.80425988  1
  Cl  Cl18  1  0.93111648  0.51511786  0.80425988  1
  Cl  Cl19  1  0.43111648  0.69574012  0.98488214  1
  Cl  Cl20  1  0.93111648  0.98488214  0.69574012  1
  Cl  Cl21  1  0.93111648  0.80425988  0.98488214  1
  Cl  Cl22  1  0.93111648  0.69574012  0.51511786  1
  Cl  Cl23  1  0.56888352  0.48488214  0.30425988  1
  Pd  Pd24  1  0.06484898  0.25000000  0.25000000  1
  Pd  Pd25  1  0.56484898  0.25000000  0.25000000  1
  Pd  Pd26  1  0.93515102  0.75000000  0.75000000  1
  Pd  Pd27  1  0.43515102  0.75000000  0.75000000  1
