# generated using pymatgen
data_NdSi2Ni
_symmetry_space_group_name_H-M   'P 1'
_cell_length_a   4.06843960
_cell_length_b   4.14590956
_cell_length_c   8.47093022
_cell_angle_alpha   104.16492969
_cell_angle_beta   90.00000000
_cell_angle_gamma   90.00000000
_symmetry_Int_Tables_number   1
_chemical_formula_structural   NdSi2Ni
_chemical_formula_sum   'Nd2 Si4 Ni2'
_cell_volume   138.53812671
_cell_formula_units_Z   2
loop_
 _symmetry_equiv_pos_site_id
 _symmetry_equiv_pos_as_xyz
  1  'x, y, z'
loop_
 _atom_site_type_symbol
 _atom_site_label
 _atom_site_symmetry_multiplicity
 _atom_site_fract_x
 _atom_site_fract_y
 _atom_site_fract_z
 _atom_site_occupancy
  Si  Si0  1  0.25000000  0.24999414  0.49998829  1
  Si  Si1  1  0.75000000  0.75000586  0.50001171  1
  Si  Si2  1  0.75000000  0.45945319  0.91890638  1
  Si  Si3  1  0.25000000  0.54054681  0.08109362  1
  Ni  Ni4  1  0.75000000  0.31879667  0.63759334  1
  Ni  Ni5  1  0.25000000  0.68120333  0.36240666  1
  Nd  Nd6  1  0.25000000  0.89343206  0.78686412  1
  Nd  Nd7  1  0.75000000  0.10656794  0.21313588  1
