# generated using pymatgen
data_ZnSO4
_symmetry_space_group_name_H-M   'P 1'
_cell_length_a   4.84577816
_cell_length_b   6.83478826
_cell_length_c   8.69936078
_cell_angle_alpha   90.00000000
_cell_angle_beta   90.00000000
_cell_angle_gamma   90.00000000
_symmetry_Int_Tables_number   1
_chemical_formula_structural   ZnSO4
_chemical_formula_sum   'Zn4 S4 O16'
_cell_volume   288.12167792
_cell_formula_units_Z   4
loop_
 _symmetry_equiv_pos_site_id
 _symmetry_equiv_pos_as_xyz
  1  'x, y, z'
loop_
 _atom_site_type_symbol
 _atom_site_label
 _atom_site_symmetry_multiplicity
 _atom_site_fract_x
 _atom_site_fract_y
 _atom_site_fract_z
 _atom_site_occupancy
  O  O0  1  0.16971062  0.43093878  0.62541807  1
  O  O1  1  0.66971062  0.56906122  0.87458193  1
  O  O2  1  0.83028938  0.93093878  0.37458193  1
  O  O3  1  0.33028938  0.06906122  0.12541807  1
  O  O4  1  0.83028938  0.56906122  0.37458193  1
  O  O5  1  0.33028938  0.43093878  0.12541807  1
  O  O6  1  0.16971062  0.06906122  0.62541807  1
  O  O7  1  0.66971062  0.93093878  0.87458193  1
  O  O8  1  0.23976414  0.75000000  0.87579297  1
  O  O9  1  0.73976414  0.25000000  0.62420703  1
  O  O10  1  0.76023586  0.25000000  0.12420703  1
  O  O11  1  0.26023586  0.75000000  0.37579297  1
  O  O12  1  0.54618008  0.75000000  0.64785512  1
  O  O13  1  0.04618008  0.25000000  0.85214488  1
  O  O14  1  0.45381992  0.25000000  0.35214488  1
  O  O15  1  0.95381992  0.75000000  0.14785512  1
  S  S16  1  0.96761881  0.75000000  0.32230793  1
  S  S17  1  0.46761881  0.25000000  0.17769207  1
  S  S18  1  0.03238119  0.25000000  0.67769207  1
  S  S19  1  0.53238119  0.75000000  0.82230793  1
  Zn  Zn20  1  0.50000000  0.50000000  0.50000000  1
  Zn  Zn21  1  0.00000000  0.50000000  0.00000000  1
  Zn  Zn22  1  0.50000000  0.00000000  0.50000000  1
  Zn  Zn23  1  0.00000000  0.00000000  0.00000000  1
