# generated using pymatgen
data_ErZn12
_symmetry_space_group_name_H-M   'P 1'
_cell_length_a   5.18498622
_cell_length_b   6.80095796
_cell_length_c   6.80095796
_cell_angle_alpha   81.64477796
_cell_angle_beta   67.59225902
_cell_angle_gamma   67.59225898
_symmetry_Int_Tables_number   1
_chemical_formula_structural   ErZn12
_chemical_formula_sum   'Er1 Zn12'
_cell_volume   204.97292019
_cell_formula_units_Z   1
loop_
 _symmetry_equiv_pos_site_id
 _symmetry_equiv_pos_as_xyz
  1  'x, y, z'
loop_
 _atom_site_type_symbol
 _atom_site_label
 _atom_site_symmetry_multiplicity
 _atom_site_fract_x
 _atom_site_fract_y
 _atom_site_fract_z
 _atom_site_occupancy
  Zn  Zn0  1  0.71547447  0.78452553  0.78452553  1
  Zn  Zn1  1  0.50000000  0.00000000  0.50000000  1
  Zn  Zn2  1  0.00000000  0.50000000  0.00000000  1
  Zn  Zn3  1  0.50000000  0.50000000  0.00000000  1
  Zn  Zn4  1  0.00000000  0.00000000  0.50000000  1
  Zn  Zn5  1  0.35387107  0.64612893  0.64612893  1
  Zn  Zn6  1  0.00000000  0.35387107  0.64612893  1
  Zn  Zn7  1  0.00000000  0.64612893  0.35387107  1
  Zn  Zn8  1  0.64612893  0.35387107  0.35387107  1
  Zn  Zn9  1  0.28452553  0.21547447  0.21547447  1
  Zn  Zn10  1  0.50000000  0.78452553  0.21547447  1
  Zn  Zn11  1  0.50000000  0.21547447  0.78452553  1
  Er  Er12  1  0.00000000  0.00000000  0.00000000  1
