# generated using pymatgen
data_CdH4(BrO4)2
_symmetry_space_group_name_H-M   'P 1'
_cell_length_a   6.65742284
_cell_length_b   9.44619541
_cell_length_c   12.51490248
_cell_angle_alpha   90.00000000
_cell_angle_beta   90.00000000
_cell_angle_gamma   90.00000000
_symmetry_Int_Tables_number   1
_chemical_formula_structural   CdH4(BrO4)2
_chemical_formula_sum   'Cd4 H16 Br8 O32'
_cell_volume   787.02864041
_cell_formula_units_Z   4
loop_
 _symmetry_equiv_pos_site_id
 _symmetry_equiv_pos_as_xyz
  1  'x, y, z'
loop_
 _atom_site_type_symbol
 _atom_site_label
 _atom_site_symmetry_multiplicity
 _atom_site_fract_x
 _atom_site_fract_y
 _atom_site_fract_z
 _atom_site_occupancy
  Cd  Cd0  1  0.47267970  0.45170435  0.78853816  1
  Cd  Cd1  1  0.97267970  0.04829565  0.21146184  1
  Cd  Cd2  1  0.52732030  0.95170435  0.71146184  1
  Cd  Cd3  1  0.02732030  0.54829565  0.28853816  1
  H  H4  1  0.37177120  0.06652743  0.13577999  1
  H  H5  1  0.87177120  0.43347257  0.86422001  1
  H  H6  1  0.62822880  0.56652743  0.36422001  1
  H  H7  1  0.12822880  0.93347257  0.63577999  1
  H  H8  1  0.28445869  0.93748414  0.07144581  1
  H  H9  1  0.78445869  0.56251586  0.92855419  1
  H  H10  1  0.71554131  0.43748414  0.42855419  1
  H  H11  1  0.21554131  0.06251586  0.57144581  1
  H  H12  1  0.68660243  0.00665418  0.92441107  1
  H  H13  1  0.81339757  0.99334582  0.42441107  1
  H  H14  1  0.31339757  0.50665418  0.57558893  1
  H  H15  1  0.18660243  0.49334582  0.07558893  1
  H  H16  1  0.30470724  0.61278495  0.12994118  1
  H  H17  1  0.69529276  0.11278495  0.37005882  1
  H  H18  1  0.80470724  0.88721505  0.87005882  1
  H  H19  1  0.19529276  0.38721505  0.62994118  1
  Br  Br20  1  0.17654215  0.17230144  0.88403474  1
  Br  Br21  1  0.67654215  0.32769856  0.11596526  1
  Br  Br22  1  0.82345785  0.67230144  0.61596526  1
  Br  Br23  1  0.32345785  0.82769856  0.38403474  1
  Br  Br24  1  0.24528237  0.72744341  0.89566557  1
  Br  Br25  1  0.74528237  0.77255659  0.10433443  1
  Br  Br26  1  0.75471763  0.22744341  0.60433443  1
  Br  Br27  1  0.25471763  0.27255659  0.39566557  1
  O  O28  1  0.93717811  0.76943653  0.19428414  1
  O  O29  1  0.65403823  0.27129853  0.48471968  1
  O  O30  1  0.84596177  0.72870147  0.98471968  1
  O  O31  1  0.34596177  0.77129853  0.01528032  1
  O  O32  1  0.56282189  0.23056347  0.69428414  1
  O  O33  1  0.06282189  0.26943653  0.30571586  1
  O  O34  1  0.43717811  0.73056347  0.80571586  1
  O  O35  1  0.15403823  0.22870147  0.51528032  1
  O  O36  1  0.43345908  0.73535997  0.28590546  1
  O  O37  1  0.93345908  0.76464003  0.71409454  1
  O  O38  1  0.56654092  0.23535997  0.21409454  1
  O  O39  1  0.06654092  0.26464003  0.78590546  1
  O  O40  1  0.73969927  0.51716721  0.66902404  1
  O  O41  1  0.23969927  0.98283279  0.33097596  1
  O  O42  1  0.21630577  0.54950045  0.90402291  1
  O  O43  1  0.76030073  0.48283279  0.16902404  1
  O  O44  1  0.11162387  0.73349983  0.40968151  1
  O  O45  1  0.61162387  0.76650017  0.59031849  1
  O  O46  1  0.88837613  0.23349983  0.09031849  1
  O  O47  1  0.38837613  0.26650017  0.90968151  1
  O  O48  1  0.24660340  0.51916018  0.14440728  1
  O  O49  1  0.74660340  0.98083982  0.85559272  1
  O  O50  1  0.75339660  0.01916018  0.35559272  1
  O  O51  1  0.25339660  0.48083982  0.64440728  1
  O  O52  1  0.74901265  0.53389815  0.40227849  1
  O  O53  1  0.24901265  0.96610185  0.59772151  1
  O  O54  1  0.25098735  0.03389815  0.09772151  1
  O  O55  1  0.75098735  0.46610185  0.90227849  1
  O  O56  1  0.71630577  0.95049955  0.09597709  1
  O  O57  1  0.26030073  0.01716721  0.83097596  1
  O  O58  1  0.28369423  0.45049955  0.40402291  1
  O  O59  1  0.78369423  0.04950045  0.59597709  1
