# generated using pymatgen
data_Na3(WO3)10
_symmetry_space_group_name_H-M   'P 1'
_cell_length_a   19.44998577
_cell_length_b   8.69902855
_cell_length_c   5.50430136
_cell_angle_alpha   50.74677095
_cell_angle_beta   90.00000000
_cell_angle_gamma   63.42327973
_symmetry_Int_Tables_number   1
_chemical_formula_structural   Na3(WO3)10
_chemical_formula_sum   'Na3 W10 O30'
_cell_volume   588.61596996
_cell_formula_units_Z   1
loop_
 _symmetry_equiv_pos_site_id
 _symmetry_equiv_pos_as_xyz
  1  'x, y, z'
loop_
 _atom_site_type_symbol
 _atom_site_label
 _atom_site_symmetry_multiplicity
 _atom_site_fract_x
 _atom_site_fract_y
 _atom_site_fract_z
 _atom_site_occupancy
  Na  Na0  1  0.00000000  0.00000000  0.00000000  1
  Na  Na1  1  0.30012178  0.49987453  0.00012547  1
  Na  Na2  1  0.69987822  0.50012547  0.99987453  1
  W  W3  1  0.10031495  0.00347443  0.49652557  1
  W  W4  1  0.00000000  0.50000000  0.50000000  1
  W  W5  1  0.30146915  0.99618769  0.50381231  1
  W  W6  1  0.20086937  0.49478480  0.50521520  1
  W  W7  1  0.50000000  0.00000000  0.50000000  1
  W  W8  1  0.40177025  0.49831402  0.50168598  1
  W  W9  1  0.69853085  0.00381231  0.49618769  1
  W  W10  1  0.59822975  0.50168598  0.49831402  1
  W  W11  1  0.89968505  0.99652557  0.50347443  1
  W  W12  1  0.79913063  0.50521520  0.49478480  1
  O  O13  1  0.04951668  0.24792223  -0.00007776  1
  O  O14  1  0.04951668  0.24792223  0.50423330  1
  O  O15  1  0.09889076  0.50440872  0.49559128  1
  O  O16  1  0.00000000  0.00000000  0.50000000  1
  O  O17  1  0.25032883  0.25220629  0.00003272  1
  O  O18  1  0.14987918  0.75013110  0.49970040  1
  O  O19  1  0.25032883  0.25220629  0.49555471  1
  O  O20  1  0.14987918  0.75013110  0.00003739  1
  O  O21  1  0.20064189  0.99613448  0.50386552  1
  O  O22  1  0.29963149  0.49998981  0.50001019  1
  O  O23  1  0.34947208  0.74824253  0.50409954  1
  O  O24  1  0.44872877  0.25216458  0.00015716  1
  O  O25  1  0.34947208  0.74824253  0.99941539  1
  O  O26  1  0.44872877  0.25216458  0.49551368  1
  O  O27  1  0.39888836  0.00468505  0.49531495  1
  O  O28  1  0.50000000  0.50000000  0.50000000  1
  O  O29  1  0.65052792  0.25175747  0.49590046  1
  O  O30  1  0.55127123  0.74783542  -0.00015716  1
  O  O31  1  0.55127123  0.74783542  0.50448632  1
  O  O32  1  0.65052792  0.25175747  0.00058461  1
  O  O33  1  0.70036851  0.50001019  0.49998981  1
  O  O34  1  0.60111164  0.99531495  0.50468505  1
  O  O35  1  0.85012082  0.24986890  0.50029960  1
  O  O36  1  0.85012082  0.24986890  -0.00003739  1
  O  O37  1  0.74967117  0.74779371  -0.00003272  1
  O  O38  1  0.74967117  0.74779371  0.50444529  1
  O  O39  1  0.90110924  0.49559128  0.50440872  1
  O  O40  1  0.79935811  0.00386552  0.49613448  1
  O  O41  1  0.95048332  0.75207777  0.00007776  1
  O  O42  1  0.95048332  0.75207777  0.49576670  1
