# generated using pymatgen
data_BaNi9P5
_symmetry_space_group_name_H-M   'P 1'
_cell_length_a   6.52187189
_cell_length_b   6.52187189
_cell_length_c   10.87539445
_cell_angle_alpha   90.00000000
_cell_angle_beta   90.00000000
_cell_angle_gamma   119.99999995
_symmetry_Int_Tables_number   1
_chemical_formula_structural   BaNi9P5
_chemical_formula_sum   'Ba2 Ni18 P10'
_cell_volume   400.60851585
_cell_formula_units_Z   2
loop_
 _symmetry_equiv_pos_site_id
 _symmetry_equiv_pos_as_xyz
  1  'x, y, z'
loop_
 _atom_site_type_symbol
 _atom_site_label
 _atom_site_symmetry_multiplicity
 _atom_site_fract_x
 _atom_site_fract_y
 _atom_site_fract_z
 _atom_site_occupancy
  P  P0  1  0.17586300  0.35172599  0.75000000  1
  P  P1  1  0.82413700  0.17586300  0.25000000  1
  P  P2  1  0.17586300  0.82413700  0.75000000  1
  P  P3  1  0.82413700  0.64827401  0.25000000  1
  P  P4  1  0.33333333  0.66666667  0.43837064  1
  P  P5  1  0.66666667  0.33333333  0.93837064  1
  P  P6  1  0.66666667  0.33333333  0.56162936  1
  P  P7  1  0.33333333  0.66666667  0.06162936  1
  P  P8  1  0.35172599  0.17586300  0.25000000  1
  P  P9  1  0.64827401  0.82413700  0.75000000  1
  Ni  Ni10  1  0.46425408  0.92850815  0.89258879  1
  Ni  Ni11  1  0.92850815  0.46425408  0.10741121  1
  Ni  Ni12  1  0.53574592  0.07149185  0.10741121  1
  Ni  Ni13  1  0.07149185  0.53574592  0.60741121  1
  Ni  Ni14  1  0.20286973  0.40573946  0.25000000  1
  Ni  Ni15  1  0.79713027  0.20286973  0.75000000  1
  Ni  Ni16  1  0.40573946  0.20286973  0.75000000  1
  Ni  Ni17  1  0.59426054  0.79713027  0.25000000  1
  Ni  Ni18  1  0.20286973  0.79713027  0.25000000  1
  Ni  Ni19  1  0.79713027  0.59426054  0.75000000  1
  Ni  Ni20  1  0.46425408  0.92850815  0.60741121  1
  Ni  Ni21  1  0.53574592  0.46425408  0.39258879  1
  Ni  Ni22  1  0.92850815  0.46425408  0.39258879  1
  Ni  Ni23  1  0.07149185  0.53574592  0.89258879  1
  Ni  Ni24  1  0.46425408  0.53574592  0.89258879  1
  Ni  Ni25  1  0.53574592  0.07149185  0.39258879  1
  Ni  Ni26  1  0.53574592  0.46425408  0.10741121  1
  Ni  Ni27  1  0.46425408  0.53574592  0.60741121  1
  Ba  Ba28  1  0.00000000  0.00000000  0.50000000  1
  Ba  Ba29  1  0.00000000  0.00000000  0.00000000  1
