# generated using pymatgen
data_CaTa4O11
_symmetry_space_group_name_H-M   'P 1'
_cell_length_a   6.28091112
_cell_length_b   6.28091112
_cell_length_c   12.39228393
_cell_angle_alpha   90.00000000
_cell_angle_beta   90.00000000
_cell_angle_gamma   119.99999999
_symmetry_Int_Tables_number   1
_chemical_formula_structural   CaTa4O11
_chemical_formula_sum   'Ca2 Ta8 O22'
_cell_volume   423.37702102
_cell_formula_units_Z   2
loop_
 _symmetry_equiv_pos_site_id
 _symmetry_equiv_pos_as_xyz
  1  'x, y, z'
loop_
 _atom_site_type_symbol
 _atom_site_label
 _atom_site_symmetry_multiplicity
 _atom_site_fract_x
 _atom_site_fract_y
 _atom_site_fract_z
 _atom_site_occupancy
  O  O0  1  0.33333333  0.66666667  0.53395648  1
  O  O1  1  0.66666667  0.33333333  0.03395648  1
  O  O2  1  0.66666667  0.33333333  0.46604352  1
  O  O3  1  0.33333333  0.66666667  0.96604352  1
  O  O4  1  0.24472822  0.00000000  0.50000000  1
  O  O5  1  0.24472822  0.24472822  0.00000000  1
  O  O6  1  0.00000000  0.75527178  0.00000000  1
  O  O7  1  0.00000000  0.24472822  0.50000000  1
  O  O8  1  0.75527178  0.75527178  0.50000000  1
  O  O9  1  0.75527178  0.00000000  0.00000000  1
  O  O10  1  0.37928019  0.94517392  0.15572787  1
  O  O11  1  0.43410627  0.37928019  0.65572787  1
  O  O12  1  0.94517392  0.56589373  0.65572787  1
  O  O13  1  0.05482608  0.43410627  0.15572787  1
  O  O14  1  0.56589373  0.62071981  0.15572787  1
  O  O15  1  0.43410627  0.05482608  0.84427213  1
  O  O16  1  0.62071981  0.56589373  0.84427213  1
  O  O17  1  0.62071981  0.05482608  0.65572787  1
  O  O18  1  0.94517392  0.37928019  0.84427213  1
  O  O19  1  0.05482608  0.62071981  0.34427213  1
  O  O20  1  0.56589373  0.94517392  0.34427213  1
  O  O21  1  0.37928019  0.43410627  0.34427213  1
  Ca  Ca22  1  0.33333333  0.66666667  0.75000000  1
  Ca  Ca23  1  0.66666667  0.33333333  0.25000000  1
  Ta  Ta24  1  0.66666667  0.33333333  0.75000000  1
  Ta  Ta25  1  0.33333333  0.66666667  0.25000000  1
  Ta  Ta26  1  0.64209375  0.00000000  0.50000000  1
  Ta  Ta27  1  0.64209375  0.64209375  0.00000000  1
  Ta  Ta28  1  0.00000000  0.35790625  0.00000000  1
  Ta  Ta29  1  0.00000000  0.64209375  0.50000000  1
  Ta  Ta30  1  0.35790625  0.35790625  0.50000000  1
  Ta  Ta31  1  0.35790625  0.00000000  0.00000000  1
