# generated using pymatgen
data_CdGeAs2
_symmetry_space_group_name_H-M   'P 1'
_cell_length_a   6.06803170
_cell_length_b   6.06802166
_cell_length_c   7.16317548
_cell_angle_alpha   115.05745447
_cell_angle_beta   115.05741783
_cell_angle_gamma   89.99599394
_symmetry_Int_Tables_number   1
_chemical_formula_structural   CdGeAs2
_chemical_formula_sum   'Cd2 Ge2 As4'
_cell_volume   211.21409466
_cell_formula_units_Z   2
loop_
 _symmetry_equiv_pos_site_id
 _symmetry_equiv_pos_as_xyz
  1  'x, y, z'
loop_
 _atom_site_type_symbol
 _atom_site_label
 _atom_site_symmetry_multiplicity
 _atom_site_fract_x
 _atom_site_fract_y
 _atom_site_fract_z
 _atom_site_occupancy
  Cd  Cd0  1  0.24999244  0.74999588  0.49999140  1
  Cd  Cd1  1  0.99999598  0.99999274  0.99999145  1
  Ge  Ge2  1  0.74998893  0.24998604  0.49996692  1
  Ge  Ge3  1  0.49998676  0.49998975  0.99996757  1
  As  As4  1  0.62506705  0.15253123  0.75005289  1
  As  As5  1  0.84748551  0.87495189  0.24998844  1
  As  As6  1  0.12495194  0.59748529  0.74998842  1
  As  As7  1  0.40253139  0.37506718  0.25005291  1
