# generated using pymatgen
data_Sr3(LiSb)4
_symmetry_space_group_name_H-M   'P 1'
_cell_length_a   4.85176740
_cell_length_b   7.54545310
_cell_length_c   9.12748679
_cell_angle_alpha   114.41462747
_cell_angle_beta   105.41318078
_cell_angle_gamma   89.99999461
_symmetry_Int_Tables_number   1
_chemical_formula_structural   Sr3(LiSb)4
_chemical_formula_sum   'Sr3 Li4 Sb4'
_cell_volume   291.01710611
_cell_formula_units_Z   1
loop_
 _symmetry_equiv_pos_site_id
 _symmetry_equiv_pos_as_xyz
  1  'x, y, z'
loop_
 _atom_site_type_symbol
 _atom_site_label
 _atom_site_symmetry_multiplicity
 _atom_site_fract_x
 _atom_site_fract_y
 _atom_site_fract_z
 _atom_site_occupancy
  Sr  Sr0  1  0.62989572  0.62989572  0.25979145  1
  Sr  Sr1  1  0.50000000  0.00000000  0.00000000  1
  Sr  Sr2  1  0.37010428  0.37010428  0.74020855  1
  Li  Li3  1  0.17727725  0.98357826  0.35455450  1
  Li  Li4  1  0.17727725  0.37097624  0.35455450  1
  Li  Li5  1  0.82272275  0.62902376  0.64544550  1
  Li  Li6  1  0.82272275  0.01642174  0.64544550  1
  Sb  Sb7  1  0.28641339  0.78641339  0.57282678  1
  Sb  Sb8  1  0.71358661  0.21358661  0.42717322  1
  Sb  Sb9  1  1.00000000  0.30882166  0.00000000  1
  Sb  Sb10  1  0.00000000  0.69117834  1.00000000  1
