# generated using pymatgen
data_Ho4Ge9Ir13
_symmetry_space_group_name_H-M   'P 1'
_cell_length_a   4.00078587
_cell_length_b   11.31666688
_cell_length_c   19.51462992
_cell_angle_alpha   90.00000000
_cell_angle_beta   90.00000000
_cell_angle_gamma   90.00000000
_symmetry_Int_Tables_number   1
_chemical_formula_structural   Ho4Ge9Ir13
_chemical_formula_sum   'Ho8 Ge18 Ir26'
_cell_volume   883.53581634
_cell_formula_units_Z   2
loop_
 _symmetry_equiv_pos_site_id
 _symmetry_equiv_pos_as_xyz
  1  'x, y, z'
loop_
 _atom_site_type_symbol
 _atom_site_label
 _atom_site_symmetry_multiplicity
 _atom_site_fract_x
 _atom_site_fract_y
 _atom_site_fract_z
 _atom_site_occupancy
  Ge  Ge0  1  0.75000000  0.43626082  0.91873934  1
  Ge  Ge1  1  0.25000000  0.25000000  0.39883958  1
  Ge  Ge2  1  0.75000000  0.75000000  0.60116042  1
  Ge  Ge3  1  0.75000000  0.25000000  0.09978139  1
  Ge  Ge4  1  0.25000000  0.75000000  0.90021861  1
  Ge  Ge5  1  0.25000000  0.07044817  0.58461894  1
  Ge  Ge6  1  0.75000000  0.92955183  0.41538106  1
  Ge  Ge7  1  0.75000000  0.57044817  0.41538106  1
  Ge  Ge8  1  0.25000000  0.56373918  0.08126066  1
  Ge  Ge9  1  0.25000000  0.93626082  0.08126066  1
  Ge  Ge10  1  0.75000000  0.06373918  0.91873934  1
  Ge  Ge11  1  0.25000000  0.75000000  0.26534507  1
  Ge  Ge12  1  0.25000000  0.42955183  0.58461894  1
  Ge  Ge13  1  0.75000000  0.25000000  0.73465493  1
  Ge  Ge14  1  0.75000000  0.61973995  0.73115781  1
  Ge  Ge15  1  0.75000000  0.88026005  0.73115781  1
  Ge  Ge16  1  0.25000000  0.11973995  0.26884219  1
  Ge  Ge17  1  0.25000000  0.38026005  0.26884219  1
  Ho  Ho18  1  0.75000000  0.75000000  0.02267391  1
  Ho  Ho19  1  0.25000000  0.25000000  0.97732609  1
  Ho  Ho20  1  0.25000000  0.44127441  0.79243354  1
  Ho  Ho21  1  0.75000000  0.55872559  0.20756646  1
  Ho  Ho22  1  0.75000000  0.94127441  0.20756646  1
  Ho  Ho23  1  0.25000000  0.05872559  0.79243354  1
  Ho  Ho24  1  0.25000000  0.75000000  0.48093389  1
  Ho  Ho25  1  0.75000000  0.25000000  0.51906611  1
  Ir  Ir26  1  0.75000000  0.45035403  0.04605737  1
  Ir  Ir27  1  0.75000000  0.94037168  0.53981254  1
  Ir  Ir28  1  0.75000000  0.55962832  0.53981254  1
  Ir  Ir29  1  0.25000000  0.44037168  0.46018746  1
  Ir  Ir30  1  0.75000000  0.12266636  0.35446923  1
  Ir  Ir31  1  0.25000000  0.87733364  0.64553077  1
  Ir  Ir32  1  0.25000000  0.62266636  0.64553077  1
  Ir  Ir33  1  0.75000000  0.37733364  0.35446923  1
  Ir  Ir34  1  0.25000000  0.54964597  0.95394263  1
  Ir  Ir35  1  0.25000000  0.95035403  0.95394263  1
  Ir  Ir36  1  0.75000000  0.04964597  0.04605737  1
  Ir  Ir37  1  0.75000000  0.75000000  0.34238572  1
  Ir  Ir38  1  0.25000000  0.25000000  0.65761428  1
  Ir  Ir39  1  0.25000000  0.75000000  0.14100590  1
  Ir  Ir40  1  0.75000000  0.25000000  0.85899410  1
  Ir  Ir41  1  0.25000000  0.75000000  0.77294967  1
  Ir  Ir42  1  0.75000000  0.25000000  0.22705033  1
  Ir  Ir43  1  0.75000000  0.43294434  0.66467409  1
  Ir  Ir44  1  0.25000000  0.56705566  0.33532591  1
  Ir  Ir45  1  0.25000000  0.93294434  0.33532591  1
  Ir  Ir46  1  0.75000000  0.06705566  0.66467409  1
  Ir  Ir47  1  0.25000000  0.37390875  0.14205780  1
  Ir  Ir48  1  0.75000000  0.62609125  0.85794220  1
  Ir  Ir49  1  0.75000000  0.87390875  0.85794220  1
  Ir  Ir50  1  0.25000000  0.12609125  0.14205780  1
  Ir  Ir51  1  0.25000000  0.05962832  0.46018746  1
