# generated using pymatgen
data_Sc(IO3)3
_symmetry_space_group_name_H-M   'P 1'
_cell_length_a   7.51661442
_cell_length_b   7.51661442
_cell_length_c   7.51661442
_cell_angle_alpha   82.25610068
_cell_angle_beta   82.25610071
_cell_angle_gamma   82.25610069
_symmetry_Int_Tables_number   1
_chemical_formula_structural   Sc(IO3)3
_chemical_formula_sum   'Sc2 I6 O18'
_cell_volume   414.02399408
_cell_formula_units_Z   2
loop_
 _symmetry_equiv_pos_site_id
 _symmetry_equiv_pos_as_xyz
  1  'x, y, z'
loop_
 _atom_site_type_symbol
 _atom_site_label
 _atom_site_symmetry_multiplicity
 _atom_site_fract_x
 _atom_site_fract_y
 _atom_site_fract_z
 _atom_site_occupancy
  O  O0  1  0.21354005  0.72265368  0.42842339  1
  O  O1  1  0.72265368  0.42842339  0.21354005  1
  O  O2  1  0.42842339  0.21354005  0.72265368  1
  O  O3  1  0.78645995  0.27734632  0.57157661  1
  O  O4  1  0.27734632  0.57157661  0.78645995  1
  O  O5  1  0.57157661  0.78645995  0.27734632  1
  O  O6  1  0.28756099  0.08025606  0.42295603  1
  O  O7  1  0.08025606  0.42295603  0.28756099  1
  O  O8  1  0.28888512  0.93639780  0.06587072  1
  O  O9  1  0.06587072  0.28888512  0.93639780  1
  O  O10  1  0.93639780  0.06587072  0.28888512  1
  O  O11  1  0.71111488  0.06360220  0.93412928  1
  O  O12  1  0.93412928  0.71111488  0.06360220  1
  O  O13  1  0.06360220  0.93412928  0.71111488  1
  O  O14  1  0.57704397  0.71243901  0.91974394  1
  O  O15  1  0.91974394  0.57704397  0.71243901  1
  O  O16  1  0.71243901  0.91974394  0.57704397  1
  O  O17  1  0.42295603  0.28756099  0.08025606  1
  Sc  Sc18  1  0.82296820  0.82296820  0.82296820  1
  Sc  Sc19  1  0.17703180  0.17703180  0.17703180  1
  I  I20  1  0.28016295  0.86850703  0.57998201  1
  I  I21  1  0.86850703  0.57998201  0.28016295  1
  I  I22  1  0.57998201  0.28016295  0.86850703  1
  I  I23  1  0.71983705  0.13149297  0.42001799  1
  I  I24  1  0.13149297  0.42001799  0.71983705  1
  I  I25  1  0.42001799  0.71983705  0.13149297  1
