# generated using pymatgen
data_SbClO
_symmetry_space_group_name_H-M   'P 1'
_cell_length_a   8.13099952
_cell_length_b   9.68169595
_cell_length_c   11.41223838
_cell_angle_alpha   90.00000000
_cell_angle_beta   90.00000000
_cell_angle_gamma   76.10958913
_symmetry_Int_Tables_number   1
_chemical_formula_structural   SbClO
_chemical_formula_sum   'Sb12 Cl12 O12'
_cell_volume   872.12069960
_cell_formula_units_Z   12
loop_
 _symmetry_equiv_pos_site_id
 _symmetry_equiv_pos_as_xyz
  1  'x, y, z'
loop_
 _atom_site_type_symbol
 _atom_site_label
 _atom_site_symmetry_multiplicity
 _atom_site_fract_x
 _atom_site_fract_y
 _atom_site_fract_z
 _atom_site_occupancy
  Sb  Sb0  1  0.28324067  0.57396996  0.96896961  1
  Sb  Sb1  1  0.71675933  0.92603004  0.46896961  1
  Sb  Sb2  1  0.71675933  0.42603004  0.03103039  1
  Sb  Sb3  1  0.28324067  0.07396996  0.53103039  1
  Sb  Sb4  1  0.09156147  0.90695106  0.75655987  1
  Sb  Sb5  1  0.90843853  0.59304894  0.25655987  1
  Sb  Sb6  1  0.90843853  0.09304894  0.24344013  1
  Sb  Sb7  1  0.09156147  0.40695106  0.74344013  1
  Sb  Sb8  1  0.52809698  0.75976125  0.82657502  1
  Sb  Sb9  1  0.47190302  0.74023875  0.32657502  1
  Sb  Sb10  1  0.47190302  0.24023875  0.17342498  1
  Sb  Sb11  1  0.52809698  0.25976125  0.67342498  1
  Cl  Cl12  1  0.11578451  0.58821313  0.60173937  1
  Cl  Cl13  1  0.88421549  0.91178687  0.10173937  1
  Cl  Cl14  1  0.88421549  0.41178687  0.39826063  1
  Cl  Cl15  1  0.11578451  0.08821313  0.89826063  1
  Cl  Cl16  1  0.59339939  0.62591375  0.64621537  1
  Cl  Cl17  1  0.40660061  0.87408625  0.14621537  1
  Cl  Cl18  1  0.40660061  0.37408625  0.35378463  1
  Cl  Cl19  1  0.59339939  0.12591375  0.85378463  1
  Cl  Cl20  1  0.89480441  0.64676227  0.88605510  1
  Cl  Cl21  1  0.10519559  0.85323773  0.38605510  1
  Cl  Cl22  1  0.10519559  0.35323773  0.11394490  1
  Cl  Cl23  1  0.89480441  0.14676227  0.61394490  1
  O  O24  1  0.53037673  0.58784164  0.92955890  1
  O  O25  1  0.46962327  0.91215836  0.42955890  1
  O  O26  1  0.46962327  0.41215836  0.07044110  1
  O  O27  1  0.53037673  0.08784164  0.57044110  1
  O  O28  1  0.27687165  0.75612875  0.84013396  1
  O  O29  1  0.72312835  0.74387125  0.34013396  1
  O  O30  1  0.72312835  0.24387125  0.15986604  1
  O  O31  1  0.27687165  0.25612875  0.65986604  1
  O  O32  1  0.28662778  0.93685663  0.66126418  1
  O  O33  1  0.71337222  0.56314337  0.16126418  1
  O  O34  1  0.71337222  0.06314337  0.33873582  1
  O  O35  1  0.28662778  0.43685663  0.83873582  1
