# generated using pymatgen
data_GaSeBr7
_symmetry_space_group_name_H-M   'P 1'
_cell_length_a   6.77328229
_cell_length_b   7.00651549
_cell_length_c   15.31278763
_cell_angle_alpha   104.07327696
_cell_angle_beta   90.00000000
_cell_angle_gamma   90.00000000
_symmetry_Int_Tables_number   1
_chemical_formula_structural   GaSeBr7
_chemical_formula_sum   'Ga2 Se2 Br14'
_cell_volume   704.88907352
_cell_formula_units_Z   2
loop_
 _symmetry_equiv_pos_site_id
 _symmetry_equiv_pos_as_xyz
  1  'x, y, z'
loop_
 _atom_site_type_symbol
 _atom_site_label
 _atom_site_symmetry_multiplicity
 _atom_site_fract_x
 _atom_site_fract_y
 _atom_site_fract_z
 _atom_site_occupancy
  Ga  Ga0  1  0.99787210  0.66280772  0.50158488  1
  Ga  Ga1  1  0.00212790  0.66280772  0.00158488  1
  Se  Se2  1  0.59335164  0.94880016  0.66200913  1
  Se  Se3  1  0.40664836  0.94880016  0.16200913  1
  Br  Br4  1  0.60565475  0.82808415  0.26418817  1
  Br  Br5  1  0.39434525  0.82808415  0.76418817  1
  Br  Br6  1  0.12614915  0.98230821  0.00476771  1
  Br  Br7  1  0.87385085  0.98230821  0.50476771  1
  Br  Br8  1  0.12979962  0.59206392  0.13573860  1
  Br  Br9  1  0.87020038  0.59206392  0.63573860  1
  Br  Br10  1  0.13313613  0.44065689  0.87292045  1
  Br  Br11  1  0.86686387  0.44065689  0.37292045  1
  Br  Br12  1  0.65592188  0.63864638  0.99711051  1
  Br  Br13  1  0.34407812  0.63864638  0.49711051  1
  Br  Br14  1  0.38953786  0.20153900  0.63233690  1
  Br  Br15  1  0.61046214  0.20153900  0.13233690  1
  Br  Br16  1  0.81407641  0.15234357  0.76621366  1
  Br  Br17  1  0.18592359  0.15234357  0.26621366  1
