# generated using pymatgen
data_Ba2CuF6
_symmetry_space_group_name_H-M   'P 1'
_cell_length_a   6.06865458
_cell_length_b   5.93630863
_cell_length_c   8.54215276
_cell_angle_alpha   110.33273628
_cell_angle_beta   90.00000000
_cell_angle_gamma   90.00000000
_symmetry_Int_Tables_number   1
_chemical_formula_structural   Ba2CuF6
_chemical_formula_sum   'Ba4 Cu2 F12'
_cell_volume   288.55975944
_cell_formula_units_Z   2
loop_
 _symmetry_equiv_pos_site_id
 _symmetry_equiv_pos_as_xyz
  1  'x, y, z'
loop_
 _atom_site_type_symbol
 _atom_site_label
 _atom_site_symmetry_multiplicity
 _atom_site_fract_x
 _atom_site_fract_y
 _atom_site_fract_z
 _atom_site_occupancy
  F  F0  1  0.50000000  0.88138917  0.76277834  1
  F  F1  1  0.00000000  0.61861083  0.23722166  1
  F  F2  1  0.50000000  0.11861083  0.23722166  1
  F  F3  1  0.00000000  0.38138917  0.76277834  1
  F  F4  1  0.65716954  0.71109517  0.00000000  1
  F  F5  1  0.15716954  0.78890483  0.00000000  1
  F  F6  1  0.25000000  0.99778621  0.50000000  1
  F  F7  1  0.75000000  0.50221379  0.50000000  1
  F  F8  1  0.75000000  0.00221379  0.50000000  1
  F  F9  1  0.25000000  0.49778621  0.50000000  1
  F  F10  1  0.34283046  0.28890483  0.00000000  1
  F  F11  1  0.84283046  0.21109517  0.00000000  1
  Cu  Cu12  1  0.50000000  0.00000000  0.00000000  1
  Cu  Cu13  1  0.00000000  0.50000000  0.00000000  1
  Ba  Ba14  1  0.50000000  0.65111031  0.30222061  1
  Ba  Ba15  1  0.00000000  0.84888969  0.69777939  1
  Ba  Ba16  1  0.50000000  0.34888969  0.69777939  1
  Ba  Ba17  1  0.00000000  0.15111031  0.30222061  1
