# generated using pymatgen
data_Ho2Co12P7
_symmetry_space_group_name_H-M   'P 1'
_cell_length_a   8.99958843
_cell_length_b   8.99958843
_cell_length_c   3.58185337
_cell_angle_alpha   90.00000000
_cell_angle_beta   90.00000000
_cell_angle_gamma   119.99999996
_symmetry_Int_Tables_number   1
_chemical_formula_structural   Ho2Co12P7
_chemical_formula_sum   'Ho2 Co12 P7'
_cell_volume   251.23707721
_cell_formula_units_Z   1
loop_
 _symmetry_equiv_pos_site_id
 _symmetry_equiv_pos_as_xyz
  1  'x, y, z'
loop_
 _atom_site_type_symbol
 _atom_site_label
 _atom_site_symmetry_multiplicity
 _atom_site_fract_x
 _atom_site_fract_y
 _atom_site_fract_z
 _atom_site_occupancy
  P  P0  1  0.00000000  0.00000000  0.00000000  1
  P  P1  1  0.59731721  0.70869484  0.50000000  1
  P  P2  1  0.70631544  0.11287766  0.00000000  1
  P  P3  1  0.88712234  0.59343778  0.00000000  1
  P  P4  1  0.40656222  0.29368456  0.00000000  1
  P  P5  1  0.29130516  0.88862237  0.50000000  1
  P  P6  1  0.11137763  0.40268279  0.50000000  1
  Co  Co7  1  0.11913306  0.84633295  0.00000000  1
  Co  Co8  1  0.38250267  0.43522821  0.50000000  1
  Co  Co9  1  0.72719989  0.88086694  0.00000000  1
  Co  Co10  1  0.56477179  0.94727446  0.50000000  1
  Co  Co11  1  0.23406322  0.10251374  0.50000000  1
  Co  Co12  1  0.86845051  0.76593678  0.50000000  1
  Co  Co13  1  0.89748626  0.13154949  0.50000000  1
  Co  Co14  1  0.93994749  0.37437865  0.00000000  1
  Co  Co15  1  0.62562135  0.56556884  0.00000000  1
  Co  Co16  1  0.43443116  0.06005251  0.00000000  1
  Co  Co17  1  0.05272554  0.61749733  0.50000000  1
  Co  Co18  1  0.15366705  0.27280011  0.00000000  1
  Ho  Ho19  1  0.66666667  0.33333333  0.50000000  1
  Ho  Ho20  1  0.33333333  0.66666667  0.00000000  1
