# generated using pymatgen
data_Hg3TeO6
_symmetry_space_group_name_H-M   'P 1'
_cell_length_a   12.03475649
_cell_length_b   12.03475648
_cell_length_c   12.03475648
_cell_angle_alpha   109.47122062
_cell_angle_beta   109.47122061
_cell_angle_gamma   109.47122065
_symmetry_Int_Tables_number   1
_chemical_formula_structural   Hg3TeO6
_chemical_formula_sum   'Hg24 Te8 O48'
_cell_volume   1341.80692903
_cell_formula_units_Z   8
loop_
 _symmetry_equiv_pos_site_id
 _symmetry_equiv_pos_as_xyz
  1  'x, y, z'
loop_
 _atom_site_type_symbol
 _atom_site_label
 _atom_site_symmetry_multiplicity
 _atom_site_fract_x
 _atom_site_fract_y
 _atom_site_fract_z
 _atom_site_occupancy
  O  O0  1  0.85612159  0.49638879  0.85557436  1
  O  O1  1  0.14081443  0.00054723  0.64442564  1
  O  O2  1  0.35918557  0.00361121  0.85973280  1
  O  O3  1  0.49945277  0.64026720  0.64387841  1
  O  O4  1  0.64026720  0.64387841  0.49945277  1
  O  O5  1  0.85557436  0.85612159  0.49638879  1
  O  O6  1  0.00054723  0.64442564  0.14081443  1
  O  O7  1  0.85973280  0.35918557  0.00361121  1
  O  O8  1  0.49638879  0.85557436  0.85612159  1
  O  O9  1  0.64442564  0.14081443  0.00054723  1
  O  O10  1  0.00361121  0.85973280  0.35918557  1
  O  O11  1  0.64387841  0.49945277  0.64026720  1
  O  O12  1  0.14387841  0.50361121  0.14442564  1
  O  O13  1  0.85918557  0.99945277  0.35557436  1
  O  O14  1  0.64081443  0.99638879  0.14026720  1
  O  O15  1  0.50054723  0.35973280  0.35612159  1
  O  O16  1  0.35973280  0.35612159  0.50054723  1
  O  O17  1  0.14442564  0.14387841  0.50361121  1
  O  O18  1  0.99945277  0.35557436  0.85918557  1
  O  O19  1  0.14034667  0.50183360  0.64552628  1
  O  O20  1  0.14026720  0.64081443  0.99638879  1
  O  O21  1  0.35557436  0.85918557  0.99945277  1
  O  O22  1  0.99638879  0.14026720  0.64081443  1
  O  O23  1  0.35612159  0.50054723  0.35973280  1
  O  O24  1  0.64552628  0.14034667  0.50183360  1
  O  O25  1  0.13851307  0.14369268  0.99816640  1
  O  O26  1  0.36148693  0.35965333  0.00517961  1
  O  O27  1  0.35630732  0.49482039  0.85447372  1
  O  O28  1  0.49482039  0.85447372  0.35630732  1
  O  O29  1  0.50183360  0.64552628  0.14034667  1
  O  O30  1  0.14369268  0.99816640  0.13851307  1
  O  O31  1  0.00517961  0.36148693  0.35965333  1
  O  O32  1  0.14552628  0.64369268  0.50517961  1
  O  O33  1  0.64034667  0.99482039  0.63851307  1
  O  O34  1  0.00183360  0.86148693  0.85630732  1
  O  O35  1  0.85965333  0.49816640  0.35447372  1
  O  O36  1  0.99482039  0.63851307  0.64034667  1
  O  O37  1  0.85630732  0.00183360  0.86148693  1
  O  O38  1  0.49816640  0.35447372  0.85965333  1
  O  O39  1  0.50517961  0.14552628  0.64369268  1
  O  O40  1  0.64369268  0.50517961  0.14552628  1
  O  O41  1  0.63851307  0.64034667  0.99482039  1
  O  O42  1  0.86148693  0.85630732  0.00183360  1
  O  O43  1  0.35447372  0.85965333  0.49816640  1
  O  O44  1  0.85447372  0.35630732  0.49482039  1
  O  O45  1  0.35965333  0.00517961  0.36148693  1
  O  O46  1  0.99816640  0.13851307  0.14369268  1
  O  O47  1  0.50361121  0.14442564  0.14387841  1
  Te  Te48  1  0.00000000  0.50000000  0.00000000  1
  Te  Te49  1  0.50000000  0.00000000  0.00000000  1
  Te  Te50  1  0.00000000  0.00000000  0.50000000  1
  Te  Te51  1  0.50000000  0.50000000  0.50000000  1
  Te  Te52  1  0.50000000  0.50000000  0.00000000  1
  Te  Te53  1  0.00000000  0.00000000  0.00000000  1
  Te  Te54  1  0.50000000  0.00000000  0.50000000  1
  Te  Te55  1  0.00000000  0.50000000  0.50000000  1
  Hg  Hg56  1  0.74739786  0.17251997  0.82521893  1
  Hg  Hg57  1  0.84730104  0.92217893  0.67478107  1
  Hg  Hg58  1  0.65269896  0.32748003  0.07487790  1
  Hg  Hg59  1  0.57782107  0.42512210  0.75260214  1
  Hg  Hg60  1  0.42512210  0.75260214  0.57782107  1
  Hg  Hg61  1  0.82521893  0.74739786  0.17251997  1
  Hg  Hg62  1  0.92217893  0.67478107  0.84730104  1
  Hg  Hg63  1  0.07487790  0.65269896  0.32748003  1
  Hg  Hg64  1  0.17251997  0.82521893  0.74739786  1
  Hg  Hg65  1  0.67478107  0.84730104  0.92217893  1
  Hg  Hg66  1  0.32748003  0.07487790  0.65269896  1
  Hg  Hg67  1  0.75260214  0.57782107  0.42512210  1
  Hg  Hg68  1  0.25260214  0.82748003  0.17478107  1
  Hg  Hg69  1  0.15269896  0.07782107  0.32521893  1
  Hg  Hg70  1  0.34730104  0.67251997  0.92512210  1
  Hg  Hg71  1  0.42217893  0.57487790  0.24739786  1
  Hg  Hg72  1  0.57487790  0.24739786  0.42217893  1
  Hg  Hg73  1  0.17478107  0.25260214  0.82748003  1
  Hg  Hg74  1  0.07782107  0.32521893  0.15269896  1
  Hg  Hg75  1  0.92512210  0.34730104  0.67251997  1
  Hg  Hg76  1  0.82748003  0.17478107  0.25260214  1
  Hg  Hg77  1  0.32521893  0.15269896  0.07782107  1
  Hg  Hg78  1  0.67251997  0.92512210  0.34730104  1
  Hg  Hg79  1  0.24739786  0.42217893  0.57487790  1
