# generated using pymatgen
data_Th11(Ru2C3)6
_symmetry_space_group_name_H-M   'P 1'
_cell_length_a   9.38004080
_cell_length_b   9.38004081
_cell_length_c   9.38004081
_cell_angle_alpha   109.47122064
_cell_angle_beta   109.47122065
_cell_angle_gamma   109.47122061
_symmetry_Int_Tables_number   1
_chemical_formula_structural   Th11(Ru2C3)6
_chemical_formula_sum   'Th11 Ru12 C18'
_cell_volume   635.31965673
_cell_formula_units_Z   1
loop_
 _symmetry_equiv_pos_site_id
 _symmetry_equiv_pos_as_xyz
  1  'x, y, z'
loop_
 _atom_site_type_symbol
 _atom_site_label
 _atom_site_symmetry_multiplicity
 _atom_site_fract_x
 _atom_site_fract_y
 _atom_site_fract_z
 _atom_site_occupancy
  C  C0  1  0.43472024  0.00000000  0.43472024  1
  C  C1  1  0.56527976  0.00000000  0.56527976  1
  C  C2  1  0.00000000  0.56527976  0.56527976  1
  C  C3  1  0.00000000  0.43472024  0.43472024  1
  C  C4  1  0.43472024  0.43472024  0.00000000  1
  C  C5  1  0.56527976  0.56527976  0.00000000  1
  C  C6  1  0.21382110  0.21382110  0.52547207  1
  C  C7  1  0.68834903  0.47452793  0.68834903  1
  C  C8  1  0.47452793  0.68834903  0.68834903  1
  C  C9  1  0.00000000  0.31165097  0.78617890  1
  C  C10  1  0.31165097  0.00000000  0.78617890  1
  C  C11  1  0.52547207  0.21382110  0.21382110  1
  C  C12  1  0.00000000  0.78617890  0.31165097  1
  C  C13  1  0.78617890  0.31165097  0.00000000  1
  C  C14  1  0.21382110  0.52547207  0.21382110  1
  C  C15  1  0.31165097  0.78617890  0.00000000  1
  C  C16  1  0.68834903  0.68834903  0.47452793  1
  C  C17  1  0.78617890  0.00000000  0.31165097  1
  Ru  Ru18  1  0.36792479  0.00000000  0.19765579  1
  Ru  Ru19  1  0.00000000  0.36792479  0.19765579  1
  Ru  Ru20  1  0.82973100  0.63207521  0.63207521  1
  Ru  Ru21  1  0.63207521  0.82973100  0.63207521  1
  Ru  Ru22  1  0.80234421  0.80234421  0.17026900  1
  Ru  Ru23  1  0.80234421  0.17026900  0.80234421  1
  Ru  Ru24  1  0.17026900  0.80234421  0.80234421  1
  Ru  Ru25  1  0.19765579  0.36792479  0.00000000  1
  Ru  Ru26  1  0.36792479  0.19765579  0.00000000  1
  Ru  Ru27  1  0.63207521  0.63207521  0.82973100  1
  Ru  Ru28  1  0.00000000  0.19765579  0.36792479  1
  Ru  Ru29  1  0.19765579  0.00000000  0.36792479  1
  Th  Th30  1  0.00000000  0.00000000  0.59412900  1
  Th  Th31  1  0.00000000  0.59412900  0.00000000  1
  Th  Th32  1  0.59412900  0.00000000  0.00000000  1
  Th  Th33  1  0.40587100  0.40587100  0.40587100  1
  Th  Th34  1  0.50000000  0.75000000  0.25000000  1
  Th  Th35  1  0.25000000  0.75000000  0.50000000  1
  Th  Th36  1  0.75000000  0.25000000  0.50000000  1
  Th  Th37  1  0.25000000  0.50000000  0.75000000  1
  Th  Th38  1  0.75000000  0.50000000  0.25000000  1
  Th  Th39  1  0.50000000  0.25000000  0.75000000  1
  Th  Th40  1  0.00000000  0.00000000  0.00000000  1
