# generated using pymatgen
data_Eu2SiO4
_symmetry_space_group_name_H-M   'P 1'
_cell_length_a   5.72485791
_cell_length_b   7.12695602
_cell_length_c   9.80560532
_cell_angle_alpha   90.00000000
_cell_angle_beta   93.53413913
_cell_angle_gamma   90.00000000
_symmetry_Int_Tables_number   1
_chemical_formula_structural   Eu2SiO4
_chemical_formula_sum   'Eu8 Si4 O16'
_cell_volume   399.31579809
_cell_formula_units_Z   4
loop_
 _symmetry_equiv_pos_site_id
 _symmetry_equiv_pos_as_xyz
  1  'x, y, z'
loop_
 _atom_site_type_symbol
 _atom_site_label
 _atom_site_symmetry_multiplicity
 _atom_site_fract_x
 _atom_site_fract_y
 _atom_site_fract_z
 _atom_site_occupancy
  Eu  Eu0  1  0.76429589  0.65938848  0.57542527  1
  Eu  Eu1  1  0.23570411  0.34061152  0.42457473  1
  Eu  Eu2  1  0.72452558  0.50110418  0.19806554  1
  Eu  Eu3  1  0.73570411  0.15938848  0.92457473  1
  Eu  Eu4  1  0.22452558  -0.00110418  0.69806554  1
  Eu  Eu5  1  0.77547442  1.00110418  0.30193446  1
  Eu  Eu6  1  0.27547442  0.49889582  0.80193446  1
  Eu  Eu7  1  0.26429589  0.84061152  0.07542527  1
  Si  Si8  1  0.25830241  0.77945611  0.41842770  1
  Si  Si9  1  0.24169759  0.27945611  0.08157230  1
  Si  Si10  1  0.75830241  0.72054389  0.91842770  1
  Si  Si11  1  0.74169759  0.22054389  0.58157230  1
  O  O12  1  0.02870561  0.23615744  0.18311913  1
  O  O13  1  0.48960184  0.17583166  0.13719096  1
  O  O14  1  0.51039816  0.82416834  0.86280904  1
  O  O15  1  0.97129439  0.76384256  0.81688087  1
  O  O16  1  0.32554903  0.68274891  0.57076708  1
  O  O17  1  0.17445097  0.18274891  0.92923292  1
  O  O18  1  0.47129439  0.73615744  0.31688087  1
  O  O19  1  0.67445097  0.31725109  0.42923292  1
  O  O20  1  0.21843029  0.00549310  0.43253987  1
  O  O21  1  0.71843029  0.49450690  0.93253987  1
  O  O22  1  0.01039816  0.67583166  0.36280904  1
  O  O23  1  0.98960184  0.32416834  0.63719096  1
  O  O24  1  0.28156971  0.50549310  0.06746013  1
  O  O25  1  0.78156971  0.99450690  0.56746013  1
  O  O26  1  0.82554903  0.81725109  0.07076708  1
  O  O27  1  0.52870561  0.26384256  0.68311913  1
