# generated using pymatgen
data_Nd3Sb5O12
_symmetry_space_group_name_H-M   'P 1'
_cell_length_a   9.65626213
_cell_length_b   9.65626212
_cell_length_c   9.65626213
_cell_angle_alpha   109.47122062
_cell_angle_beta   109.47122062
_cell_angle_gamma   109.47122065
_symmetry_Int_Tables_number   1
_chemical_formula_structural   Nd3Sb5O12
_chemical_formula_sum   'Nd6 Sb10 O24'
_cell_volume   693.11492199
_cell_formula_units_Z   2
loop_
 _symmetry_equiv_pos_site_id
 _symmetry_equiv_pos_as_xyz
  1  'x, y, z'
loop_
 _atom_site_type_symbol
 _atom_site_label
 _atom_site_symmetry_multiplicity
 _atom_site_fract_x
 _atom_site_fract_y
 _atom_site_fract_z
 _atom_site_occupancy
  O  O0  1  0.27499487  0.80251046  0.80251046  1
  O  O1  1  0.52751559  0.52751559  0.72500513  1
  O  O2  1  0.52751559  0.72500513  0.52751559  1
  O  O3  1  0.19748954  0.00000000  0.47248441  1
  O  O4  1  0.19748954  0.47248441  0.00000000  1
  O  O5  1  0.00000000  0.19748954  0.47248441  1
  O  O6  1  0.00000000  0.47248441  0.19748954  1
  O  O7  1  0.47248441  0.19748954  0.00000000  1
  O  O8  1  0.80251046  0.80251046  0.27499487  1
  O  O9  1  0.80251046  0.27499487  0.80251046  1
  O  O10  1  0.47248441  0.00000000  0.19748954  1
  O  O11  1  0.72500513  0.52751559  0.52751559  1
  O  O12  1  0.80190814  0.29251856  0.29251856  1
  O  O13  1  0.49061042  0.49061042  0.19809186  1
  O  O14  1  0.49061042  0.19809186  0.49061042  1
  O  O15  1  0.70748144  0.00000000  0.50938958  1
  O  O16  1  0.19809186  0.49061042  0.49061042  1
  O  O17  1  0.50938958  0.00000000  0.70748144  1
  O  O18  1  0.29251856  0.80190814  0.29251856  1
  O  O19  1  0.29251856  0.29251856  0.80190814  1
  O  O20  1  0.50938958  0.70748144  0.00000000  1
  O  O21  1  0.00000000  0.50938958  0.70748144  1
  O  O22  1  0.00000000  0.70748144  0.50938958  1
  O  O23  1  0.70748144  0.50938958  0.00000000  1
  Sb  Sb24  1  0.00000000  0.00000000  0.50592811  1
  Sb  Sb25  1  0.00000000  0.50592811  0.00000000  1
  Sb  Sb26  1  0.50592811  0.00000000  0.00000000  1
  Sb  Sb27  1  0.49407189  0.49407189  0.49407189  1
  Sb  Sb28  1  0.71847267  0.00000000  0.71847267  1
  Sb  Sb29  1  0.28152733  0.00000000  0.28152733  1
  Sb  Sb30  1  0.00000000  0.28152733  0.28152733  1
  Sb  Sb31  1  0.00000000  0.71847267  0.71847267  1
  Sb  Sb32  1  0.71847267  0.71847267  0.00000000  1
  Sb  Sb33  1  0.28152733  0.28152733  0.00000000  1
  Nd  Nd34  1  0.50000000  0.75000000  0.25000000  1
  Nd  Nd35  1  0.25000000  0.75000000  0.50000000  1
  Nd  Nd36  1  0.75000000  0.25000000  0.50000000  1
  Nd  Nd37  1  0.25000000  0.50000000  0.75000000  1
  Nd  Nd38  1  0.75000000  0.50000000  0.25000000  1
  Nd  Nd39  1  0.50000000  0.25000000  0.75000000  1
