# generated using pymatgen
data_Li2CO3
_symmetry_space_group_name_H-M   'P 1'
_cell_length_a   4.90692325
_cell_length_b   4.90692325
_cell_length_c   6.34779180
_cell_angle_alpha   69.38285143
_cell_angle_beta   69.38285145
_cell_angle_gamma   61.86175265
_symmetry_Int_Tables_number   1
_chemical_formula_structural   Li2CO3
_chemical_formula_sum   'Li4 C2 O6'
_cell_volume   122.89828720
_cell_formula_units_Z   2
loop_
 _symmetry_equiv_pos_site_id
 _symmetry_equiv_pos_as_xyz
  1  'x, y, z'
loop_
 _atom_site_type_symbol
 _atom_site_label
 _atom_site_symmetry_multiplicity
 _atom_site_fract_x
 _atom_site_fract_y
 _atom_site_fract_z
 _atom_site_occupancy
  Li  Li0  1  0.64794524  0.74975821  0.16104424  1
  Li  Li1  1  0.25024179  0.35205476  0.33895576  1
  Li  Li2  1  0.35205476  0.25024179  0.83895576  1
  Li  Li3  1  0.74975821  0.64794524  0.66104424  1
  C  C4  1  0.06503705  0.93496295  0.75000000  1
  C  C5  1  0.93496295  0.06503705  0.25000000  1
  O  O6  1  0.31985395  0.68014605  0.75000000  1
  O  O7  1  0.68014605  0.31985395  0.25000000  1
  O  O8  1  0.08208185  0.21166750  0.68525338  1
  O  O9  1  0.78833250  0.91791815  0.81474662  1
  O  O10  1  0.91791815  0.78833250  0.31474662  1
  O  O11  1  0.21166750  0.08208185  0.18525338  1
