# generated using pymatgen
data_Nd2Si3Rh
_symmetry_space_group_name_H-M   'P 1'
_cell_length_a   8.27759003
_cell_length_b   8.27759003
_cell_length_c   8.33580026
_cell_angle_alpha   90.00000000
_cell_angle_beta   90.00000000
_cell_angle_gamma   119.99987268
_symmetry_Int_Tables_number   1
_chemical_formula_structural   Nd2Si3Rh
_chemical_formula_sum   'Nd8 Si12 Rh4'
_cell_volume   494.63667547
_cell_formula_units_Z   4
loop_
 _symmetry_equiv_pos_site_id
 _symmetry_equiv_pos_as_xyz
  1  'x, y, z'
loop_
 _atom_site_type_symbol
 _atom_site_label
 _atom_site_symmetry_multiplicity
 _atom_site_fract_x
 _atom_site_fract_y
 _atom_site_fract_z
 _atom_site_occupancy
  Nd  Nd0  1  -0.00000044  0.00000044  0.75000000  1
  Nd  Nd1  1  0.00000044  -0.00000044  0.25000000  1
  Nd  Nd2  1  0.49454867  0.98907166  0.75000000  1
  Nd  Nd3  1  0.49453112  0.50546888  0.75000000  1
  Nd  Nd4  1  0.01092834  0.50545133  0.75000000  1
  Nd  Nd5  1  0.50545133  0.01092834  0.25000000  1
  Nd  Nd6  1  0.50546888  0.49453112  0.25000000  1
  Nd  Nd7  1  0.98907166  0.49454867  0.25000000  1
  Si  Si8  1  0.83323228  0.66646631  0.49755060  1
  Si  Si9  1  0.83322536  0.16677464  0.49754276  1
  Si  Si10  1  0.33353369  0.16676772  0.49755060  1
  Si  Si11  1  0.16676772  0.33353369  0.50244940  1
  Si  Si12  1  0.16677464  0.83322536  0.50245724  1
  Si  Si13  1  0.66646631  0.83323228  0.50244940  1
  Si  Si14  1  0.16676772  0.33353369  0.99755060  1
  Si  Si15  1  0.16677464  0.83322536  0.99754276  1
  Si  Si16  1  0.66646631  0.83323228  0.99755060  1
  Si  Si17  1  0.83323228  0.66646631  0.00244940  1
  Si  Si18  1  0.83322536  0.16677464  0.00245724  1
  Si  Si19  1  0.33353369  0.16676772  0.00244940  1
  Rh  Rh20  1  0.66666333  0.33333667  0.52405584  1
  Rh  Rh21  1  0.33333667  0.66666333  0.47594416  1
  Rh  Rh22  1  0.33333667  0.66666333  0.02405584  1
  Rh  Rh23  1  0.66666333  0.33333667  0.97594416  1
