# generated using pymatgen
data_V2P5O16
_symmetry_space_group_name_H-M   'P 1'
_cell_length_a   19.13625269
_cell_length_b   6.82368445
_cell_length_c   5.15565718
_cell_angle_alpha   90.00000000
_cell_angle_beta   89.53907882
_cell_angle_gamma   90.00000000
_symmetry_Int_Tables_number   1
_chemical_formula_structural   V2P5O16
_chemical_formula_sum   'V4 P10 O32'
_cell_volume   673.20264098
_cell_formula_units_Z   2
loop_
 _symmetry_equiv_pos_site_id
 _symmetry_equiv_pos_as_xyz
  1  'x, y, z'
loop_
 _atom_site_type_symbol
 _atom_site_label
 _atom_site_symmetry_multiplicity
 _atom_site_fract_x
 _atom_site_fract_y
 _atom_site_fract_z
 _atom_site_occupancy
  O  O0  1  0.00654510  0.21478008  0.67656101  1
  O  O1  1  0.07519968  0.03975768  0.02536443  1
  O  O2  1  0.08484169  0.63212487  0.94663371  1
  O  O3  1  0.11724032  0.58443459  0.46593962  1
  O  O4  1  0.10893304  0.98852683  0.55236870  1
  O  O5  1  0.13209258  0.30471599  0.77496783  1
  O  O6  1  0.19658101  0.84210055  0.15077850  1
  O  O7  1  0.21221464  0.57854550  0.80381450  1
  O  O8  1  0.28778508  0.57854550  0.19618483  1
  O  O9  1  0.30341923  0.84210055  0.84922082  1
  O  O10  1  0.36790714  0.30471599  0.22503150  1
  O  O11  1  0.39106720  0.98852683  0.44763062  1
  O  O12  1  0.38275992  0.58443459  0.53405970  1
  O  O13  1  0.41515803  0.63212487  0.05336562  1
  O  O14  1  0.42480057  0.03975768  0.97463490  1
  O  O15  1  0.49345514  0.21478008  0.32344026  1
  O  O16  1  0.50654520  0.78521885  0.67656071  1
  O  O17  1  0.57519977  0.96024126  0.02536413  1
  O  O18  1  0.58484178  0.36787553  0.94663536  1
  O  O19  1  0.61724042  0.41556581  0.46593933  1
  O  O20  1  0.60893261  0.01147211  0.55237036  1
  O  O21  1  0.63209268  0.69528442  0.77496754  1
  O  O22  1  0.69658058  0.15789839  0.15077821  1
  O  O23  1  0.99345471  0.78521885  0.32343997  1
  O  O24  1  0.78778518  0.42145344  0.19618453  1
  O  O25  1  0.80341933  0.15789839  0.84922052  1
  O  O26  1  0.86790724  0.69528442  0.22503120  1
  O  O27  1  0.89106730  0.01147211  0.44763032  1
  O  O28  1  0.88276002  0.41556581  0.53405940  1
  O  O29  1  0.91515813  0.36787553  0.05336533  1
  O  O30  1  0.92480066  0.96024126  0.97463655  1
  O  O31  1  0.71221473  0.42145344  0.80381615  1
  P  P32  1  0.07655627  0.12589398  0.75236728  1
  P  P33  1  0.13097242  0.53541654  0.74598873  1
  P  P34  1  0.25000005  0.72708564  0.99999985  1
  P  P35  1  0.36902729  0.53541654  0.25401255  1
  P  P36  1  0.42344344  0.12589398  0.24763205  1
  P  P37  1  0.57655637  0.87410642  0.75236894  1
  P  P38  1  0.63097252  0.46458240  0.74598844  1
  P  P39  1  0.92344354  0.87410642  0.24763175  1
  P  P40  1  0.86902739  0.46458240  0.25401225  1
  P  P41  1  0.75000015  0.27291477  0.99999956  1
  V  V42  1  0.09379944  0.81791693  0.24866902  1
  V  V43  1  0.40620079  0.81791693  0.75133224  1
  V  V44  1  0.59379902  0.18208347  0.24866874  1
  V  V45  1  0.90620089  0.18208347  0.75133195  1
