# generated using pymatgen
data_SrAl2SiN2O3
_symmetry_space_group_name_H-M   'P 1'
_cell_length_a   4.97959488
_cell_length_b   8.12866371
_cell_length_c   11.43298070
_cell_angle_alpha   90.00000000
_cell_angle_beta   90.00000000
_cell_angle_gamma   90.00000000
_symmetry_Int_Tables_number   1
_chemical_formula_structural   SrAl2SiN2O3
_chemical_formula_sum   'Sr4 Al8 Si4 N8 O12'
_cell_volume   462.77792969
_cell_formula_units_Z   4
loop_
 _symmetry_equiv_pos_site_id
 _symmetry_equiv_pos_as_xyz
  1  'x, y, z'
loop_
 _atom_site_type_symbol
 _atom_site_label
 _atom_site_symmetry_multiplicity
 _atom_site_fract_x
 _atom_site_fract_y
 _atom_site_fract_z
 _atom_site_occupancy
  Sr  Sr0  1  0.51116115  0.04067869  0.16235358  1
  Sr  Sr1  1  0.01116115  0.45932131  0.83764642  1
  Sr  Sr2  1  0.98883885  0.95932131  0.66235358  1
  Sr  Sr3  1  0.48883885  0.54067869  0.33764642  1
  Al  Al4  1  0.49961269  0.66371580  0.66128049  1
  Al  Al5  1  -0.00038731  0.83628420  0.33871951  1
  Al  Al6  1  0.98889732  0.52828354  0.54281155  1
  Al  Al7  1  0.50038731  0.16371580  0.83871951  1
  Al  Al8  1  1.00038731  0.33628420  0.16128049  1
  Al  Al9  1  0.48889732  0.97171646  0.45718845  1
  Al  Al10  1  0.51110268  0.47171646  0.04281155  1
  Al  Al11  1  0.01110268  0.02828354  0.95718845  1
  Si  Si12  1  0.99424053  0.70168050  0.07456662  1
  Si  Si13  1  0.50575947  0.29831950  0.57456662  1
  Si  Si14  1  0.49424053  0.79831950  0.92543338  1
  Si  Si15  1  0.00575947  0.20168050  0.42543338  1
  N  N16  1  0.29415479  0.15738744  0.50665955  1
  N  N17  1  0.20584521  0.84261256  0.00665955  1
  N  N18  1  0.33546154  0.48181448  0.59360990  1
  N  N19  1  0.70584521  0.65738744  0.99334045  1
  N  N20  1  0.83546154  0.01818552  0.40639010  1
  N  N21  1  0.16453846  0.51818552  0.09360990  1
  N  N22  1  0.79415479  0.34261256  0.49334045  1
  N  N23  1  0.66453846  0.98181448  0.90639010  1
  O  O24  1  0.64865065  0.36886675  0.16785721  1
  O  O25  1  0.14865065  0.13113325  0.83214279  1
  O  O26  1  0.35134935  0.86886675  0.33214279  1
  O  O27  1  0.12539709  0.29131008  0.30379337  1
  O  O28  1  0.87460291  0.79131008  0.19620663  1
  O  O29  1  0.04385247  0.15215065  0.08333250  1
  O  O30  1  0.54385247  0.34784935  0.91666750  1
  O  O31  1  0.37460291  0.70868992  0.80379337  1
  O  O32  1  0.95614753  0.65215065  0.41666750  1
  O  O33  1  0.85134935  0.63113325  0.66785721  1
  O  O34  1  0.45614753  0.84784935  0.58333250  1
  O  O35  1  0.62539709  0.20868992  0.69620663  1
