# generated using pymatgen
data_Tl2Cu(CO3)2
_symmetry_space_group_name_H-M   'P 1'
_cell_length_a   7.70210897
_cell_length_b   9.27893596
_cell_length_c   9.97449326
_cell_angle_alpha   90.00000000
_cell_angle_beta   90.00000000
_cell_angle_gamma   111.45057642
_symmetry_Int_Tables_number   1
_chemical_formula_structural   Tl2Cu(CO3)2
_chemical_formula_sum   'Tl8 Cu4 C8 O24'
_cell_volume   663.47408094
_cell_formula_units_Z   4
loop_
 _symmetry_equiv_pos_site_id
 _symmetry_equiv_pos_as_xyz
  1  'x, y, z'
loop_
 _atom_site_type_symbol
 _atom_site_label
 _atom_site_symmetry_multiplicity
 _atom_site_fract_x
 _atom_site_fract_y
 _atom_site_fract_z
 _atom_site_occupancy
  Tl  Tl0  1  0.73424784  0.64804122  0.11041552  1
  Tl  Tl1  1  0.87816447  0.48215985  0.79721620  1
  Tl  Tl2  1  0.12183553  0.01784015  0.29721620  1
  Tl  Tl3  1  0.26575216  0.85195878  0.61041552  1
  Tl  Tl4  1  0.87816447  0.98215985  0.70278380  1
  Tl  Tl5  1  0.73424784  0.14804122  0.38958448  1
  Tl  Tl6  1  0.26575216  0.35195878  0.88958448  1
  Tl  Tl7  1  0.12183553  0.51784015  0.20278380  1
  Cu  Cu8  1  0.46108116  0.92308379  0.10603444  1
  Cu  Cu9  1  0.46108116  0.42308379  0.39396556  1
  Cu  Cu10  1  0.53891884  0.07691621  0.89396556  1
  Cu  Cu11  1  0.53891884  0.57691621  0.60603444  1
  C  C12  1  0.47966308  0.25032513  0.11743925  1
  C  C13  1  0.47966308  0.75032513  0.38256075  1
  C  C14  1  0.13922474  0.90526850  0.95043608  1
  C  C15  1  0.86077526  0.09473150  0.04956392  1
  C  C16  1  0.13922474  0.40526850  0.54956392  1
  C  C17  1  0.86077526  0.59473150  0.45043608  1
  C  C18  1  0.52033692  0.74967487  0.88256075  1
  C  C19  1  0.52033692  0.24967487  0.61743925  1
  O  O20  1  0.53834556  0.76539531  0.50678857  1
  O  O21  1  0.53902323  0.87476673  0.81392569  1
  O  O22  1  0.26093971  0.00904031  0.87492601  1
  O  O23  1  0.53902323  0.37476673  0.68607431  1
  O  O24  1  0.43919491  0.85905161  0.32853682  1
  O  O25  1  0.43919491  0.35905161  0.17146318  1
  O  O26  1  0.46165444  0.73460469  0.00678857  1
  O  O27  1  0.26093971  0.50904031  0.62507399  1
  O  O28  1  0.53834556  0.26539531  0.99321143  1
  O  O29  1  0.46097677  0.12523327  0.18607431  1
  O  O30  1  0.18812713  0.86201368  0.06543705  1
  O  O31  1  0.81187287  0.13798632  0.93456295  1
  O  O32  1  0.81187287  0.63798632  0.56543705  1
  O  O33  1  0.96987500  0.34400903  0.58920551  1
  O  O34  1  0.18812713  0.36201368  0.43456295  1
  O  O35  1  0.56080509  0.64094839  0.82853682  1
  O  O36  1  0.46097677  0.62523327  0.31392569  1
  O  O37  1  0.73906029  0.99095969  0.12507399  1
  O  O38  1  0.03012500  0.15599097  0.08920551  1
  O  O39  1  0.96987500  0.84400903  0.91079449  1
  O  O40  1  0.73906029  0.49095969  0.37492601  1
  O  O41  1  0.46165444  0.23460469  0.49321143  1
  O  O42  1  0.56080509  0.14094839  0.67146318  1
  O  O43  1  0.03012500  0.65599097  0.41079449  1
