# generated using pymatgen
data_Ce(Al5Ru)2
_symmetry_space_group_name_H-M   'P 1'
_cell_length_a   6.87946538
_cell_length_b   6.87946477
_cell_length_c   9.15261857
_cell_angle_alpha   90.00000000
_cell_angle_beta   90.00000000
_cell_angle_gamma   97.27843223
_symmetry_Int_Tables_number   1
_chemical_formula_structural   Ce(Al5Ru)2
_chemical_formula_sum   'Ce2 Al20 Ru4'
_cell_volume   429.67597595
_cell_formula_units_Z   2
loop_
 _symmetry_equiv_pos_site_id
 _symmetry_equiv_pos_as_xyz
  1  'x, y, z'
loop_
 _atom_site_type_symbol
 _atom_site_label
 _atom_site_symmetry_multiplicity
 _atom_site_fract_x
 _atom_site_fract_y
 _atom_site_fract_z
 _atom_site_occupancy
  Ce  Ce0  1  0.87666565  0.12333435  0.25000000  1
  Ce  Ce1  1  0.12333435  0.87666565  0.75000000  1
  Al  Al2  1  0.58907652  0.85995235  0.75000000  1
  Al  Al3  1  0.77882303  0.51972232  0.75000000  1
  Al  Al4  1  0.15928420  0.84071580  0.39882478  1
  Al  Al5  1  0.41092348  0.14004765  0.25000000  1
  Al  Al6  1  0.62262998  0.37737002  0.44853291  1
  Al  Al7  1  0.84071580  0.15928420  0.89882478  1
  Al  Al8  1  0.77354624  0.77354624  0.50000000  1
  Al  Al9  1  0.85995235  0.58907652  0.25000000  1
  Al  Al10  1  0.84071580  0.15928420  0.60117522  1
  Al  Al11  1  0.22117697  0.48027768  0.25000000  1
  Al  Al12  1  0.15928420  0.84071580  0.10117522  1
  Al  Al13  1  0.77354624  0.77354624  -0.00000000  1
  Al  Al14  1  0.48027768  0.22117697  0.75000000  1
  Al  Al15  1  0.62262998  0.37737002  0.05146709  1
  Al  Al16  1  0.22645376  0.22645376  -0.00000000  1
  Al  Al17  1  0.37737002  0.62262998  0.94853291  1
  Al  Al18  1  0.14004765  0.41092348  0.75000000  1
  Al  Al19  1  0.51972232  0.77882303  0.25000000  1
  Al  Al20  1  0.37737002  0.62262998  0.55146709  1
  Al  Al21  1  0.22645376  0.22645376  0.50000000  1
  Ru  Ru22  1  0.50000000  -0.00000000  0.50000000  1
  Ru  Ru23  1  0.50000000  -0.00000000  -0.00000000  1
  Ru  Ru24  1  -0.00000000  0.50000000  0.50000000  1
  Ru  Ru25  1  -0.00000000  0.50000000  -0.00000000  1
