# generated using pymatgen
data_Zn(CrS2)2
_symmetry_space_group_name_H-M   'P 1'
_cell_length_a   7.10166652
_cell_length_b   7.10166651
_cell_length_c   7.10166651
_cell_angle_alpha   59.99999995
_cell_angle_beta   59.99999998
_cell_angle_gamma   59.99999994
_symmetry_Int_Tables_number   1
_chemical_formula_structural   Zn(CrS2)2
_chemical_formula_sum   'Zn2 Cr4 S8'
_cell_volume   253.25954645
_cell_formula_units_Z   2
loop_
 _symmetry_equiv_pos_site_id
 _symmetry_equiv_pos_as_xyz
  1  'x, y, z'
loop_
 _atom_site_type_symbol
 _atom_site_label
 _atom_site_symmetry_multiplicity
 _atom_site_fract_x
 _atom_site_fract_y
 _atom_site_fract_z
 _atom_site_occupancy
  S  S0  1  0.73945542  0.28163373  0.73945542  1
  S  S1  1  0.73945542  0.73945542  0.73945542  1
  S  S2  1  0.26054458  0.26054458  0.71836627  1
  S  S3  1  0.26054458  0.71836627  0.26054458  1
  S  S4  1  0.26054458  0.26054458  0.26054458  1
  S  S5  1  0.73945542  0.73945542  0.28163373  1
  S  S6  1  0.28163373  0.73945542  0.73945542  1
  S  S7  1  0.71836627  0.26054458  0.26054458  1
  Cr  Cr8  1  0.50000000  0.50000000  0.50000000  1
  Cr  Cr9  1  0.50000000  0.00000000  0.50000000  1
  Cr  Cr10  1  0.00000000  0.50000000  0.50000000  1
  Cr  Cr11  1  0.50000000  0.50000000  0.00000000  1
  Zn  Zn12  1  0.87500000  0.87500000  0.87500000  1
  Zn  Zn13  1  0.12500000  0.12500000  0.12500000  1
