# generated using pymatgen
data_BaCa4(CuN2)2
_symmetry_space_group_name_H-M   'P 1'
_cell_length_a   8.28299164
_cell_length_b   8.28299164
_cell_length_c   12.51500487
_cell_angle_alpha   90.00000000
_cell_angle_beta   90.00000000
_cell_angle_gamma   90.00000000
_symmetry_Int_Tables_number   1
_chemical_formula_structural   BaCa4(CuN2)2
_chemical_formula_sum   'Ba4 Ca16 Cu8 N16'
_cell_volume   858.62883473
_cell_formula_units_Z   4
loop_
 _symmetry_equiv_pos_site_id
 _symmetry_equiv_pos_as_xyz
  1  'x, y, z'
loop_
 _atom_site_type_symbol
 _atom_site_label
 _atom_site_symmetry_multiplicity
 _atom_site_fract_x
 _atom_site_fract_y
 _atom_site_fract_z
 _atom_site_occupancy
  Ba  Ba0  1  0.25000000  0.25000000  0.65549759  1
  Ba  Ba1  1  0.75000000  0.75000000  0.84450241  1
  Ba  Ba2  1  0.25000000  0.25000000  0.15549759  1
  Ba  Ba3  1  0.75000000  0.75000000  0.34450241  1
  Ca  Ca4  1  0.91684068  0.13097789  0.41270081  1
  Ca  Ca5  1  0.63097789  0.08315932  0.58729919  1
  Ca  Ca6  1  0.08315932  0.86902211  0.58729919  1
  Ca  Ca7  1  0.58315932  0.36902211  0.41270081  1
  Ca  Ca8  1  0.91684068  0.36902211  0.91270081  1
  Ca  Ca9  1  0.08315932  0.63097789  0.08729919  1
  Ca  Ca10  1  0.13097789  0.91684068  0.91270081  1
  Ca  Ca11  1  0.58315932  0.13097789  0.91270081  1
  Ca  Ca12  1  0.63097789  0.41684068  0.08729919  1
  Ca  Ca13  1  0.36902211  0.58315932  0.91270081  1
  Ca  Ca14  1  0.36902211  0.91684068  0.41270081  1
  Ca  Ca15  1  0.41684068  0.63097789  0.58729919  1
  Ca  Ca16  1  0.86902211  0.41684068  0.58729919  1
  Ca  Ca17  1  0.13097789  0.58315932  0.41270081  1
  Ca  Ca18  1  0.41684068  0.86902211  0.08729919  1
  Ca  Ca19  1  0.86902211  0.08315932  0.08729919  1
  Cu  Cu20  1  0.90303586  0.40303586  0.25000000  1
  Cu  Cu21  1  0.40303586  0.59696414  0.25000000  1
  Cu  Cu22  1  0.90303586  0.09696414  0.75000000  1
  Cu  Cu23  1  0.59696414  0.09696414  0.25000000  1
  Cu  Cu24  1  0.59696414  0.40303586  0.75000000  1
  Cu  Cu25  1  0.40303586  0.90303586  0.75000000  1
  Cu  Cu26  1  0.09696414  0.90303586  0.25000000  1
  Cu  Cu27  1  0.09696414  0.59696414  0.75000000  1
  N  N28  1  0.62440346  0.43052021  0.89690899  1
  N  N29  1  0.06947979  0.62440346  0.89690899  1
  N  N30  1  0.37559654  0.93052021  0.60309101  1
  N  N31  1  0.93052021  0.37559654  0.10309101  1
  N  N32  1  0.06947979  0.87559654  0.39690899  1
  N  N33  1  0.93052021  0.12440346  0.60309101  1
  N  N34  1  0.43052021  0.87559654  0.89690899  1
  N  N35  1  0.56947979  0.37559654  0.60309101  1
  N  N36  1  0.56947979  0.12440346  0.10309101  1
  N  N37  1  0.87559654  0.43052021  0.39690899  1
  N  N38  1  0.62440346  0.06947979  0.39690899  1
  N  N39  1  0.43052021  0.62440346  0.39690899  1
  N  N40  1  0.37559654  0.56947979  0.10309101  1
  N  N41  1  0.87559654  0.06947979  0.89690899  1
  N  N42  1  0.12440346  0.56947979  0.60309101  1
  N  N43  1  0.12440346  0.93052021  0.10309101  1
