# generated using pymatgen
data_NaY(SeO3)2
_symmetry_space_group_name_H-M   'P 1'
_cell_length_a   5.47589993
_cell_length_b   8.70769530
_cell_length_c   12.96512349
_cell_angle_alpha   90.00000000
_cell_angle_beta   90.00000000
_cell_angle_gamma   90.00000000
_symmetry_Int_Tables_number   1
_chemical_formula_structural   NaY(SeO3)2
_chemical_formula_sum   'Na4 Y4 Se8 O24'
_cell_volume   618.20908701
_cell_formula_units_Z   4
loop_
 _symmetry_equiv_pos_site_id
 _symmetry_equiv_pos_as_xyz
  1  'x, y, z'
loop_
 _atom_site_type_symbol
 _atom_site_label
 _atom_site_symmetry_multiplicity
 _atom_site_fract_x
 _atom_site_fract_y
 _atom_site_fract_z
 _atom_site_occupancy
  Na  Na0  1  0.79239808  0.98998661  0.38219290  1
  Na  Na1  1  0.79239808  0.51001339  0.88219290  1
  Na  Na2  1  0.29239808  0.01001339  0.61780710  1
  Na  Na3  1  0.29239808  0.48998661  0.11780710  1
  Y  Y4  1  0.24293638  0.17507241  0.91360065  1
  Y  Y5  1  0.74293638  0.82492759  0.08639935  1
  Y  Y6  1  0.74293638  0.67507241  0.58639935  1
  Y  Y7  1  0.24293638  0.32492759  0.41360065  1
  Se  Se8  1  0.74834095  0.96983126  0.79736433  1
  Se  Se9  1  0.24834095  0.46983126  0.70263567  1
  Se  Se10  1  0.79503924  0.26650223  0.57996128  1
  Se  Se11  1  0.29503924  0.73349777  0.42003872  1
  Se  Se12  1  0.74834095  0.53016874  0.29736433  1
  Se  Se13  1  0.29503924  0.76650223  0.92003872  1
  Se  Se14  1  0.24834095  0.03016874  0.20263567  1
  Se  Se15  1  0.79503924  0.23349777  0.07996128  1
  O  O16  1  0.99633376  0.15158840  0.51329290  1
  O  O17  1  0.05750230  0.87226473  0.20192928  1
  O  O18  1  0.19793884  0.09730216  0.32596031  1
  O  O19  1  0.38069212  0.56275916  0.48384161  1
  O  O20  1  0.01883900  0.78022240  0.47425196  1
  O  O21  1  0.49633376  0.84841160  0.48670710  1
  O  O22  1  0.53827932  0.54898827  0.71519736  1
  O  O23  1  0.05750230  0.62773527  0.70192928  1
  O  O24  1  0.01883900  0.71977760  0.97425196  1
  O  O25  1  0.69793884  0.90269784  0.67403969  1
  O  O26  1  0.03827932  0.04898827  0.78480264  1
  O  O27  1  0.51883900  0.21977760  0.52574804  1
  O  O28  1  0.69793884  0.59730216  0.17403969  1
  O  O29  1  0.19793884  0.40269784  0.82596031  1
  O  O30  1  0.99633376  0.34841160  0.01329290  1
  O  O31  1  0.38069212  0.93724084  0.98384161  1
  O  O32  1  0.55750230  0.37226473  0.29807072  1
  O  O33  1  0.88069212  0.43724084  0.51615839  1
  O  O34  1  0.49633376  0.65158840  0.98670710  1
  O  O35  1  0.03827932  0.45101173  0.28480264  1
  O  O36  1  0.55750230  0.12773527  0.79807072  1
  O  O37  1  0.53827932  0.95101173  0.21519736  1
  O  O38  1  0.51883900  0.28022240  0.02574804  1
  O  O39  1  0.88069212  0.06275916  0.01615839  1
