# generated using pymatgen
data_Rb2PO3F
_symmetry_space_group_name_H-M   'P 1'
_cell_length_a   6.23589342
_cell_length_b   8.06642477
_cell_length_c   10.69361021
_cell_angle_alpha   90.00000000
_cell_angle_beta   90.00000000
_cell_angle_gamma   90.00000000
_symmetry_Int_Tables_number   1
_chemical_formula_structural   Rb2PO3F
_chemical_formula_sum   'Rb8 P4 O12 F4'
_cell_volume   537.90319190
_cell_formula_units_Z   4
loop_
 _symmetry_equiv_pos_site_id
 _symmetry_equiv_pos_as_xyz
  1  'x, y, z'
loop_
 _atom_site_type_symbol
 _atom_site_label
 _atom_site_symmetry_multiplicity
 _atom_site_fract_x
 _atom_site_fract_y
 _atom_site_fract_z
 _atom_site_occupancy
  O  O0  1  0.75000000  0.18840936  0.04655232  1
  O  O1  1  0.25000000  0.81159064  0.95344768  1
  O  O2  1  0.25000000  0.31159064  0.54655232  1
  O  O3  1  0.75000000  0.68840936  0.45344768  1
  O  O4  1  0.95644906  0.23009992  0.84079994  1
  O  O5  1  0.45644906  0.76990008  0.15920006  1
  O  O6  1  0.54355094  0.73009992  0.65920006  1
  O  O7  1  0.04355094  0.26990008  0.34079994  1
  O  O8  1  0.04355094  0.76990008  0.15920006  1
  O  O9  1  0.54355094  0.23009992  0.84079994  1
  O  O10  1  0.45644906  0.26990008  0.34079994  1
  O  O11  1  0.95644906  0.73009992  0.65920006  1
  F  F12  1  0.75000000  0.96385519  0.56298537  1
  F  F13  1  0.25000000  0.03614481  0.43701463  1
  F  F14  1  0.25000000  0.53614481  0.06298537  1
  F  F15  1  0.75000000  0.46385519  0.93701463  1
  P  P16  1  0.25000000  0.74209599  0.08616114  1
  P  P17  1  0.75000000  0.25790401  0.91383886  1
  P  P18  1  0.25000000  0.24209599  0.41383886  1
  P  P19  1  0.75000000  0.75790401  0.58616114  1
  Rb  Rb20  1  0.25000000  0.67629492  0.42265024  1
  Rb  Rb21  1  0.75000000  0.32370508  0.57734976  1
  Rb  Rb22  1  0.25000000  0.17629492  0.07734976  1
  Rb  Rb23  1  0.75000000  0.82370508  0.92265024  1
  Rb  Rb24  1  0.25000000  0.50707819  0.78197091  1
  Rb  Rb25  1  0.75000000  0.49292181  0.21802909  1
  Rb  Rb26  1  0.25000000  0.00707819  0.71802909  1
  Rb  Rb27  1  0.75000000  0.99292181  0.28197091  1
