# generated using pymatgen
data_HoCoSn
_symmetry_space_group_name_H-M   'P 1'
_cell_length_a   4.57928980
_cell_length_b   7.23886457
_cell_length_c   7.30340651
_cell_angle_alpha   90.00000000
_cell_angle_beta   90.00000000
_cell_angle_gamma   90.00000000
_symmetry_Int_Tables_number   1
_chemical_formula_structural   HoCoSn
_chemical_formula_sum   'Ho4 Co4 Sn4'
_cell_volume   242.09959035
_cell_formula_units_Z   4
loop_
 _symmetry_equiv_pos_site_id
 _symmetry_equiv_pos_as_xyz
  1  'x, y, z'
loop_
 _atom_site_type_symbol
 _atom_site_label
 _atom_site_symmetry_multiplicity
 _atom_site_fract_x
 _atom_site_fract_y
 _atom_site_fract_z
 _atom_site_occupancy
  Co  Co0  1  0.75000000  0.84195198  0.44126072  1
  Co  Co1  1  0.25000000  0.15804802  0.55873928  1
  Co  Co2  1  0.75000000  0.34195198  0.05873928  1
  Co  Co3  1  0.25000000  0.65804802  0.94126072  1
  Sn  Sn4  1  0.75000000  0.70210397  0.10817603  1
  Sn  Sn5  1  0.25000000  0.79789603  0.60817603  1
  Sn  Sn6  1  0.25000000  0.29789603  0.89182397  1
  Sn  Sn7  1  0.75000000  0.20210397  0.39182397  1
  Ho  Ho8  1  0.25000000  0.47668312  0.29951972  1
  Ho  Ho9  1  0.25000000  0.97668312  0.20048028  1
  Ho  Ho10  1  0.75000000  0.02331688  0.79951972  1
  Ho  Ho11  1  0.75000000  0.52331688  0.70048028  1
