# generated using pymatgen
data_CaCr2O4
_symmetry_space_group_name_H-M   'P 1'
_cell_length_a   3.03758394
_cell_length_b   9.19878243
_cell_length_c   10.79494018
_cell_angle_alpha   90.00000000
_cell_angle_beta   90.00000000
_cell_angle_gamma   90.00000000
_symmetry_Int_Tables_number   1
_chemical_formula_structural   CaCr2O4
_chemical_formula_sum   'Ca4 Cr8 O16'
_cell_volume   301.63301493
_cell_formula_units_Z   4
loop_
 _symmetry_equiv_pos_site_id
 _symmetry_equiv_pos_as_xyz
  1  'x, y, z'
loop_
 _atom_site_type_symbol
 _atom_site_label
 _atom_site_symmetry_multiplicity
 _atom_site_fract_x
 _atom_site_fract_y
 _atom_site_fract_z
 _atom_site_occupancy
  Ca  Ca0  1  0.75000000  0.24023725  0.34082612  1
  Ca  Ca1  1  0.25000000  0.75976275  0.65917388  1
  Ca  Ca2  1  0.75000000  0.74023725  0.15917388  1
  Ca  Ca3  1  0.25000000  0.25976275  0.84082612  1
  Cr  Cr4  1  0.75000000  0.55979077  0.38706274  1
  Cr  Cr5  1  0.25000000  0.44020923  0.61293726  1
  Cr  Cr6  1  0.75000000  0.05979077  0.11293726  1
  Cr  Cr7  1  0.25000000  0.94020923  0.88706274  1
  Cr  Cr8  1  0.75000000  0.58405224  0.89910278  1
  Cr  Cr9  1  0.25000000  0.41594776  0.10089722  1
  Cr  Cr10  1  0.75000000  0.08405224  0.60089722  1
  Cr  Cr11  1  0.25000000  0.91594776  0.39910278  1
  O  O12  1  0.75000000  0.79849281  0.83782778  1
  O  O13  1  0.25000000  0.20150719  0.16217222  1
  O  O14  1  0.75000000  0.29849281  0.66217222  1
  O  O15  1  0.25000000  0.70150719  0.33782778  1
  O  O16  1  0.75000000  0.88228144  0.52505528  1
  O  O17  1  0.25000000  0.11771856  0.47494472  1
  O  O18  1  0.75000000  0.38228144  0.97494472  1
  O  O19  1  0.25000000  0.61771856  0.02505528  1
  O  O20  1  0.75000000  0.47089017  0.21419753  1
  O  O21  1  0.25000000  0.52910983  0.78580247  1
  O  O22  1  0.75000000  0.97089017  0.28580247  1
  O  O23  1  0.25000000  0.02910983  0.71419753  1
  O  O24  1  0.75000000  0.58201106  0.57367271  1
  O  O25  1  0.25000000  0.41798894  0.42632729  1
  O  O26  1  0.75000000  0.08201106  0.92632729  1
  O  O27  1  0.25000000  0.91798894  0.07367271  1
