# generated using pymatgen
data_Al2Si(O2F)2
_symmetry_space_group_name_H-M   'P 1'
_cell_length_a   4.70801455
_cell_length_b   8.49746302
_cell_length_c   8.88879180
_cell_angle_alpha   90.00000000
_cell_angle_beta   90.00000000
_cell_angle_gamma   90.00000000
_symmetry_Int_Tables_number   1
_chemical_formula_structural   Al2Si(O2F)2
_chemical_formula_sum   'Al8 Si4 O16 F8'
_cell_volume   355.60660061
_cell_formula_units_Z   4
loop_
 _symmetry_equiv_pos_site_id
 _symmetry_equiv_pos_as_xyz
  1  'x, y, z'
loop_
 _atom_site_type_symbol
 _atom_site_label
 _atom_site_symmetry_multiplicity
 _atom_site_fract_x
 _atom_site_fract_y
 _atom_site_fract_z
 _atom_site_occupancy
  O  O0  1  0.45992719  0.25000000  0.75595798  1
  O  O1  1  0.79157604  0.59285326  0.01148310  1
  O  O2  1  0.70842396  0.90714674  0.51148310  1
  O  O3  1  0.20842396  0.09285326  0.98851690  1
  O  O4  1  0.95992719  0.75000000  0.74404202  1
  O  O5  1  0.29157604  0.40714674  0.48851690  1
  O  O6  1  0.04007281  0.25000000  0.25595798  1
  O  O7  1  0.54007281  0.75000000  0.24404202  1
  O  O8  1  0.70842396  0.59285326  0.51148310  1
  O  O9  1  0.20842396  0.40714674  0.98851690  1
  O  O10  1  0.29157604  0.09285326  0.48851690  1
  O  O11  1  0.79157604  0.90714674  0.01148310  1
  O  O12  1  0.20126311  0.75000000  0.46730315  1
  O  O13  1  0.70126311  0.25000000  0.03269685  1
  O  O14  1  0.79873689  0.25000000  0.53269685  1
  O  O15  1  0.29873689  0.75000000  0.96730315  1
  F  F16  1  0.09866728  0.94432214  0.24760482  1
  F  F17  1  0.59866728  0.05567786  0.25239518  1
  F  F18  1  0.59866728  0.44432214  0.25239518  1
  F  F19  1  0.40133272  0.55567786  0.74760482  1
  F  F20  1  0.90133272  0.05567786  0.75239518  1
  F  F21  1  0.40133272  0.94432214  0.74760482  1
  F  F22  1  0.09866728  0.55567786  0.24760482  1
  F  F23  1  0.90133272  0.44432214  0.75239518  1
  Al  Al24  1  0.09715984  0.91675835  0.86950558  1
  Al  Al25  1  0.59715984  0.08324165  0.63049442  1
  Al  Al26  1  0.90284016  0.41675835  0.13049442  1
  Al  Al27  1  0.40284016  0.58324165  0.36950558  1
  Al  Al28  1  0.59715984  0.41675835  0.63049442  1
  Al  Al29  1  0.09715984  0.58324165  0.86950558  1
  Al  Al30  1  0.40284016  0.91675835  0.36950558  1
  Al  Al31  1  0.90284016  0.08324165  0.13049442  1
  Si  Si32  1  0.60365523  0.75000000  0.06005247  1
  Si  Si33  1  0.10365523  0.25000000  0.43994753  1
  Si  Si34  1  0.39634477  0.25000000  0.93994753  1
  Si  Si35  1  0.89634477  0.75000000  0.56005247  1
