# generated using pymatgen
data_K3Na2LiTeO6
_symmetry_space_group_name_H-M   'P 1'
_cell_length_a   6.88720159
_cell_length_b   7.64216610
_cell_length_c   7.64216583
_cell_angle_alpha   104.03164186
_cell_angle_beta   92.29949362
_cell_angle_gamma   92.29949113
_symmetry_Int_Tables_number   1
_chemical_formula_structural   K3Na2LiTeO6
_chemical_formula_sum   'K6 Na4 Li2 Te2 O12'
_cell_volume   389.39923118
_cell_formula_units_Z   2
loop_
 _symmetry_equiv_pos_site_id
 _symmetry_equiv_pos_as_xyz
  1  'x, y, z'
loop_
 _atom_site_type_symbol
 _atom_site_label
 _atom_site_symmetry_multiplicity
 _atom_site_fract_x
 _atom_site_fract_y
 _atom_site_fract_z
 _atom_site_occupancy
  K  K0  1  0.76042970  0.38255247  0.40114984  1
  K  K1  1  0.42620706  0.01409910  0.10790169  1
  K  K2  1  0.24573030  0.78271948  0.70307337  1
  K  K3  1  0.26042970  0.40114984  0.38255247  1
  K  K4  1  0.92620706  0.10790169  0.01409910  1
  K  K5  1  0.74573030  0.70307337  0.78271948  1
  Na  Na6  1  0.89816010  0.07371016  0.61001613  1
  Na  Na7  1  0.39816010  0.61001613  0.07371016  1
  Na  Na8  1  0.59554235  0.86049769  0.42912790  1
  Na  Na9  1  0.09554235  0.42912790  0.86049769  1
  Li  Li10  1  0.24917407  0.02966657  0.47386276  1
  Li  Li11  1  0.74917407  0.47386276  0.02966657  1
  Te  Te12  1  0.99996597  0.75711142  0.24316667  1
  Te  Te13  1  0.49996597  0.24316667  0.75711142  1
  O  O14  1  0.51422845  0.32200007  0.02754330  1
  O  O15  1  0.60005544  0.00706422  0.76611736  1
  O  O16  1  0.90263897  0.74506965  0.48017338  1
  O  O17  1  0.22647297  0.14255298  0.74411545  1
  O  O18  1  0.10005544  0.76611736  0.00706422  1
  O  O19  1  0.72647297  0.74411545  0.14255298  1
  O  O20  1  0.01422845  0.02754330  0.32200007  1
  O  O21  1  0.49615634  0.16383439  0.48783648  1
  O  O22  1  0.99615634  0.48783648  0.16383439  1
  O  O23  1  0.27303827  0.76629675  0.34554072  1
  O  O24  1  0.40263897  0.48017338  0.74506965  1
  O  O25  1  0.77303827  0.34554072  0.76629675  1
