# generated using pymatgen
data_La4MgIr
_symmetry_space_group_name_H-M   'P 1'
_cell_length_a   10.19755811
_cell_length_b   10.19755808
_cell_length_c   10.19755827
_cell_angle_alpha   60.00000265
_cell_angle_beta   60.00000277
_cell_angle_gamma   59.99999983
_symmetry_Int_Tables_number   1
_chemical_formula_structural   La4MgIr
_chemical_formula_sum   'La16 Mg4 Ir4'
_cell_volume   749.84861090
_cell_formula_units_Z   4
loop_
 _symmetry_equiv_pos_site_id
 _symmetry_equiv_pos_as_xyz
  1  'x, y, z'
loop_
 _atom_site_type_symbol
 _atom_site_label
 _atom_site_symmetry_multiplicity
 _atom_site_fract_x
 _atom_site_fract_y
 _atom_site_fract_z
 _atom_site_occupancy
  La  La0  1  0.56056896  0.93943104  0.56056896  1
  La  La1  1  0.18880786  0.81119214  0.81119214  1
  La  La2  1  0.93943104  0.56056896  0.93943104  1
  La  La3  1  0.81119214  0.18880786  0.81119214  1
  La  La4  1  0.18880786  0.18880786  0.81119214  1
  La  La5  1  0.93943104  0.56056896  0.56056896  1
  La  La6  1  0.34545380  0.96363859  0.34545380  1
  La  La7  1  0.34545380  0.34545380  0.34545380  1
  La  La8  1  0.81119214  0.81119214  0.18880786  1
  La  La9  1  0.96363859  0.34545380  0.34545380  1
  La  La10  1  0.93943104  0.93943104  0.56056896  1
  La  La11  1  0.81119214  0.18880786  0.18880786  1
  La  La12  1  0.34545380  0.34545380  0.96363859  1
  La  La13  1  0.56056896  0.56056896  0.93943104  1
  La  La14  1  0.18880786  0.81119214  0.18880786  1
  La  La15  1  0.56056896  0.93943104  0.93943104  1
  Mg  Mg16  1  0.26496779  0.57834407  0.57834407  1
  Mg  Mg17  1  0.57834407  0.26496779  0.57834407  1
  Mg  Mg18  1  0.57834407  0.57834407  0.57834407  1
  Mg  Mg19  1  0.57834407  0.57834407  0.26496779  1
  Ir  Ir20  1  0.14109020  0.57672939  0.14109020  1
  Ir  Ir21  1  0.14109020  0.14109020  0.14109020  1
  Ir  Ir22  1  0.14109020  0.14109020  0.57672939  1
  Ir  Ir23  1  0.57672939  0.14109020  0.14109020  1
