# generated using pymatgen
data_Sr3MgPtO6
_symmetry_space_group_name_H-M   'P 1'
_cell_length_a   6.75828737
_cell_length_b   6.75828737
_cell_length_c   6.75828737
_cell_angle_alpha   92.17215617
_cell_angle_beta   92.17215617
_cell_angle_gamma   92.17215614
_symmetry_Int_Tables_number   1
_chemical_formula_structural   Sr3MgPtO6
_chemical_formula_sum   'Sr6 Mg2 Pt2 O12'
_cell_volume   307.99831823
_cell_formula_units_Z   2
loop_
 _symmetry_equiv_pos_site_id
 _symmetry_equiv_pos_as_xyz
  1  'x, y, z'
loop_
 _atom_site_type_symbol
 _atom_site_label
 _atom_site_symmetry_multiplicity
 _atom_site_fract_x
 _atom_site_fract_y
 _atom_site_fract_z
 _atom_site_occupancy
  O  O0  1  0.78883277  0.59481646  0.46452549  1
  O  O1  1  0.59481646  0.46452549  0.78883277  1
  O  O2  1  0.46452549  0.78883277  0.59481646  1
  O  O3  1  0.03547451  0.90518354  0.71116723  1
  O  O4  1  0.90518354  0.71116723  0.03547451  1
  O  O5  1  0.71116723  0.03547451  0.90518354  1
  O  O6  1  0.21116723  0.40518354  0.53547451  1
  O  O7  1  0.40518354  0.53547451  0.21116723  1
  O  O8  1  0.53547451  0.21116723  0.40518354  1
  O  O9  1  0.96452549  0.09481646  0.28883277  1
  O  O10  1  0.28883277  0.96452549  0.09481646  1
  O  O11  1  0.09481646  0.28883277  0.96452549  1
  Mg  Mg12  1  0.25000000  0.25000000  0.25000000  1
  Mg  Mg13  1  0.75000000  0.75000000  0.75000000  1
  Sr  Sr14  1  0.25000000  0.61472006  0.88527994  1
  Sr  Sr15  1  0.61472006  0.88527994  0.25000000  1
  Sr  Sr16  1  0.11472006  0.75000000  0.38527994  1
  Sr  Sr17  1  0.75000000  0.38527994  0.11472006  1
  Sr  Sr18  1  0.38527994  0.11472006  0.75000000  1
  Sr  Sr19  1  0.88527994  0.25000000  0.61472006  1
  Pt  Pt20  1  0.00000000  0.00000000  0.00000000  1
  Pt  Pt21  1  0.50000000  0.50000000  0.50000000  1
