# generated using pymatgen
data_NaSr3RuO6
_symmetry_space_group_name_H-M   'P 1'
_cell_length_a   6.83118030
_cell_length_b   6.83118030
_cell_length_c   6.83118030
_cell_angle_alpha   90.81839764
_cell_angle_beta   90.81839770
_cell_angle_gamma   90.81839764
_symmetry_Int_Tables_number   1
_chemical_formula_structural   NaSr3RuO6
_chemical_formula_sum   'Na2 Sr6 Ru2 O12'
_cell_volume   318.67869928
_cell_formula_units_Z   2
loop_
 _symmetry_equiv_pos_site_id
 _symmetry_equiv_pos_as_xyz
  1  'x, y, z'
loop_
 _atom_site_type_symbol
 _atom_site_label
 _atom_site_symmetry_multiplicity
 _atom_site_fract_x
 _atom_site_fract_y
 _atom_site_fract_z
 _atom_site_occupancy
  O  O0  1  0.77833181  0.44462424  0.57546999  1
  O  O1  1  0.44462424  0.57546999  0.77833181  1
  O  O2  1  0.57546999  0.77833181  0.44462424  1
  O  O3  1  0.92453001  0.05537576  0.72166819  1
  O  O4  1  0.05537576  0.72166819  0.92453001  1
  O  O5  1  0.72166819  0.92453001  0.05537576  1
  O  O6  1  0.22166819  0.55537576  0.42453001  1
  O  O7  1  0.55537576  0.42453001  0.22166819  1
  O  O8  1  0.42453001  0.22166819  0.55537576  1
  O  O9  1  0.07546999  0.94462424  0.27833181  1
  O  O10  1  0.27833181  0.07546999  0.94462424  1
  O  O11  1  0.94462424  0.27833181  0.07546999  1
  Na  Na12  1  0.25000000  0.25000000  0.25000000  1
  Na  Na13  1  0.75000000  0.75000000  0.75000000  1
  Sr  Sr14  1  0.39202097  0.75000000  0.10797903  1
  Sr  Sr15  1  0.75000000  0.10797903  0.39202097  1
  Sr  Sr16  1  0.10797903  0.39202097  0.75000000  1
  Sr  Sr17  1  0.60797903  0.25000000  0.89202097  1
  Sr  Sr18  1  0.25000000  0.89202097  0.60797903  1
  Sr  Sr19  1  0.89202097  0.60797903  0.25000000  1
  Ru  Ru20  1  0.00000000  0.00000000  0.00000000  1
  Ru  Ru21  1  0.50000000  0.50000000  0.50000000  1
