# generated using pymatgen
data_Sr2ErRuO6
_symmetry_space_group_name_H-M   'P 1'
_cell_length_a   5.79670015
_cell_length_b   5.84773513
_cell_length_c   8.21791355
_cell_angle_alpha   90.00000000
_cell_angle_beta   90.31727761
_cell_angle_gamma   90.00000000
_symmetry_Int_Tables_number   1
_chemical_formula_structural   Sr2ErRuO6
_chemical_formula_sum   'Sr4 Er2 Ru2 O12'
_cell_volume   278.56300514
_cell_formula_units_Z   2
loop_
 _symmetry_equiv_pos_site_id
 _symmetry_equiv_pos_as_xyz
  1  'x, y, z'
loop_
 _atom_site_type_symbol
 _atom_site_label
 _atom_site_symmetry_multiplicity
 _atom_site_fract_x
 _atom_site_fract_y
 _atom_site_fract_z
 _atom_site_occupancy
  O  O0  1  0.42832770  0.01788869  0.23555138  1
  O  O1  1  0.07167230  0.51788869  0.26444862  1
  O  O2  1  0.57167230  0.98211131  0.76444862  1
  O  O3  1  0.92832770  0.48211131  0.73555138  1
  O  O4  1  0.77058961  0.20189408  0.03706534  1
  O  O5  1  0.72941039  0.70189408  0.46293466  1
  O  O6  1  0.22941039  0.79810592  0.96293466  1
  O  O7  1  0.27058961  0.29810592  0.53706534  1
  O  O8  1  0.30059221  0.27185728  0.96104585  1
  O  O9  1  0.19940779  0.77185728  0.53895415  1
  O  O10  1  0.69940779  0.72814272  0.03895415  1
  O  O11  1  0.80059221  0.22814272  0.46104585  1
  Sr  Sr12  1  0.00756920  0.03425755  0.74945918  1
  Sr  Sr13  1  0.49243080  0.53425755  0.75054082  1
  Sr  Sr14  1  0.50756920  0.46574245  0.24945918  1
  Sr  Sr15  1  0.99243080  0.96574245  0.25054082  1
  Ru  Ru16  1  0.50000000  0.00000000  0.00000000  1
  Ru  Ru17  1  0.00000000  0.50000000  0.50000000  1
  Er  Er18  1  0.50000000  0.00000000  0.50000000  1
  Er  Er19  1  0.00000000  0.50000000  0.00000000  1
