# generated using pymatgen
data_Zr6Si7Ni16
_symmetry_space_group_name_H-M   'P 1'
_cell_length_a   8.11918537
_cell_length_b   8.11918558
_cell_length_c   8.11918564
_cell_angle_alpha   60.00000383
_cell_angle_beta   60.00000298
_cell_angle_gamma   60.00000284
_symmetry_Int_Tables_number   1
_chemical_formula_structural   Zr6Si7Ni16
_chemical_formula_sum   'Zr6 Si7 Ni16'
_cell_volume   378.46213094
_cell_formula_units_Z   1
loop_
 _symmetry_equiv_pos_site_id
 _symmetry_equiv_pos_as_xyz
  1  'x, y, z'
loop_
 _atom_site_type_symbol
 _atom_site_label
 _atom_site_symmetry_multiplicity
 _atom_site_fract_x
 _atom_site_fract_y
 _atom_site_fract_z
 _atom_site_occupancy
  Zr  Zr0  1  0.20732352  0.79267648  0.20732352  1
  Zr  Zr1  1  0.20732352  0.79267648  0.79267648  1
  Zr  Zr2  1  0.79267648  0.79267648  0.20732352  1
  Zr  Zr3  1  0.79267648  0.20732352  0.20732352  1
  Zr  Zr4  1  0.20732352  0.20732352  0.79267648  1
  Zr  Zr5  1  0.79267648  0.20732352  0.79267648  1
  Si  Si6  1  0.00000000  0.50000000  0.00000000  1
  Si  Si7  1  0.50000000  0.50000000  0.50000000  1
  Si  Si8  1  0.50000000  0.00000000  0.00000000  1
  Si  Si9  1  0.50000000  0.00000000  0.50000000  1
  Si  Si10  1  0.00000000  0.00000000  0.50000000  1
  Si  Si11  1  0.00000000  0.50000000  0.50000000  1
  Si  Si12  1  0.50000000  0.50000000  0.00000000  1
  Ni  Ni13  1  0.83088513  0.50734460  0.83088513  1
  Ni  Ni14  1  0.38179862  0.38179862  0.85460415  1
  Ni  Ni15  1  0.61820138  0.14539585  0.61820138  1
  Ni  Ni16  1  0.83088513  0.83088513  0.83088513  1
  Ni  Ni17  1  0.83088513  0.83088513  0.50734460  1
  Ni  Ni18  1  0.85460415  0.38179862  0.38179862  1
  Ni  Ni19  1  0.38179862  0.38179862  0.38179862  1
  Ni  Ni20  1  0.16911487  0.49265540  0.16911487  1
  Ni  Ni21  1  0.14539585  0.61820138  0.61820138  1
  Ni  Ni22  1  0.61820138  0.61820138  0.14539585  1
  Ni  Ni23  1  0.61820138  0.61820138  0.61820138  1
  Ni  Ni24  1  0.49265540  0.16911487  0.16911487  1
  Ni  Ni25  1  0.38179862  0.85460415  0.38179862  1
  Ni  Ni26  1  0.16911487  0.16911487  0.49265540  1
  Ni  Ni27  1  0.50734460  0.83088513  0.83088513  1
  Ni  Ni28  1  0.16911487  0.16911487  0.16911487  1
