# generated using pymatgen
data_HoTaO4
_symmetry_space_group_name_H-M   'P 1'
_cell_length_a   5.13799975
_cell_length_b   5.32619285
_cell_length_c   5.50538897
_cell_angle_alpha   90.00000000
_cell_angle_beta   90.00000000
_cell_angle_gamma   96.47576716
_symmetry_Int_Tables_number   1
_chemical_formula_structural   HoTaO4
_chemical_formula_sum   'Ho2 Ta2 O8'
_cell_volume   149.69908427
_cell_formula_units_Z   2
loop_
 _symmetry_equiv_pos_site_id
 _symmetry_equiv_pos_as_xyz
  1  'x, y, z'
loop_
 _atom_site_type_symbol
 _atom_site_label
 _atom_site_symmetry_multiplicity
 _atom_site_fract_x
 _atom_site_fract_y
 _atom_site_fract_z
 _atom_site_occupancy
  O  O0  1  0.73198691  0.00391068  0.56509212  1
  O  O1  1  0.26801309  0.49608932  0.56509212  1
  O  O2  1  0.26801309  0.99608932  0.43490788  1
  O  O3  1  0.73198691  0.50391068  0.43490788  1
  O  O4  1  0.24881533  0.59921924  0.08495779  1
  O  O5  1  0.75118467  0.90078076  0.08495779  1
  O  O6  1  0.75118467  0.40078076  0.91504221  1
  O  O7  1  0.24881533  0.09921924  0.91504221  1
  Ho  Ho8  1  0.00000000  0.75000000  0.76768593  1
  Ho  Ho9  1  0.00000000  0.25000000  0.23231407  1
  Ta  Ta10  1  0.50000000  0.25000000  0.69378219  1
  Ta  Ta11  1  0.50000000  0.75000000  0.30621781  1
