# generated using pymatgen
data_YAl3(BO3)4
_symmetry_space_group_name_H-M   'P 1'
_cell_length_a   5.93059744
_cell_length_b   5.93059744
_cell_length_c   5.93059744
_cell_angle_alpha   104.28064022
_cell_angle_beta   104.28064027
_cell_angle_gamma   104.28064017
_symmetry_Int_Tables_number   1
_chemical_formula_structural   YAl3(BO3)4
_chemical_formula_sum   'Y1 Al3 B4 O12'
_cell_volume   185.09911982
_cell_formula_units_Z   1
loop_
 _symmetry_equiv_pos_site_id
 _symmetry_equiv_pos_as_xyz
  1  'x, y, z'
loop_
 _atom_site_type_symbol
 _atom_site_label
 _atom_site_symmetry_multiplicity
 _atom_site_fract_x
 _atom_site_fract_y
 _atom_site_fract_z
 _atom_site_occupancy
  B  B0  1  0.05652276  0.50000000  0.94347724  1
  B  B1  1  0.50000000  0.94347724  0.05652276  1
  B  B2  1  0.94347724  0.05652276  0.50000000  1
  B  B3  1  0.50000000  0.50000000  0.50000000  1
  O  O4  1  0.22065538  0.37231179  0.97175380  1
  O  O5  1  0.77934462  0.02824620  0.62768821  1
  O  O6  1  0.62768821  0.77934462  0.02824620  1
  O  O7  1  0.02824620  0.62768821  0.77934462  1
  O  O8  1  0.35136294  0.64863706  0.50000000  1
  O  O9  1  0.50000000  0.35136294  0.64863706  1
  O  O10  1  0.64863706  0.50000000  0.35136294  1
  O  O11  1  0.09179188  0.90820812  0.50000000  1
  O  O12  1  0.50000000  0.09179188  0.90820812  1
  O  O13  1  0.90820812  0.50000000  0.09179188  1
  O  O14  1  0.97175380  0.22065538  0.37231179  1
  O  O15  1  0.37231179  0.97175380  0.22065538  1
  Al  Al16  1  0.44479555  0.00000000  0.55520445  1
  Al  Al17  1  0.00000000  0.55520445  0.44479555  1
  Al  Al18  1  0.55520445  0.44479555  0.00000000  1
  Y  Y19  1  0.00000000  0.00000000  0.00000000  1
