# generated using pymatgen
data_Mn(PO3)3
_symmetry_space_group_name_H-M   'P 1'
_cell_length_a   6.46537187
_cell_length_b   9.90166892
_cell_length_c   10.89400069
_cell_angle_alpha   90.00000000
_cell_angle_beta   90.00000000
_cell_angle_gamma   90.00000000
_symmetry_Int_Tables_number   1
_chemical_formula_structural   Mn(PO3)3
_chemical_formula_sum   'Mn4 P12 O36'
_cell_volume   697.41182789
_cell_formula_units_Z   4
loop_
 _symmetry_equiv_pos_site_id
 _symmetry_equiv_pos_as_xyz
  1  'x, y, z'
loop_
 _atom_site_type_symbol
 _atom_site_label
 _atom_site_symmetry_multiplicity
 _atom_site_fract_x
 _atom_site_fract_y
 _atom_site_fract_z
 _atom_site_occupancy
  Mn  Mn0  1  0.50000000  0.50000000  0.00000000  1
  Mn  Mn1  1  0.50000000  0.00000000  0.50000000  1
  Mn  Mn2  1  0.00000000  0.50000000  0.50000000  1
  Mn  Mn3  1  0.00000000  0.00000000  0.00000000  1
  P  P4  1  0.86731451  0.78567258  0.36440964  1
  P  P5  1  0.63268549  0.28567258  0.36440964  1
  P  P6  1  0.36731451  0.21432742  0.86440964  1
  P  P7  1  0.25000000  0.41505730  0.25000000  1
  P  P8  1  0.86731451  0.28567258  0.13559036  1
  P  P9  1  0.75000000  0.58494270  0.75000000  1
  P  P10  1  0.13268549  0.71432742  0.86440964  1
  P  P11  1  0.36731451  0.71432742  0.63559036  1
  P  P12  1  0.25000000  0.91505730  0.25000000  1
  P  P13  1  0.13268549  0.21432742  0.63559036  1
  P  P14  1  0.75000000  0.08494270  0.75000000  1
  P  P15  1  0.63268549  0.78567258  0.13559036  1
  O  O16  1  0.25000000  0.28506693  0.75000000  1
  O  O17  1  0.39009347  0.32002110  0.96371590  1
  O  O18  1  0.73225448  0.41484916  0.40110733  1
  O  O19  1  0.23225448  0.58515084  0.90110733  1
  O  O20  1  0.34924242  0.50240146  0.15368221  1
  O  O21  1  0.10990653  0.32002110  0.53628410  1
  O  O22  1  0.59428453  0.69060752  0.69173959  1
  O  O23  1  0.09428453  0.30939248  0.19173959  1
  O  O24  1  0.84924242  0.99759854  0.84631779  1
  O  O25  1  0.65075758  0.49759854  0.84631779  1
  O  O26  1  0.25000000  0.78506693  0.75000000  1
  O  O27  1  0.76774552  0.91484916  0.40110733  1
  O  O28  1  0.75000000  0.71493307  0.25000000  1
  O  O29  1  0.65075758  0.99759854  0.65368221  1
  O  O30  1  0.15075758  0.50240146  0.34631779  1
  O  O31  1  0.84924242  0.49759854  0.65368221  1
  O  O32  1  0.40571547  0.30939248  0.30826041  1
  O  O33  1  0.26774552  0.58515084  0.59889267  1
  O  O34  1  0.59428453  0.19060752  0.80826041  1
  O  O35  1  0.40571547  0.80939248  0.19173959  1
  O  O36  1  0.60990653  0.17997890  0.46371590  1
  O  O37  1  0.90571547  0.69060752  0.80826041  1
  O  O38  1  0.90571547  0.19060752  0.69173959  1
  O  O39  1  0.76774552  0.41484916  0.09889267  1
  O  O40  1  0.34924242  0.00240146  0.34631779  1
  O  O41  1  0.10990653  0.82002110  0.96371590  1
  O  O42  1  0.89009347  0.67997890  0.46371590  1
  O  O43  1  0.73225448  0.91484916  0.09889267  1
  O  O44  1  0.09428453  0.80939248  0.30826041  1
  O  O45  1  0.15075758  0.00240146  0.15368221  1
  O  O46  1  0.23225448  0.08515084  0.59889267  1
  O  O47  1  0.39009347  0.82002110  0.53628410  1
  O  O48  1  0.60990653  0.67997890  0.03628410  1
  O  O49  1  0.26774552  0.08515084  0.90110733  1
  O  O50  1  0.89009347  0.17997890  0.03628410  1
  O  O51  1  0.75000000  0.21493307  0.25000000  1
