# generated using pymatgen
data_Nb3Se4
_symmetry_space_group_name_H-M   'P 1'
_cell_length_a   10.17381037
_cell_length_b   10.17381037
_cell_length_c   3.48323874
_cell_angle_alpha   90.00000000
_cell_angle_beta   90.00000000
_cell_angle_gamma   120.00000001
_symmetry_Int_Tables_number   1
_chemical_formula_structural   Nb3Se4
_chemical_formula_sum   'Nb6 Se8'
_cell_volume   312.23468869
_cell_formula_units_Z   2
loop_
 _symmetry_equiv_pos_site_id
 _symmetry_equiv_pos_as_xyz
  1  'x, y, z'
loop_
 _atom_site_type_symbol
 _atom_site_label
 _atom_site_symmetry_multiplicity
 _atom_site_fract_x
 _atom_site_fract_y
 _atom_site_fract_z
 _atom_site_occupancy
  Se  Se0  1  0.65784744  0.71938279  0.75000000  1
  Se  Se1  1  0.93846466  0.65784744  0.25000000  1
  Se  Se2  1  0.71938279  0.06153534  0.25000000  1
  Se  Se3  1  0.28061721  0.93846466  0.75000000  1
  Se  Se4  1  0.06153534  0.34215256  0.75000000  1
  Se  Se5  1  0.34215256  0.28061721  0.25000000  1
  Se  Se6  1  0.66666667  0.33333333  0.75000000  1
  Se  Se7  1  0.33333333  0.66666667  0.25000000  1
  Nb  Nb8  1  0.51265612  0.89234910  0.75000000  1
  Nb  Nb9  1  0.62030703  0.51265612  0.25000000  1
  Nb  Nb10  1  0.89234910  0.37969297  0.25000000  1
  Nb  Nb11  1  0.10765090  0.62030703  0.75000000  1
  Nb  Nb12  1  0.37969297  0.48734388  0.75000000  1
  Nb  Nb13  1  0.48734388  0.10765090  0.25000000  1
