# generated using pymatgen
data_Rb2LiFeF6
_symmetry_space_group_name_H-M   'P 1'
_cell_length_a   10.35339787
_cell_length_b   10.35339787
_cell_length_c   10.35339787
_cell_angle_alpha   33.65900760
_cell_angle_beta   33.65900757
_cell_angle_gamma   33.65900758
_symmetry_Int_Tables_number   1
_chemical_formula_structural   Rb2LiFeF6
_chemical_formula_sum   'Rb4 Li2 Fe2 F12'
_cell_volume   303.72064157
_cell_formula_units_Z   2
loop_
 _symmetry_equiv_pos_site_id
 _symmetry_equiv_pos_as_xyz
  1  'x, y, z'
loop_
 _atom_site_type_symbol
 _atom_site_label
 _atom_site_symmetry_multiplicity
 _atom_site_fract_x
 _atom_site_fract_y
 _atom_site_fract_z
 _atom_site_occupancy
  Li  Li0  1  0.40386262  0.40386262  0.40386262  1
  Li  Li1  1  0.59613738  0.59613738  0.59613738  1
  F  F2  1  0.80448303  0.80448303  0.27617904  1
  F  F3  1  0.80448303  0.27617904  0.80448303  1
  F  F4  1  0.27617904  0.80448303  0.80448303  1
  F  F5  1  0.72382096  0.19551697  0.19551697  1
  F  F6  1  0.19551697  0.19551697  0.72382096  1
  F  F7  1  0.19551697  0.72382096  0.19551697  1
  F  F8  1  0.60774117  0.16139605  0.60774117  1
  F  F9  1  0.60774117  0.60774117  0.16139605  1
  F  F10  1  0.16139605  0.60774117  0.60774117  1
  F  F11  1  0.83860395  0.39225883  0.39225883  1
  F  F12  1  0.39225883  0.83860395  0.39225883  1
  F  F13  1  0.39225883  0.39225883  0.83860395  1
  Fe  Fe14  1  0.00000000  0.00000000  0.00000000  1
  Fe  Fe15  1  0.50000000  0.50000000  0.50000000  1
  Rb  Rb16  1  0.87237760  0.87237760  0.87237760  1
  Rb  Rb17  1  0.12762240  0.12762240  0.12762240  1
  Rb  Rb18  1  0.28297008  0.28297008  0.28297008  1
  Rb  Rb19  1  0.71702992  0.71702992  0.71702992  1
