# generated using pymatgen
data_Sc2B6Rh
_symmetry_space_group_name_H-M   'P 1'
_cell_length_a   3.46714482
_cell_length_b   8.94306231
_cell_length_c   11.20841144
_cell_angle_alpha   90.00000000
_cell_angle_beta   90.00000000
_cell_angle_gamma   90.00000000
_symmetry_Int_Tables_number   1
_chemical_formula_structural   Sc2B6Rh
_chemical_formula_sum   'Sc8 B24 Rh4'
_cell_volume   347.53800484
_cell_formula_units_Z   4
loop_
 _symmetry_equiv_pos_site_id
 _symmetry_equiv_pos_as_xyz
  1  'x, y, z'
loop_
 _atom_site_type_symbol
 _atom_site_label
 _atom_site_symmetry_multiplicity
 _atom_site_fract_x
 _atom_site_fract_y
 _atom_site_fract_z
 _atom_site_occupancy
  Sc  Sc0  1  -0.00000000  0.94532920  0.37363677  1
  Sc  Sc1  1  0.00000000  0.05467080  0.62636323  1
  Sc  Sc2  1  0.00000000  0.55467080  0.87363677  1
  Sc  Sc3  1  -0.00000000  0.18212668  0.91442262  1
  Sc  Sc4  1  0.00000000  0.81787332  0.08557738  1
  Sc  Sc5  1  0.00000000  0.68212668  0.58557738  1
  Sc  Sc6  1  0.00000000  0.31787332  0.41442262  1
  Sc  Sc7  1  -0.00000000  0.44532920  0.12636323  1
  B  B8  1  0.50000000  0.36766596  0.81867606  1
  B  B9  1  0.50000000  0.98113786  0.21188827  1
  B  B10  1  0.50000000  0.55480759  0.43658558  1
  B  B11  1  0.50000000  0.29770845  0.23806210  1
  B  B12  1  0.50000000  0.20229155  0.73806210  1
  B  B13  1  0.50000000  0.10242818  0.47222954  1
  B  B14  1  0.50000000  0.79770845  0.26193790  1
  B  B15  1  0.50000000  0.44519241  0.56341442  1
  B  B16  1  0.50000000  0.24596116  0.57816570  1
  B  B17  1  0.50000000  0.48113786  0.28811173  1
  B  B18  1  0.50000000  0.70229155  0.76193790  1
  B  B19  1  0.50000000  0.75403884  0.42183430  1
  B  B20  1  0.50000000  0.51886214  0.71188827  1
  B  B21  1  0.50000000  0.89757182  0.52777046  1
  B  B22  1  0.50000000  0.05480759  0.06341442  1
  B  B23  1  0.50000000  0.60242818  0.02777046  1
  B  B24  1  0.50000000  0.74596116  0.92183430  1
  B  B25  1  0.50000000  0.01886214  0.78811173  1
  B  B26  1  0.50000000  0.39757182  0.97222954  1
  B  B27  1  0.50000000  0.94519241  0.93658558  1
  B  B28  1  0.50000000  0.63233404  0.18132394  1
  B  B29  1  0.50000000  0.25403884  0.07816570  1
  B  B30  1  0.50000000  0.86766596  0.68132394  1
  B  B31  1  0.50000000  0.13233404  0.31867606  1
  Rh  Rh32  1  -0.00000000  0.14206640  0.17967702  1
  Rh  Rh33  1  0.00000000  0.35793360  0.67967702  1
  Rh  Rh34  1  0.00000000  0.85793360  0.82032298  1
  Rh  Rh35  1  -0.00000000  0.64206640  0.32032298  1
