# generated using pymatgen
data_K2Sr(PO3)4
_symmetry_space_group_name_H-M   'P 1'
_cell_length_a   7.42547055
_cell_length_b   7.42547075
_cell_length_c   7.42547026
_cell_angle_alpha   92.19524312
_cell_angle_beta   118.74077648
_cell_angle_gamma   118.74077269
_symmetry_Int_Tables_number   1
_chemical_formula_structural   K2Sr(PO3)4
_chemical_formula_sum   'K2 Sr1 P4 O12'
_cell_volume   294.78169647
_cell_formula_units_Z   1
loop_
 _symmetry_equiv_pos_site_id
 _symmetry_equiv_pos_as_xyz
  1  'x, y, z'
loop_
 _atom_site_type_symbol
 _atom_site_label
 _atom_site_symmetry_multiplicity
 _atom_site_fract_x
 _atom_site_fract_y
 _atom_site_fract_z
 _atom_site_occupancy
  K  K0  1  0.00000000  0.32589649  0.32589649  1
  K  K1  1  1.00000000  0.67410351  0.67410351  1
  Sr  Sr2  1  0.50000000  0.75000000  0.25000000  1
  P  P3  1  0.06064083  0.87543818  0.25098697  1
  P  P4  1  0.62445122  0.74901303  0.80965386  1
  P  P5  1  0.37554878  0.18520265  0.12456182  1
  P  P6  1  0.93935917  0.19034614  0.81479735  1
  O  O7  1  0.14134544  0.12872852  0.88200513  1
  O  O8  1  0.85865456  0.74065968  0.98738308  1
  O  O9  1  0.75327660  0.01261692  0.87127148  1
  O  O10  1  0.57249542  0.42657950  0.23328588  1
  O  O11  1  0.42750458  0.66079046  0.85408408  1
  O  O12  1  0.94176813  0.91325551  0.35078368  1
  O  O13  1  0.05823187  0.40901554  0.97148738  1
  O  O14  1  0.56247183  0.64921632  0.59098446  1
  O  O15  1  0.19329362  0.76671412  0.33920954  1
  O  O16  1  0.43752817  0.02851262  0.08674449  1
  O  O17  1  0.24672340  0.11799487  0.25934032  1
  O  O18  1  0.80670638  0.14591592  0.57342050  1
