# generated using pymatgen
data_CeMnSi2
_symmetry_space_group_name_H-M   'P 1'
_cell_length_a   3.98481839
_cell_length_b   4.06704444
_cell_length_c   8.82170036
_cell_angle_alpha   103.32731349
_cell_angle_beta   90.00000000
_cell_angle_gamma   90.00000000
_symmetry_Int_Tables_number   1
_chemical_formula_structural   CeMnSi2
_chemical_formula_sum   'Ce2 Mn2 Si4'
_cell_volume   139.11803443
_cell_formula_units_Z   2
loop_
 _symmetry_equiv_pos_site_id
 _symmetry_equiv_pos_as_xyz
  1  'x, y, z'
loop_
 _atom_site_type_symbol
 _atom_site_label
 _atom_site_symmetry_multiplicity
 _atom_site_fract_x
 _atom_site_fract_y
 _atom_site_fract_z
 _atom_site_occupancy
  Si  Si0  1  0.25000000  0.67732069  0.35464139  1
  Si  Si1  1  0.75000000  0.32267931  0.64535861  1
  Si  Si2  1  0.75000000  0.46423270  0.92846539  1
  Si  Si3  1  0.25000000  0.53576730  0.07153461  1
  Mn  Mn4  1  0.75000000  0.75127413  0.50254826  1
  Mn  Mn5  1  0.25000000  0.24872587  0.49745174  1
  Ce  Ce6  1  0.25000000  0.89690994  0.79381987  1
  Ce  Ce7  1  0.75000000  0.10309006  0.20618013  1
