# generated using pymatgen
data_HoH3
_symmetry_space_group_name_H-M   'P 1'
_cell_length_a   6.27828202
_cell_length_b   6.27830336
_cell_length_c   6.54672410
_cell_angle_alpha   90.00019847
_cell_angle_beta   89.99871490
_cell_angle_gamma   119.99997717
_symmetry_Int_Tables_number   1
_chemical_formula_structural   HoH3
_chemical_formula_sum   'Ho6 H18'
_cell_volume   223.47960112
_cell_formula_units_Z   6
loop_
 _symmetry_equiv_pos_site_id
 _symmetry_equiv_pos_as_xyz
  1  'x, y, z'
loop_
 _atom_site_type_symbol
 _atom_site_label
 _atom_site_symmetry_multiplicity
 _atom_site_fract_x
 _atom_site_fract_y
 _atom_site_fract_z
 _atom_site_occupancy
  Ho  Ho0  1  0.33666430  0.33668276  0.75000065  1
  Ho  Ho1  1  0.66334356  -0.00000345  0.74999811  1
  Ho  Ho2  1  -0.00000204  0.66331703  0.75000468  1
  Ho  Ho3  1  0.33665644  0.00000345  0.25000189  1
  Ho  Ho4  1  0.00000204  0.33668297  0.24999532  1
  Ho  Ho5  1  0.66333570  0.66331724  0.24999935  1
  H  H6  1  0.67895298  0.65095247  0.59222401  1
  H  H7  1  0.34904433  0.02799312  0.59222662  1
  H  H8  1  0.97200530  0.32105783  0.59222286  1
  H  H9  1  0.67895449  0.02800217  0.09222202  1
  H  H10  1  0.97200453  0.65094987  0.09222237  1
  H  H11  1  0.34904424  0.32105094  0.09222674  1
  H  H12  1  0.32104702  0.34904753  0.40777599  1
  H  H13  1  0.65095567  0.97200688  0.40777338  1
  H  H14  1  0.02799470  0.67894217  0.40777714  1
  H  H15  1  0.32104551  0.97199783  0.90777798  1
  H  H16  1  0.02799547  0.34905013  0.90777763  1
  H  H17  1  0.65095576  0.67894906  0.90777326  1
  H  H18  1  0.00000154  0.99999883  0.74999687  1
  H  H19  1  -0.00000154  0.00000117  0.25000313  1
  H  H20  1  0.33333220  0.66666920  0.68108982  1
  H  H21  1  0.33333008  0.66666458  0.18109238  1
  H  H22  1  0.66666780  0.33333080  0.31891018  1
  H  H23  1  0.66666992  0.33333542  0.81890762  1
