# generated using pymatgen
data_Mn3Nb6O11
_symmetry_space_group_name_H-M   'P 1'
_cell_length_a   6.16252543
_cell_length_b   6.16252543
_cell_length_c   7.74726480
_cell_angle_alpha   90.00000000
_cell_angle_beta   90.00000000
_cell_angle_gamma   120.00000006
_symmetry_Int_Tables_number   1
_chemical_formula_structural   Mn3Nb6O11
_chemical_formula_sum   'Mn3 Nb6 O11'
_cell_volume   254.79827329
_cell_formula_units_Z   1
loop_
 _symmetry_equiv_pos_site_id
 _symmetry_equiv_pos_as_xyz
  1  'x, y, z'
loop_
 _atom_site_type_symbol
 _atom_site_label
 _atom_site_symmetry_multiplicity
 _atom_site_fract_x
 _atom_site_fract_y
 _atom_site_fract_z
 _atom_site_occupancy
  O  O0  1  0.66666667  0.33333333  0.69664959  1
  O  O1  1  0.33333333  0.66666667  0.30335041  1
  O  O2  1  0.15606644  0.84393356  0.68460301  1
  O  O3  1  0.15606644  0.31213289  0.68460301  1
  O  O4  1  0.68786711  0.84393356  0.68460301  1
  O  O5  1  0.31213289  0.15606644  0.31539699  1
  O  O6  1  0.84393356  0.68786711  0.31539699  1
  O  O7  1  0.84393356  0.15606644  0.31539699  1
  O  O8  1  0.00000000  0.50000000  0.00000000  1
  O  O9  1  0.50000000  0.50000000  0.00000000  1
  O  O10  1  0.50000000  0.00000000  0.00000000  1
  Mn  Mn11  1  0.33333333  0.66666667  0.56966096  1
  Mn  Mn12  1  0.66666667  0.33333333  0.43033904  1
  Mn  Mn13  1  0.00000000  0.00000000  0.50000000  1
  Nb  Nb14  1  0.84567685  0.15432315  0.85187786  1
  Nb  Nb15  1  0.84567685  0.69135370  0.85187786  1
  Nb  Nb16  1  0.30864630  0.15432315  0.85187786  1
  Nb  Nb17  1  0.69135370  0.84567685  0.14812214  1
  Nb  Nb18  1  0.15432315  0.30864630  0.14812214  1
  Nb  Nb19  1  0.15432315  0.84567685  0.14812214  1
