# generated using pymatgen
data_CsPd2F5
_symmetry_space_group_name_H-M   'P 1'
_cell_length_a   6.69779041
_cell_length_b   7.56533199
_cell_length_c   7.56533199
_cell_angle_alpha   63.33061502
_cell_angle_beta   63.72606275
_cell_angle_gamma   63.72606277
_symmetry_Int_Tables_number   1
_chemical_formula_structural   CsPd2F5
_chemical_formula_sum   'Cs2 Pd4 F10'
_cell_volume   292.58422328
_cell_formula_units_Z   2
loop_
 _symmetry_equiv_pos_site_id
 _symmetry_equiv_pos_as_xyz
  1  'x, y, z'
loop_
 _atom_site_type_symbol
 _atom_site_label
 _atom_site_symmetry_multiplicity
 _atom_site_fract_x
 _atom_site_fract_y
 _atom_site_fract_z
 _atom_site_occupancy
  F  F0  1  0.87211968  0.45104916  0.30746774  1
  F  F1  1  0.63063658  0.54895084  0.69253226  1
  F  F2  1  0.12788032  0.19253226  0.04895084  1
  F  F3  1  0.36936342  0.80746774  0.95104916  1
  F  F4  1  0.12788032  0.54895084  0.69253226  1
  F  F5  1  0.36936342  0.45104916  0.30746774  1
  F  F6  1  0.91283110  0.83716890  0.33716890  1
  F  F7  1  0.08716890  0.16283110  0.66283110  1
  F  F8  1  0.63063658  0.19253226  0.04895084  1
  F  F9  1  0.87211968  0.80746774  0.95104916  1
  Pd  Pd10  1  0.50000000  0.50000000  0.00000000  1
  Pd  Pd11  1  0.00000000  0.50000000  0.00000000  1
  Pd  Pd12  1  0.00000000  0.50000000  0.50000000  1
  Pd  Pd13  1  0.00000000  0.00000000  0.00000000  1
  Cs  Cs14  1  0.38839480  0.86160520  0.36160520  1
  Cs  Cs15  1  0.61160520  0.13839480  0.63839480  1
