# generated using pymatgen
data_BaRuO3
_symmetry_space_group_name_H-M   'P 1'
_cell_length_a   8.04637621
_cell_length_b   8.04637621
_cell_length_c   8.04637620
_cell_angle_alpha   42.49157081
_cell_angle_beta   42.49157081
_cell_angle_gamma   42.49157078
_symmetry_Int_Tables_number   1
_chemical_formula_structural   BaRuO3
_chemical_formula_sum   'Ba3 Ru3 O9'
_cell_volume   215.22870439
_cell_formula_units_Z   3
loop_
 _symmetry_equiv_pos_site_id
 _symmetry_equiv_pos_as_xyz
  1  'x, y, z'
loop_
 _atom_site_type_symbol
 _atom_site_label
 _atom_site_symmetry_multiplicity
 _atom_site_fract_x
 _atom_site_fract_y
 _atom_site_fract_z
 _atom_site_occupancy
  O  O0  1  0.71397329  0.24770009  0.71397329  1
  O  O1  1  0.24770009  0.71397329  0.71397329  1
  O  O2  1  0.71397329  0.71397329  0.24770009  1
  O  O3  1  0.28602671  0.75229991  0.28602671  1
  O  O4  1  0.75229991  0.28602671  0.28602671  1
  O  O5  1  0.28602671  0.28602671  0.75229991  1
  O  O6  1  0.50000000  0.50000000  0.00000000  1
  O  O7  1  0.00000000  0.50000000  0.50000000  1
  O  O8  1  0.50000000  0.00000000  0.50000000  1
  Ru  Ru9  1  0.61708377  0.61708377  0.61708377  1
  Ru  Ru10  1  0.38291623  0.38291623  0.38291623  1
  Ru  Ru11  1  0.50000000  0.50000000  0.50000000  1
  Ba  Ba12  1  0.78057234  0.78057234  0.78057234  1
  Ba  Ba13  1  0.21942766  0.21942766  0.21942766  1
  Ba  Ba14  1  0.00000000  0.00000000  0.00000000  1
