# generated using pymatgen
data_Li3Nd3(WO6)2
_symmetry_space_group_name_H-M   'P 1'
_cell_length_a   10.94571424
_cell_length_b   10.94571366
_cell_length_c   10.94571409
_cell_angle_alpha   109.47122340
_cell_angle_beta   109.47122228
_cell_angle_gamma   109.47121733
_symmetry_Int_Tables_number   1
_chemical_formula_structural   Li3Nd3(WO6)2
_chemical_formula_sum   'Li12 Nd12 W8 O48'
_cell_volume   1009.50945768
_cell_formula_units_Z   4
loop_
 _symmetry_equiv_pos_site_id
 _symmetry_equiv_pos_as_xyz
  1  'x, y, z'
loop_
 _atom_site_type_symbol
 _atom_site_label
 _atom_site_symmetry_multiplicity
 _atom_site_fract_x
 _atom_site_fract_y
 _atom_site_fract_z
 _atom_site_occupancy
  Li  Li0  1  0.12500000  0.75000000  0.87500000  1
  Li  Li1  1  0.87500000  0.12500000  0.75000000  1
  Li  Li2  1  0.62500000  0.75000000  0.37500000  1
  Li  Li3  1  0.37500000  0.62500000  0.75000000  1
  Li  Li4  1  0.25000000  0.62500000  0.37500000  1
  Li  Li5  1  0.62500000  0.37500000  0.25000000  1
  Li  Li6  1  0.25000000  0.12500000  0.87500000  1
  Li  Li7  1  0.37500000  0.25000000  0.62500000  1
  Li  Li8  1  0.87500000  0.25000000  0.12500000  1
  Li  Li9  1  0.12500000  0.87500000  0.25000000  1
  Li  Li10  1  0.75000000  0.37500000  0.62500000  1
  Li  Li11  1  0.75000000  0.87500000  0.12500000  1
  Nd  Nd12  1  0.37500000  0.12500000  0.25000000  1
  Nd  Nd13  1  0.87500000  0.62500000  0.25000000  1
  Nd  Nd14  1  0.75000000  0.62500000  0.87500000  1
  Nd  Nd15  1  0.37500000  0.75000000  0.12500000  1
  Nd  Nd16  1  0.12500000  0.37500000  0.75000000  1
  Nd  Nd17  1  0.25000000  0.37500000  0.12500000  1
  Nd  Nd18  1  0.25000000  0.87500000  0.62500000  1
  Nd  Nd19  1  0.12500000  0.25000000  0.37500000  1
  Nd  Nd20  1  0.62500000  0.87500000  0.75000000  1
  Nd  Nd21  1  0.75000000  0.12500000  0.37500000  1
  Nd  Nd22  1  0.62500000  0.25000000  0.87500000  1
  Nd  Nd23  1  0.87500000  0.75000000  0.62500000  1
  W  W24  1  0.00000000  0.00000000  0.50000000  1
  W  W25  1  0.50000000  0.00000000  0.50000000  1
  W  W26  1  0.50000000  0.50000000  0.50000000  1
  W  W27  1  0.00000000  0.00000000  0.00000000  1
  W  W28  1  0.00000000  0.50000000  0.00000000  1
  W  W29  1  0.50000000  0.00000000  0.00000000  1
  W  W30  1  0.00000000  0.50000000  0.50000000  1
  W  W31  1  0.50000000  0.50000000  0.00000000  1
  O  O32  1  0.30454824  0.47619860  0.38453642  1
  O  O33  1  0.38453642  0.30454824  0.47619860  1
  O  O34  1  0.57998818  0.17165036  0.19545176  1
  O  O35  1  0.40833782  0.07998818  0.88453642  1
  O  O36  1  0.47619860  0.38453642  0.30454824  1
  O  O37  1  0.02380140  0.32834964  0.90833782  1
  O  O38  1  0.09166218  0.61546358  0.42001182  1
  O  O39  1  0.17165036  0.47619860  0.59166218  1
  O  O40  1  0.07998818  0.69545176  0.67165036  1
  O  O41  1  0.52380140  0.40833782  0.82834964  1
  O  O42  1  0.61546358  0.69545176  0.52380140  1
  O  O43  1  0.19545176  0.11546358  0.02380140  1
  O  O44  1  0.69545176  0.67165036  0.07998818  1
  O  O45  1  0.19545176  0.57998818  0.17165036  1
  O  O46  1  0.32834964  0.90833782  0.02380140  1
  O  O47  1  0.11546358  0.59166218  0.92001182  1
  O  O48  1  0.17165036  0.19545176  0.57998818  1
  O  O49  1  0.02380140  0.19545176  0.11546358  1
  O  O50  1  0.32834964  0.92001182  0.30454824  1
  O  O51  1  0.88453642  0.97619860  0.80454824  1
  O  O52  1  0.47619860  0.59166218  0.17165036  1
  O  O53  1  0.67165036  0.09166218  0.97619860  1
  O  O54  1  0.42001182  0.09166218  0.61546358  1
  O  O55  1  0.80454824  0.42001182  0.82834964  1
  O  O56  1  0.57998818  0.90833782  0.38453642  1
  O  O57  1  0.59166218  0.17165036  0.47619860  1
  O  O58  1  0.92001182  0.11546358  0.59166218  1
  O  O59  1  0.38453642  0.57998818  0.90833782  1
  O  O60  1  0.97619860  0.80454824  0.88453642  1
  O  O61  1  0.61546358  0.42001182  0.09166218  1
  O  O62  1  0.09166218  0.97619860  0.67165036  1
  O  O63  1  0.97619860  0.67165036  0.09166218  1
  O  O64  1  0.69545176  0.52380140  0.61546358  1
  O  O65  1  0.11546358  0.02380140  0.19545176  1
  O  O66  1  0.67165036  0.07998818  0.69545176  1
  O  O67  1  0.30454824  0.32834964  0.92001182  1
  O  O68  1  0.42001182  0.82834964  0.80454824  1
  O  O69  1  0.59166218  0.92001182  0.11546358  1
  O  O70  1  0.52380140  0.61546358  0.69545176  1
  O  O71  1  0.92001182  0.30454824  0.32834964  1
  O  O72  1  0.88453642  0.40833782  0.07998818  1
  O  O73  1  0.82834964  0.52380140  0.40833782  1
  O  O74  1  0.07998818  0.88453642  0.40833782  1
  O  O75  1  0.80454824  0.88453642  0.97619860  1
  O  O76  1  0.90833782  0.02380140  0.32834964  1
  O  O77  1  0.90833782  0.38453642  0.57998818  1
  O  O78  1  0.82834964  0.80454824  0.42001182  1
  O  O79  1  0.40833782  0.82834964  0.52380140  1
