# generated using pymatgen
data_NdBC
_symmetry_space_group_name_H-M   'P 1'
_cell_length_a   8.44086754
_cell_length_b   8.47481857
_cell_length_c   12.30900377
_cell_angle_alpha   90.00000000
_cell_angle_beta   90.00000000
_cell_angle_gamma   90.00000000
_symmetry_Int_Tables_number   1
_chemical_formula_structural   NdBC
_chemical_formula_sum   'Nd20 B20 C20'
_cell_volume   880.52238107
_cell_formula_units_Z   20
loop_
 _symmetry_equiv_pos_site_id
 _symmetry_equiv_pos_as_xyz
  1  'x, y, z'
loop_
 _atom_site_type_symbol
 _atom_site_label
 _atom_site_symmetry_multiplicity
 _atom_site_fract_x
 _atom_site_fract_y
 _atom_site_fract_z
 _atom_site_occupancy
  Nd  Nd0  1  0.84382666  0.09012677  0.09718993  1
  Nd  Nd1  1  0.45331354  0.90071683  0.14014865  1
  Nd  Nd2  1  0.25592703  0.71452251  0.67122605  1
  Nd  Nd3  1  0.33956226  0.00831928  0.41838358  1
  Nd  Nd4  1  0.74407297  0.21452251  0.82877395  1
  Nd  Nd5  1  0.56146880  0.80251650  0.86651541  1
  Nd  Nd6  1  0.24407297  0.28547749  0.17122605  1
  Nd  Nd7  1  0.83956226  0.49168072  0.58161642  1
  Nd  Nd8  1  0.43853120  0.30251650  0.63348459  1
  Nd  Nd9  1  0.34382666  0.40987323  0.90281007  1
  Nd  Nd10  1  0.15617334  0.59012677  0.40281007  1
  Nd  Nd11  1  0.93853120  0.19748350  0.36651541  1
  Nd  Nd12  1  0.06146880  0.69748350  0.13348459  1
  Nd  Nd13  1  0.65617334  0.90987323  0.59718993  1
  Nd  Nd14  1  0.04668646  0.09928317  0.64014865  1
  Nd  Nd15  1  0.75592703  0.78547749  0.32877395  1
  Nd  Nd16  1  0.16043774  0.99168072  0.91838358  1
  Nd  Nd17  1  0.54668646  0.40071683  0.35985135  1
  Nd  Nd18  1  0.66043774  0.50831928  0.08161642  1
  Nd  Nd19  1  0.95331354  0.59928317  0.85985135  1
  B  B20  1  0.06263280  0.29764866  0.82090155  1
  B  B21  1  0.52070750  0.61338195  0.54168962  1
  B  B22  1  0.11869839  0.39843642  0.71316670  1
  B  B23  1  0.68513219  0.19234143  0.50882740  1
  B  B24  1  0.39793081  0.02296770  0.73948086  1
  B  B25  1  0.18513219  0.30765857  0.49117260  1
  B  B26  1  0.38130161  0.60156358  0.21316670  1
  B  B27  1  0.47929250  0.11338195  0.95831038  1
  B  B28  1  0.88130161  0.89843642  0.78683330  1
  B  B29  1  0.97929250  0.38661805  0.04168962  1
  B  B30  1  0.10206919  0.97703230  0.23948086  1
  B  B31  1  0.61869839  0.10156358  0.28683330  1
  B  B32  1  0.02070750  0.88661805  0.45831038  1
  B  B33  1  0.93736720  0.79764866  0.67909845  1
  B  B34  1  0.60206919  0.52296770  0.76051914  1
  B  B35  1  0.81486781  0.80765857  0.00882740  1
  B  B36  1  0.43736720  0.70235134  0.32090155  1
  B  B37  1  0.89793081  0.47703230  0.26051914  1
  B  B38  1  0.56263280  0.20235134  0.17909845  1
  B  B39  1  0.31486781  0.69234143  0.99117260  1
  C  C40  1  0.47116473  0.69224203  0.43951925  1
  C  C41  1  0.14542373  0.39813595  0.59195650  1
  C  C42  1  0.85334976  0.49377191  0.37533030  1
  C  C43  1  0.24622430  0.29731816  0.38002163  1
  C  C44  1  0.75377570  0.79731816  0.11997837  1
  C  C45  1  0.55291396  0.61012533  0.66054404  1
  C  C46  1  0.05291396  0.88987467  0.33945596  1
  C  C47  1  0.64542373  0.10186405  0.40804350  1
  C  C48  1  0.97116473  0.80775797  0.56048075  1
  C  C49  1  0.14665024  0.99377191  0.12466970  1
  C  C50  1  0.25377570  0.70268184  0.88002163  1
  C  C51  1  0.94708604  0.38987467  0.16054404  1
  C  C52  1  0.35457627  0.60186405  0.09195650  1
  C  C53  1  0.52883527  0.19224203  0.06048075  1
  C  C54  1  0.85457627  0.89813595  0.90804350  1
  C  C55  1  0.02883527  0.30775797  0.93951925  1
  C  C56  1  0.64665024  0.50622809  0.87533030  1
  C  C57  1  0.74622430  0.20268184  0.61997837  1
  C  C58  1  0.44708604  0.11012533  0.83945596  1
  C  C59  1  0.35334976  0.00622809  0.62466970  1
