# generated using pymatgen
data_EuCrO4
_symmetry_space_group_name_H-M   'P 1'
_cell_length_a   6.16785754
_cell_length_b   6.16785754
_cell_length_c   6.16785754
_cell_angle_alpha   105.83788756
_cell_angle_beta   105.83788753
_cell_angle_gamma   117.01135472
_symmetry_Int_Tables_number   1
_chemical_formula_structural   EuCrO4
_chemical_formula_sum   'Eu2 Cr2 O8'
_cell_volume   178.25108310
_cell_formula_units_Z   2
loop_
 _symmetry_equiv_pos_site_id
 _symmetry_equiv_pos_as_xyz
  1  'x, y, z'
loop_
 _atom_site_type_symbol
 _atom_site_label
 _atom_site_symmetry_multiplicity
 _atom_site_fract_x
 _atom_site_fract_y
 _atom_site_fract_z
 _atom_site_occupancy
  O  O0  1  0.78763962  0.71595334  0.42831373  1
  O  O1  1  0.35932589  0.78763962  0.57168627  1
  O  O2  1  0.71595334  0.78763962  0.92831373  1
  O  O3  1  0.78763962  0.35932589  0.07168627  1
  O  O4  1  0.64067411  0.21236038  0.42831373  1
  O  O5  1  0.21236038  0.28404666  0.57168627  1
  O  O6  1  0.21236038  0.64067411  0.92831373  1
  O  O7  1  0.28404666  0.21236038  0.07168627  1
  Cr  Cr8  1  0.37500000  0.62500000  0.75000000  1
  Cr  Cr9  1  0.62500000  0.37500000  0.25000000  1
  Eu  Eu10  1  0.12500000  0.87500000  0.25000000  1
  Eu  Eu11  1  0.87500000  0.12500000  0.75000000  1
