# generated using pymatgen
data_Li16Nb2N8O
_symmetry_space_group_name_H-M   'P 1'
_cell_length_a   9.19828933
_cell_length_b   9.19828933
_cell_length_c   9.19828933
_cell_angle_alpha   38.11314951
_cell_angle_beta   38.11314949
_cell_angle_gamma   38.11314955
_symmetry_Int_Tables_number   1
_chemical_formula_structural   Li16Nb2N8O
_chemical_formula_sum   'Li16 Nb2 N8 O1'
_cell_volume   266.18971486
_cell_formula_units_Z   1
loop_
 _symmetry_equiv_pos_site_id
 _symmetry_equiv_pos_as_xyz
  1  'x, y, z'
loop_
 _atom_site_type_symbol
 _atom_site_label
 _atom_site_symmetry_multiplicity
 _atom_site_fract_x
 _atom_site_fract_y
 _atom_site_fract_z
 _atom_site_occupancy
  Li  Li0  1  0.58279635  0.58279635  0.58279635  1
  Li  Li1  1  0.41720365  0.41720365  0.41720365  1
  Li  Li2  1  0.92228471  0.92228471  0.92228471  1
  Li  Li3  1  0.07771529  0.07771529  0.07771529  1
  Li  Li4  1  0.66764543  0.31671459  0.94433587  1
  Li  Li5  1  0.31671459  0.94433587  0.66764543  1
  Li  Li6  1  0.94433587  0.66764543  0.31671459  1
  Li  Li7  1  0.33235457  0.68328541  0.05566413  1
  Li  Li8  1  0.68328541  0.05566413  0.33235457  1
  Li  Li9  1  0.05566413  0.33235457  0.68328541  1
  Li  Li10  1  0.82731483  0.16843321  0.57907217  1
  Li  Li11  1  0.42092783  0.17268517  0.83156679  1
  Li  Li12  1  0.83156679  0.42092783  0.17268517  1
  Li  Li13  1  0.17268517  0.83156679  0.42092783  1
  Li  Li14  1  0.57907217  0.82731483  0.16843321  1
  Li  Li15  1  0.16843321  0.57907217  0.82731483  1
  N  N16  1  0.32670823  0.32670823  0.32670823  1
  N  N17  1  0.67329177  0.67329177  0.67329177  1
  N  N18  1  0.22582284  0.91173744  0.53603580  1
  N  N19  1  0.91173744  0.53603580  0.22582284  1
  N  N20  1  0.53603580  0.22582284  0.91173744  1
  N  N21  1  0.77417716  0.08826256  0.46396420  1
  N  N22  1  0.08826256  0.46396420  0.77417716  1
  N  N23  1  0.46396420  0.77417716  0.08826256  1
  O  O24  1  0.00000000  0.00000000  0.00000000  1
  Nb  Nb25  1  0.24937480  0.24937480  0.24937480  1
  Nb  Nb26  1  0.75062520  0.75062520  0.75062520  1
