# generated using pymatgen
data_Ca2CoTeO6
_symmetry_space_group_name_H-M   'P 1'
_cell_length_a   5.49650754
_cell_length_b   5.66475781
_cell_length_c   7.81675488
_cell_angle_alpha   89.99992171
_cell_angle_beta   90.37440972
_cell_angle_gamma   89.99785136
_symmetry_Int_Tables_number   1
_chemical_formula_structural   Ca2CoTeO6
_chemical_formula_sum   'Ca4 Co2 Te2 O12'
_cell_volume   243.38028481
_cell_formula_units_Z   2
loop_
 _symmetry_equiv_pos_site_id
 _symmetry_equiv_pos_as_xyz
  1  'x, y, z'
loop_
 _atom_site_type_symbol
 _atom_site_label
 _atom_site_symmetry_multiplicity
 _atom_site_fract_x
 _atom_site_fract_y
 _atom_site_fract_z
 _atom_site_occupancy
  Ca  Ca0  1  0.98697267  0.05159977  0.25113668  1
  O  O1  1  0.68809146  0.28484709  0.44717869  1
  O  O2  1  0.18810162  0.21513576  0.94719733  1
  Te  Te3  1  -0.00000027  0.49999982  1.00000010  1
  O  O4  1  0.78917426  0.80878425  0.45411036  1
  O  O5  1  0.28916239  0.69120599  0.95410884  1
  O  O6  1  0.90454003  0.53428813  0.75939618  1
  Ca  Ca7  1  0.01302664  0.94840011  0.74886317  1
  Ca  Ca8  1  0.51300185  0.55159588  0.24885717  1
  O  O9  1  0.59546851  0.03430596  0.74060266  1
  Co  Co10  1  0.50000020  0.99999956  -0.00000012  1
  O  O11  1  0.31190829  0.71515157  0.55282202  1
  O  O12  1  0.21082592  0.19121555  0.54588941  1
  O  O13  1  0.09546123  0.46571304  0.24060371  1
  O  O14  1  0.71083762  0.30879373  0.04589146  1
  O  O15  1  0.40453091  0.96569350  0.25939739  1
  O  O16  1  0.81189927  0.78486581  0.05280279  1
  Ca  Ca17  1  0.48699729  0.44840469  0.75114255  1
  Co  Co18  1  0.99999975  0.49999991  0.49999994  1
  Te  Te19  1  0.50000038  -0.00000014  0.49999968  1
