# generated using pymatgen
data_K3NaUC3O11
_symmetry_space_group_name_H-M   'P 1'
_cell_length_a   9.41848754
_cell_length_b   9.41848754
_cell_length_c   8.33884249
_cell_angle_alpha   90.00000000
_cell_angle_beta   90.00000000
_cell_angle_gamma   119.99999998
_symmetry_Int_Tables_number   1
_chemical_formula_structural   K3NaUC3O11
_chemical_formula_sum   'K6 Na2 U2 C6 O22'
_cell_volume   640.61741073
_cell_formula_units_Z   2
loop_
 _symmetry_equiv_pos_site_id
 _symmetry_equiv_pos_as_xyz
  1  'x, y, z'
loop_
 _atom_site_type_symbol
 _atom_site_label
 _atom_site_symmetry_multiplicity
 _atom_site_fract_x
 _atom_site_fract_y
 _atom_site_fract_z
 _atom_site_occupancy
  K  K0  1  0.70303618  0.70303618  0.00000000  1
  K  K1  1  0.70303618  0.70303618  0.50000000  1
  K  K2  1  0.00000000  0.29696382  0.00000000  1
  K  K3  1  0.29696382  0.00000000  0.50000000  1
  K  K4  1  0.00000000  0.29696382  0.50000000  1
  K  K5  1  0.29696382  0.00000000  0.00000000  1
  Na  Na6  1  0.66666700  0.33333300  0.75000000  1
  Na  Na7  1  0.33333300  0.66666700  0.25000000  1
  U  U8  1  0.66666700  0.33333300  0.25000000  1
  U  U9  1  0.33333300  0.66666700  0.75000000  1
  C  C10  1  0.37073360  0.35824187  0.25000000  1
  C  C11  1  0.62926640  0.98750827  0.75000000  1
  C  C12  1  0.64175813  0.01249173  0.25000000  1
  C  C13  1  0.35824187  0.37073360  0.75000000  1
  C  C14  1  0.01249173  0.64175813  0.75000000  1
  C  C15  1  0.98750827  0.62926640  0.25000000  1
  O  O16  1  0.52022661  0.48677723  0.25000000  1
  O  O17  1  0.75689261  0.12710806  0.75000000  1
  O  O18  1  0.33333300  0.66666700  0.52880325  1
  O  O19  1  0.15115705  0.78311360  0.75000000  1
  O  O20  1  0.66666700  0.33333300  0.02880325  1
  O  O21  1  0.03344938  0.51322277  0.75000000  1
  O  O22  1  0.84884295  0.63195655  0.25000000  1
  O  O23  1  0.12710806  0.75689261  0.25000000  1
  O  O24  1  0.21688640  0.36804345  0.75000000  1
  O  O25  1  0.51322277  0.03344938  0.25000000  1
  O  O26  1  0.48677723  0.52022661  0.75000000  1
  O  O27  1  0.78311360  0.15115705  0.25000000  1
  O  O28  1  0.47977339  0.96655062  0.75000000  1
  O  O29  1  0.36804345  0.21688640  0.25000000  1
  O  O30  1  0.33333300  0.66666700  0.97119675  1
  O  O31  1  0.66666700  0.33333300  0.47119675  1
  O  O32  1  0.96655062  0.47977339  0.25000000  1
  O  O33  1  0.63195655  0.84884295  0.75000000  1
  O  O34  1  0.37021546  0.24310739  0.75000000  1
  O  O35  1  0.24310739  0.37021546  0.25000000  1
  O  O36  1  0.87289194  0.62978454  0.75000000  1
  O  O37  1  0.62978454  0.87289194  0.25000000  1
