# generated using pymatgen
data_BaCaCrF7
_symmetry_space_group_name_H-M   'P 1'
_cell_length_a   5.50645621
_cell_length_b   5.54823931
_cell_length_c   19.39798356
_cell_angle_alpha   90.00000000
_cell_angle_beta   91.97441683
_cell_angle_gamma   90.00000000
_symmetry_Int_Tables_number   1
_chemical_formula_structural   BaCaCrF7
_chemical_formula_sum   'Ba4 Ca4 Cr4 F28'
_cell_volume   592.27861111
_cell_formula_units_Z   4
loop_
 _symmetry_equiv_pos_site_id
 _symmetry_equiv_pos_as_xyz
  1  'x, y, z'
loop_
 _atom_site_type_symbol
 _atom_site_label
 _atom_site_symmetry_multiplicity
 _atom_site_fract_x
 _atom_site_fract_y
 _atom_site_fract_z
 _atom_site_occupancy
  F  F0  1  0.78419822  0.05395572  0.93668401  1
  F  F1  1  0.71580178  0.05395572  0.56331599  1
  F  F2  1  0.21580178  0.94604428  0.06331599  1
  F  F3  1  0.28419822  0.94604428  0.43668401  1
  F  F4  1  0.52811419  0.02370144  0.17653445  1
  F  F5  1  0.97188581  0.02370144  0.32346555  1
  F  F6  1  0.47188581  0.97629856  0.82346555  1
  F  F7  1  0.02811419  0.97629856  0.67653445  1
  F  F8  1  0.55728784  0.28601432  0.05543618  1
  F  F9  1  0.94271216  0.28601432  0.44456382  1
  F  F10  1  0.44271216  0.71398568  0.94456382  1
  F  F11  1  0.05728784  0.71398568  0.55543618  1
  F  F12  1  0.58939841  0.59106027  0.56075046  1
  F  F13  1  0.91060159  0.59106027  0.93924954  1
  F  F14  1  0.41060159  0.40893973  0.43924954  1
  F  F15  1  0.08939841  0.40893973  0.06075046  1
  F  F16  1  0.55841273  0.86936085  0.68576524  1
  F  F17  1  0.94158727  0.86936085  0.81423476  1
  F  F18  1  0.44158727  0.13063915  0.31423476  1
  F  F19  1  0.05841273  0.13063915  0.18576524  1
  F  F20  1  0.07355226  0.49586621  0.32494151  1
  F  F21  1  0.42644774  0.49586621  0.17505849  1
  F  F22  1  0.92644774  0.50413379  0.67505849  1
  F  F23  1  0.57355226  0.50413379  0.82494151  1
  F  F24  1  0.42767301  0.37045797  0.69142634  1
  F  F25  1  0.07232699  0.37045797  0.80857366  1
  F  F26  1  0.57232699  0.62954203  0.30857366  1
  F  F27  1  0.92767301  0.62954203  0.19142634  1
  Ca  Ca28  1  0.75000000  0.32785419  0.25000000  1
  Ca  Ca29  1  0.25000000  0.67214581  0.75000000  1
  Ca  Ca30  1  0.25000000  0.79221645  0.25000000  1
  Ca  Ca31  1  0.75000000  0.20778355  0.75000000  1
  Cr  Cr32  1  0.30174726  0.22385803  0.11962242  1
  Cr  Cr33  1  0.80174726  0.77614197  0.61962242  1
  Cr  Cr34  1  0.19825274  0.22385803  0.38037758  1
  Cr  Cr35  1  0.69825274  0.77614197  0.88037758  1
  Ba  Ba36  1  0.24621109  0.24682120  0.93145899  1
  Ba  Ba37  1  0.75378891  0.75317880  0.06854101  1
  Ba  Ba38  1  0.74621109  0.75317880  0.43145899  1
  Ba  Ba39  1  0.25378891  0.24682120  0.56854101  1
