# generated using pymatgen
data_Na3ScSi2O7
_symmetry_space_group_name_H-M   'P 1'
_cell_length_a   5.40046406
_cell_length_b   9.45853323
_cell_length_c   13.23352055
_cell_angle_alpha   90.00000000
_cell_angle_beta   90.00000000
_cell_angle_gamma   90.00000000
_symmetry_Int_Tables_number   1
_chemical_formula_structural   Na3ScSi2O7
_chemical_formula_sum   'Na12 Sc4 Si8 O28'
_cell_volume   675.97443316
_cell_formula_units_Z   4
loop_
 _symmetry_equiv_pos_site_id
 _symmetry_equiv_pos_as_xyz
  1  'x, y, z'
loop_
 _atom_site_type_symbol
 _atom_site_label
 _atom_site_symmetry_multiplicity
 _atom_site_fract_x
 _atom_site_fract_y
 _atom_site_fract_z
 _atom_site_occupancy
  Na  Na0  1  0.01625275  0.34638445  0.40712227  1
  Na  Na1  1  0.98374725  0.65361555  0.90712227  1
  Na  Na2  1  0.51625275  0.15361555  0.59287773  1
  Na  Na3  1  0.98271415  0.98065628  0.75000000  1
  Na  Na4  1  0.48374725  0.84638445  0.09287773  1
  Na  Na5  1  0.48271415  0.51934372  0.25000000  1
  Na  Na6  1  0.01625275  0.34638445  0.09287773  1
  Na  Na7  1  0.51625275  0.15361555  0.90712227  1
  Na  Na8  1  0.48374725  0.84638445  0.40712227  1
  Na  Na9  1  0.51728585  0.48065628  0.75000000  1
  Na  Na10  1  0.98374725  0.65361555  0.59287773  1
  Na  Na11  1  0.01728585  0.01934372  0.25000000  1
  Sc  Sc12  1  0.50000000  0.50000000  0.00000000  1
  Sc  Sc13  1  0.00000000  0.00000000  0.50000000  1
  Sc  Sc14  1  0.00000000  0.00000000  0.00000000  1
  Sc  Sc15  1  0.50000000  0.50000000  0.50000000  1
  Si  Si16  1  0.51332283  0.17552698  0.13159956  1
  Si  Si17  1  0.01332283  0.32447302  0.63159956  1
  Si  Si18  1  0.51332283  0.17552698  0.36840044  1
  Si  Si19  1  0.48667717  0.82447302  0.86840044  1
  Si  Si20  1  0.48667717  0.82447302  0.63159956  1
  Si  Si21  1  0.98667717  0.67552698  0.13159956  1
  Si  Si22  1  0.01332283  0.32447302  0.86840044  1
  Si  Si23  1  0.98667717  0.67552698  0.36840044  1
  O  O24  1  0.47455459  0.34594649  0.11928076  1
  O  O25  1  0.31898038  0.08932901  0.43992832  1
  O  O26  1  0.68101962  0.91067099  0.56007168  1
  O  O27  1  0.20125320  0.87174798  0.60720857  1
  O  O28  1  0.31898038  0.08932901  0.06007168  1
  O  O29  1  0.47455459  0.34594649  0.38071924  1
  O  O30  1  0.29874680  0.37174798  0.60720857  1
  O  O31  1  0.18101962  0.58932901  0.43992832  1
  O  O32  1  0.97455459  0.15405351  0.61928076  1
  O  O33  1  0.52544541  0.65405351  0.61928076  1
  O  O34  1  0.02544541  0.84594649  0.38071924  1
  O  O35  1  0.02544541  0.84594649  0.11928076  1
  O  O36  1  0.18101962  0.58932901  0.06007168  1
  O  O37  1  0.79874680  0.12825202  0.39279143  1
  O  O38  1  0.79874680  0.12825202  0.10720857  1
  O  O39  1  0.29874680  0.37174798  0.89279143  1
  O  O40  1  0.55836607  0.87496984  0.75000000  1
  O  O41  1  0.52544541  0.65405351  0.88071924  1
  O  O42  1  0.44163393  0.12503016  0.25000000  1
  O  O43  1  0.97455459  0.15405351  0.88071924  1
  O  O44  1  0.20125320  0.87174798  0.89279143  1
  O  O45  1  0.68101962  0.91067099  0.93992832  1
  O  O46  1  0.70125320  0.62825202  0.10720857  1
  O  O47  1  0.70125320  0.62825202  0.39279143  1
  O  O48  1  0.81898038  0.41067099  0.93992832  1
  O  O49  1  0.94163393  0.37496984  0.75000000  1
  O  O50  1  0.05836607  0.62503016  0.25000000  1
  O  O51  1  0.81898038  0.41067099  0.56007168  1
