# generated using pymatgen
data_K6Na3GaSb4
_symmetry_space_group_name_H-M   'P 1'
_cell_length_a   10.29223614
_cell_length_b   10.29223614
_cell_length_c   10.60133523
_cell_angle_alpha   90.00000000
_cell_angle_beta   90.00000000
_cell_angle_gamma   120.00000000
_symmetry_Int_Tables_number   1
_chemical_formula_structural   K6Na3GaSb4
_chemical_formula_sum   'K12 Na6 Ga2 Sb8'
_cell_volume   972.54718982
_cell_formula_units_Z   2
loop_
 _symmetry_equiv_pos_site_id
 _symmetry_equiv_pos_as_xyz
  1  'x, y, z'
loop_
 _atom_site_type_symbol
 _atom_site_label
 _atom_site_symmetry_multiplicity
 _atom_site_fract_x
 _atom_site_fract_y
 _atom_site_fract_z
 _atom_site_occupancy
  Na  Na0  1  0.23044312  0.11522156  0.75000000  1
  Na  Na1  1  0.88477844  0.76955688  0.75000000  1
  Na  Na2  1  0.11522156  0.88477844  0.25000000  1
  Na  Na3  1  0.76955688  0.88477844  0.25000000  1
  Na  Na4  1  0.88477844  0.11522156  0.75000000  1
  Na  Na5  1  0.11522156  0.23044312  0.25000000  1
  K  K6  1  0.41405199  0.20702599  0.45946511  1
  K  K7  1  0.79297401  0.58594801  0.04053489  1
  K  K8  1  0.20702599  0.41405199  0.54053489  1
  K  K9  1  0.58594801  0.79297401  0.95946511  1
  K  K10  1  0.20702599  0.41405199  0.95946511  1
  K  K11  1  0.20702599  0.79297401  0.95946511  1
  K  K12  1  0.79297401  0.58594801  0.45946511  1
  K  K13  1  0.20702599  0.79297401  0.54053489  1
  K  K14  1  0.79297401  0.20702599  0.04053489  1
  K  K15  1  0.58594801  0.79297401  0.54053489  1
  K  K16  1  0.41405199  0.20702599  0.04053489  1
  K  K17  1  0.79297401  0.20702599  0.45946511  1
  Ga  Ga18  1  0.33333333  0.66666667  0.25000000  1
  Ga  Ga19  1  0.66666667  0.33333333  0.75000000  1
  Sb  Sb20  1  0.48154835  0.96309671  0.25000000  1
  Sb  Sb21  1  0.51845165  0.48154835  0.75000000  1
  Sb  Sb22  1  0.96309671  0.48154835  0.75000000  1
  Sb  Sb23  1  0.03690329  0.51845165  0.25000000  1
  Sb  Sb24  1  0.48154835  0.51845165  0.25000000  1
  Sb  Sb25  1  0.51845165  0.03690329  0.75000000  1
  Sb  Sb26  1  0.00000000  0.00000000  0.00000000  1
  Sb  Sb27  1  0.00000000  0.00000000  0.50000000  1
