# generated using pymatgen
data_RbUN3O11
_symmetry_space_group_name_H-M   'P 1'
_cell_length_a   8.55063614
_cell_length_b   8.55063613
_cell_length_c   8.55063613
_cell_angle_alpha   69.84077745
_cell_angle_beta   69.84077750
_cell_angle_gamma   69.84077745
_symmetry_Int_Tables_number   1
_chemical_formula_structural   RbUN3O11
_chemical_formula_sum   'Rb2 U2 N6 O22'
_cell_volume   532.51274772
_cell_formula_units_Z   2
loop_
 _symmetry_equiv_pos_site_id
 _symmetry_equiv_pos_as_xyz
  1  'x, y, z'
loop_
 _atom_site_type_symbol
 _atom_site_label
 _atom_site_symmetry_multiplicity
 _atom_site_fract_x
 _atom_site_fract_y
 _atom_site_fract_z
 _atom_site_occupancy
  N  N0  1  0.05025520  0.75000000  0.44974480  1
  N  N1  1  0.75000000  0.44974480  0.05025520  1
  N  N2  1  0.44974480  0.05025520  0.75000000  1
  N  N3  1  0.94974480  0.25000000  0.55025520  1
  N  N4  1  0.25000000  0.55025520  0.94974480  1
  N  N5  1  0.55025520  0.94974480  0.25000000  1
  O  O6  1  0.84349951  0.84349951  0.84349951  1
  O  O7  1  0.65650049  0.65650049  0.65650049  1
  O  O8  1  0.34349951  0.34349951  0.34349951  1
  O  O9  1  0.15650049  0.15650049  0.15650049  1
  O  O10  1  0.90955073  0.87182694  0.45057858  1
  O  O11  1  0.59044927  0.04942142  0.62817306  1
  O  O12  1  0.62817306  0.59044927  0.04942142  1
  O  O13  1  0.04942142  0.62817306  0.59044927  1
  O  O14  1  0.67559495  0.82440505  0.25000000  1
  O  O15  1  0.25000000  0.67559495  0.82440505  1
  O  O16  1  0.82440505  0.25000000  0.67559495  1
  O  O17  1  0.32440505  0.17559495  0.75000000  1
  O  O18  1  0.75000000  0.32440505  0.17559495  1
  O  O19  1  0.17559495  0.75000000  0.32440505  1
  O  O20  1  0.54942142  0.09044927  0.12817306  1
  O  O21  1  0.12817306  0.54942142  0.09044927  1
  O  O22  1  0.09044927  0.12817306  0.54942142  1
  O  O23  1  0.40955073  0.95057858  0.37182694  1
  O  O24  1  0.37182694  0.40955073  0.95057858  1
  O  O25  1  0.95057858  0.37182694  0.40955073  1
  O  O26  1  0.45057858  0.90955073  0.87182694  1
  O  O27  1  0.87182694  0.45057858  0.90955073  1
  Rb  Rb28  1  0.00000000  0.00000000  0.00000000  1
  Rb  Rb29  1  0.50000000  0.50000000  0.50000000  1
  U  U30  1  0.25000000  0.25000000  0.25000000  1
  U  U31  1  0.75000000  0.75000000  0.75000000  1
