# generated using pymatgen
data_RbTi2(PO4)3
_symmetry_space_group_name_H-M   'P 1'
_cell_length_a   9.31094352
_cell_length_b   9.31094351
_cell_length_c   9.31094351
_cell_angle_alpha   53.89555901
_cell_angle_beta   53.89555901
_cell_angle_gamma   53.89555903
_symmetry_Int_Tables_number   1
_chemical_formula_structural   RbTi2(PO4)3
_chemical_formula_sum   'Rb2 Ti4 P6 O24'
_cell_volume   489.36141497
_cell_formula_units_Z   2
loop_
 _symmetry_equiv_pos_site_id
 _symmetry_equiv_pos_as_xyz
  1  'x, y, z'
loop_
 _atom_site_type_symbol
 _atom_site_label
 _atom_site_symmetry_multiplicity
 _atom_site_fract_x
 _atom_site_fract_y
 _atom_site_fract_z
 _atom_site_occupancy
  O  O0  1  0.84771591  0.48817421  0.76143979  1
  O  O1  1  0.48817421  0.76143979  0.84771591  1
  O  O2  1  0.76143979  0.84771591  0.48817421  1
  O  O3  1  0.73856021  0.01182579  0.65228409  1
  O  O4  1  0.01182579  0.65228409  0.73856021  1
  O  O5  1  0.65228409  0.73856021  0.01182579  1
  O  O6  1  0.15228409  0.51182579  0.23856021  1
  O  O7  1  0.51182579  0.23856021  0.15228409  1
  O  O8  1  0.23856021  0.15228409  0.51182579  1
  O  O9  1  0.26143979  0.98817421  0.34771591  1
  O  O10  1  0.98817421  0.34771591  0.26143979  1
  O  O11  1  0.34771591  0.26143979  0.98817421  1
  O  O12  1  0.57035591  0.43168480  0.80229193  1
  O  O13  1  0.80229193  0.57035591  0.43168480  1
  O  O14  1  0.43168480  0.80229193  0.57035591  1
  O  O15  1  0.06831520  0.92964409  0.69770807  1
  O  O16  1  0.69770807  0.06831520  0.92964409  1
  O  O17  1  0.92964409  0.69770807  0.06831520  1
  O  O18  1  0.42964409  0.56831520  0.19770807  1
  O  O19  1  0.19770807  0.42964409  0.56831520  1
  O  O20  1  0.56831520  0.19770807  0.42964409  1
  O  O21  1  0.93168480  0.07035591  0.30229193  1
  O  O22  1  0.30229193  0.93168480  0.07035591  1
  O  O23  1  0.07035591  0.30229193  0.93168480  1
  P  P24  1  0.47015322  0.75000000  0.02984678  1
  P  P25  1  0.75000000  0.02984678  0.47015322  1
  P  P26  1  0.02984678  0.47015322  0.75000000  1
  P  P27  1  0.52984678  0.25000000  0.97015322  1
  P  P28  1  0.25000000  0.97015322  0.52984678  1
  P  P29  1  0.97015322  0.52984678  0.25000000  1
  Ti  Ti30  1  0.65084274  0.65084274  0.65084274  1
  Ti  Ti31  1  0.84915726  0.84915726  0.84915726  1
  Ti  Ti32  1  0.34915726  0.34915726  0.34915726  1
  Ti  Ti33  1  0.15084274  0.15084274  0.15084274  1
  Rb  Rb34  1  0.50000000  0.50000000  0.50000000  1
  Rb  Rb35  1  0.00000000  0.00000000  0.00000000  1
