# generated using pymatgen
data_Ba2NdNbO6
_symmetry_space_group_name_H-M   'P 1'
_cell_length_a   6.12826719
_cell_length_b   6.15252156
_cell_length_c   6.11789224
_cell_angle_alpha   60.46713262
_cell_angle_beta   59.94388620
_cell_angle_gamma   60.13032091
_symmetry_Int_Tables_number   1
_chemical_formula_structural   Ba2NdNbO6
_chemical_formula_sum   'Ba2 Nd1 Nb1 O6'
_cell_volume   163.76845542
_cell_formula_units_Z   1
loop_
 _symmetry_equiv_pos_site_id
 _symmetry_equiv_pos_as_xyz
  1  'x, y, z'
loop_
 _atom_site_type_symbol
 _atom_site_label
 _atom_site_symmetry_multiplicity
 _atom_site_fract_x
 _atom_site_fract_y
 _atom_site_fract_z
 _atom_site_occupancy
  O  O0  1  0.69864359  0.30545900  0.76444008  1
  O  O1  1  0.76854267  0.69454100  0.23555992  1
  O  O2  1  0.30135641  0.69454100  0.23555992  1
  O  O3  1  0.23145733  0.30545900  0.76444008  1
  O  O4  1  0.26962280  0.79481429  0.66594010  1
  O  O5  1  0.73037720  0.20518571  0.33405990  1
  Nb  Nb6  1  0.50000000  0.50000000  0.50000000  1
  Ba  Ba7  1  0.75157620  0.74262719  0.75422041  1
  Ba  Ba8  1  0.24842380  0.25737281  0.24577959  1
  Nd  Nd9  1  0.00000000  0.00000000  0.00000000  1
