# generated using pymatgen
data_Cs2NaFeF6
_symmetry_space_group_name_H-M   'P 1'
_cell_length_a   10.98451461
_cell_length_b   10.98451470
_cell_length_c   10.98451489
_cell_angle_alpha   33.71878708
_cell_angle_beta   33.71878637
_cell_angle_gamma   33.71878532
_symmetry_Int_Tables_number   1
_chemical_formula_structural   Cs2NaFeF6
_chemical_formula_sum   'Cs4 Na2 Fe2 F12'
_cell_volume   363.89029591
_cell_formula_units_Z   2
loop_
 _symmetry_equiv_pos_site_id
 _symmetry_equiv_pos_as_xyz
  1  'x, y, z'
loop_
 _atom_site_type_symbol
 _atom_site_label
 _atom_site_symmetry_multiplicity
 _atom_site_fract_x
 _atom_site_fract_y
 _atom_site_fract_z
 _atom_site_occupancy
  Cs  Cs0  1  0.12750215  0.12750215  0.12750215  1
  Cs  Cs1  1  0.87249785  0.87249785  0.87249785  1
  Cs  Cs2  1  0.28202328  0.28202328  0.28202328  1
  Cs  Cs3  1  0.71797672  0.71797672  0.71797672  1
  Na  Na4  1  0.40285723  0.40285723  0.40285723  1
  Na  Na5  1  0.59714277  0.59714277  0.59714277  1
  Fe  Fe6  1  0.00000000  0.00000000  0.00000000  1
  Fe  Fe7  1  0.50000000  0.50000000  0.50000000  1
  F  F8  1  0.60429567  0.17733317  0.60429567  1
  F  F9  1  0.60429567  0.60429567  0.17733317  1
  F  F10  1  0.17733317  0.60429567  0.60429567  1
  F  F11  1  0.82266683  0.39570433  0.39570433  1
  F  F12  1  0.39570433  0.82266683  0.39570433  1
  F  F13  1  0.39570433  0.39570433  0.82266683  1
  F  F14  1  0.81596014  0.25870334  0.81596014  1
  F  F15  1  0.81596014  0.81596014  0.25870334  1
  F  F16  1  0.25870334  0.81596014  0.81596014  1
  F  F17  1  0.74129666  0.18403986  0.18403986  1
  F  F18  1  0.18403986  0.74129666  0.18403986  1
  F  F19  1  0.18403986  0.18403986  0.74129666  1
