# generated using pymatgen
data_LaPb6BrO7
_symmetry_space_group_name_H-M   'P 1'
_cell_length_a   8.27108200
_cell_length_b   9.70373957
_cell_length_c   9.70373984
_cell_angle_alpha   118.81560852
_cell_angle_beta   90.00000000
_cell_angle_gamma   90.00000000
_symmetry_Int_Tables_number   1
_chemical_formula_structural   LaPb6BrO7
_chemical_formula_sum   'La2 Pb12 Br2 O14'
_cell_volume   682.38844326
_cell_formula_units_Z   2
loop_
 _symmetry_equiv_pos_site_id
 _symmetry_equiv_pos_as_xyz
  1  'x, y, z'
loop_
 _atom_site_type_symbol
 _atom_site_label
 _atom_site_symmetry_multiplicity
 _atom_site_fract_x
 _atom_site_fract_y
 _atom_site_fract_z
 _atom_site_occupancy
  La  La0  1  0.50000000  0.00000000  0.00000000  1
  La  La1  1  0.00000000  0.00000000  0.00000000  1
  Pb  Pb2  1  0.25000000  0.81267303  0.61434378  1
  Pb  Pb3  1  0.75000000  0.61434378  0.81267303  1
  Pb  Pb4  1  0.75000000  0.18732697  0.38565622  1
  Pb  Pb5  1  0.25000000  0.38565622  0.18732697  1
  Pb  Pb6  1  0.25000000  0.10462776  0.36627434  1
  Pb  Pb7  1  0.98573672  0.77233009  0.22766991  1
  Pb  Pb8  1  0.51426328  0.77233009  0.22766991  1
  Pb  Pb9  1  0.25000000  0.63372566  0.89537224  1
  Pb  Pb10  1  0.48573672  0.22766991  0.77233009  1
  Pb  Pb11  1  0.75000000  0.89537224  0.63372566  1
  Pb  Pb12  1  0.01426328  0.22766991  0.77233009  1
  Pb  Pb13  1  0.75000000  0.36627434  0.10462776  1
  Br  Br14  1  0.50000000  0.50000000  0.50000000  1
  Br  Br15  1  0.00000000  0.50000000  0.50000000  1
  O  O16  1  0.25000000  0.84204396  0.86043006  1
  O  O17  1  0.47118269  0.27907946  0.02073466  1
  O  O18  1  0.02881731  0.27907946  0.02073466  1
  O  O19  1  0.75000000  0.15795604  0.13956994  1
  O  O20  1  0.47118269  0.97926534  0.72092054  1
  O  O21  1  0.25000000  0.80706473  0.19293527  1
  O  O22  1  0.52881731  0.72092054  0.97926534  1
  O  O23  1  0.75000000  0.86043006  0.84204396  1
  O  O24  1  0.25000000  0.13956994  0.15795604  1
  O  O25  1  0.02881731  0.97926534  0.72092054  1
  O  O26  1  0.97118269  0.72092054  0.97926534  1
  O  O27  1  0.97118269  0.02073466  0.27907946  1
  O  O28  1  0.75000000  0.19293527  0.80706473  1
  O  O29  1  0.52881731  0.02073466  0.27907946  1
