# generated using pymatgen
data_Zr5(In2Rh)2
_symmetry_space_group_name_H-M   'P 1'
_cell_length_a   3.41655111
_cell_length_b   7.68778666
_cell_length_c   17.62360006
_cell_angle_alpha   90.00478314
_cell_angle_beta   90.00046735
_cell_angle_gamma   89.99840279
_symmetry_Int_Tables_number   1
_chemical_formula_structural   Zr5(In2Rh)2
_chemical_formula_sum   'Zr10 In8 Rh4'
_cell_volume   462.89647286
_cell_formula_units_Z   2
loop_
 _symmetry_equiv_pos_site_id
 _symmetry_equiv_pos_as_xyz
  1  'x, y, z'
loop_
 _atom_site_type_symbol
 _atom_site_label
 _atom_site_symmetry_multiplicity
 _atom_site_fract_x
 _atom_site_fract_y
 _atom_site_fract_z
 _atom_site_occupancy
  Zr  Zr0  1  -0.00002886  0.13598450  0.42000011  1
  Zr  Zr1  1  0.00024008  0.75797308  0.27873286  1
  Zr  Zr2  1  0.99995862  0.63589718  0.08002312  1
  Zr  Zr3  1  0.00002080  0.25807457  0.22123402  1
  Zr  Zr4  1  0.99995032  0.36404741  0.91996230  1
  Zr  Zr5  1  0.00017898  0.24196023  0.72127193  1
  Zr  Zr6  1  0.00011837  0.99993960  -0.00003359  1
  Zr  Zr7  1  -0.00020369  0.74191948  0.77875640  1
  Zr  Zr8  1  -0.00004887  0.50005919  0.49997768  1
  Zr  Zr9  1  -0.00000043  0.86404313  0.58003949  1
  In  In10  1  0.50002625  0.79953900  0.43198983  1
  In  In11  1  0.49995523  0.56361856  0.64997787  1
  In  In12  1  0.49983770  0.43638497  0.35002172  1
  In  In13  1  0.50005108  0.06361284  0.84996027  1
  In  In14  1  0.49998321  0.29956020  0.06808909  1
  In  In15  1  0.50007491  0.93635369  0.15000755  1
  In  In16  1  0.50002335  0.70052719  0.93189882  1
  In  In17  1  0.50000183  0.20053700  0.56813823  1
  Rh  Rh18  1  0.49996808  0.54825334  0.19319481  1
  Rh  Rh19  1  0.49995988  0.45175047  0.80677626  1
  Rh  Rh20  1  0.50005876  0.04831795  0.30675979  1
  Rh  Rh21  1  0.49987441  0.95164643  0.69322143  1
