# generated using pymatgen
data_NaFe3H6(SO7)2
_symmetry_space_group_name_H-M   'P 1'
_cell_length_a   7.03275470
_cell_length_b   7.03275496
_cell_length_c   7.03275483
_cell_angle_alpha   63.59791954
_cell_angle_beta   63.59791844
_cell_angle_gamma   63.59791797
_symmetry_Int_Tables_number   1
_chemical_formula_structural   NaFe3H6(SO7)2
_chemical_formula_sum   'Na1 Fe3 H6 S2 O14'
_cell_volume   265.51183802
_cell_formula_units_Z   1
loop_
 _symmetry_equiv_pos_site_id
 _symmetry_equiv_pos_as_xyz
  1  'x, y, z'
loop_
 _atom_site_type_symbol
 _atom_site_label
 _atom_site_symmetry_multiplicity
 _atom_site_fract_x
 _atom_site_fract_y
 _atom_site_fract_z
 _atom_site_occupancy
  Na  Na0  1  0.00000000  -0.00000000  0.00000000  1
  Fe  Fe1  1  0.00000000  -0.00000000  0.50000000  1
  Fe  Fe2  1  0.00000000  0.50000000  0.00000000  1
  Fe  Fe3  1  0.50000000  -0.00000000  0.00000000  1
  H  H4  1  0.30588759  0.71710324  0.30588759  1
  H  H5  1  0.69411241  0.28289676  0.69411241  1
  H  H6  1  0.28289676  0.69411241  0.69411241  1
  H  H7  1  0.30588759  0.30588759  0.71710324  1
  H  H8  1  0.69411241  0.69411241  0.28289676  1
  H  H9  1  0.71710324  0.30588759  0.30588759  1
  S  S10  1  0.68715234  0.68715234  0.68715234  1
  S  S11  1  0.31284766  0.31284766  0.31284766  1
  O  O12  1  0.88154295  0.25706333  0.25706333  1
  O  O13  1  0.17326492  0.17326492  0.50266815  1
  O  O14  1  0.25706333  0.88154295  0.25706333  1
  O  O15  1  0.49733185  0.82673508  0.82673508  1
  O  O16  1  0.11845705  0.74293667  0.74293667  1
  O  O17  1  0.74293667  0.11845705  0.74293667  1
  O  O18  1  0.40113429  0.40113429  0.40113429  1
  O  O19  1  0.82673508  0.49733185  0.82673508  1
  O  O20  1  0.74293667  0.74293667  0.11845705  1
  O  O21  1  0.25706333  0.25706333  0.88154295  1
  O  O22  1  0.59886571  0.59886571  0.59886571  1
  O  O23  1  0.82673508  0.82673508  0.49733185  1
  O  O24  1  0.17326492  0.50266815  0.17326492  1
  O  O25  1  0.50266815  0.17326492  0.17326492  1
