# generated using pymatgen
data_UCu2(PO5)2
_symmetry_space_group_name_H-M   'P 1'
_cell_length_a   5.11161076
_cell_length_b   5.81435193
_cell_length_c   7.72334058
_cell_angle_alpha   112.11175316
_cell_angle_beta   104.82113886
_cell_angle_gamma   90.00000397
_symmetry_Int_Tables_number   1
_chemical_formula_structural   UCu2(PO5)2
_chemical_formula_sum   'U1 Cu2 P2 O10'
_cell_volume   204.39359669
_cell_formula_units_Z   1
loop_
 _symmetry_equiv_pos_site_id
 _symmetry_equiv_pos_as_xyz
  1  'x, y, z'
loop_
 _atom_site_type_symbol
 _atom_site_label
 _atom_site_symmetry_multiplicity
 _atom_site_fract_x
 _atom_site_fract_y
 _atom_site_fract_z
 _atom_site_occupancy
  U  U0  1  -0.00000000  -0.00000000  0.00000000  1
  Cu  Cu1  1  0.50000000  -0.00000000  0.50000000  1
  Cu  Cu2  1  0.50000000  0.50000000  0.50000000  1
  P  P3  1  0.92320479  0.65055834  0.30111668  1
  P  P4  1  0.07679521  0.34944166  0.69888332  1
  O  O5  1  0.22498886  0.71932115  0.43864230  1
  O  O6  1  0.87489618  0.37123373  0.17889917  1
  O  O7  1  0.77501114  0.28067885  0.56135770  1
  O  O8  1  0.87489618  0.80766544  0.17889917  1
  O  O9  1  0.66459656  0.91162101  0.82324203  1
  O  O10  1  0.33540344  0.08837899  0.17675797  1
  O  O11  1  0.27623789  0.28273725  0.56547449  1
  O  O12  1  0.12510382  0.62876627  0.82110083  1
  O  O13  1  0.12510382  0.19233456  0.82110083  1
  O  O14  1  0.72376211  0.71726275  0.43452551  1
