# generated using pymatgen
data_BaCuSn2
_symmetry_space_group_name_H-M   'P 1'
_cell_length_a   4.69183336
_cell_length_b   4.86309581
_cell_length_c   10.10725030
_cell_angle_alpha   103.92045736
_cell_angle_beta   90.00000000
_cell_angle_gamma   90.00000000
_symmetry_Int_Tables_number   1
_chemical_formula_structural   BaCuSn2
_chemical_formula_sum   'Ba2 Cu2 Sn4'
_cell_volume   223.84243668
_cell_formula_units_Z   2
loop_
 _symmetry_equiv_pos_site_id
 _symmetry_equiv_pos_as_xyz
  1  'x, y, z'
loop_
 _atom_site_type_symbol
 _atom_site_label
 _atom_site_symmetry_multiplicity
 _atom_site_fract_x
 _atom_site_fract_y
 _atom_site_fract_z
 _atom_site_occupancy
  Cu  Cu0  1  0.75000000  0.17912736  0.35825472  1
  Cu  Cu1  1  0.25000000  0.82087264  0.64174528  1
  Sn  Sn2  1  0.25000000  0.95666043  0.91332086  1
  Sn  Sn3  1  0.75000000  0.04333957  0.08667914  1
  Sn  Sn4  1  0.75000000  0.74994078  0.49988156  1
  Sn  Sn5  1  0.25000000  0.25005922  0.50011844  1
  Ba  Ba6  1  0.25000000  0.60809306  0.21618612  1
  Ba  Ba7  1  0.75000000  0.39190694  0.78381388  1
