# generated using pymatgen
data_LaSiBO5
_symmetry_space_group_name_H-M   'P 1'
_cell_length_a   6.88307011
_cell_length_b   6.88307011
_cell_length_c   6.84992178
_cell_angle_alpha   90.00000000
_cell_angle_beta   90.00000000
_cell_angle_gamma   120.00000004
_symmetry_Int_Tables_number   1
_chemical_formula_structural   LaSiBO5
_chemical_formula_sum   'La3 Si3 B3 O15'
_cell_volume   281.04808493
_cell_formula_units_Z   3
loop_
 _symmetry_equiv_pos_site_id
 _symmetry_equiv_pos_as_xyz
  1  'x, y, z'
loop_
 _atom_site_type_symbol
 _atom_site_label
 _atom_site_symmetry_multiplicity
 _atom_site_fract_x
 _atom_site_fract_y
 _atom_site_fract_z
 _atom_site_occupancy
  B  B0  1  0.89180392  0.89180392  0.00000000  1
  B  B1  1  0.00000000  0.10819608  0.66666667  1
  B  B2  1  0.10819608  0.00000000  0.33333333  1
  O  O3  1  0.39402962  0.86229754  0.66904342  1
  O  O4  1  0.13770246  0.53173208  0.00237675  1
  O  O5  1  0.46826792  0.60597038  0.33571008  1
  O  O6  1  0.03883707  0.00000000  0.83333333  1
  O  O7  1  0.00000000  0.03883707  0.16666667  1
  O  O8  1  0.96116293  0.96116293  0.50000000  1
  O  O9  1  0.84735167  0.65607680  0.02781206  1
  O  O10  1  0.34392320  0.19127487  0.36114539  1
  O  O11  1  0.80872513  0.15264833  0.69447872  1
  O  O12  1  0.19127487  0.34392320  0.63885461  1
  O  O13  1  0.15264833  0.80872513  0.30552128  1
  O  O14  1  0.65607680  0.84735167  0.97218794  1
  O  O15  1  0.86229754  0.39402962  0.33095658  1
  O  O16  1  0.60597038  0.46826792  0.66428992  1
  O  O17  1  0.53173208  0.13770246  0.99762325  1
  Si  Si18  1  0.41740062  0.41740062  0.50000000  1
  Si  Si19  1  0.00000000  0.58259938  0.16666667  1
  Si  Si20  1  0.58259938  0.00000000  0.83333333  1
  La  La21  1  0.39890151  0.39890151  0.00000000  1
  La  La22  1  0.00000000  0.60109849  0.66666667  1
  La  La23  1  0.60109849  0.00000000  0.33333333  1
