# generated using pymatgen
data_CsTb2Cu3Se5
_symmetry_space_group_name_H-M   'P 1'
_cell_length_a   4.15057343
_cell_length_b   7.63987189
_cell_length_c   17.50683822
_cell_angle_alpha   90.00000000
_cell_angle_beta   90.00000000
_cell_angle_gamma   105.76181670
_symmetry_Int_Tables_number   1
_chemical_formula_structural   CsTb2Cu3Se5
_chemical_formula_sum   'Cs2 Tb4 Cu6 Se10'
_cell_volume   534.26554169
_cell_formula_units_Z   2
loop_
 _symmetry_equiv_pos_site_id
 _symmetry_equiv_pos_as_xyz
  1  'x, y, z'
loop_
 _atom_site_type_symbol
 _atom_site_label
 _atom_site_symmetry_multiplicity
 _atom_site_fract_x
 _atom_site_fract_y
 _atom_site_fract_z
 _atom_site_occupancy
  Cu  Cu0  1  0.41531789  0.83063577  0.52966946  1
  Cu  Cu1  1  0.58468211  0.16936423  0.47033054  1
  Cu  Cu2  1  0.65889768  0.31779535  0.75000000  1
  Cu  Cu3  1  0.34110232  0.68220465  0.25000000  1
  Cu  Cu4  1  0.41531789  0.83063577  0.97033054  1
  Cu  Cu5  1  0.58468211  0.16936423  0.02966946  1
  Se  Se6  1  0.56007047  0.12014095  0.88823744  1
  Se  Se7  1  0.16710876  0.33421752  0.07011778  1
  Se  Se8  1  0.56007047  0.12014095  0.61176256  1
  Se  Se9  1  0.83289124  0.66578248  0.57011778  1
  Se  Se10  1  0.16710876  0.33421752  0.42988222  1
  Se  Se11  1  0.83289124  0.66578248  0.92988222  1
  Se  Se12  1  0.23757973  0.47515947  0.75000000  1
  Se  Se13  1  0.76242027  0.52484053  0.25000000  1
  Se  Se14  1  0.43992953  0.87985905  0.38823744  1
  Se  Se15  1  0.43992953  0.87985905  0.11176256  1
  Cs  Cs16  1  0.06062226  0.12124452  0.25000000  1
  Cs  Cs17  1  0.93937774  0.87875548  0.75000000  1
  Tb  Tb18  1  0.80789047  0.61578094  0.40896231  1
  Tb  Tb19  1  0.80789047  0.61578094  0.09103769  1
  Tb  Tb20  1  0.19210953  0.38421906  0.59103769  1
  Tb  Tb21  1  0.19210953  0.38421906  0.90896231  1
