# generated using pymatgen
data_NaSn4(PO4)3
_symmetry_space_group_name_H-M   'P 1'
_cell_length_a   10.06075403
_cell_length_b   10.06075403
_cell_length_c   10.06075403
_cell_angle_alpha   58.67374228
_cell_angle_beta   58.67374227
_cell_angle_gamma   58.67374227
_symmetry_Int_Tables_number   1
_chemical_formula_structural   NaSn4(PO4)3
_chemical_formula_sum   'Na2 Sn8 P6 O24'
_cell_volume   698.24805213
_cell_formula_units_Z   2
loop_
 _symmetry_equiv_pos_site_id
 _symmetry_equiv_pos_as_xyz
  1  'x, y, z'
loop_
 _atom_site_type_symbol
 _atom_site_label
 _atom_site_symmetry_multiplicity
 _atom_site_fract_x
 _atom_site_fract_y
 _atom_site_fract_z
 _atom_site_occupancy
  O  O0  1  0.76587294  0.11871444  0.29562952  1
  O  O1  1  0.79562952  0.61871444  0.26587294  1
  O  O2  1  0.37900094  0.85464262  0.80955139  1
  O  O3  1  0.85464262  0.80955139  0.37900094  1
  O  O4  1  0.80955139  0.37900094  0.85464262  1
  O  O5  1  0.30955139  0.35464262  0.87900094  1
  O  O6  1  0.35464262  0.87900094  0.30955139  1
  O  O7  1  0.87900094  0.30955139  0.35464262  1
  O  O8  1  0.24413922  0.09404533  0.43602768  1
  O  O9  1  0.09404533  0.43602768  0.24413922  1
  O  O10  1  0.43602768  0.24413922  0.09404533  1
  O  O11  1  0.93602768  0.59404533  0.74413922  1
  O  O12  1  0.61871444  0.26587294  0.79562952  1
  O  O13  1  0.74413922  0.93602768  0.59404533  1
  O  O14  1  0.93130382  0.36940346  0.02851535  1
  O  O15  1  0.02851535  0.93130382  0.36940346  1
  O  O16  1  0.36940346  0.02851535  0.93130382  1
  O  O17  1  0.86940346  0.43130382  0.52851535  1
  O  O18  1  0.52851535  0.86940346  0.43130382  1
  O  O19  1  0.43130382  0.52851535  0.86940346  1
  O  O20  1  0.59404533  0.74413922  0.93602768  1
  O  O21  1  0.29562952  0.76587294  0.11871444  1
  O  O22  1  0.11871444  0.29562952  0.76587294  1
  O  O23  1  0.26587294  0.79562952  0.61871444  1
  Na  Na24  1  0.66130567  0.66130567  0.66130567  1
  Na  Na25  1  0.16130567  0.16130567  0.16130567  1
  P  P26  1  0.90976697  0.44960678  0.34929539  1
  P  P27  1  0.34929539  0.90976697  0.44960678  1
  P  P28  1  0.44960678  0.34929539  0.90976697  1
  P  P29  1  0.40976697  0.84929539  0.94960678  1
  P  P30  1  0.84929539  0.94960678  0.40976697  1
  P  P31  1  0.94960678  0.40976697  0.84929539  1
  Sn  Sn32  1  0.74342992  0.87528379  0.20886393  1
  Sn  Sn33  1  0.20886393  0.74342992  0.87528379  1
  Sn  Sn34  1  0.87528379  0.20886393  0.74342992  1
  Sn  Sn35  1  0.37528379  0.24342992  0.70886393  1
  Sn  Sn36  1  0.24342992  0.70886393  0.37528379  1
  Sn  Sn37  1  0.70886393  0.37528379  0.24342992  1
  Sn  Sn38  1  0.31043418  0.31043418  0.31043418  1
  Sn  Sn39  1  0.81043418  0.81043418  0.81043418  1
