# generated using pymatgen
data_Yb5Bi3
_symmetry_space_group_name_H-M   'P 1'
_cell_length_a   8.43499500
_cell_length_b   9.78098644
_cell_length_c   12.74977767
_cell_angle_alpha   90.00000000
_cell_angle_beta   90.00000000
_cell_angle_gamma   90.00000000
_symmetry_Int_Tables_number   1
_chemical_formula_structural   Yb5Bi3
_chemical_formula_sum   'Yb20 Bi12'
_cell_volume   1051.88944659
_cell_formula_units_Z   4
loop_
 _symmetry_equiv_pos_site_id
 _symmetry_equiv_pos_as_xyz
  1  'x, y, z'
loop_
 _atom_site_type_symbol
 _atom_site_label
 _atom_site_symmetry_multiplicity
 _atom_site_fract_x
 _atom_site_fract_y
 _atom_site_fract_z
 _atom_site_occupancy
  Yb  Yb0  1  0.80408214  0.54366835  0.92550977  1
  Yb  Yb1  1  0.81805448  0.25000000  0.23010809  1
  Yb  Yb2  1  0.03532152  0.75000000  0.49517646  1
  Yb  Yb3  1  0.34813433  0.25000000  0.28947458  1
  Yb  Yb4  1  0.19591786  0.04366835  0.07449023  1
  Yb  Yb5  1  0.53532152  0.25000000  0.00482354  1
  Yb  Yb6  1  0.84813433  0.75000000  0.21052542  1
  Yb  Yb7  1  0.31805448  0.75000000  0.26989191  1
  Yb  Yb8  1  0.30408214  0.45633165  0.57449023  1
  Yb  Yb9  1  0.68194552  0.25000000  0.73010809  1
  Yb  Yb10  1  0.46467848  0.75000000  0.99517646  1
  Yb  Yb11  1  0.69591786  0.54366835  0.42550977  1
  Yb  Yb12  1  0.96467848  0.25000000  0.50482354  1
  Yb  Yb13  1  0.15186567  0.25000000  0.78947458  1
  Yb  Yb14  1  0.18194552  0.75000000  0.76989191  1
  Yb  Yb15  1  0.19591786  0.45633165  0.07449023  1
  Yb  Yb16  1  0.80408214  0.95633165  0.92550977  1
  Yb  Yb17  1  0.69591786  0.95633165  0.42550977  1
  Yb  Yb18  1  0.30408214  0.04366835  0.57449023  1
  Yb  Yb19  1  0.65186567  0.75000000  0.71052542  1
  Bi  Bi20  1  0.06592015  0.01270674  0.32874212  1
  Bi  Bi21  1  0.93407985  0.98729326  0.67125788  1
  Bi  Bi22  1  0.06592015  0.48729326  0.32874212  1
  Bi  Bi23  1  0.42107580  0.75000000  0.51676295  1
  Bi  Bi24  1  0.56592015  0.98729326  0.17125788  1
  Bi  Bi25  1  0.43407985  0.01270674  0.82874212  1
  Bi  Bi26  1  0.57892420  0.25000000  0.48323705  1
  Bi  Bi27  1  0.43407985  0.48729326  0.82874212  1
  Bi  Bi28  1  0.56592015  0.51270674  0.17125788  1
  Bi  Bi29  1  0.07892420  0.75000000  0.01676295  1
  Bi  Bi30  1  0.92107580  0.25000000  0.98323705  1
  Bi  Bi31  1  0.93407985  0.51270674  0.67125788  1
