# generated using pymatgen
data_Cs2NaGaF6
_symmetry_space_group_name_H-M   'P 1'
_cell_length_a   10.91302038
_cell_length_b   10.91302038
_cell_length_c   10.91302038
_cell_angle_alpha   33.80219969
_cell_angle_beta   33.80219968
_cell_angle_gamma   33.80219969
_symmetry_Int_Tables_number   1
_chemical_formula_structural   Cs2NaGaF6
_chemical_formula_sum   'Cs4 Na2 Ga2 F12'
_cell_volume   358.43828933
_cell_formula_units_Z   2
loop_
 _symmetry_equiv_pos_site_id
 _symmetry_equiv_pos_as_xyz
  1  'x, y, z'
loop_
 _atom_site_type_symbol
 _atom_site_label
 _atom_site_symmetry_multiplicity
 _atom_site_fract_x
 _atom_site_fract_y
 _atom_site_fract_z
 _atom_site_occupancy
  F  F0  1  0.18146030  0.18146030  0.74487882  1
  F  F1  1  0.18146030  0.74487882  0.18146030  1
  F  F2  1  0.74487882  0.18146030  0.18146030  1
  F  F3  1  0.25512118  0.81853970  0.81853970  1
  F  F4  1  0.81853970  0.81853970  0.25512118  1
  F  F5  1  0.81853970  0.25512118  0.81853970  1
  F  F6  1  0.39661143  0.39661143  0.81986366  1
  F  F7  1  0.39661143  0.81986366  0.39661143  1
  F  F8  1  0.60338857  0.18013634  0.60338857  1
  F  F9  1  0.60338857  0.60338857  0.18013634  1
  F  F10  1  0.18013634  0.60338857  0.60338857  1
  F  F11  1  0.81986366  0.39661143  0.39661143  1
  Na  Na12  1  0.40301525  0.40301525  0.40301525  1
  Na  Na13  1  0.59698475  0.59698475  0.59698475  1
  Ga  Ga14  1  0.00000000  0.00000000  0.00000000  1
  Ga  Ga15  1  0.50000000  0.50000000  0.50000000  1
  Cs  Cs16  1  0.71847500  0.71847500  0.71847500  1
  Cs  Cs17  1  0.28152500  0.28152500  0.28152500  1
  Cs  Cs18  1  0.87198131  0.87198131  0.87198131  1
  Cs  Cs19  1  0.12801869  0.12801869  0.12801869  1
