# generated using pymatgen
data_Rb2Se5
_symmetry_space_group_name_H-M   'P 1'
_cell_length_a   7.06493068
_cell_length_b   7.33739488
_cell_length_c   18.76292836
_cell_angle_alpha   90.00000000
_cell_angle_beta   90.00000000
_cell_angle_gamma   90.00000000
_symmetry_Int_Tables_number   1
_chemical_formula_structural   Rb2Se5
_chemical_formula_sum   'Rb8 Se20'
_cell_volume   972.63617396
_cell_formula_units_Z   4
loop_
 _symmetry_equiv_pos_site_id
 _symmetry_equiv_pos_as_xyz
  1  'x, y, z'
loop_
 _atom_site_type_symbol
 _atom_site_label
 _atom_site_symmetry_multiplicity
 _atom_site_fract_x
 _atom_site_fract_y
 _atom_site_fract_z
 _atom_site_occupancy
  Rb  Rb0  1  0.58679017  0.24143402  0.16216839  1
  Rb  Rb1  1  0.62306541  0.41354182  0.51019094  1
  Rb  Rb2  1  0.91320983  0.75856598  0.66216839  1
  Rb  Rb3  1  0.87693459  0.58645818  0.01019094  1
  Rb  Rb4  1  0.12306541  0.08645818  0.48980906  1
  Rb  Rb5  1  0.37693459  0.91354182  0.98980906  1
  Rb  Rb6  1  0.41320983  0.74143402  0.33783161  1
  Rb  Rb7  1  0.08679017  0.25856598  0.83783161  1
  Se  Se8  1  0.90503022  0.08331460  0.01896185  1
  Se  Se9  1  0.42883678  0.86414101  0.62596701  1
  Se  Se10  1  0.03641395  0.87480433  0.20194537  1
  Se  Se11  1  0.96358605  0.37480433  0.29805463  1
  Se  Se12  1  0.25814666  0.35587023  0.65244826  1
  Se  Se13  1  0.07116322  0.13585899  0.12596701  1
  Se  Se14  1  0.55977355  0.74420009  0.16042505  1
  Se  Se15  1  0.53641395  0.62519567  0.79805463  1
  Se  Se16  1  0.57116322  0.36414101  0.87403299  1
  Se  Se17  1  0.09496978  0.58331460  0.48103815  1
  Se  Se18  1  0.59496978  0.91668540  0.51896185  1
  Se  Se19  1  0.05977355  0.75579991  0.83957495  1
  Se  Se20  1  0.75814666  0.14412977  0.34755174  1
  Se  Se21  1  0.92883678  0.63585899  0.37403299  1
  Se  Se22  1  0.94022645  0.25579991  0.66042505  1
  Se  Se23  1  0.46358605  0.12519567  0.70194537  1
  Se  Se24  1  0.74185334  0.85587023  0.84755174  1
  Se  Se25  1  0.44022645  0.24420009  0.33957495  1
  Se  Se26  1  0.24185334  0.64412977  0.15244826  1
  Se  Se27  1  0.40503022  0.41668540  0.98103815  1
