# generated using pymatgen
data_BaYb2CuO5
_symmetry_space_group_name_H-M   'P 1'
_cell_length_a   5.64826302
_cell_length_b   7.07063052
_cell_length_c   12.13152551
_cell_angle_alpha   90.00000000
_cell_angle_beta   90.00000000
_cell_angle_gamma   90.00000000
_symmetry_Int_Tables_number   1
_chemical_formula_structural   BaYb2CuO5
_chemical_formula_sum   'Ba4 Yb8 Cu4 O20'
_cell_volume   484.49407621
_cell_formula_units_Z   4
loop_
 _symmetry_equiv_pos_site_id
 _symmetry_equiv_pos_as_xyz
  1  'x, y, z'
loop_
 _atom_site_type_symbol
 _atom_site_label
 _atom_site_symmetry_multiplicity
 _atom_site_fract_x
 _atom_site_fract_y
 _atom_site_fract_z
 _atom_site_occupancy
  O  O0  1  0.25000000  0.43619126  0.60272524  1
  O  O1  1  0.75000000  0.56380874  0.39727476  1
  O  O2  1  0.75000000  0.93619126  0.89727476  1
  O  O3  1  0.25000000  0.06380874  0.10272524  1
  O  O4  1  0.01480249  0.84472164  0.26540738  1
  O  O5  1  0.51480249  0.15527836  0.73459262  1
  O  O6  1  0.98519751  0.34472164  0.23459262  1
  O  O7  1  0.48519751  0.65527836  0.76540738  1
  O  O8  1  0.98519751  0.15527836  0.73459262  1
  O  O9  1  0.48519751  0.84472164  0.26540738  1
  O  O10  1  0.01480249  0.65527836  0.76540738  1
  O  O11  1  0.51480249  0.34472164  0.23459262  1
  O  O12  1  0.47974784  0.67794389  0.06469709  1
  O  O13  1  0.97974784  0.32205611  0.93530291  1
  O  O14  1  0.52025216  0.17794389  0.43530291  1
  O  O15  1  0.02025216  0.82205611  0.56469709  1
  O  O16  1  0.97974784  0.17794389  0.43530291  1
  O  O17  1  0.47974784  0.82205611  0.56469709  1
  O  O18  1  0.02025216  0.67794389  0.06469709  1
  O  O19  1  0.52025216  0.32205611  0.93530291  1
  Cu  Cu20  1  0.25000000  0.78654123  0.15833161  1
  Cu  Cu21  1  0.75000000  0.21345877  0.84166839  1
  Cu  Cu22  1  0.75000000  0.28654123  0.34166839  1
  Cu  Cu23  1  0.25000000  0.71345877  0.65833161  1
  Ba  Ba24  1  0.25000000  0.56737804  0.39790225  1
  Ba  Ba25  1  0.75000000  0.43262196  0.60209775  1
  Ba  Ba26  1  0.75000000  0.06737804  0.10209775  1
  Ba  Ba27  1  0.25000000  0.93262196  0.89790225  1
  Yb  Yb28  1  0.25000000  0.10653035  0.57540322  1
  Yb  Yb29  1  0.75000000  0.89346965  0.42459678  1
  Yb  Yb30  1  0.75000000  0.60653035  0.92459678  1
  Yb  Yb31  1  0.25000000  0.39346965  0.07540322  1
  Yb  Yb32  1  0.25000000  0.38751791  0.79492110  1
  Yb  Yb33  1  0.75000000  0.61248209  0.20507890  1
  Yb  Yb34  1  0.75000000  0.88751791  0.70507890  1
  Yb  Yb35  1  0.25000000  0.11248209  0.29492110  1
