# generated using pymatgen
data_CaTiSiO5
_symmetry_space_group_name_H-M   'P 1'
_cell_length_a   6.66462795
_cell_length_b   7.14235581
_cell_length_c   8.77274470
_cell_angle_alpha   90.00000000
_cell_angle_beta   90.00000000
_cell_angle_gamma   114.12816522
_symmetry_Int_Tables_number   1
_chemical_formula_structural   CaTiSiO5
_chemical_formula_sum   'Ca4 Ti4 Si4 O20'
_cell_volume   381.10900758
_cell_formula_units_Z   4
loop_
 _symmetry_equiv_pos_site_id
 _symmetry_equiv_pos_as_xyz
  1  'x, y, z'
loop_
 _atom_site_type_symbol
 _atom_site_label
 _atom_site_symmetry_multiplicity
 _atom_site_fract_x
 _atom_site_fract_y
 _atom_site_fract_z
 _atom_site_occupancy
  O  O0  1  0.84916053  0.11651404  0.46327904  1
  O  O1  1  0.15083947  0.38348596  0.96327904  1
  O  O2  1  0.15083947  0.88348596  0.53672096  1
  O  O3  1  0.84916053  0.61651404  0.03672096  1
  O  O4  1  0.65096671  0.88485396  0.03639286  1
  O  O5  1  0.34903329  0.61514604  0.53639286  1
  O  O6  1  0.34903329  0.11514604  0.96360714  1
  O  O7  1  0.65096671  0.38485396  0.46360714  1
  O  O8  1  0.06350234  0.59167809  0.31319001  1
  O  O9  1  0.93649766  0.90832191  0.81319001  1
  O  O10  1  0.93649766  0.40832191  0.68680999  1
  O  O11  1  0.06350234  0.09167809  0.18680999  1
  O  O12  1  0.75020523  0.74986641  0.31918072  1
  O  O13  1  0.24979477  0.75013359  0.81918072  1
  O  O14  1  0.24979477  0.25013359  0.68081928  1
  O  O15  1  0.75020523  0.24986641  0.18081928  1
  O  O16  1  0.43581935  0.90679144  0.31348504  1
  O  O17  1  0.56418065  0.59320856  0.81348504  1
  O  O18  1  0.56418065  0.09320856  0.68651496  1
  O  O19  1  0.43581935  0.40679144  0.18651496  1
  Si  Si20  1  0.24956053  0.24903671  0.06958236  1
  Si  Si21  1  0.75043947  0.25096329  0.56958236  1
  Si  Si22  1  0.75043947  0.75096329  0.93041764  1
  Si  Si23  1  0.24956053  0.74903671  0.43041764  1
  Ca  Ca24  1  0.74963130  0.25363430  0.92152663  1
  Ca  Ca25  1  0.74963130  0.75363430  0.57847337  1
  Ca  Ca26  1  0.25036870  0.24636570  0.42152663  1
  Ca  Ca27  1  0.25036870  0.74636570  0.07847337  1
  Ti  Ti28  1  0.74978339  0.50705743  0.25207118  1
  Ti  Ti29  1  0.25021661  0.49294257  0.74792882  1
  Ti  Ti30  1  0.74978339  0.00705743  0.24792882  1
  Ti  Ti31  1  0.25021661  0.99294257  0.75207118  1
