# generated using pymatgen
data_HoCuPbSe3
_symmetry_space_group_name_H-M   'P 1'
_cell_length_a   4.05787976
_cell_length_b   10.60629409
_cell_length_c   13.66680257
_cell_angle_alpha   90.00000000
_cell_angle_beta   90.00000000
_cell_angle_gamma   90.00000000
_symmetry_Int_Tables_number   1
_chemical_formula_structural   HoCuPbSe3
_chemical_formula_sum   'Ho4 Cu4 Pb4 Se12'
_cell_volume   588.20641941
_cell_formula_units_Z   4
loop_
 _symmetry_equiv_pos_site_id
 _symmetry_equiv_pos_as_xyz
  1  'x, y, z'
loop_
 _atom_site_type_symbol
 _atom_site_label
 _atom_site_symmetry_multiplicity
 _atom_site_fract_x
 _atom_site_fract_y
 _atom_site_fract_z
 _atom_site_occupancy
  Cu  Cu0  1  0.25000000  0.23505437  0.72177963  1
  Cu  Cu1  1  0.75000000  0.76494563  0.27822037  1
  Cu  Cu2  1  0.25000000  0.73505437  0.77822037  1
  Cu  Cu3  1  0.75000000  0.26494563  0.22177963  1
  Se  Se4  1  0.75000000  0.95504503  0.38498687  1
  Se  Se5  1  0.25000000  0.04495497  0.61501313  1
  Se  Se6  1  0.75000000  0.45504503  0.11501313  1
  Se  Se7  1  0.25000000  0.54495497  0.88498687  1
  Se  Se8  1  0.25000000  0.91248829  0.89228680  1
  Se  Se9  1  0.75000000  0.08751171  0.10771320  1
  Se  Se10  1  0.25000000  0.41248829  0.60771320  1
  Se  Se11  1  0.75000000  0.58751171  0.39228680  1
  Se  Se12  1  0.75000000  0.73137725  0.66950742  1
  Se  Se13  1  0.25000000  0.26862275  0.33049258  1
  Se  Se14  1  0.75000000  0.23137725  0.83049258  1
  Se  Se15  1  0.25000000  0.76862275  0.16950742  1
  Ho  Ho16  1  0.75000000  0.47809952  0.74440050  1
  Ho  Ho17  1  0.25000000  0.52190048  0.25559950  1
  Ho  Ho18  1  0.75000000  0.97809952  0.75559950  1
  Ho  Ho19  1  0.25000000  0.02190048  0.24440050  1
  Pb  Pb20  1  0.75000000  0.22349716  0.50604727  1
  Pb  Pb21  1  0.25000000  0.77650284  0.49395273  1
  Pb  Pb22  1  0.75000000  0.72349716  0.99395273  1
  Pb  Pb23  1  0.25000000  0.27650284  0.00604727  1
