# generated using pymatgen
data_K3Ni2F7
_symmetry_space_group_name_H-M   'P 1'
_cell_length_a   4.07499207
_cell_length_b   4.07499283
_cell_length_c   11.03139226
_cell_angle_alpha   100.64362605
_cell_angle_beta   100.64362809
_cell_angle_gamma   90.00000165
_symmetry_Int_Tables_number   1
_chemical_formula_structural   K3Ni2F7
_chemical_formula_sum   'K3 Ni2 F7'
_cell_volume   176.82300809
_cell_formula_units_Z   1
loop_
 _symmetry_equiv_pos_site_id
 _symmetry_equiv_pos_as_xyz
  1  'x, y, z'
loop_
 _atom_site_type_symbol
 _atom_site_label
 _atom_site_symmetry_multiplicity
 _atom_site_fract_x
 _atom_site_fract_y
 _atom_site_fract_z
 _atom_site_occupancy
  K  K0  1  0.31547252  0.31547252  0.63094404  1
  K  K1  1  0.68452748  0.68452748  0.36905596  1
  K  K2  1  0.50000000  0.50000000  0.00000000  1
  Ni  Ni3  1  0.09631918  0.09631918  0.19263737  1
  Ni  Ni4  1  0.90368082  0.90368082  0.80736263  1
  F  F5  1  0.00000000  0.00000000  0.00000000  1
  F  F6  1  0.40482817  0.90482817  0.80965635  1
  F  F7  1  0.90482817  0.40482817  0.80965635  1
  F  F8  1  0.59517183  0.09517183  0.19034365  1
  F  F9  1  0.09517183  0.59517183  0.19034365  1
  F  F10  1  0.19098308  0.19098308  0.38196716  1
  F  F11  1  0.80901692  0.80901692  0.61803284  1
