# generated using pymatgen
data_Mn2H2SO6
_symmetry_space_group_name_H-M   'P 1'
_cell_length_a   6.23903204
_cell_length_b   6.86667692
_cell_length_c   6.86667692
_cell_angle_alpha   67.31006610
_cell_angle_beta   68.86273536
_cell_angle_gamma   68.86273536
_symmetry_Int_Tables_number   1
_chemical_formula_structural   Mn2H2SO6
_chemical_formula_sum   'Mn4 H4 S2 O12'
_cell_volume   244.61974703
_cell_formula_units_Z   2
loop_
 _symmetry_equiv_pos_site_id
 _symmetry_equiv_pos_as_xyz
  1  'x, y, z'
loop_
 _atom_site_type_symbol
 _atom_site_label
 _atom_site_symmetry_multiplicity
 _atom_site_fract_x
 _atom_site_fract_y
 _atom_site_fract_z
 _atom_site_occupancy
  H  H0  1  0.19626537  0.04406403  0.77023065  1
  H  H1  1  0.30373463  0.22976935  0.95593597  1
  H  H2  1  0.80373463  0.95593597  0.22976935  1
  H  H3  1  0.69626537  0.77023065  0.04406403  1
  O  O4  1  0.08665953  0.68422604  0.53501904  1
  O  O5  1  0.41334047  0.46498096  0.31577396  1
  O  O6  1  0.80040890  0.68123116  0.94600509  1
  O  O7  1  0.69959110  0.05399491  0.31876884  1
  O  O8  1  0.19959110  0.31876884  0.05399491  1
  O  O9  1  0.30040890  0.94600509  0.68123116  1
  O  O10  1  0.89369553  0.24749593  0.84595176  1
  O  O11  1  0.60630447  0.15404824  0.75250407  1
  O  O12  1  0.10630447  0.75250407  0.15404824  1
  O  O13  1  0.39369553  0.84595176  0.24749593  1
  O  O14  1  0.58665953  0.53501904  0.68422604  1
  O  O15  1  0.91334047  0.31577396  0.46498096  1
  S  S16  1  0.25000000  0.68892227  0.31107773  1
  S  S17  1  0.75000000  0.31107773  0.68892227  1
  Mn  Mn18  1  0.31679513  0.15235008  0.34811563  1
  Mn  Mn19  1  0.18320487  0.65188437  0.84764992  1
  Mn  Mn20  1  0.68320487  0.84764992  0.65188437  1
  Mn  Mn21  1  0.81679513  0.34811563  0.15235008  1
