# generated using pymatgen
data_Tl3PO4
_symmetry_space_group_name_H-M   'P 1'
_cell_length_a   8.86042931
_cell_length_b   8.86042931
_cell_length_c   5.21791433
_cell_angle_alpha   90.00000000
_cell_angle_beta   90.00000000
_cell_angle_gamma   120.00000002
_symmetry_Int_Tables_number   1
_chemical_formula_structural   Tl3PO4
_chemical_formula_sum   'Tl6 P2 O8'
_cell_volume   354.76200942
_cell_formula_units_Z   2
loop_
 _symmetry_equiv_pos_site_id
 _symmetry_equiv_pos_as_xyz
  1  'x, y, z'
loop_
 _atom_site_type_symbol
 _atom_site_label
 _atom_site_symmetry_multiplicity
 _atom_site_fract_x
 _atom_site_fract_y
 _atom_site_fract_z
 _atom_site_occupancy
  O  O0  1  0.60199191  0.14355704  0.58148856  1
  O  O1  1  0.45843487  0.60199191  0.08148856  1
  O  O2  1  0.14355704  0.54156513  0.08148856  1
  O  O3  1  0.85644296  0.45843487  0.58148856  1
  O  O4  1  0.33333333  0.66666667  0.68422325  1
  O  O5  1  0.39800809  0.85644296  0.08148856  1
  O  O6  1  0.66666667  0.33333333  0.18422325  1
  O  O7  1  0.54156513  0.39800809  0.58148856  1
  P  P8  1  0.33333333  0.66666667  0.98707912  1
  P  P9  1  0.66666667  0.33333333  0.48707912  1
  Tl  Tl10  1  0.71920268  0.08945035  0.99827732  1
  Tl  Tl11  1  0.91054965  0.62975233  0.99827732  1
  Tl  Tl12  1  0.62975233  0.71920268  0.49827732  1
  Tl  Tl13  1  0.28079732  0.91054965  0.49827732  1
  Tl  Tl14  1  0.08945035  0.37024767  0.49827732  1
  Tl  Tl15  1  0.37024767  0.28079732  0.99827732  1
