# generated using pymatgen
data_SrZnO2
_symmetry_space_group_name_H-M   'P 1'
_cell_length_a   3.37481070
_cell_length_b   5.91786399
_cell_length_c   11.45747384
_cell_angle_alpha   90.00000000
_cell_angle_beta   90.00000000
_cell_angle_gamma   90.00000000
_symmetry_Int_Tables_number   1
_chemical_formula_structural   SrZnO2
_chemical_formula_sum   'Sr4 Zn4 O8'
_cell_volume   228.82489475
_cell_formula_units_Z   4
loop_
 _symmetry_equiv_pos_site_id
 _symmetry_equiv_pos_as_xyz
  1  'x, y, z'
loop_
 _atom_site_type_symbol
 _atom_site_label
 _atom_site_symmetry_multiplicity
 _atom_site_fract_x
 _atom_site_fract_y
 _atom_site_fract_z
 _atom_site_occupancy
  O  O0  1  0.25000000  0.23580174  0.03989040  1
  O  O1  1  0.75000000  0.76419826  0.96010960  1
  O  O2  1  0.25000000  0.73580174  0.46010960  1
  O  O3  1  0.75000000  0.26419826  0.53989040  1
  O  O4  1  0.25000000  0.44483641  0.75954027  1
  O  O5  1  0.75000000  0.05516359  0.25954027  1
  O  O6  1  0.25000000  0.94483641  0.74045973  1
  O  O7  1  0.75000000  0.55516359  0.24045973  1
  Zn  Zn8  1  0.75000000  0.79977032  0.37043322  1
  Zn  Zn9  1  0.75000000  0.29977032  0.12956678  1
  Zn  Zn10  1  0.25000000  0.20022968  0.62956678  1
  Zn  Zn11  1  0.25000000  0.70022968  0.87043322  1
  Sr  Sr12  1  0.25000000  0.31569328  0.36761759  1
  Sr  Sr13  1  0.75000000  0.68430672  0.63238241  1
  Sr  Sr14  1  0.25000000  0.81569328  0.13238241  1
  Sr  Sr15  1  0.75000000  0.18430672  0.86761759  1
