# generated using pymatgen
data_Tl2Sn(AsS3)2
_symmetry_space_group_name_H-M   'P 1'
_cell_length_a   6.76597598
_cell_length_b   6.76597598
_cell_length_c   7.49110677
_cell_angle_alpha   90.00000000
_cell_angle_beta   90.00000000
_cell_angle_gamma   120.00000002
_symmetry_Int_Tables_number   1
_chemical_formula_structural   Tl2Sn(AsS3)2
_chemical_formula_sum   'Tl2 Sn1 As2 S6'
_cell_volume   296.98705655
_cell_formula_units_Z   1
loop_
 _symmetry_equiv_pos_site_id
 _symmetry_equiv_pos_as_xyz
  1  'x, y, z'
loop_
 _atom_site_type_symbol
 _atom_site_label
 _atom_site_symmetry_multiplicity
 _atom_site_fract_x
 _atom_site_fract_y
 _atom_site_fract_z
 _atom_site_occupancy
  S  S0  1  0.88996363  0.22648585  0.22181458  1
  S  S1  1  0.33652222  0.11003637  0.22181458  1
  S  S2  1  0.77351415  0.66347778  0.22181458  1
  S  S3  1  0.11003637  0.77351415  0.77818542  1
  S  S4  1  0.66347778  0.88996363  0.77818542  1
  S  S5  1  0.22648585  0.33652222  0.77818542  1
  As  As6  1  0.66666667  0.33333333  0.06942614  1
  As  As7  1  0.33333333  0.66666667  0.93057386  1
  Sn  Sn8  1  0.00000000  0.00000000  0.00000000  1
  Tl  Tl9  1  0.33333333  0.66666667  0.38063143  1
  Tl  Tl10  1  0.66666667  0.33333333  0.61936857  1
