# generated using pymatgen
data_Mg2As2O7
_symmetry_space_group_name_H-M   'P 1'
_cell_length_a   4.84531121
_cell_length_b   5.46197946
_cell_length_c   5.46197946
_cell_angle_alpha   105.36117848
_cell_angle_beta   97.99409521
_cell_angle_gamma   97.99409531
_symmetry_Int_Tables_number   1
_chemical_formula_structural   Mg2As2O7
_chemical_formula_sum   'Mg2 As2 O7'
_cell_volume   135.67025738
_cell_formula_units_Z   1
loop_
 _symmetry_equiv_pos_site_id
 _symmetry_equiv_pos_as_xyz
  1  'x, y, z'
loop_
 _atom_site_type_symbol
 _atom_site_label
 _atom_site_symmetry_multiplicity
 _atom_site_fract_x
 _atom_site_fract_y
 _atom_site_fract_z
 _atom_site_occupancy
  O  O0  1  0.29306936  0.93056864  0.60143144  1
  O  O1  1  0.70693064  0.39856856  0.06943136  1
  O  O2  1  0.70693064  0.06943136  0.39856856  1
  O  O3  1  0.29306936  0.60143144  0.93056864  1
  O  O4  1  0.00000000  0.00000000  0.00000000  1
  O  O5  1  0.77415665  0.59475956  0.59475956  1
  O  O6  1  0.22584335  0.40524044  0.40524044  1
  Mg  Mg7  1  0.50000000  0.68927433  0.31072567  1
  Mg  Mg8  1  0.50000000  0.31072567  0.68927433  1
  As  As9  1  0.10079439  0.76388464  0.76388464  1
  As  As10  1  0.89920561  0.23611536  0.23611536  1
