# generated using pymatgen
data_Cd2SnO4
_symmetry_space_group_name_H-M   'P 1'
_cell_length_a   3.24936856
_cell_length_b   5.66476881
_cell_length_c   10.12710303
_cell_angle_alpha   90.00000000
_cell_angle_beta   90.00000000
_cell_angle_gamma   90.00000000
_symmetry_Int_Tables_number   1
_chemical_formula_structural   Cd2SnO4
_chemical_formula_sum   'Cd4 Sn2 O8'
_cell_volume   186.40879223
_cell_formula_units_Z   2
loop_
 _symmetry_equiv_pos_site_id
 _symmetry_equiv_pos_as_xyz
  1  'x, y, z'
loop_
 _atom_site_type_symbol
 _atom_site_label
 _atom_site_symmetry_multiplicity
 _atom_site_fract_x
 _atom_site_fract_y
 _atom_site_fract_z
 _atom_site_occupancy
  O  O0  1  0.00000000  0.13427775  0.80834600  1
  O  O1  1  0.00000000  0.86572225  0.19165400  1
  O  O2  1  0.00000000  0.63427775  0.69165400  1
  O  O3  1  0.00000000  0.36572225  0.30834600  1
  O  O4  1  0.50000000  0.26466774  0.53897938  1
  O  O5  1  0.50000000  0.73533226  0.46102062  1
  O  O6  1  0.50000000  0.23533226  0.03897938  1
  O  O7  1  0.50000000  0.76466774  0.96102062  1
  Cd  Cd8  1  0.50000000  0.05965757  0.32379737  1
  Cd  Cd9  1  0.50000000  0.94034243  0.67620263  1
  Cd  Cd10  1  0.50000000  0.44034243  0.82379737  1
  Cd  Cd11  1  0.50000000  0.55965757  0.17620263  1
  Sn  Sn12  1  0.00000000  0.00000000  0.00000000  1
  Sn  Sn13  1  0.00000000  0.50000000  0.50000000  1
