# generated using pymatgen
data_La3Cu4(P2O)2
_symmetry_space_group_name_H-M   'P 1'
_cell_length_a   4.05419561
_cell_length_b   4.05419561
_cell_length_c   13.81128509
_cell_angle_alpha   98.43985268
_cell_angle_beta   98.43985268
_cell_angle_gamma   90.00000000
_symmetry_Int_Tables_number   1
_chemical_formula_structural   La3Cu4(P2O)2
_chemical_formula_sum   'La3 Cu4 P4 O2'
_cell_volume   222.06520143
_cell_formula_units_Z   1
loop_
 _symmetry_equiv_pos_site_id
 _symmetry_equiv_pos_as_xyz
  1  'x, y, z'
loop_
 _atom_site_type_symbol
 _atom_site_label
 _atom_site_symmetry_multiplicity
 _atom_site_fract_x
 _atom_site_fract_y
 _atom_site_fract_z
 _atom_site_occupancy
  La  La0  1  0.00000000  0.00000000  0.00000000  1
  La  La1  1  0.29567486  0.29567486  0.59134973  1
  La  La2  1  0.70432514  0.70432514  0.40865027  1
  Cu  Cu3  1  0.90557233  0.40557233  0.81114467  1
  Cu  Cu4  1  0.40557233  0.90557233  0.81114467  1
  Cu  Cu5  1  0.09442767  0.59442767  0.18885533  1
  Cu  Cu6  1  0.59442767  0.09442767  0.18885533  1
  P  P7  1  0.86138302  0.86138302  0.72276604  1
  P  P8  1  0.13861698  0.13861698  0.27723396  1
  P  P9  1  0.45811796  0.45811796  0.91623593  1
  P  P10  1  0.54188204  0.54188204  0.08376407  1
  O  O11  1  0.75000000  0.25000000  0.50000000  1
  O  O12  1  0.25000000  0.75000000  0.50000000  1
