# generated using pymatgen
data_Mg8BRh4
_symmetry_space_group_name_H-M   'P 1'
_cell_length_a   8.65520351
_cell_length_b   8.65520364
_cell_length_c   8.65520312
_cell_angle_alpha   59.99999809
_cell_angle_beta   59.99999758
_cell_angle_gamma   60.00000112
_symmetry_Int_Tables_number   1
_chemical_formula_structural   Mg8BRh4
_chemical_formula_sum   'Mg16 B2 Rh8'
_cell_volume   458.47623621
_cell_formula_units_Z   2
loop_
 _symmetry_equiv_pos_site_id
 _symmetry_equiv_pos_as_xyz
  1  'x, y, z'
loop_
 _atom_site_type_symbol
 _atom_site_label
 _atom_site_symmetry_multiplicity
 _atom_site_fract_x
 _atom_site_fract_y
 _atom_site_fract_z
 _atom_site_occupancy
  Mg  Mg0  1  0.32437886  0.92562114  0.32437886  1
  Mg  Mg1  1  0.07437886  0.67562114  0.67562114  1
  Mg  Mg2  1  0.67562114  0.07437886  0.07437886  1
  Mg  Mg3  1  0.67562114  0.07437886  0.67562114  1
  Mg  Mg4  1  0.67562114  0.67562114  0.07437886  1
  Mg  Mg5  1  0.07437886  0.67562114  0.07437886  1
  Mg  Mg6  1  0.50000000  0.00000000  0.50000000  1
  Mg  Mg7  1  0.92562114  0.92562114  0.32437886  1
  Mg  Mg8  1  0.32437886  0.32437886  0.92562114  1
  Mg  Mg9  1  0.32437886  0.92562114  0.92562114  1
  Mg  Mg10  1  0.00000000  0.50000000  0.50000000  1
  Mg  Mg11  1  0.92562114  0.32437886  0.92562114  1
  Mg  Mg12  1  0.92562114  0.32437886  0.32437886  1
  Mg  Mg13  1  0.50000000  0.50000000  0.50000000  1
  Mg  Mg14  1  0.50000000  0.50000000  0.00000000  1
  Mg  Mg15  1  0.07437886  0.07437886  0.67562114  1
  B  B16  1  0.62500000  0.62500000  0.62500000  1
  B  B17  1  0.37500000  0.37500000  0.37500000  1
  Rh  Rh18  1  0.27920867  0.27920867  0.27920867  1
  Rh  Rh19  1  0.66237398  0.27920867  0.27920867  1
  Rh  Rh20  1  0.27920867  0.27920867  0.66237398  1
  Rh  Rh21  1  0.72079133  0.33762602  0.72079133  1
  Rh  Rh22  1  0.72079133  0.72079133  0.33762602  1
  Rh  Rh23  1  0.27920867  0.66237398  0.27920867  1
  Rh  Rh24  1  0.33762602  0.72079133  0.72079133  1
  Rh  Rh25  1  0.72079133  0.72079133  0.72079133  1
