# generated using pymatgen
data_EuMn2O5
_symmetry_space_group_name_H-M   'P 1'
_cell_length_a   5.83372461
_cell_length_b   7.54357570
_cell_length_c   8.68028525
_cell_angle_alpha   90.00000000
_cell_angle_beta   90.00000000
_cell_angle_gamma   90.00000000
_symmetry_Int_Tables_number   1
_chemical_formula_structural   EuMn2O5
_chemical_formula_sum   'Eu4 Mn8 O20'
_cell_volume   381.99455609
_cell_formula_units_Z   4
loop_
 _symmetry_equiv_pos_site_id
 _symmetry_equiv_pos_as_xyz
  1  'x, y, z'
loop_
 _atom_site_type_symbol
 _atom_site_label
 _atom_site_symmetry_multiplicity
 _atom_site_fract_x
 _atom_site_fract_y
 _atom_site_fract_z
 _atom_site_occupancy
  Eu  Eu0  1  0.00000000  0.14062364  0.17070553  1
  Eu  Eu1  1  0.00000000  0.85937636  0.82929447  1
  Eu  Eu2  1  0.00000000  0.64062364  0.32929447  1
  Eu  Eu3  1  0.00000000  0.35937636  0.67070553  1
  Mn  Mn4  1  0.25452162  0.00000000  0.50000000  1
  Mn  Mn5  1  0.74547838  0.50000000  0.00000000  1
  Mn  Mn6  1  0.74547838  0.00000000  0.50000000  1
  Mn  Mn7  1  0.25452162  0.50000000  0.00000000  1
  Mn  Mn8  1  0.50000000  0.40729863  0.35069255  1
  Mn  Mn9  1  0.50000000  0.59270137  0.64930745  1
  Mn  Mn10  1  0.50000000  0.90729863  0.14930745  1
  Mn  Mn11  1  0.50000000  0.09270137  0.85069255  1
  O  O12  1  0.27895684  0.00000000  0.00000000  1
  O  O13  1  0.72104316  0.50000000  0.50000000  1
  O  O14  1  0.72104316  0.00000000  0.00000000  1
  O  O15  1  0.27895684  0.50000000  0.50000000  1
  O  O16  1  0.00000000  0.15737710  0.44629768  1
  O  O17  1  0.00000000  0.84262290  0.55370232  1
  O  O18  1  0.00000000  0.65737710  0.05370232  1
  O  O19  1  0.00000000  0.34262290  0.94629768  1
  O  O20  1  0.50000000  0.15141153  0.43186674  1
  O  O21  1  0.50000000  0.84858847  0.56813326  1
  O  O22  1  0.50000000  0.65141153  0.06813326  1
  O  O23  1  0.50000000  0.34858847  0.93186674  1
  O  O24  1  0.24766726  0.39788037  0.20626517  1
  O  O25  1  0.24766726  0.60211963  0.79373483  1
  O  O26  1  0.75233274  0.89788037  0.29373483  1
  O  O27  1  0.75233274  0.10211963  0.70626517  1
  O  O28  1  0.75233274  0.60211963  0.79373483  1
  O  O29  1  0.75233274  0.39788037  0.20626517  1
  O  O30  1  0.24766726  0.10211963  0.70626517  1
  O  O31  1  0.24766726  0.89788037  0.29373483  1
