# generated using pymatgen
data_Li3SbO4
_symmetry_space_group_name_H-M   'P 1'
_cell_length_a   5.18878205
_cell_length_b   5.20487360
_cell_length_c   6.16676764
_cell_angle_alpha   90.00000000
_cell_angle_beta   90.00000000
_cell_angle_gamma   108.64846349
_symmetry_Int_Tables_number   1
_chemical_formula_structural   Li3SbO4
_chemical_formula_sum   'Li6 Sb2 O8'
_cell_volume   157.80168343
_cell_formula_units_Z   2
loop_
 _symmetry_equiv_pos_site_id
 _symmetry_equiv_pos_as_xyz
  1  'x, y, z'
loop_
 _atom_site_type_symbol
 _atom_site_label
 _atom_site_symmetry_multiplicity
 _atom_site_fract_x
 _atom_site_fract_y
 _atom_site_fract_z
 _atom_site_occupancy
  Li  Li0  1  0.75000000  0.50000000  0.57318567  1
  Li  Li1  1  0.25000000  0.50000000  0.42681433  1
  Li  Li2  1  0.75000000  0.00000000  0.38849314  1
  Li  Li3  1  0.25000000  0.00000000  0.61150686  1
  Li  Li4  1  0.25000000  0.50000000  0.85465273  1
  Li  Li5  1  0.75000000  0.50000000  0.14534727  1
  O  O6  1  0.49454581  0.22334817  0.89784771  1
  O  O7  1  0.47621464  0.24530898  0.36058790  1
  O  O8  1  0.97621464  0.24530898  0.63941210  1
  O  O9  1  0.52378536  0.75469102  0.63941210  1
  O  O10  1  0.50545419  0.77665183  0.10215229  1
  O  O11  1  0.99454581  0.22334817  0.10215229  1
  O  O12  1  0.02378536  0.75469102  0.36058790  1
  O  O13  1  0.00545419  0.77665183  0.89784771  1
  Sb  Sb14  1  0.75000000  0.00000000  0.85631474  1
  Sb  Sb15  1  0.25000000  0.00000000  0.14368526  1
