# generated using pymatgen
data_Cd2GaAgS4
_symmetry_space_group_name_H-M   'P 1'
_cell_length_a   6.70078759
_cell_length_b   7.01090706
_cell_length_c   8.25106026
_cell_angle_alpha   90.00000000
_cell_angle_beta   90.00000000
_cell_angle_gamma   90.00000000
_symmetry_Int_Tables_number   1
_chemical_formula_structural   Cd2GaAgS4
_chemical_formula_sum   'Cd4 Ga2 Ag2 S8'
_cell_volume   387.62325146
_cell_formula_units_Z   2
loop_
 _symmetry_equiv_pos_site_id
 _symmetry_equiv_pos_as_xyz
  1  'x, y, z'
loop_
 _atom_site_type_symbol
 _atom_site_label
 _atom_site_symmetry_multiplicity
 _atom_site_fract_x
 _atom_site_fract_y
 _atom_site_fract_z
 _atom_site_occupancy
  S  S0  1  0.10604570  0.63416258  0.00000000  1
  S  S1  1  0.60604570  0.36583742  0.50000000  1
  S  S2  1  0.14619957  0.67843918  0.50000000  1
  S  S3  1  0.64619957  0.32156082  0.00000000  1
  S  S4  1  0.60356419  0.82464930  0.73334737  1
  S  S5  1  0.10356419  0.17535070  0.23334737  1
  S  S6  1  0.10356419  0.17535070  0.76665263  1
  S  S7  1  0.60356419  0.82464930  0.26665263  1
  Ga  Ga8  1  0.49104952  0.67703998  0.50000000  1
  Ga  Ga9  1  0.99104952  0.32296002  0.00000000  1
  Ag  Ag10  1  0.99038657  0.34123348  0.50000000  1
  Ag  Ag11  1  0.49038657  0.65876652  0.00000000  1
  Cd  Cd12  1  0.48747513  0.17514027  0.74738684  1
  Cd  Cd13  1  0.98747513  0.82485973  0.24738684  1
  Cd  Cd14  1  0.48747513  0.17514027  0.25261316  1
  Cd  Cd15  1  0.98747513  0.82485973  0.75261316  1
