# generated using pymatgen
data_SrP3
_symmetry_space_group_name_H-M   'P 1'
_cell_length_a   6.85278794
_cell_length_b   6.85278775
_cell_length_c   8.63415312
_cell_angle_alpha   78.74768475
_cell_angle_beta   78.74768504
_cell_angle_gamma   65.84833898
_symmetry_Int_Tables_number   1
_chemical_formula_structural   SrP3
_chemical_formula_sum   'Sr4 P12'
_cell_volume   359.83806277
_cell_formula_units_Z   4
loop_
 _symmetry_equiv_pos_site_id
 _symmetry_equiv_pos_as_xyz
  1  'x, y, z'
loop_
 _atom_site_type_symbol
 _atom_site_label
 _atom_site_symmetry_multiplicity
 _atom_site_fract_x
 _atom_site_fract_y
 _atom_site_fract_z
 _atom_site_occupancy
  Sr  Sr0  1  0.04151891  0.04151891  0.25831195  1
  Sr  Sr1  1  0.70707006  0.70707006  0.22501234  1
  Sr  Sr2  1  0.29292994  0.29292994  0.77498766  1
  Sr  Sr3  1  0.95848109  0.95848109  0.74168805  1
  P  P4  1  0.36114521  0.83516650  0.97549473  1
  P  P5  1  0.09548098  0.60299734  0.48752988  1
  P  P6  1  0.32642441  0.32642441  0.16279761  1
  P  P7  1  0.39700266  0.90451902  0.51247012  1
  P  P8  1  0.41732764  0.41732764  0.36769555  1
  P  P9  1  0.67357559  0.67357559  0.83720239  1
  P  P10  1  0.60299734  0.09548098  0.48752988  1
  P  P11  1  0.58267236  0.58267236  0.63230445  1
  P  P12  1  0.63885479  0.16483350  0.02450527  1
  P  P13  1  0.90451902  0.39700266  0.51247012  1
  P  P14  1  0.83516650  0.36114521  0.97549473  1
  P  P15  1  0.16483350  0.63885479  0.02450527  1
