# generated using pymatgen
data_Ba3SmRu2O9
_symmetry_space_group_name_H-M   'P 1'
_cell_length_a   5.99428607
_cell_length_b   5.99428606
_cell_length_c   14.79117925
_cell_angle_alpha   90.00000000
_cell_angle_beta   90.00000000
_cell_angle_gamma   119.99999998
_symmetry_Int_Tables_number   1
_chemical_formula_structural   Ba3SmRu2O9
_chemical_formula_sum   'Ba6 Sm2 Ru4 O18'
_cell_volume   460.26543564
_cell_formula_units_Z   2
loop_
 _symmetry_equiv_pos_site_id
 _symmetry_equiv_pos_as_xyz
  1  'x, y, z'
loop_
 _atom_site_type_symbol
 _atom_site_label
 _atom_site_symmetry_multiplicity
 _atom_site_fract_x
 _atom_site_fract_y
 _atom_site_fract_z
 _atom_site_occupancy
  O  O0  1  0.17757489  0.82242511  0.09081178  1
  O  O1  1  0.17757489  0.35514977  0.09081178  1
  O  O2  1  0.64485023  0.82242511  0.09081178  1
  O  O3  1  0.35514977  0.17757489  0.59081178  1
  O  O4  1  0.82242511  0.64485023  0.90918822  1
  O  O5  1  0.82242511  0.17757489  0.59081178  1
  O  O6  1  0.82242511  0.64485023  0.59081178  1
  O  O7  1  0.17757489  0.82242511  0.40918822  1
  O  O8  1  0.64485023  0.82242511  0.40918822  1
  O  O9  1  0.35514977  0.17757489  0.90918822  1
  O  O10  1  0.82242511  0.17757489  0.90918822  1
  O  O11  1  0.17757489  0.35514977  0.40918822  1
  O  O12  1  0.49051149  0.98102297  0.25000000  1
  O  O13  1  0.50948851  0.49051149  0.75000000  1
  O  O14  1  0.98102297  0.49051149  0.75000000  1
  O  O15  1  0.01897703  0.50948851  0.25000000  1
  O  O16  1  0.49051149  0.50948851  0.25000000  1
  O  O17  1  0.50948851  0.01897703  0.75000000  1
  Ru  Ru18  1  0.33333333  0.66666667  0.33443177  1
  Ru  Ru19  1  0.66666667  0.33333333  0.83443177  1
  Ru  Ru20  1  0.66666667  0.33333333  0.66556823  1
  Ru  Ru21  1  0.33333333  0.66666667  0.16556823  1
  Ba  Ba22  1  0.33333333  0.66666667  0.59911811  1
  Ba  Ba23  1  0.00000000  0.00000000  0.25000000  1
  Ba  Ba24  1  0.66666667  0.33333333  0.40088189  1
  Ba  Ba25  1  0.66666667  0.33333333  0.09911811  1
  Ba  Ba26  1  0.33333333  0.66666667  0.90088189  1
  Ba  Ba27  1  0.00000000  0.00000000  0.75000000  1
  Sm  Sm28  1  0.00000000  0.00000000  0.50000000  1
  Sm  Sm29  1  0.00000000  0.00000000  0.00000000  1
