# generated using pymatgen
data_Ni(AuF4)2
_symmetry_space_group_name_H-M   'P 1'
_cell_length_a   5.57088493
_cell_length_b   5.69835226
_cell_length_c   10.50838717
_cell_angle_alpha   90.00000000
_cell_angle_beta   100.41250526
_cell_angle_gamma   90.00000000
_symmetry_Int_Tables_number   1
_chemical_formula_structural   Ni(AuF4)2
_chemical_formula_sum   'Ni2 Au4 F16'
_cell_volume   328.09382915
_cell_formula_units_Z   2
loop_
 _symmetry_equiv_pos_site_id
 _symmetry_equiv_pos_as_xyz
  1  'x, y, z'
loop_
 _atom_site_type_symbol
 _atom_site_label
 _atom_site_symmetry_multiplicity
 _atom_site_fract_x
 _atom_site_fract_y
 _atom_site_fract_z
 _atom_site_occupancy
  F  F0  1  0.61757323  0.61567886  0.18547566  1
  F  F1  1  0.88242677  0.11567886  0.31452434  1
  F  F2  1  0.38242677  0.38432114  0.81452434  1
  F  F3  1  0.11757323  0.88432114  0.68547566  1
  F  F4  1  0.80254384  0.68826732  0.97718690  1
  F  F5  1  0.69745616  0.18826732  0.52281310  1
  F  F6  1  0.28701800  0.78316135  0.94936303  1
  F  F7  1  0.21298200  0.28316135  0.55063697  1
  F  F8  1  0.71298200  0.21683865  0.05063697  1
  F  F9  1  0.78701800  0.71683865  0.44936303  1
  F  F10  1  0.64584787  0.79250904  0.71855916  1
  F  F11  1  0.85415213  0.29250904  0.78144084  1
  F  F12  1  0.35415213  0.20749096  0.28144084  1
  F  F13  1  0.14584787  0.70749096  0.21855916  1
  F  F14  1  0.30254384  0.81173268  0.47718690  1
  F  F15  1  0.19745616  0.31173268  0.02281310  1
  Ni  Ni16  1  0.50000000  0.50000000  0.00000000  1
  Ni  Ni17  1  0.00000000  0.00000000  0.50000000  1
  Au  Au18  1  0.46203422  0.71613681  0.33164799  1
  Au  Au19  1  0.03796578  0.21613681  0.16835201  1
  Au  Au20  1  0.53796578  0.28386319  0.66835201  1
  Au  Au21  1  0.96203422  0.78386319  0.83164799  1
