# generated using pymatgen
data_Be3Fe4Si3SO12
_symmetry_space_group_name_H-M   'P 1'
_cell_length_a   8.30194194
_cell_length_b   8.30606675
_cell_length_c   8.30840150
_cell_angle_alpha   89.62892496
_cell_angle_beta   90.37909280
_cell_angle_gamma   90.36491102
_symmetry_Int_Tables_number   1
_chemical_formula_structural   Be3Fe4Si3SO12
_chemical_formula_sum   'Be6 Fe8 Si6 S2 O24'
_cell_volume   572.88213403
_cell_formula_units_Z   2
loop_
 _symmetry_equiv_pos_site_id
 _symmetry_equiv_pos_as_xyz
  1  'x, y, z'
loop_
 _atom_site_type_symbol
 _atom_site_label
 _atom_site_symmetry_multiplicity
 _atom_site_fract_x
 _atom_site_fract_y
 _atom_site_fract_z
 _atom_site_occupancy
  Be  Be0  1  0.25029345  0.50030273  0.00023735  1
  Be  Be1  1  0.50099250  0.00152920  0.75026929  1
  Be  Be2  1  0.49840674  0.99926161  0.25004794  1
  Be  Be3  1  0.00049297  0.24887126  0.50043335  1
  Be  Be4  1  0.99939406  0.74960266  0.49946139  1
  Be  Be5  1  0.74935509  0.50251790  0.00044841  1
  O  O6  1  0.85651692  0.41474863  0.86039963  1
  O  O7  1  0.85988049  0.58749749  0.14116443  1
  O  O8  1  0.41274429  0.86413578  0.86247200  1
  O  O9  1  0.58735177  0.86181616  0.14139371  1
  O  O10  1  0.85615166  0.85686859  0.41390327  1
  O  O11  1  0.14115802  0.14253829  0.41345567  1
  O  O12  1  0.35688607  0.35967843  0.91355473  1
  O  O13  1  0.14163769  0.41506993  0.14309167  1
  O  O14  1  0.13963488  0.58701672  0.85930801  1
  O  O15  1  0.58668074  0.14530597  0.85767303  1
  O  O16  1  0.41343146  0.13853627  0.13813341  1
  O  O17  1  0.86206738  0.13665724  0.58601371  1
  O  O18  1  0.13909532  0.85980300  0.58678000  1
  O  O19  1  0.91418670  0.35948200  0.35957602  1
  O  O20  1  0.35540771  0.91246764  0.35736872  1
  O  O21  1  0.63651529  0.08540938  0.36334295  1
  O  O22  1  0.91337654  0.63701509  0.63700298  1
  O  O23  1  0.64117208  0.91213548  0.64474948  1
  O  O24  1  0.08688187  0.64306805  0.35944864  1
  O  O25  1  0.08512882  0.35664841  0.64477941  1
  O  O26  1  0.36272978  0.08596242  0.63712923  1
  O  O27  1  0.36236876  0.63878782  0.08626203  1
  O  O28  1  0.63960071  0.36168746  0.08678439  1
  O  O29  1  0.64147585  0.64507684  0.91345150  1
  Si  Si30  1  0.74897316  0.99709716  0.50143042  1
  Si  Si31  1  0.50103852  0.75198618  0.00061077  1
  Si  Si32  1  0.49953553  0.25114875  0.99910489  1
  Si  Si33  1  0.24956765  0.99966468  0.49870801  1
  Si  Si34  1  0.00096790  0.50116636  0.25065436  1
  Si  Si35  1  0.99887741  0.49864553  0.75051544  1
  S  S36  1  0.00150399  0.00099199  0.99878164  1
  S  S37  1  0.50110586  0.49704418  0.49890182  1
  Fe  Fe38  1  0.33185522  0.66733283  0.32861189  1
  Fe  Fe39  1  0.66936315  0.32776038  0.33097784  1
  Fe  Fe40  1  0.83096910  0.83154989  0.16839202  1
  Fe  Fe41  1  0.17025525  0.83155572  0.83155464  1
  Fe  Fe42  1  0.83202175  0.17014441  0.82757825  1
  Fe  Fe43  1  0.67145464  0.66680965  0.66860963  1
  Fe  Fe44  1  0.17089032  0.17003808  0.16852784  1
  Fe  Fe45  1  0.33060494  0.32756576  0.66890419  1
