# generated using pymatgen
data_Ba2PrRuO6
_symmetry_space_group_name_H-M   'P 1'
_cell_length_a   6.12725557
_cell_length_b   6.07426132
_cell_length_c   8.59694170
_cell_angle_alpha   90.00000000
_cell_angle_beta   89.65813935
_cell_angle_gamma   90.00000000
_symmetry_Int_Tables_number   1
_chemical_formula_structural   Ba2PrRuO6
_chemical_formula_sum   'Ba4 Pr2 Ru2 O12'
_cell_volume   319.96002196
_cell_formula_units_Z   2
loop_
 _symmetry_equiv_pos_site_id
 _symmetry_equiv_pos_as_xyz
  1  'x, y, z'
loop_
 _atom_site_type_symbol
 _atom_site_label
 _atom_site_symmetry_multiplicity
 _atom_site_fract_x
 _atom_site_fract_y
 _atom_site_fract_z
 _atom_site_occupancy
  O  O0  1  0.45091134  0.99841517  0.77152872  1
  O  O1  1  0.04908866  0.49841517  0.72847128  1
  O  O2  1  0.54908866  0.00158483  0.22847128  1
  O  O3  1  0.95091134  0.50158483  0.27152872  1
  O  O4  1  0.72263519  0.23570539  0.97394458  1
  O  O5  1  0.77736481  0.73570539  0.52605542  1
  O  O6  1  0.27736481  0.76429461  0.02605542  1
  O  O7  1  0.22263519  0.26429461  0.47394458  1
  O  O8  1  0.23252788  0.72566544  0.47403683  1
  O  O9  1  0.26747212  0.22566544  0.02596317  1
  O  O10  1  0.76747212  0.27433456  0.52596317  1
  O  O11  1  0.73252788  0.77433456  0.97403683  1
  Ru  Ru12  1  0.00000000  0.50000000  0.50000000  1
  Ru  Ru13  1  0.50000000  0.00000000  0.00000000  1
  Ba  Ba14  1  0.50308935  0.50339791  0.75176819  1
  Ba  Ba15  1  0.00308935  0.99660209  0.25176819  1
  Ba  Ba16  1  0.99691065  0.00339791  0.74823181  1
  Ba  Ba17  1  0.49691065  0.49660209  0.24823181  1
  Pr  Pr18  1  0.50000000  0.00000000  0.50000000  1
  Pr  Pr19  1  0.00000000  0.50000000  0.00000000  1
