# generated using pymatgen
data_EuTaO4
_symmetry_space_group_name_H-M   'P 1'
_cell_length_a   5.25857742
_cell_length_b   5.42987504
_cell_length_c   5.68774135
_cell_angle_alpha   90.00000000
_cell_angle_beta   90.00000000
_cell_angle_gamma   96.74520992
_symmetry_Int_Tables_number   1
_chemical_formula_structural   EuTaO4
_chemical_formula_sum   'Eu2 Ta2 O8'
_cell_volume   161.28033984
_cell_formula_units_Z   2
loop_
 _symmetry_equiv_pos_site_id
 _symmetry_equiv_pos_as_xyz
  1  'x, y, z'
loop_
 _atom_site_type_symbol
 _atom_site_label
 _atom_site_symmetry_multiplicity
 _atom_site_fract_x
 _atom_site_fract_y
 _atom_site_fract_z
 _atom_site_occupancy
  O  O0  1  0.71963684  0.99318857  0.56970994  1
  O  O1  1  0.28036316  0.50681143  0.56970994  1
  O  O2  1  0.28036316  0.00681143  0.43029006  1
  O  O3  1  0.71963684  0.49318857  0.43029006  1
  O  O4  1  0.25321543  0.61274461  0.09955558  1
  O  O5  1  0.74678457  0.88725539  0.09955558  1
  O  O6  1  0.74678457  0.38725539  0.90044442  1
  O  O7  1  0.25321543  0.11274461  0.90044442  1
  Eu  Eu8  1  0.00000000  0.75000000  0.77805087  1
  Eu  Eu9  1  0.00000000  0.25000000  0.22194913  1
  Ta  Ta10  1  0.50000000  0.25000000  0.67917029  1
  Ta  Ta11  1  0.50000000  0.75000000  0.32082971  1
