# generated using pymatgen
data_K2TlAgI6
_symmetry_space_group_name_H-M   'P 1'
_cell_length_a   8.50971260
_cell_length_b   8.50971307
_cell_length_c   8.50971305
_cell_angle_alpha   59.99999853
_cell_angle_beta   59.99999788
_cell_angle_gamma   59.99999796
_symmetry_Int_Tables_number   1
_chemical_formula_structural   K2TlAgI6
_chemical_formula_sum   'K2 Tl1 Ag1 I6'
_cell_volume   435.74228806
_cell_formula_units_Z   1
loop_
 _symmetry_equiv_pos_site_id
 _symmetry_equiv_pos_as_xyz
  1  'x, y, z'
loop_
 _atom_site_type_symbol
 _atom_site_label
 _atom_site_symmetry_multiplicity
 _atom_site_fract_x
 _atom_site_fract_y
 _atom_site_fract_z
 _atom_site_occupancy
  K  K0  1  0.25000000  0.25000000  0.25000000  1
  K  K1  1  0.75000000  0.75000000  0.75000000  1
  Tl  Tl2  1  0.00000000  -0.00000000  0.00000000  1
  Ag  Ag3  1  0.50000000  0.50000000  0.50000000  1
  I  I4  1  0.25559358  0.74440642  0.25559358  1
  I  I5  1  0.74440642  0.74440642  0.25559358  1
  I  I6  1  0.74440642  0.25559358  0.74440642  1
  I  I7  1  0.74440642  0.25559358  0.25559358  1
  I  I8  1  0.25559358  0.74440642  0.74440642  1
  I  I9  1  0.25559358  0.25559358  0.74440642  1
