# generated using pymatgen
data_La4Rh3
_symmetry_space_group_name_H-M   'P 1'
_cell_length_a   7.81499435
_cell_length_b   7.81499434
_cell_length_c   7.81499435
_cell_angle_alpha   109.47122068
_cell_angle_beta   109.47122067
_cell_angle_gamma   109.47122058
_symmetry_Int_Tables_number   1
_chemical_formula_structural   La4Rh3
_chemical_formula_sum   'La8 Rh6'
_cell_volume   367.42111750
_cell_formula_units_Z   2
loop_
 _symmetry_equiv_pos_site_id
 _symmetry_equiv_pos_as_xyz
  1  'x, y, z'
loop_
 _atom_site_type_symbol
 _atom_site_label
 _atom_site_symmetry_multiplicity
 _atom_site_fract_x
 _atom_site_fract_y
 _atom_site_fract_z
 _atom_site_occupancy
  Rh  Rh0  1  0.75000000  0.87500000  0.12500000  1
  Rh  Rh1  1  0.62500000  0.37500000  0.25000000  1
  Rh  Rh2  1  0.87500000  0.12500000  0.75000000  1
  Rh  Rh3  1  0.12500000  0.75000000  0.87500000  1
  Rh  Rh4  1  0.37500000  0.25000000  0.62500000  1
  Rh  Rh5  1  0.25000000  0.62500000  0.37500000  1
  La  La6  1  0.38886731  0.50000000  0.00000000  1
  La  La7  1  0.61113269  0.61113269  0.61113269  1
  La  La8  1  0.50000000  0.00000000  0.38886731  1
  La  La9  1  0.00000000  0.38886731  0.50000000  1
  La  La10  1  0.50000000  0.00000000  0.88886731  1
  La  La11  1  0.00000000  0.88886731  0.50000000  1
  La  La12  1  0.88886731  0.50000000  0.00000000  1
  La  La13  1  0.11113269  0.11113269  0.11113269  1
