# generated using pymatgen
data_Er5Zr3(Ni4As3)4
_symmetry_space_group_name_H-M   'P 1'
_cell_length_a   12.75037863
_cell_length_b   12.75037823
_cell_length_c   3.91094556
_cell_angle_alpha   90.00000000
_cell_angle_beta   90.00000000
_cell_angle_gamma   120.00000106
_symmetry_Int_Tables_number   1
_chemical_formula_structural   Er5Zr3(Ni4As3)4
_chemical_formula_sum   'Er5 Zr3 Ni16 As12'
_cell_volume   550.62832387
_cell_formula_units_Z   1
loop_
 _symmetry_equiv_pos_site_id
 _symmetry_equiv_pos_as_xyz
  1  'x, y, z'
loop_
 _atom_site_type_symbol
 _atom_site_label
 _atom_site_symmetry_multiplicity
 _atom_site_fract_x
 _atom_site_fract_y
 _atom_site_fract_z
 _atom_site_occupancy
  Er  Er0  1  0.81652547  0.00000000  0.50000000  1
  Er  Er1  1  0.18347453  0.18347453  0.50000000  1
  Er  Er2  1  0.00000000  0.81652547  0.50000000  1
  Er  Er3  1  0.66666700  0.33333300  0.00000000  1
  Er  Er4  1  0.33333300  0.66666700  0.00000000  1
  Zr  Zr5  1  0.56237651  0.56237651  0.00000000  1
  Zr  Zr6  1  1.00000000  0.43762349  0.00000000  1
  Zr  Zr7  1  0.43762349  0.00000000  0.00000000  1
  Ni  Ni8  1  0.87868018  0.51738557  0.50000000  1
  Ni  Ni9  1  0.51738557  0.87868018  0.50000000  1
  Ni  Ni10  1  1.00000000  0.27559725  0.50000000  1
  Ni  Ni11  1  0.36129461  0.48261443  0.50000000  1
  Ni  Ni12  1  0.19266249  0.81694806  0.00000000  1
  Ni  Ni13  1  0.27559725  0.00000000  0.50000000  1
  Ni  Ni14  1  0.37571443  0.18305194  0.00000000  1
  Ni  Ni15  1  0.62428557  0.80733751  0.00000000  1
  Ni  Ni16  1  0.00000000  0.00000000  0.00000000  1
  Ni  Ni17  1  0.12131982  0.63870539  0.50000000  1
  Ni  Ni18  1  0.48261443  0.36129461  0.50000000  1
  Ni  Ni19  1  0.81694806  0.19266249  0.00000000  1
  Ni  Ni20  1  0.72440275  0.72440275  0.50000000  1
  Ni  Ni21  1  0.18305194  0.37571443  0.00000000  1
  Ni  Ni22  1  0.80733751  0.62428557  0.00000000  1
  Ni  Ni23  1  0.63870539  0.12131982  0.50000000  1
  As  As24  1  0.17757910  0.00000000  0.00000000  1
  As  As25  1  0.64554907  0.00000000  0.00000000  1
  As  As26  1  0.52005301  0.69274292  0.50000000  1
  As  As27  1  0.47994699  0.17268991  0.50000000  1
  As  As28  1  0.69274292  0.52005301  0.50000000  1
  As  As29  1  0.30725708  0.82731009  0.50000000  1
  As  As30  1  0.82731009  0.30725708  0.50000000  1
  As  As31  1  0.82242090  0.82242090  0.00000000  1
  As  As32  1  0.00000000  0.64554907  0.00000000  1
  As  As33  1  0.00000000  0.17757910  0.00000000  1
  As  As34  1  0.17268991  0.47994699  0.50000000  1
  As  As35  1  0.35445093  0.35445093  0.00000000  1
