# generated using pymatgen
data_Sr3LiIrO6
_symmetry_space_group_name_H-M   'P 1'
_cell_length_a   6.75298521
_cell_length_b   6.75298521
_cell_length_c   6.75298521
_cell_angle_alpha   92.19135697
_cell_angle_beta   92.19135694
_cell_angle_gamma   92.19135701
_symmetry_Int_Tables_number   1
_chemical_formula_structural   Sr3LiIrO6
_chemical_formula_sum   'Sr6 Li2 Ir2 O12'
_cell_volume   307.26171961
_cell_formula_units_Z   2
loop_
 _symmetry_equiv_pos_site_id
 _symmetry_equiv_pos_as_xyz
  1  'x, y, z'
loop_
 _atom_site_type_symbol
 _atom_site_label
 _atom_site_symmetry_multiplicity
 _atom_site_fract_x
 _atom_site_fract_y
 _atom_site_fract_z
 _atom_site_occupancy
  Li  Li0  1  0.25000000  0.25000000  0.25000000  1
  Li  Li1  1  0.75000000  0.75000000  0.75000000  1
  O  O2  1  0.45279770  0.78134898  0.58442438  1
  O  O3  1  0.04720230  0.91557562  0.71865102  1
  O  O4  1  0.91557562  0.71865102  0.04720230  1
  O  O5  1  0.71865102  0.04720230  0.91557562  1
  O  O6  1  0.78134898  0.58442438  0.45279770  1
  O  O7  1  0.58442438  0.45279770  0.78134898  1
  O  O8  1  0.21865102  0.41557562  0.54720230  1
  O  O9  1  0.41557562  0.54720230  0.21865102  1
  O  O10  1  0.28134898  0.95279770  0.08442438  1
  O  O11  1  0.08442438  0.28134898  0.95279770  1
  O  O12  1  0.95279770  0.08442438  0.28134898  1
  O  O13  1  0.54720230  0.21865102  0.41557562  1
  Sr  Sr14  1  0.60824594  0.89175406  0.25000000  1
  Sr  Sr15  1  0.25000000  0.60824594  0.89175406  1
  Sr  Sr16  1  0.10824594  0.75000000  0.39175406  1
  Sr  Sr17  1  0.75000000  0.39175406  0.10824594  1
  Sr  Sr18  1  0.39175406  0.10824594  0.75000000  1
  Sr  Sr19  1  0.89175406  0.25000000  0.60824594  1
  Ir  Ir20  1  0.00000000  0.00000000  0.00000000  1
  Ir  Ir21  1  0.50000000  0.50000000  0.50000000  1
