# generated using pymatgen
data_TbRhO3
_symmetry_space_group_name_H-M   'P 1'
_cell_length_a   5.29130167
_cell_length_b   5.83295985
_cell_length_c   7.67887694
_cell_angle_alpha   90.00000000
_cell_angle_beta   90.00000000
_cell_angle_gamma   90.00000000
_symmetry_Int_Tables_number   1
_chemical_formula_structural   TbRhO3
_chemical_formula_sum   'Tb4 Rh4 O12'
_cell_volume   237.00047543
_cell_formula_units_Z   4
loop_
 _symmetry_equiv_pos_site_id
 _symmetry_equiv_pos_as_xyz
  1  'x, y, z'
loop_
 _atom_site_type_symbol
 _atom_site_label
 _atom_site_symmetry_multiplicity
 _atom_site_fract_x
 _atom_site_fract_y
 _atom_site_fract_z
 _atom_site_occupancy
  O  O0  1  0.82308451  0.19057469  0.43780436  1
  O  O1  1  0.32308451  0.30942531  0.56219564  1
  O  O2  1  0.67691549  0.69057469  0.06219564  1
  O  O3  1  0.17691549  0.80942531  0.93780436  1
  O  O4  1  0.17691549  0.80942531  0.56219564  1
  O  O5  1  0.67691549  0.69057469  0.43780436  1
  O  O6  1  0.32308451  0.30942531  0.93780436  1
  O  O7  1  0.82308451  0.19057469  0.06219564  1
  O  O8  1  0.36617967  0.05100883  0.25000000  1
  O  O9  1  0.86617967  0.44899117  0.75000000  1
  O  O10  1  0.13382033  0.55100883  0.25000000  1
  O  O11  1  0.63382033  0.94899117  0.75000000  1
  Rh  Rh12  1  0.50000000  0.00000000  0.50000000  1
  Rh  Rh13  1  0.00000000  0.50000000  0.50000000  1
  Rh  Rh14  1  0.00000000  0.50000000  0.00000000  1
  Rh  Rh15  1  0.50000000  0.00000000  0.00000000  1
  Tb  Tb16  1  0.46897089  0.58505242  0.75000000  1
  Tb  Tb17  1  0.96897089  0.91494758  0.25000000  1
  Tb  Tb18  1  0.03102911  0.08505242  0.75000000  1
  Tb  Tb19  1  0.53102911  0.41494758  0.25000000  1
