# generated using pymatgen
data_Nb2FeO6
_symmetry_space_group_name_H-M   'P 1'
_cell_length_a   5.11313081
_cell_length_b   5.87865095
_cell_length_c   14.49018299
_cell_angle_alpha   90.00000000
_cell_angle_beta   90.00000000
_cell_angle_gamma   90.00000000
_symmetry_Int_Tables_number   1
_chemical_formula_structural   Nb2FeO6
_chemical_formula_sum   'Nb8 Fe4 O24'
_cell_volume   435.55043102
_cell_formula_units_Z   4
loop_
 _symmetry_equiv_pos_site_id
 _symmetry_equiv_pos_as_xyz
  1  'x, y, z'
loop_
 _atom_site_type_symbol
 _atom_site_label
 _atom_site_symmetry_multiplicity
 _atom_site_fract_x
 _atom_site_fract_y
 _atom_site_fract_z
 _atom_site_occupancy
  O  O0  1  0.92697012  0.37271084  0.25518161  1
  O  O1  1  0.42697012  0.12728916  0.24481839  1
  O  O2  1  0.57302988  0.37271084  0.74481839  1
  O  O3  1  0.07302988  0.12728916  0.75518161  1
  O  O4  1  0.07302988  0.62728916  0.74481839  1
  O  O5  1  0.57302988  0.87271084  0.75518161  1
  O  O6  1  0.42697012  0.62728916  0.25518161  1
  O  O7  1  0.92697012  0.87271084  0.24481839  1
  O  O8  1  0.89879505  0.38271453  0.91975381  1
  O  O9  1  0.39879505  0.11728547  0.58024619  1
  O  O10  1  0.60120495  0.38271453  0.08024619  1
  O  O11  1  0.10120495  0.11728547  0.41975381  1
  O  O12  1  0.92195666  0.89748688  0.90275802  1
  O  O13  1  0.42195666  0.60251312  0.59724198  1
  O  O14  1  0.57804334  0.89748688  0.09724198  1
  O  O15  1  0.07804334  0.60251312  0.40275802  1
  O  O16  1  0.07804334  0.10251312  0.09724198  1
  O  O17  1  0.57804334  0.39748688  0.40275802  1
  O  O18  1  0.42195666  0.10251312  0.90275802  1
  O  O19  1  0.92195666  0.39748688  0.59724198  1
  O  O20  1  0.89879505  0.88271453  0.58024619  1
  O  O21  1  0.39879505  0.61728547  0.91975381  1
  O  O22  1  0.60120495  0.88271453  0.41975381  1
  O  O23  1  0.10120495  0.61728547  0.08024619  1
  Fe  Fe24  1  0.75000000  0.66635492  0.00000000  1
  Fe  Fe25  1  0.25000000  0.83364508  0.50000000  1
  Fe  Fe26  1  0.25000000  0.33364508  0.00000000  1
  Fe  Fe27  1  0.75000000  0.16635492  0.50000000  1
  Nb  Nb28  1  0.25436228  0.81770624  0.16089107  1
  Nb  Nb29  1  0.75436228  0.68229376  0.33910893  1
  Nb  Nb30  1  0.24563772  0.81770624  0.83910893  1
  Nb  Nb31  1  0.74563772  0.68229376  0.66089107  1
  Nb  Nb32  1  0.25436228  0.31770624  0.33910893  1
  Nb  Nb33  1  0.75436228  0.18229376  0.16089107  1
  Nb  Nb34  1  0.24563772  0.31770624  0.66089107  1
  Nb  Nb35  1  0.74563772  0.18229376  0.83910893  1
