# generated using pymatgen
data_Na2AlAgF6
_symmetry_space_group_name_H-M   'P 1'
_cell_length_a   5.92982378
_cell_length_b   5.92982376
_cell_length_c   5.92982376
_cell_angle_alpha   60.00000015
_cell_angle_beta   60.00000016
_cell_angle_gamma   60.00000014
_symmetry_Int_Tables_number   1
_chemical_formula_structural   Na2AlAgF6
_chemical_formula_sum   'Na2 Al1 Ag1 F6'
_cell_volume   147.43831643
_cell_formula_units_Z   1
loop_
 _symmetry_equiv_pos_site_id
 _symmetry_equiv_pos_as_xyz
  1  'x, y, z'
loop_
 _atom_site_type_symbol
 _atom_site_label
 _atom_site_symmetry_multiplicity
 _atom_site_fract_x
 _atom_site_fract_y
 _atom_site_fract_z
 _atom_site_occupancy
  Na  Na0  1  0.25000000  0.25000000  0.25000000  1
  Na  Na1  1  0.75000000  0.75000000  0.75000000  1
  Al  Al2  1  -0.00000000  -0.00000000  0.00000000  1
  Ag  Ag3  1  0.50000000  0.50000000  0.50000000  1
  F  F4  1  0.21699778  0.78300222  0.21699779  1
  F  F5  1  0.78300222  0.78300221  0.21699778  1
  F  F6  1  0.78300222  0.21699778  0.78300221  1
  F  F7  1  0.78300222  0.21699778  0.21699778  1
  F  F8  1  0.21699778  0.78300222  0.78300222  1
  F  F9  1  0.21699778  0.21699779  0.78300222  1
