# generated using pymatgen
data_Na4Zr2(SiO4)3
_symmetry_space_group_name_H-M   'P 1'
_cell_length_a   9.19988004
_cell_length_b   9.19988004
_cell_length_c   9.19988004
_cell_angle_alpha   60.91103713
_cell_angle_beta   60.91103714
_cell_angle_gamma   60.91103715
_symmetry_Int_Tables_number   1
_chemical_formula_structural   Na4Zr2(SiO4)3
_chemical_formula_sum   'Na8 Zr4 Si6 O24'
_cell_volume   561.89954974
_cell_formula_units_Z   2
loop_
 _symmetry_equiv_pos_site_id
 _symmetry_equiv_pos_as_xyz
  1  'x, y, z'
loop_
 _atom_site_type_symbol
 _atom_site_label
 _atom_site_symmetry_multiplicity
 _atom_site_fract_x
 _atom_site_fract_y
 _atom_site_fract_z
 _atom_site_occupancy
  O  O0  1  0.87729903  0.70470312  0.49012321  1
  O  O1  1  0.70470312  0.49012321  0.87729903  1
  O  O2  1  0.49012321  0.87729903  0.70470312  1
  O  O3  1  0.00987679  0.79529688  0.62270097  1
  O  O4  1  0.79529688  0.62270097  0.00987679  1
  O  O5  1  0.62270097  0.00987679  0.79529688  1
  O  O6  1  0.12270097  0.29529688  0.50987679  1
  O  O7  1  0.29529688  0.50987679  0.12270097  1
  O  O8  1  0.50987679  0.12270097  0.29529688  1
  O  O9  1  0.99012321  0.20470312  0.37729903  1
  O  O10  1  0.20470312  0.37729903  0.99012321  1
  O  O11  1  0.37729903  0.99012321  0.20470312  1
  O  O12  1  0.76907828  0.41698405  0.56503677  1
  O  O13  1  0.41698405  0.56503677  0.76907828  1
  O  O14  1  0.56503677  0.76907828  0.41698405  1
  O  O15  1  0.93496323  0.08301595  0.73092172  1
  O  O16  1  0.08301595  0.73092172  0.93496323  1
  O  O17  1  0.73092172  0.93496323  0.08301595  1
  O  O18  1  0.26907828  0.06503677  0.91698405  1
  O  O19  1  0.91698405  0.26907828  0.06503677  1
  O  O20  1  0.06503677  0.91698405  0.26907828  1
  O  O21  1  0.43496323  0.23092172  0.58301595  1
  O  O22  1  0.58301595  0.43496323  0.23092172  1
  O  O23  1  0.23092172  0.58301595  0.43496323  1
  Na  Na24  1  0.00000000  0.00000000  0.00000000  1
  Na  Na25  1  0.11775685  0.38224315  0.75000000  1
  Na  Na26  1  0.75000000  0.11775685  0.38224315  1
  Na  Na27  1  0.38224315  0.75000000  0.11775685  1
  Na  Na28  1  0.61775685  0.25000000  0.88224315  1
  Na  Na29  1  0.25000000  0.88224315  0.61775685  1
  Na  Na30  1  0.50000000  0.50000000  0.50000000  1
  Na  Na31  1  0.88224315  0.61775685  0.25000000  1
  Si  Si32  1  0.54698736  0.95301264  0.25000000  1
  Si  Si33  1  0.04698736  0.75000000  0.45301264  1
  Si  Si34  1  0.95301264  0.25000000  0.54698736  1
  Si  Si35  1  0.45301264  0.04698736  0.75000000  1
  Si  Si36  1  0.75000000  0.45301264  0.04698736  1
  Si  Si37  1  0.25000000  0.54698736  0.95301264  1
  Zr  Zr38  1  0.35351197  0.35351197  0.35351197  1
  Zr  Zr39  1  0.85351197  0.85351197  0.85351197  1
  Zr  Zr40  1  0.64648803  0.64648803  0.64648803  1
  Zr  Zr41  1  0.14648803  0.14648803  0.14648803  1
