# generated using pymatgen
data_As2S3
_symmetry_space_group_name_H-M   'P 1'
_cell_length_a   4.60064395
_cell_length_b   11.00697896
_cell_length_c   11.38833917
_cell_angle_alpha   90.00000000
_cell_angle_beta   90.30502633
_cell_angle_gamma   90.00000000
_symmetry_Int_Tables_number   1
_chemical_formula_structural   As2S3
_chemical_formula_sum   'As8 S12'
_cell_volume   576.68811144
_cell_formula_units_Z   4
loop_
 _symmetry_equiv_pos_site_id
 _symmetry_equiv_pos_as_xyz
  1  'x, y, z'
loop_
 _atom_site_type_symbol
 _atom_site_label
 _atom_site_symmetry_multiplicity
 _atom_site_fract_x
 _atom_site_fract_y
 _atom_site_fract_z
 _atom_site_occupancy
  S  S0  1  0.06594473  0.77470271  0.62247526  1
  S  S1  1  0.43405527  0.27470271  0.87752474  1
  S  S2  1  0.93405527  0.22529729  0.37752474  1
  S  S3  1  0.56594473  0.72529729  0.12247526  1
  S  S4  1  0.49988885  0.87302648  0.84245587  1
  S  S5  1  1.00011115  0.37302648  0.65754413  1
  S  S6  1  0.50011115  0.12697352  0.15754413  1
  S  S7  1  -0.00011115  0.62697352  0.34245587  1
  S  S8  1  0.49995419  0.86260260  0.40553207  1
  S  S9  1  1.00004581  0.36260260  0.09446793  1
  S  S10  1  0.50004581  0.13739740  0.59446793  1
  S  S11  1  -0.00004581  0.63739740  0.90553207  1
  As  As12  1  0.84389491  0.81777940  0.98008213  1
  As  As13  1  0.65610509  0.31777940  0.51991787  1
  As  As14  1  0.15610509  0.18222060  0.01991787  1
  As  As15  1  0.34389491  0.68222060  0.48008213  1
  As  As16  1  0.34475783  0.68997366  0.76989518  1
  As  As17  1  0.15524217  0.18997366  0.73010482  1
  As  As18  1  0.65524217  0.31002634  0.23010482  1
  As  As19  1  0.84475783  0.81002634  0.26989518  1
