# generated using pymatgen
data_NaNd(SO4)2
_symmetry_space_group_name_H-M   'P 1'
_cell_length_a   6.38013218
_cell_length_b   7.02654246
_cell_length_c   7.21977135
_cell_angle_alpha   99.29153216
_cell_angle_beta   96.24330605
_cell_angle_gamma   90.96090708
_symmetry_Int_Tables_number   1
_chemical_formula_structural   NaNd(SO4)2
_chemical_formula_sum   'Na2 Nd2 S4 O16'
_cell_volume   317.32877553
_cell_formula_units_Z   2
loop_
 _symmetry_equiv_pos_site_id
 _symmetry_equiv_pos_as_xyz
  1  'x, y, z'
loop_
 _atom_site_type_symbol
 _atom_site_label
 _atom_site_symmetry_multiplicity
 _atom_site_fract_x
 _atom_site_fract_y
 _atom_site_fract_z
 _atom_site_occupancy
  O  O0  1  0.59262369  0.45556568  0.74750037  1
  O  O1  1  0.40737631  0.54443432  0.25249963  1
  O  O2  1  0.29363337  0.28887619  0.54037947  1
  O  O3  1  0.70636663  0.71112381  0.45962053  1
  O  O4  1  0.75502861  0.25666901  0.37703394  1
  O  O5  1  0.24497139  0.74333099  0.62296606  1
  O  O6  1  0.99961879  0.33738858  0.15707863  1
  O  O7  1  0.00038121  0.66261142  0.84292137  1
  O  O8  1  0.98124088  0.97089782  0.74956504  1
  O  O9  1  0.01875912  0.02910218  0.25043496  1
  O  O10  1  0.30169727  0.89528680  0.94270392  1
  O  O11  1  0.69830273  0.10471320  0.05729608  1
  O  O12  1  0.68511698  0.70670750  0.12260451  1
  O  O13  1  0.31488302  0.29329250  0.87739549  1
  O  O14  1  0.43383638  0.89041030  0.30930152  1
  O  O15  1  0.56616362  0.10958970  0.69069848  1
  Na  Na16  1  0.94419653  0.30603386  0.71227914  1
  Na  Na17  1  0.05580347  0.69396614  0.28772086  1
  S  S18  1  0.86909747  0.18233104  0.21381849  1
  S  S19  1  0.13090253  0.81766896  0.78618151  1
  S  S20  1  0.44117315  0.28617398  0.71518536  1
  S  S21  1  0.55882685  0.71382602  0.28481464  1
  Nd  Nd22  1  0.36307239  0.19516923  0.20489321  1
  Nd  Nd23  1  0.63692761  0.80483077  0.79510679  1
