# generated using pymatgen
data_Na3Li3In2F12
_symmetry_space_group_name_H-M   'P 1'
_cell_length_a   11.16822132
_cell_length_b   11.16822132
_cell_length_c   11.16822132
_cell_angle_alpha   109.47122064
_cell_angle_beta   109.47122063
_cell_angle_gamma   109.47122064
_symmetry_Int_Tables_number   1
_chemical_formula_structural   Na3Li3In2F12
_chemical_formula_sum   'Na12 Li12 In8 F48'
_cell_volume   1072.33416849
_cell_formula_units_Z   4
loop_
 _symmetry_equiv_pos_site_id
 _symmetry_equiv_pos_as_xyz
  1  'x, y, z'
loop_
 _atom_site_type_symbol
 _atom_site_label
 _atom_site_symmetry_multiplicity
 _atom_site_fract_x
 _atom_site_fract_y
 _atom_site_fract_z
 _atom_site_occupancy
  Li  Li0  1  0.87500000  0.12500000  0.75000000  1
  Li  Li1  1  0.12500000  0.87500000  0.25000000  1
  Li  Li2  1  0.25000000  0.62500000  0.37500000  1
  Li  Li3  1  0.12500000  0.75000000  0.87500000  1
  Li  Li4  1  0.75000000  0.87500000  0.12500000  1
  Li  Li5  1  0.37500000  0.25000000  0.62500000  1
  Li  Li6  1  0.62500000  0.75000000  0.37500000  1
  Li  Li7  1  0.87500000  0.25000000  0.12500000  1
  Li  Li8  1  0.25000000  0.12500000  0.87500000  1
  Li  Li9  1  0.75000000  0.37500000  0.62500000  1
  Li  Li10  1  0.37500000  0.62500000  0.75000000  1
  Li  Li11  1  0.62500000  0.37500000  0.25000000  1
  F  F12  1  0.52313211  0.62218421  0.70469736  1
  F  F13  1  0.87781579  0.40094789  0.08251314  1
  F  F14  1  0.79530264  0.41748686  0.81843475  1
  F  F15  1  0.97686789  0.68156525  0.09905211  1
  F  F16  1  0.97686789  0.79530264  0.87781579  1
  F  F17  1  0.68156525  0.09905211  0.97686789  1
  F  F18  1  0.41748686  0.09905211  0.62218421  1
  F  F19  1  0.09905211  0.97686789  0.68156525  1
  F  F20  1  0.08251314  0.70469736  0.68156525  1
  F  F21  1  0.40094789  0.81843475  0.52313211  1
  F  F22  1  0.81843475  0.52313211  0.40094789  1
  F  F23  1  0.87781579  0.97686789  0.79530264  1
  F  F24  1  0.09905211  0.62218421  0.41748686  1
  F  F25  1  0.68156525  0.08251314  0.70469736  1
  F  F26  1  0.79530264  0.87781579  0.97686789  1
  F  F27  1  0.62218421  0.41748686  0.09905211  1
  F  F28  1  0.70469736  0.68156525  0.08251314  1
  F  F29  1  0.08251314  0.87781579  0.40094789  1
  F  F30  1  0.41748686  0.81843475  0.79530264  1
  F  F31  1  0.81843475  0.79530264  0.41748686  1
  F  F32  1  0.62218421  0.70469736  0.52313211  1
  F  F33  1  0.70469736  0.52313211  0.62218421  1
  F  F34  1  0.40094789  0.08251314  0.87781579  1
  F  F35  1  0.52313211  0.40094789  0.81843475  1
  F  F36  1  0.47686789  0.37781579  0.29530264  1
  F  F37  1  0.12218421  0.59905211  0.91748686  1
  F  F38  1  0.20469736  0.58251314  0.18156525  1
  F  F39  1  0.02313211  0.31843475  0.90094789  1
  F  F40  1  0.02313211  0.20469736  0.12218421  1
  F  F41  1  0.31843475  0.90094789  0.02313211  1
  F  F42  1  0.58251314  0.90094789  0.37781579  1
  F  F43  1  0.90094789  0.02313211  0.31843475  1
  F  F44  1  0.91748686  0.29530264  0.31843475  1
  F  F45  1  0.59905211  0.18156525  0.47686789  1
  F  F46  1  0.18156525  0.47686789  0.59905211  1
  F  F47  1  0.12218421  0.02313211  0.20469736  1
  F  F48  1  0.90094789  0.37781579  0.58251314  1
  F  F49  1  0.31843475  0.91748686  0.29530264  1
  F  F50  1  0.20469736  0.12218421  0.02313211  1
  F  F51  1  0.37781579  0.58251314  0.90094789  1
  F  F52  1  0.29530264  0.31843475  0.91748686  1
  F  F53  1  0.91748686  0.12218421  0.59905211  1
  F  F54  1  0.58251314  0.18156525  0.20469736  1
  F  F55  1  0.18156525  0.20469736  0.58251314  1
  F  F56  1  0.37781579  0.29530264  0.47686789  1
  F  F57  1  0.29530264  0.47686789  0.37781579  1
  F  F58  1  0.59905211  0.91748686  0.12218421  1
  F  F59  1  0.47686789  0.59905211  0.18156525  1
  Na  Na60  1  0.25000000  0.87500000  0.62500000  1
  Na  Na61  1  0.87500000  0.62500000  0.25000000  1
  Na  Na62  1  0.62500000  0.87500000  0.75000000  1
  Na  Na63  1  0.87500000  0.75000000  0.62500000  1
  Na  Na64  1  0.62500000  0.25000000  0.87500000  1
  Na  Na65  1  0.75000000  0.62500000  0.87500000  1
  Na  Na66  1  0.75000000  0.12500000  0.37500000  1
  Na  Na67  1  0.12500000  0.37500000  0.75000000  1
  Na  Na68  1  0.37500000  0.12500000  0.25000000  1
  Na  Na69  1  0.12500000  0.25000000  0.37500000  1
  Na  Na70  1  0.37500000  0.75000000  0.12500000  1
  Na  Na71  1  0.25000000  0.37500000  0.12500000  1
  In  In72  1  0.50000000  0.50000000  0.50000000  1
  In  In73  1  0.50000000  0.50000000  0.00000000  1
  In  In74  1  0.50000000  0.00000000  0.50000000  1
  In  In75  1  0.00000000  0.50000000  0.50000000  1
  In  In76  1  0.50000000  0.00000000  0.00000000  1
  In  In77  1  0.00000000  0.00000000  0.50000000  1
  In  In78  1  0.00000000  0.50000000  0.00000000  1
  In  In79  1  0.00000000  0.00000000  0.00000000  1
