# generated using pymatgen
data_Cs(BI)6
_symmetry_space_group_name_H-M   'P 1'
_cell_length_a   18.25704465
_cell_length_b   18.25704460
_cell_length_c   18.25704449
_cell_angle_alpha   34.30081864
_cell_angle_beta   34.30081882
_cell_angle_gamma   34.30081959
_symmetry_Int_Tables_number   1
_chemical_formula_structural   Cs(BI)6
_chemical_formula_sum   'Cs4 B24 I24'
_cell_volume   1723.52236373
_cell_formula_units_Z   4
loop_
 _symmetry_equiv_pos_site_id
 _symmetry_equiv_pos_as_xyz
  1  'x, y, z'
loop_
 _atom_site_type_symbol
 _atom_site_label
 _atom_site_symmetry_multiplicity
 _atom_site_fract_x
 _atom_site_fract_y
 _atom_site_fract_z
 _atom_site_occupancy
  Cs  Cs0  1  0.78999359  0.78999359  0.78999359  1
  Cs  Cs1  1  0.37316691  0.37316691  0.37316691  1
  Cs  Cs2  1  0.21000641  0.21000641  0.21000641  1
  Cs  Cs3  1  0.62683309  0.62683309  0.62683309  1
  B  B4  1  0.55042079  0.36546695  0.50527741  1
  B  B5  1  0.17427026  0.86893118  0.97563614  1
  B  B6  1  0.82572974  0.13106882  0.02436386  1
  B  B7  1  0.63453305  0.49472259  0.44957921  1
  B  B8  1  0.49472259  0.44957921  0.63453305  1
  B  B9  1  0.11213804  0.04513477  0.92196234  1
  B  B10  1  0.50527741  0.55042079  0.36546695  1
  B  B11  1  0.66887644  0.44288507  0.36951559  1
  B  B12  1  0.04513477  0.92196234  0.11213804  1
  B  B13  1  0.36951559  0.66887644  0.44288507  1
  B  B14  1  0.13106882  0.02436386  0.82572974  1
  B  B15  1  0.07803766  0.88786196  0.95486523  1
  B  B16  1  0.55711493  0.63048441  0.33112356  1
  B  B17  1  0.63048441  0.33112356  0.55711493  1
  B  B18  1  0.36546695  0.50527741  0.55042079  1
  B  B19  1  0.97563614  0.17427026  0.86893118  1
  B  B20  1  0.92196234  0.11213804  0.04513477  1
  B  B21  1  0.44288507  0.36951559  0.66887644  1
  B  B22  1  0.95486523  0.07803766  0.88786196  1
  B  B23  1  0.02436386  0.82572974  0.13106882  1
  B  B24  1  0.88786196  0.95486523  0.07803766  1
  B  B25  1  0.86893118  0.97563614  0.17427026  1
  B  B26  1  0.44957921  0.63453305  0.49472259  1
  B  B27  1  0.33112356  0.55711493  0.63048441  1
  I  I28  1  0.10098380  0.82292679  0.25622052  1
  I  I29  1  0.49043742  0.38396789  0.80579532  1
  I  I30  1  0.70230575  0.94502213  0.39819753  1
  I  I31  1  0.88195218  0.37147388  0.20085141  1
  I  I32  1  0.61603211  0.19420468  0.50956258  1
  I  I33  1  0.05497787  0.60180247  0.29769425  1
  I  I34  1  0.89901620  0.17707321  0.74377948  1
  I  I35  1  0.74377948  0.89901620  0.17707321  1
  I  I36  1  0.29769425  0.05497787  0.60180247  1
  I  I37  1  0.25622052  0.10098380  0.82292679  1
  I  I38  1  0.11804782  0.62852612  0.79914859  1
  I  I39  1  0.94502213  0.39819753  0.70230575  1
  I  I40  1  0.39819753  0.70230575  0.94502213  1
  I  I41  1  0.50956258  0.61603211  0.19420468  1
  I  I42  1  0.82292679  0.25622052  0.10098380  1
  I  I43  1  0.17707321  0.74377948  0.89901620  1
  I  I44  1  0.20085141  0.88195218  0.37147388  1
  I  I45  1  0.80579532  0.49043742  0.38396789  1
  I  I46  1  0.19420468  0.50956258  0.61603211  1
  I  I47  1  0.37147388  0.20085141  0.88195218  1
  I  I48  1  0.79914859  0.11804782  0.62852612  1
  I  I49  1  0.62852612  0.79914859  0.11804782  1
  I  I50  1  0.60180247  0.29769425  0.05497787  1
  I  I51  1  0.38396789  0.80579532  0.49043742  1
