# generated using pymatgen
data_RbEuAsS3
_symmetry_space_group_name_H-M   'P 1'
_cell_length_a   8.36189775
_cell_length_b   8.83975086
_cell_length_c   9.51714280
_cell_angle_alpha   105.34157191
_cell_angle_beta   90.00000000
_cell_angle_gamma   90.00000000
_symmetry_Int_Tables_number   1
_chemical_formula_structural   RbEuAsS3
_chemical_formula_sum   'Rb4 Eu4 As4 S12'
_cell_volume   678.41153227
_cell_formula_units_Z   4
loop_
 _symmetry_equiv_pos_site_id
 _symmetry_equiv_pos_as_xyz
  1  'x, y, z'
loop_
 _atom_site_type_symbol
 _atom_site_label
 _atom_site_symmetry_multiplicity
 _atom_site_fract_x
 _atom_site_fract_y
 _atom_site_fract_z
 _atom_site_occupancy
  Rb  Rb0  1  0.93233677  0.27084466  0.91164197  1
  Rb  Rb1  1  0.43233677  0.22915534  0.08835803  1
  Rb  Rb2  1  0.56766323  0.77084466  0.91164197  1
  Rb  Rb3  1  0.06766323  0.72915534  0.08835803  1
  Eu  Eu4  1  0.71648515  0.97153190  0.43787103  1
  Eu  Eu5  1  0.78351485  0.47153190  0.43787103  1
  Eu  Eu6  1  0.21648515  0.52846810  0.56212897  1
  Eu  Eu7  1  0.28351485  0.02846810  0.56212897  1
  As  As8  1  0.04771316  0.14846962  0.27339032  1
  As  As9  1  0.95228684  0.85153038  0.72660968  1
  As  As10  1  0.45228684  0.64846962  0.27339032  1
  As  As11  1  0.54771316  0.35153038  0.72660968  1
  S  S12  1  0.48976144  0.28097491  0.47997221  1
  S  S13  1  0.41367128  0.89755517  0.25565715  1
  S  S14  1  0.51023856  0.71902509  0.52002779  1
  S  S15  1  0.19746172  0.92467066  0.82202384  1
  S  S16  1  0.30253828  0.42467066  0.82202384  1
  S  S17  1  0.98976144  0.21902509  0.52002779  1
  S  S18  1  0.69746172  0.57532934  0.17797616  1
  S  S19  1  0.01023856  0.78097491  0.47997221  1
  S  S20  1  0.91367128  0.60244483  0.74434285  1
  S  S21  1  0.80253828  0.07532934  0.17797616  1
  S  S22  1  0.58632872  0.10244483  0.74434285  1
  S  S23  1  0.08632872  0.39755517  0.25565715  1
