# generated using pymatgen
data_CsKPt6(S3O14)2
_symmetry_space_group_name_H-M   'P 1'
_cell_length_a   11.73601699
_cell_length_b   11.73601737
_cell_length_c   11.73601700
_cell_angle_alpha   62.50463918
_cell_angle_beta   62.50463823
_cell_angle_gamma   62.50463927
_symmetry_Int_Tables_number   1
_chemical_formula_structural   CsKPt6(S3O14)2
_chemical_formula_sum   'Cs2 K2 Pt12 S12 O56'
_cell_volume   1206.79879978
_cell_formula_units_Z   2
loop_
 _symmetry_equiv_pos_site_id
 _symmetry_equiv_pos_as_xyz
  1  'x, y, z'
loop_
 _atom_site_type_symbol
 _atom_site_label
 _atom_site_symmetry_multiplicity
 _atom_site_fract_x
 _atom_site_fract_y
 _atom_site_fract_z
 _atom_site_occupancy
  Cs  Cs0  1  0.41451061  0.41451061  0.41451061  1
  Cs  Cs1  1  0.58548939  0.58548939  0.58548939  1
  K  K2  1  0.20656133  0.20656133  0.20656133  1
  K  K3  1  0.79343867  0.79343867  0.79343867  1
  Pt  Pt4  1  0.75093869  0.14948318  0.19689982  1
  Pt  Pt5  1  0.14948318  0.19689982  0.75093869  1
  Pt  Pt6  1  0.98079729  0.72670386  0.03850381  1
  Pt  Pt7  1  0.24906131  0.85051682  0.80310018  1
  Pt  Pt8  1  0.85051682  0.80310018  0.24906131  1
  Pt  Pt9  1  0.80310018  0.24906131  0.85051682  1
  Pt  Pt10  1  0.03850381  0.98079729  0.72670386  1
  Pt  Pt11  1  0.19689982  0.75093869  0.14948318  1
  Pt  Pt12  1  0.01920271  0.27329614  0.96149619  1
  Pt  Pt13  1  0.27329614  0.96149619  0.01920271  1
  Pt  Pt14  1  0.96149619  0.01920271  0.27329614  1
  Pt  Pt15  1  0.72670386  0.03850381  0.98079729  1
  S  S16  1  0.51234524  0.29799280  0.05321101  1
  S  S17  1  0.67716507  0.74176813  0.16102505  1
  S  S18  1  0.48765476  0.70200720  0.94678899  1
  S  S19  1  0.32283493  0.25823187  0.83897495  1
  S  S20  1  0.16102505  0.67716507  0.74176813  1
  S  S21  1  0.29799280  0.05321101  0.51234524  1
  S  S22  1  0.83897495  0.32283493  0.25823187  1
  S  S23  1  0.94678899  0.48765476  0.70200720  1
  S  S24  1  0.74176813  0.16102505  0.67716507  1
  S  S25  1  0.70200720  0.94678899  0.48765476  1
  S  S26  1  0.25823187  0.83897495  0.32283493  1
  S  S27  1  0.05321101  0.51234524  0.29799280  1
  O  O28  1  0.37757221  0.06888690  0.37185846  1
  O  O29  1  0.07811826  0.81854778  0.67199509  1
  O  O30  1  0.92760528  0.37265707  0.11757758  1
  O  O31  1  0.62734293  0.88242242  0.07239472  1
  O  O32  1  0.23995486  0.00312172  0.84701771  1
  O  O33  1  0.58892225  0.66471116  0.21004633  1
  O  O34  1  0.84701771  0.23995486  0.00312172  1
  O  O35  1  0.69221874  0.74770856  0.28094765  1
  O  O36  1  0.08209104  0.39672537  0.63498423  1
  O  O37  1  0.53352809  0.15957359  0.05252918  1
  O  O38  1  0.66471116  0.21004633  0.58892225  1
  O  O39  1  0.83424291  0.44748704  0.72008446  1
  O  O40  1  0.84042641  0.94747082  0.46647191  1
  O  O41  1  0.25229144  0.71905235  0.30778126  1
  O  O42  1  0.37185846  0.37757221  0.06888690  1
  O  O43  1  0.28094765  0.69221874  0.74770856  1
  O  O44  1  0.71905235  0.30778126  0.25229144  1
  O  O45  1  0.15957359  0.05252918  0.53352809  1
  O  O46  1  0.32800491  0.92188174  0.18145222  1
  O  O47  1  0.39672537  0.63498423  0.08209104  1
  O  O48  1  0.37265707  0.11757758  0.92760528  1
  O  O49  1  0.15298229  0.76004514  0.99687828  1
  O  O50  1  0.88242242  0.07239472  0.62734293  1
  O  O51  1  0.06888690  0.37185846  0.37757221  1
  O  O52  1  0.44748704  0.72008446  0.83424291  1
  O  O53  1  0.55251296  0.27991554  0.16575709  1
  O  O54  1  0.92188174  0.18145222  0.32800491  1
  O  O55  1  0.90611080  0.90611080  0.90611080  1
  O  O56  1  0.93111310  0.62814154  0.62242779  1
  O  O57  1  0.99687828  0.15298229  0.76004514  1
  O  O58  1  0.09388920  0.09388920  0.09388920  1
  O  O59  1  0.33528884  0.78995367  0.41107775  1
  O  O60  1  0.67199509  0.07811826  0.81854778  1
  O  O61  1  0.91790896  0.60327463  0.36501577  1
  O  O62  1  0.36501577  0.91790896  0.60327463  1
  O  O63  1  0.07239472  0.62734293  0.88242242  1
  O  O64  1  0.74770856  0.28094765  0.69221874  1
  O  O65  1  0.94747082  0.46647191  0.84042641  1
  O  O66  1  0.62814154  0.62242779  0.93111310  1
  O  O67  1  0.41107775  0.33528884  0.78995367  1
  O  O68  1  0.30778126  0.25229144  0.71905235  1
  O  O69  1  0.63498423  0.08209104  0.39672537  1
  O  O70  1  0.21004633  0.58892225  0.66471116  1
  O  O71  1  0.18145222  0.32800491  0.92188174  1
  O  O72  1  0.46647191  0.84042641  0.94747082  1
  O  O73  1  0.76004514  0.99687828  0.15298229  1
  O  O74  1  0.11757758  0.92760528  0.37265707  1
  O  O75  1  0.78995367  0.41107775  0.33528884  1
  O  O76  1  0.60327463  0.36501577  0.91790896  1
  O  O77  1  0.72008446  0.83424291  0.44748704  1
  O  O78  1  0.05252918  0.53352809  0.15957359  1
  O  O79  1  0.62242779  0.93111310  0.62814154  1
  O  O80  1  0.16575709  0.55251296  0.27991554  1
  O  O81  1  0.27991554  0.16575709  0.55251296  1
  O  O82  1  0.00312172  0.84701771  0.23995486  1
  O  O83  1  0.81854778  0.67199509  0.07811826  1
