# generated using pymatgen
data_Li3In2(PO4)3
_symmetry_space_group_name_H-M   'P 1'
_cell_length_a   9.30945014
_cell_length_b   9.30945014
_cell_length_c   9.30945014
_cell_angle_alpha   55.37587454
_cell_angle_beta   55.37587452
_cell_angle_gamma   55.37587452
_symmetry_Int_Tables_number   1
_chemical_formula_structural   Li3In2(PO4)3
_chemical_formula_sum   'Li6 In4 P6 O24'
_cell_volume   509.21806687
_cell_formula_units_Z   2
loop_
 _symmetry_equiv_pos_site_id
 _symmetry_equiv_pos_as_xyz
  1  'x, y, z'
loop_
 _atom_site_type_symbol
 _atom_site_label
 _atom_site_symmetry_multiplicity
 _atom_site_fract_x
 _atom_site_fract_y
 _atom_site_fract_z
 _atom_site_occupancy
  Li  Li0  1  0.92751606  0.66417638  0.26717428  1
  Li  Li1  1  0.66417638  0.26717428  0.92751606  1
  Li  Li2  1  0.26717428  0.92751606  0.66417638  1
  Li  Li3  1  0.07248394  0.33582362  0.73282572  1
  Li  Li4  1  0.33582362  0.73282572  0.07248394  1
  Li  Li5  1  0.73282572  0.07248394  0.33582362  1
  O  O6  1  0.84790836  0.13793285  0.74980375  1
  O  O7  1  0.13793285  0.74980375  0.84790836  1
  O  O8  1  0.74980375  0.84790836  0.13793285  1
  O  O9  1  0.15209164  0.86206715  0.25019625  1
  O  O10  1  0.40313465  0.99534221  0.19221168  1
  O  O11  1  0.19221168  0.40313465  0.99534221  1
  O  O12  1  0.99534221  0.19221168  0.40313465  1
  O  O13  1  0.59686535  0.00465779  0.80778832  1
  O  O14  1  0.80778832  0.59686535  0.00465779  1
  O  O15  1  0.00465779  0.80778832  0.59686535  1
  O  O16  1  0.44283074  0.85709187  0.79571476  1
  O  O17  1  0.79571476  0.44283074  0.85709187  1
  O  O18  1  0.85709187  0.79571476  0.44283074  1
  O  O19  1  0.55716926  0.14290813  0.20428524  1
  O  O20  1  0.20428524  0.55716926  0.14290813  1
  O  O21  1  0.14290813  0.20428524  0.55716926  1
  O  O22  1  0.50267423  0.84263775  0.46445915  1
  O  O23  1  0.46445915  0.50267423  0.84263775  1
  O  O24  1  0.84263775  0.46445915  0.50267423  1
  O  O25  1  0.49732577  0.15736225  0.53554085  1
  O  O26  1  0.53554085  0.49732577  0.15736225  1
  O  O27  1  0.15736225  0.53554085  0.49732577  1
  O  O28  1  0.25019625  0.15209164  0.86206715  1
  O  O29  1  0.86206715  0.25019625  0.15209164  1
  P  P30  1  0.04603234  0.74958008  0.45137692  1
  P  P31  1  0.74958008  0.45137692  0.04603234  1
  P  P32  1  0.45137692  0.04603234  0.74958008  1
  P  P33  1  0.95396766  0.25041992  0.54862308  1
  P  P34  1  0.25041992  0.54862308  0.95396766  1
  P  P35  1  0.54862308  0.95396766  0.25041992  1
  In  In36  1  0.34551340  0.34551340  0.34551340  1
  In  In37  1  0.65448660  0.65448660  0.65448660  1
  In  In38  1  0.85341859  0.85341859  0.85341859  1
  In  In39  1  0.14658141  0.14658141  0.14658141  1
