# generated using pymatgen
data_Ce3LuSe6
_symmetry_space_group_name_H-M   'P 1'
_cell_length_a   4.10090723
_cell_length_b   14.52152792
_cell_length_c   17.57191001
_cell_angle_alpha   90.00000000
_cell_angle_beta   90.00000000
_cell_angle_gamma   90.00000000
_symmetry_Int_Tables_number   1
_chemical_formula_structural   Ce3LuSe6
_chemical_formula_sum   'Ce12 Lu4 Se24'
_cell_volume   1046.43252422
_cell_formula_units_Z   4
loop_
 _symmetry_equiv_pos_site_id
 _symmetry_equiv_pos_as_xyz
  1  'x, y, z'
loop_
 _atom_site_type_symbol
 _atom_site_label
 _atom_site_symmetry_multiplicity
 _atom_site_fract_x
 _atom_site_fract_y
 _atom_site_fract_z
 _atom_site_occupancy
  Ce  Ce0  1  0.00000000  0.74908579  0.60036712  1
  Ce  Ce1  1  0.50000000  0.24908579  0.89963288  1
  Ce  Ce2  1  0.50000000  0.68113805  0.84897367  1
  Ce  Ce3  1  0.00000000  0.18113805  0.65102633  1
  Ce  Ce4  1  0.00000000  0.04821953  0.21912752  1
  Ce  Ce5  1  0.50000000  0.54821953  0.28087248  1
  Ce  Ce6  1  0.00000000  0.25091421  0.39963288  1
  Ce  Ce7  1  0.50000000  0.75091421  0.10036712  1
  Ce  Ce8  1  0.00000000  0.95178047  0.78087248  1
  Ce  Ce9  1  0.50000000  0.31886195  0.15102633  1
  Ce  Ce10  1  0.50000000  0.45178047  0.71912752  1
  Ce  Ce11  1  0.00000000  0.81886195  0.34897367  1
  Lu  Lu12  1  0.50000000  0.00000000  0.50000000  1
  Lu  Lu13  1  0.00000000  0.50000000  0.00000000  1
  Lu  Lu14  1  0.50000000  0.00000000  0.00000000  1
  Lu  Lu15  1  0.00000000  0.50000000  0.50000000  1
  Se  Se16  1  0.50000000  0.59215286  0.57942014  1
  Se  Se17  1  0.00000000  0.02287172  0.39356138  1
  Se  Se18  1  0.50000000  0.81070232  0.47632909  1
  Se  Se19  1  0.50000000  0.52287172  0.10643862  1
  Se  Se20  1  0.50000000  0.87475604  0.88795574  1
  Se  Se21  1  0.50000000  0.89540173  0.24617314  1
  Se  Se22  1  0.00000000  0.68929768  0.97632909  1
  Se  Se23  1  0.00000000  0.39540173  0.25382686  1
  Se  Se24  1  0.50000000  0.12524396  0.11204426  1
  Se  Se25  1  0.00000000  0.68613945  0.21031240  1
  Se  Se26  1  0.50000000  0.10459827  0.75382686  1
  Se  Se27  1  0.50000000  0.40784714  0.42057986  1
  Se  Se28  1  0.00000000  0.31070232  0.02367091  1
  Se  Se29  1  0.00000000  0.62524396  0.38795574  1
  Se  Se30  1  0.50000000  0.18929768  0.52367091  1
  Se  Se31  1  0.00000000  0.09215286  0.92057986  1
  Se  Se32  1  0.50000000  0.18613945  0.28968760  1
  Se  Se33  1  0.50000000  0.47712828  0.89356138  1
  Se  Se34  1  0.00000000  0.60459827  0.74617314  1
  Se  Se35  1  0.50000000  0.81386055  0.71031240  1
  Se  Se36  1  0.00000000  0.97712828  0.60643862  1
  Se  Se37  1  0.00000000  0.31386055  0.78968760  1
  Se  Se38  1  0.00000000  0.37475604  0.61204426  1
  Se  Se39  1  0.00000000  0.90784714  0.07942014  1
