# generated using pymatgen
data_Cs2CrO4
_symmetry_space_group_name_H-M   'P 1'
_cell_length_a   6.43600623
_cell_length_b   8.58458017
_cell_length_c   11.37345152
_cell_angle_alpha   90.00000000
_cell_angle_beta   90.00000000
_cell_angle_gamma   90.00000000
_symmetry_Int_Tables_number   1
_chemical_formula_structural   Cs2CrO4
_chemical_formula_sum   'Cs8 Cr4 O16'
_cell_volume   628.38787616
_cell_formula_units_Z   4
loop_
 _symmetry_equiv_pos_site_id
 _symmetry_equiv_pos_as_xyz
  1  'x, y, z'
loop_
 _atom_site_type_symbol
 _atom_site_label
 _atom_site_symmetry_multiplicity
 _atom_site_fract_x
 _atom_site_fract_y
 _atom_site_fract_z
 _atom_site_occupancy
  Cs  Cs0  1  0.25000000  0.51771517  0.69432463  1
  Cs  Cs1  1  0.75000000  0.67882386  0.91525493  1
  Cs  Cs2  1  0.25000000  0.32117614  0.08474507  1
  Cs  Cs3  1  0.75000000  0.17882386  0.58474507  1
  Cs  Cs4  1  0.75000000  0.98228483  0.19432463  1
  Cs  Cs5  1  0.75000000  0.48228483  0.30567537  1
  Cs  Cs6  1  0.25000000  0.01771517  0.80567537  1
  Cs  Cs7  1  0.25000000  0.82117614  0.41525493  1
  Cr  Cr8  1  0.75000000  0.25302593  0.91759121  1
  Cr  Cr9  1  0.75000000  0.75302593  0.58240879  1
  Cr  Cr10  1  0.25000000  0.74697407  0.08240879  1
  Cr  Cr11  1  0.25000000  0.24697407  0.41759121  1
  O  O12  1  0.03769524  0.68133824  0.15063817  1
  O  O13  1  0.75000000  0.55960865  0.58374097  1
  O  O14  1  0.53769524  0.31866176  0.84936183  1
  O  O15  1  0.75000000  0.81655917  0.44423500  1
  O  O16  1  0.96230476  0.31866176  0.84936183  1
  O  O17  1  0.25000000  0.68344083  0.94423500  1
  O  O18  1  0.03769524  0.18133824  0.34936183  1
  O  O19  1  0.25000000  0.44039135  0.41625903  1
  O  O20  1  0.25000000  0.18344083  0.55576500  1
  O  O21  1  0.75000000  0.31655917  0.05576500  1
  O  O22  1  0.46230476  0.18133824  0.34936183  1
  O  O23  1  0.46230476  0.68133824  0.15063817  1
  O  O24  1  0.25000000  0.94039135  0.08374097  1
  O  O25  1  0.96230476  0.81866176  0.65063817  1
  O  O26  1  0.75000000  0.05960865  0.91625903  1
  O  O27  1  0.53769524  0.81866176  0.65063817  1
