# generated using pymatgen
data_YB4
_symmetry_space_group_name_H-M   'P 1'
_cell_length_a   4.02709001
_cell_length_b   7.11262755
_cell_length_c   7.11262755
_cell_angle_alpha   90.00000000
_cell_angle_beta   90.00000000
_cell_angle_gamma   90.00000000
_symmetry_Int_Tables_number   1
_chemical_formula_structural   YB4
_chemical_formula_sum   'Y4 B16'
_cell_volume   203.72835193
_cell_formula_units_Z   4
loop_
 _symmetry_equiv_pos_site_id
 _symmetry_equiv_pos_as_xyz
  1  'x, y, z'
loop_
 _atom_site_type_symbol
 _atom_site_label
 _atom_site_symmetry_multiplicity
 _atom_site_fract_x
 _atom_site_fract_y
 _atom_site_fract_z
 _atom_site_occupancy
  B  B0  1  0.50000000  0.46138262  0.32401706  1
  B  B1  1  0.50000000  0.53861738  0.67598294  1
  B  B2  1  0.50000000  0.32401706  0.53861738  1
  B  B3  1  0.50000000  0.67598294  0.46138262  1
  B  B4  1  0.20306825  0.00000000  0.00000000  1
  B  B5  1  0.79693175  0.50000000  0.50000000  1
  B  B6  1  0.79693175  0.00000000  0.00000000  1
  B  B7  1  0.20306825  0.50000000  0.50000000  1
  B  B8  1  0.50000000  0.08710416  0.58710416  1
  B  B9  1  0.50000000  0.41289584  0.08710416  1
  B  B10  1  0.50000000  0.58710416  0.91289584  1
  B  B11  1  0.50000000  0.91289584  0.41289584  1
  B  B12  1  0.50000000  0.17598294  0.03861738  1
  B  B13  1  0.50000000  0.96138262  0.17598294  1
  B  B14  1  0.50000000  0.03861738  0.82401706  1
  B  B15  1  0.50000000  0.82401706  0.96138262  1
  Y  Y16  1  0.00000000  0.68198541  0.18198541  1
  Y  Y17  1  0.00000000  0.81801459  0.68198541  1
  Y  Y18  1  0.00000000  0.18198541  0.31801459  1
  Y  Y19  1  0.00000000  0.31801459  0.81801459  1
