# generated using pymatgen
data_Cr2(MoO4)3
_symmetry_space_group_name_H-M   'P 1'
_cell_length_a   9.40277570
_cell_length_b   9.49202812
_cell_length_c   13.07108326
_cell_angle_alpha   89.98411510
_cell_angle_beta   90.01032581
_cell_angle_gamma   90.00789302
_symmetry_Int_Tables_number   1
_chemical_formula_structural   Cr2(MoO4)3
_chemical_formula_sum   'Cr8 Mo12 O48'
_cell_volume   1166.61255439
_cell_formula_units_Z   4
loop_
 _symmetry_equiv_pos_site_id
 _symmetry_equiv_pos_as_xyz
  1  'x, y, z'
loop_
 _atom_site_type_symbol
 _atom_site_label
 _atom_site_symmetry_multiplicity
 _atom_site_fract_x
 _atom_site_fract_y
 _atom_site_fract_z
 _atom_site_occupancy
  Cr  Cr0  1  0.75032104  0.53461413  0.61845418  1
  Cr  Cr1  1  0.24971006  0.03466936  0.61840918  1
  Cr  Cr2  1  0.74961082  0.03457741  0.88156716  1
  Cr  Cr3  1  0.74960460  0.46541679  0.11840889  1
  Cr  Cr4  1  0.25035330  0.53459637  0.88160793  1
  Cr  Cr5  1  0.25030580  0.96536401  0.11838730  1
  Cr  Cr6  1  0.75028698  0.96537910  0.38151239  1
  Cr  Cr7  1  0.24970280  0.46538755  0.38154134  1
  Mo  Mo8  1  0.60451900  0.61640171  0.35511203  1
  Mo  Mo9  1  0.52731502  0.74995621  0.00005525  1
  Mo  Mo10  1  0.47267644  0.25002339  0.00003699  1
  Mo  Mo11  1  0.39551511  0.11640579  0.35513822  1
  Mo  Mo12  1  0.39555924  0.38357293  0.64488042  1
  Mo  Mo13  1  0.10445106  0.88351703  0.85509918  1
  Mo  Mo14  1  0.97261439  0.25002403  0.50003149  1
  Mo  Mo15  1  0.89553157  0.11649729  0.14490562  1
  Mo  Mo16  1  0.02736535  0.74999159  0.50001091  1
  Mo  Mo17  1  0.60447610  0.88355804  0.64483627  1
  Mo  Mo18  1  0.89550152  0.38364631  0.85517955  1
  Mo  Mo19  1  0.10438847  0.61648566  0.14486134  1
  O  O20  1  0.31992868  0.43051052  0.52398070  1
  O  O21  1  0.41520535  0.90673151  0.64167378  1
  O  O22  1  0.18022196  0.93041882  0.97593919  1
  O  O23  1  0.58287565  0.16132565  0.90842325  1
  O  O24  1  0.18015223  0.56959402  0.02409718  1
  O  O25  1  0.91719893  0.66116849  0.59164695  1
  O  O26  1  0.58481195  0.40676627  0.64182079  1
  O  O27  1  0.81976085  0.06952082  0.02413599  1
  O  O28  1  0.85964205  0.29936853  0.16925042  1
  O  O29  1  0.64001675  0.79920128  0.33050106  1
  O  O30  1  0.91515321  0.90673772  0.85817489  1
  O  O31  1  0.58317449  0.33903091  0.09145712  1
  O  O32  1  0.63645361  0.87245420  0.93239468  1
  O  O33  1  0.35995483  0.29924011  0.33046857  1
  O  O34  1  0.14016477  0.70074066  0.83050178  1
  O  O35  1  0.41705395  0.83861894  0.09167829  1
  O  O36  1  0.36358668  0.12752344  0.06780364  1
  O  O37  1  0.85987343  0.20086708  0.83063896  1
  O  O38  1  0.08478017  0.09325176  0.14196030  1
  O  O39  1  0.58479304  0.09325475  0.35816857  1
  O  O40  1  0.68017252  0.56938975  0.47589052  1
  O  O41  1  0.31904870  0.00433498  0.25956911  1
  O  O42  1  0.91716157  0.83883434  0.40834407  1
  O  O43  1  0.86358453  0.12730815  0.43236336  1
  O  O44  1  0.81973892  0.43051325  0.97607117  1
  O  O45  1  0.35996683  0.20078361  0.66954005  1
  O  O46  1  0.41527134  0.59317134  0.35826188  1
  O  O47  1  0.64003397  0.70073384  0.66945657  1
  O  O48  1  0.36363844  0.37269462  0.93240293  1
  O  O49  1  0.86360047  0.37273165  0.56762789  1
  O  O50  1  0.91510837  0.59282310  0.14178268  1
  O  O51  1  0.68102723  0.50443043  0.25942111  1
  O  O52  1  0.13997581  0.79923730  0.16948406  1
  O  O53  1  0.68098100  0.99570995  0.74037533  1
  O  O54  1  0.31994068  0.06947698  0.47598498  1
  O  O55  1  0.08474656  0.40692716  0.85813591  1
  O  O56  1  0.68011535  0.93052491  0.52400140  1
  O  O57  1  0.81910801  0.49570869  0.75961209  1
  O  O58  1  0.08279381  0.33880543  0.40832447  1
  O  O59  1  0.31907175  0.49564514  0.74042463  1
  O  O60  1  0.18095634  0.50448442  0.24043114  1
  O  O61  1  0.41715585  0.66116187  0.90842895  1
  O  O62  1  0.13639586  0.62723842  0.43236500  1
  O  O63  1  0.81914557  0.00441131  0.24046159  1
  O  O64  1  0.13638608  0.87273376  0.56761676  1
  O  O65  1  0.63642507  0.62708070  0.06765572  1
  O  O66  1  0.08282288  0.16118770  0.59167278  1
  O  O67  1  0.18101524  0.99550700  0.75954205  1
