# generated using pymatgen
data_CuReO4
_symmetry_space_group_name_H-M   'P 1'
_cell_length_a   7.80441562
_cell_length_b   10.55301327
_cell_length_c   10.55217136
_cell_angle_alpha   82.20430937
_cell_angle_beta   68.26383218
_cell_angle_gamma   68.35273136
_symmetry_Int_Tables_number   1
_chemical_formula_structural   CuReO4
_chemical_formula_sum   'Cu8 Re8 O32'
_cell_volume   750.34924892
_cell_formula_units_Z   8
loop_
 _symmetry_equiv_pos_site_id
 _symmetry_equiv_pos_as_xyz
  1  'x, y, z'
loop_
 _atom_site_type_symbol
 _atom_site_label
 _atom_site_symmetry_multiplicity
 _atom_site_fract_x
 _atom_site_fract_y
 _atom_site_fract_z
 _atom_site_occupancy
  Cu  Cu0  1  0.68377124  0.72071233  0.04384339  1
  Cu  Cu1  1  0.47522466  0.22258191  0.45600323  1
  Cu  Cu2  1  0.94903760  0.95602511  0.27905043  1
  Cu  Cu3  1  0.15629267  0.77750015  0.54780719  1
  Cu  Cu4  1  0.44863475  0.27890001  0.95413850  1
  Cu  Cu5  1  0.18182402  0.05031105  0.72303723  1
  Cu  Cu6  1  0.65377686  0.54580723  0.77710134  1
  Cu  Cu7  1  0.97846549  0.45225091  0.22430607  1
  Re  Re8  1  0.35104613  0.54637290  0.25934834  1
  Re  Re9  1  0.85019469  0.25703741  0.54625079  1
  Re  Re10  1  0.36048364  0.04632335  0.24042251  1
  Re  Re11  1  0.85744048  0.24207140  0.04691725  1
  Re  Re12  1  0.64765631  0.95448218  0.75817473  1
  Re  Re13  1  0.65542202  0.74225074  0.45435843  1
  Re  Re14  1  0.14705470  0.75806558  0.95478233  1
  Re  Re15  1  0.15316874  0.45472953  0.74296379  1
  O  O16  1  0.20474835  0.60370962  0.67356566  1
  O  O17  1  0.10958859  0.88907393  0.83419626  1
  O  O18  1  0.63957026  0.31634019  0.00626271  1
  O  O19  1  0.96411732  0.68217227  0.99544048  1
  O  O20  1  0.89426444  0.49603468  0.81881395  1
  O  O21  1  0.26788490  0.38424175  0.86504456  1
  O  O22  1  0.20632143  0.50598409  0.18566164  1
  O  O23  1  0.19329928  0.66578559  0.39177705  1
  O  O24  1  0.24410818  0.33563378  0.61048329  1
  O  O25  1  0.48130969  0.39671150  0.32816091  1
  O  O26  1  0.14114150  0.00723544  0.31506221  1
  O  O27  1  0.46287317  0.99662481  0.68397117  1
  O  O28  1  0.51707572  0.61655354  0.13605120  1
  O  O29  1  0.12562338  0.82890588  0.10412723  1
  O  O30  1  0.69225263  0.39016316  0.66503222  1
  O  O31  1  0.05744852  0.17344337  0.89702240  1
  O  O32  1  0.63079821  0.10371508  0.82665062  1
  O  O33  1  0.98089780  0.32556152  0.39622336  1
  O  O34  1  0.77099517  0.86383103  0.38292770  1
  O  O35  1  0.83073890  0.10973219  0.16592900  1
  O  O36  1  0.39701053  0.81863181  0.49428747  1
  O  O37  1  0.88384713  0.88279027  0.63529944  1
  O  O38  1  0.90031914  0.36478160  0.11787686  1
  O  O39  1  0.70671003  0.18207500  0.50584696  1
  O  O40  1  0.33443814  0.16562519  0.10823187  1
  O  O41  1  0.74717173  0.60913055  0.33607589  1
  O  O42  1  0.01577227  0.13440169  0.61690469  1
  O  O43  1  0.55875360  0.89638868  0.17110157  1
  O  O44  1  0.40431088  0.11617728  0.36339999  1
  O  O45  1  0.38396022  0.63506889  0.88668619  1
  O  O46  1  0.60674053  0.83587301  0.89084348  1
  O  O47  1  0.70348034  0.67401583  0.60475442  1
