# generated using pymatgen
data_UCl2O
_symmetry_space_group_name_H-M   'P 1'
_cell_length_a   3.99010048
_cell_length_b   15.28361206
_cell_length_c   17.98446862
_cell_angle_alpha   90.00000000
_cell_angle_beta   90.00000000
_cell_angle_gamma   90.00000000
_symmetry_Int_Tables_number   1
_chemical_formula_structural   UCl2O
_chemical_formula_sum   'U12 Cl24 O12'
_cell_volume   1096.74950826
_cell_formula_units_Z   12
loop_
 _symmetry_equiv_pos_site_id
 _symmetry_equiv_pos_as_xyz
  1  'x, y, z'
loop_
 _atom_site_type_symbol
 _atom_site_label
 _atom_site_symmetry_multiplicity
 _atom_site_fract_x
 _atom_site_fract_y
 _atom_site_fract_z
 _atom_site_occupancy
  U  U0  1  0.00000000  0.84105602  0.83580002  1
  U  U1  1  0.50000000  0.66371339  0.75143209  1
  U  U2  1  0.50000000  0.21822656  0.52668567  1
  U  U3  1  0.00000000  0.65894398  0.33580002  1
  U  U4  1  0.50000000  0.16371339  0.74856791  1
  U  U5  1  0.50000000  0.78177344  0.47331433  1
  U  U6  1  0.50000000  0.71822656  0.97331433  1
  U  U7  1  0.50000000  0.28177344  0.02668567  1
  U  U8  1  0.00000000  0.34105602  0.66419998  1
  U  U9  1  0.50000000  0.83628661  0.25143209  1
  U  U10  1  0.50000000  0.33628661  0.24856791  1
  U  U11  1  0.00000000  0.15894398  0.16419998  1
  Cl  Cl12  1  0.50000000  0.57112674  0.88274664  1
  Cl  Cl13  1  0.50000000  0.36081827  0.78089168  1
  Cl  Cl14  1  0.50000000  0.67471278  0.59653846  1
  Cl  Cl15  1  0.00000000  0.62194003  0.04521115  1
  Cl  Cl16  1  0.50000000  0.56612095  0.41509254  1
  Cl  Cl17  1  0.50000000  0.17471278  0.90346154  1
  Cl  Cl18  1  0.50000000  0.43387905  0.58490746  1
  Cl  Cl19  1  0.00000000  0.87805997  0.54521115  1
  Cl  Cl20  1  0.50000000  0.63918173  0.21910832  1
  Cl  Cl21  1  0.00000000  0.96960525  0.21712699  1
  Cl  Cl22  1  0.50000000  0.07112674  0.61725336  1
  Cl  Cl23  1  0.00000000  0.53039475  0.71712699  1
  Cl  Cl24  1  0.00000000  0.37805997  0.95478885  1
  Cl  Cl25  1  0.00000000  0.46960525  0.28287301  1
  Cl  Cl26  1  0.50000000  0.06612095  0.08490746  1
  Cl  Cl27  1  0.50000000  0.93387905  0.91509254  1
  Cl  Cl28  1  0.50000000  0.13918173  0.28089168  1
  Cl  Cl29  1  0.00000000  0.03039475  0.78287301  1
  Cl  Cl30  1  0.50000000  0.86081827  0.71910832  1
  Cl  Cl31  1  0.50000000  0.82528722  0.09653846  1
  Cl  Cl32  1  0.50000000  0.32528722  0.40346154  1
  Cl  Cl33  1  0.50000000  0.42887326  0.11725336  1
  Cl  Cl34  1  0.50000000  0.92887326  0.38274664  1
  Cl  Cl35  1  0.00000000  0.12194003  0.45478885  1
  O  O36  1  0.00000000  0.27231828  0.55489514  1
  O  O37  1  0.00000000  0.72768172  0.44510486  1
  O  O38  1  0.00000000  0.77231828  0.94510486  1
  O  O39  1  0.00000000  0.71410057  0.76589265  1
  O  O40  1  0.50000000  0.26010804  0.64848671  1
  O  O41  1  0.00000000  0.22768172  0.05489514  1
  O  O42  1  0.00000000  0.78589943  0.26589265  1
  O  O43  1  0.50000000  0.76010804  0.85151329  1
  O  O44  1  0.50000000  0.23989196  0.14848671  1
  O  O45  1  0.50000000  0.73989196  0.35151329  1
  O  O46  1  0.00000000  0.28589943  0.23410735  1
  O  O47  1  0.00000000  0.21410057  0.73410735  1
