# generated using pymatgen
data_Ce(In2Pd)2
_symmetry_space_group_name_H-M   'P 1'
_cell_length_a   4.52914340
_cell_length_b   7.32565399
_cell_length_c   18.33435450
_cell_angle_alpha   89.95758248
_cell_angle_beta   90.00855191
_cell_angle_gamma   90.01167488
_symmetry_Int_Tables_number   1
_chemical_formula_structural   Ce(In2Pd)2
_chemical_formula_sum   'Ce4 In16 Pd8'
_cell_volume   608.31421403
_cell_formula_units_Z   4
loop_
 _symmetry_equiv_pos_site_id
 _symmetry_equiv_pos_as_xyz
  1  'x, y, z'
loop_
 _atom_site_type_symbol
 _atom_site_label
 _atom_site_symmetry_multiplicity
 _atom_site_fract_x
 _atom_site_fract_y
 _atom_site_fract_z
 _atom_site_occupancy
  Ce  Ce0  1  0.25003743  0.54014909  0.35800070  1
  Ce  Ce1  1  0.75004857  0.03990779  0.14193102  1
  Ce  Ce2  1  0.74989830  0.45998043  0.64206724  1
  Ce  Ce3  1  0.25014875  0.95993539  0.85796152  1
  In  In4  1  0.74996799  0.25377852  0.80872533  1
  In  In5  1  0.75004498  0.51160957  0.07059170  1
  In  In6  1  0.75001339  0.65512216  0.81395638  1
  In  In7  1  0.25006877  0.01166222  0.42942679  1
  In  In8  1  0.74995237  0.35388438  0.46651545  1
  In  In9  1  0.24996979  0.75378267  0.69125544  1
  In  In10  1  0.25000611  0.64614943  0.53363979  1
  In  In11  1  0.25001787  0.85380159  0.03344566  1
  In  In12  1  0.74998505  0.24607959  0.30877264  1
  In  In13  1  0.24997931  0.48838657  0.92933984  1
  In  In14  1  0.25000286  0.15515488  0.68608203  1
  In  In15  1  0.75003333  0.84497901  0.31399132  1
  In  In16  1  0.24998947  0.74598107  0.19127895  1
  In  In17  1  0.75006438  0.98844650  0.57069535  1
  In  In18  1  0.25001554  0.34510660  0.18600123  1
  In  In19  1  0.74999791  0.14601583  0.96630681  1
  Pd  Pd20  1  0.24997244  0.23868169  0.04281161  1
  Pd  Pd21  1  0.74994503  0.54878844  0.22235518  1
  Pd  Pd22  1  0.74996831  0.76145932  0.95701582  1
  Pd  Pd23  1  0.24998174  0.26138448  0.54293196  1
  Pd  Pd24  1  0.74996282  0.73857397  0.45712795  1
  Pd  Pd25  1  0.24991010  0.45119420  0.77769875  1
  Pd  Pd26  1  0.75004481  0.95130255  0.72237547  1
  Pd  Pd27  1  0.24997258  0.04870205  0.27769806  1
