# generated using pymatgen
data_Y6Te2Pd
_symmetry_space_group_name_H-M   'P 1'
_cell_length_a   4.03025570
_cell_length_b   11.53454541
_cell_length_c   22.00054426
_cell_angle_alpha   89.98934221
_cell_angle_beta   89.99959167
_cell_angle_gamma   90.00022846
_symmetry_Int_Tables_number   1
_chemical_formula_structural   Y6Te2Pd
_chemical_formula_sum   'Y24 Te8 Pd4'
_cell_volume   1022.74296611
_cell_formula_units_Z   4
loop_
 _symmetry_equiv_pos_site_id
 _symmetry_equiv_pos_as_xyz
  1  'x, y, z'
loop_
 _atom_site_type_symbol
 _atom_site_label
 _atom_site_symmetry_multiplicity
 _atom_site_fract_x
 _atom_site_fract_y
 _atom_site_fract_z
 _atom_site_occupancy
  Y  Y0  1  0.25000024  0.07563184  0.35445161  1
  Y  Y1  1  0.75000270  0.67413196  0.89143460  1
  Y  Y2  1  0.74999617  0.38578751  0.98757310  1
  Y  Y3  1  0.24999804  0.32582761  0.10856246  1
  Y  Y4  1  0.24999935  0.37940872  0.47472966  1
  Y  Y5  1  0.24999870  0.12058100  0.97474937  1
  Y  Y6  1  0.25000059  0.88573862  0.51241043  1
  Y  Y7  1  0.74999636  0.92437617  0.64556534  1
  Y  Y8  1  0.74999781  0.57561800  0.14556169  1
  Y  Y9  1  0.74999871  0.24604715  0.73389926  1
  Y  Y10  1  0.74999531  0.54100000  0.34597330  1
  Y  Y11  1  0.74999814  0.25397037  0.23394471  1
  Y  Y12  1  0.24999785  0.75398330  0.26610090  1
  Y  Y13  1  0.25000007  0.17428771  0.60854674  1
  Y  Y14  1  0.75000301  0.62054641  0.52524046  1
  Y  Y15  1  0.25000445  0.74602787  0.76608017  1
  Y  Y16  1  0.24999880  0.04099308  0.15406140  1
  Y  Y17  1  0.75000032  0.95894707  0.84595998  1
  Y  Y18  1  0.25000277  0.45892579  0.65401619  1
  Y  Y19  1  0.25000168  0.61417735  0.01239084  1
  Y  Y20  1  0.75000181  0.82580914  0.39143806  1
  Y  Y21  1  0.24999869  0.42437900  0.85442561  1
  Y  Y22  1  0.74999638  0.11424519  0.48757181  1
  Y  Y23  1  0.75000204  0.87942168  0.02528211  1
  Te  Te24  1  0.25000436  0.46933036  0.23904355  1
  Te  Te25  1  0.25000124  0.77829078  0.12652585  1
  Te  Te26  1  0.74999784  0.27831369  0.37349756  1
  Te  Te27  1  0.75000072  0.53068262  0.76096618  1
  Te  Te28  1  0.74999815  0.22178455  0.87350604  1
  Te  Te29  1  0.75000092  0.96929082  0.26098582  1
  Te  Te30  1  0.25000091  0.72168124  0.62647307  1
  Te  Te31  1  0.25000168  0.03071219  0.73902032  1
  Pd  Pd32  1  0.25000065  0.64577513  0.42659482  1
  Pd  Pd33  1  0.75000330  0.35425013  0.57336426  1
  Pd  Pd34  1  0.74999711  0.14586370  0.07340089  1
  Pd  Pd35  1  0.25000313  0.85416226  0.92665184  1
