# generated using pymatgen
data_CsK5Zn4Sn5S17
_symmetry_space_group_name_H-M   'P 1'
_cell_length_a   9.69880629
_cell_length_b   11.02064857
_cell_length_c   11.02068519
_cell_angle_alpha   78.83765747
_cell_angle_beta   63.89416781
_cell_angle_gamma   63.89429396
_symmetry_Int_Tables_number   1
_chemical_formula_structural   CsK5Zn4Sn5S17
_chemical_formula_sum   'Cs1 K5 Zn4 Sn5 S17'
_cell_volume   949.88390787
_cell_formula_units_Z   1
loop_
 _symmetry_equiv_pos_site_id
 _symmetry_equiv_pos_as_xyz
  1  'x, y, z'
loop_
 _atom_site_type_symbol
 _atom_site_label
 _atom_site_symmetry_multiplicity
 _atom_site_fract_x
 _atom_site_fract_y
 _atom_site_fract_z
 _atom_site_occupancy
  Cs  Cs0  1  0.49999542  0.99999650  0.00000013  1
  K  K1  1  0.48942596  0.02123460  0.50002956  1
  K  K2  1  0.01057177  0.49996258  0.97877394  1
  K  K3  1  0.01057105  0.97876343  0.49996627  1
  K  K4  1  0.75000251  0.49999902  0.49999152  1
  K  K5  1  0.48943224  0.50003308  0.02122173  1
  Zn  Zn6  1  0.38942190  0.63857441  0.36140216  1
  Zn  Zn7  1  0.24919123  0.36139827  0.36139902  1
  Zn  Zn8  1  0.38942199  0.36140229  0.63857426  1
  Zn  Zn9  1  0.97197197  0.63858776  0.63858759  1
  Sn  Sn10  1  0.24987003  0.72421016  0.72421193  1
  Sn  Sn11  1  0.00011599  0.00005072  0.00003660  1
  Sn  Sn12  1  0.69844932  0.27579108  0.27579325  1
  Sn  Sn13  1  0.02579821  0.27583203  0.72424455  1
  Sn  Sn14  1  0.02579775  0.72424506  0.27583056  1
  S  S15  1  0.66796871  0.22133134  0.50584512  1
  S  S16  1  0.95912770  0.78122715  0.78123241  1
  S  S17  1  0.11066960  0.49416093  0.22134214  1
  S  S18  1  0.66796828  0.50584826  0.22133518  1
  S  S19  1  0.82622426  0.77862676  0.50579133  1
  S  S20  1  0.52158786  0.21878871  0.21878610  1
  S  S21  1  0.25964885  0.21875904  0.78123181  1
  S  S22  1  0.28671639  0.85733073  0.85733352  1
  S  S23  1  0.85591079  0.85730166  0.14266890  1
  S  S24  1  0.39514154  0.77865259  0.49419505  1
  S  S25  1  0.00141469  0.14266525  0.14266837  1
  S  S26  1  0.85591446  0.14266351  0.85730302  1
  S  S27  1  0.39514181  0.49419601  0.77864947  1
  S  S28  1  0.82622647  0.50578975  0.77862776  1
  S  S29  1  0.25965076  0.78123051  0.21875939  1
  S  S30  1  0.24998629  0.50000324  0.50000475  1
  S  S31  1  0.11066421  0.22134362  0.49416259  1
