# generated using pymatgen
data_Ce2In3Ru2
_symmetry_space_group_name_H-M   'P 1'
_cell_length_a   4.70903456
_cell_length_b   7.52404518
_cell_length_c   17.71355529
_cell_angle_alpha   90.06157739
_cell_angle_beta   90.01007454
_cell_angle_gamma   90.00078300
_symmetry_Int_Tables_number   1
_chemical_formula_structural   Ce2In3Ru2
_chemical_formula_sum   'Ce8 In12 Ru8'
_cell_volume   627.60840657
_cell_formula_units_Z   4
loop_
 _symmetry_equiv_pos_site_id
 _symmetry_equiv_pos_as_xyz
  1  'x, y, z'
loop_
 _atom_site_type_symbol
 _atom_site_label
 _atom_site_symmetry_multiplicity
 _atom_site_fract_x
 _atom_site_fract_y
 _atom_site_fract_z
 _atom_site_occupancy
  Ce  Ce0  1  0.75018445  0.06308881  0.14609276  1
  Ce  Ce1  1  0.24990973  0.56291784  0.35418425  1
  Ce  Ce2  1  0.25006997  0.44741015  0.92454741  1
  Ce  Ce3  1  0.74981963  0.94768522  0.57496634  1
  Ce  Ce4  1  0.24984460  0.93709007  0.85363356  1
  Ce  Ce5  1  0.74995824  0.43745570  0.64616189  1
  Ce  Ce6  1  0.24988439  0.05203925  0.42511766  1
  Ce  Ce7  1  0.75024764  0.55318149  0.07538190  1
  In  In8  1  0.25031035  0.76950691  0.19366079  1
  In  In9  1  0.74995006  0.12622536  0.96726583  1
  In  In10  1  0.24991150  0.62653444  0.53251432  1
  In  In11  1  0.25021368  0.35826301  0.18535133  1
  In  In12  1  0.74991869  0.26898583  0.30684478  1
  In  In13  1  0.24991670  0.14171410  0.68518914  1
  In  In14  1  0.74995480  0.37322391  0.46825367  1
  In  In15  1  0.74993235  0.64204989  0.81457511  1
  In  In16  1  0.74992193  0.23050596  0.80627440  1
  In  In17  1  0.74992452  0.85869054  0.31486552  1
  In  In18  1  0.25014495  0.87305979  0.03188255  1
  In  In19  1  0.24999797  0.73069991  0.69334872  1
  Ru  Ru20  1  0.24997776  0.23915131  0.53178910  1
  Ru  Ru21  1  0.24989528  0.43442124  0.78894919  1
  Ru  Ru22  1  0.24999060  0.26035997  0.03152515  1
  Ru  Ru23  1  0.24983003  0.06570148  0.28982912  1
  Ru  Ru24  1  0.75010771  0.73994702  0.96805904  1
  Ru  Ru25  1  0.75001171  0.93429802  0.71052976  1
  Ru  Ru26  1  0.75032491  0.56555861  0.21079449  1
  Ru  Ru27  1  0.74984589  0.76023417  0.46841223  1
