# generated using pymatgen
data_KEu(WO4)2
_symmetry_space_group_name_H-M   'P 1'
_cell_length_a   7.75231546
_cell_length_b   7.75231518
_cell_length_c   7.48463127
_cell_angle_alpha   62.52403357
_cell_angle_beta   62.52403447
_cell_angle_gamma   88.96685943
_symmetry_Int_Tables_number   1
_chemical_formula_structural   KEu(WO4)2
_chemical_formula_sum   'K2 Eu2 W4 O16'
_cell_volume   343.04488774
_cell_formula_units_Z   2
loop_
 _symmetry_equiv_pos_site_id
 _symmetry_equiv_pos_as_xyz
  1  'x, y, z'
loop_
 _atom_site_type_symbol
 _atom_site_label
 _atom_site_symmetry_multiplicity
 _atom_site_fract_x
 _atom_site_fract_y
 _atom_site_fract_z
 _atom_site_occupancy
  Eu  Eu0  1  0.27410828  0.72589172  0.25000000  1
  Eu  Eu1  1  0.72589172  0.27410828  0.75000000  1
  K  K2  1  0.29352833  0.70647167  0.75000000  1
  K  K3  1  0.70647167  0.29352833  0.25000000  1
  W  W4  1  0.18987595  0.19996081  0.78488156  1
  W  W5  1  0.81012405  0.80003919  0.21511844  1
  W  W6  1  0.80003919  0.81012405  0.71511844  1
  W  W7  1  0.19996081  0.18987595  0.28488156  1
  O  O8  1  0.45423439  0.27957339  0.68331901  1
  O  O9  1  0.24868439  0.12468074  0.55754208  1
  O  O10  1  0.12468074  0.24868439  0.05754208  1
  O  O11  1  0.12796664  0.91157103  0.02794815  1
  O  O12  1  0.27957339  0.45423439  0.18331901  1
  O  O13  1  0.72042661  0.54576561  0.81668099  1
  O  O14  1  0.12672843  0.43468198  0.63218886  1
  O  O15  1  0.87531926  0.75131561  0.94245792  1
  O  O16  1  0.54576561  0.72042661  0.31668099  1
  O  O17  1  0.43468198  0.12672843  0.13218886  1
  O  O18  1  0.75131561  0.87531926  0.44245792  1
  O  O19  1  0.08842897  0.87203336  0.47205185  1
  O  O20  1  0.91157103  0.12796664  0.52794815  1
  O  O21  1  0.87203336  0.08842897  0.97205185  1
  O  O22  1  0.56531802  0.87327157  0.86781114  1
  O  O23  1  0.87327157  0.56531802  0.36781114  1
