# generated using pymatgen
data_KCu7TeS5ClO24
_symmetry_space_group_name_H-M   'P 1'
_cell_length_a   9.94712531
_cell_length_b   9.94712531
_cell_length_c   20.79878094
_cell_angle_alpha   90.00000000
_cell_angle_beta   90.00000000
_cell_angle_gamma   90.00000000
_symmetry_Int_Tables_number   1
_chemical_formula_structural   KCu7TeS5ClO24
_chemical_formula_sum   'K4 Cu28 Te4 S20 Cl4 O96'
_cell_volume   2057.94165994
_cell_formula_units_Z   4
loop_
 _symmetry_equiv_pos_site_id
 _symmetry_equiv_pos_as_xyz
  1  'x, y, z'
loop_
 _atom_site_type_symbol
 _atom_site_label
 _atom_site_symmetry_multiplicity
 _atom_site_fract_x
 _atom_site_fract_y
 _atom_site_fract_z
 _atom_site_occupancy
  K  K0  1  0.25000000  0.75000000  0.75000000  1
  K  K1  1  0.25000000  0.75000000  0.25000000  1
  K  K2  1  0.75000000  0.25000000  0.75000000  1
  K  K3  1  0.75000000  0.25000000  0.25000000  1
  Cu  Cu4  1  0.51626453  0.72609746  0.10491448  1
  Cu  Cu5  1  0.75000000  0.75000000  0.80079157  1
  Cu  Cu6  1  0.22609746  0.48373547  0.89508552  1
  Cu  Cu7  1  0.00000000  0.00000000  0.00000000  1
  Cu  Cu8  1  0.27390254  0.01626453  0.89508552  1
  Cu  Cu9  1  0.75000000  0.75000000  0.30079157  1
  Cu  Cu10  1  0.25000000  0.25000000  0.69920843  1
  Cu  Cu11  1  0.98373547  0.77390254  0.10491448  1
  Cu  Cu12  1  0.50000000  0.50000000  0.50000000  1
  Cu  Cu13  1  0.22609746  0.01626453  0.39508552  1
  Cu  Cu14  1  0.00000000  0.50000000  0.50000000  1
  Cu  Cu15  1  0.77390254  0.51626453  0.10491448  1
  Cu  Cu16  1  0.01626453  0.27390254  0.39508552  1
  Cu  Cu17  1  0.98373547  0.72609746  0.60491448  1
  Cu  Cu18  1  0.50000000  0.00000000  0.00000000  1
  Cu  Cu19  1  0.48373547  0.22609746  0.39508552  1
  Cu  Cu20  1  0.00000000  0.00000000  0.50000000  1
  Cu  Cu21  1  0.27390254  0.48373547  0.39508552  1
  Cu  Cu22  1  0.77390254  0.98373547  0.60491448  1
  Cu  Cu23  1  0.50000000  0.50000000  0.00000000  1
  Cu  Cu24  1  0.01626453  0.22609746  0.89508552  1
  Cu  Cu25  1  0.25000000  0.25000000  0.19920843  1
  Cu  Cu26  1  0.50000000  0.00000000  0.50000000  1
  Cu  Cu27  1  0.00000000  0.50000000  0.00000000  1
  Cu  Cu28  1  0.72609746  0.98373547  0.10491448  1
  Cu  Cu29  1  0.72609746  0.51626453  0.60491448  1
  Cu  Cu30  1  0.51626453  0.77390254  0.60491448  1
  Cu  Cu31  1  0.48373547  0.27390254  0.89508552  1
  Te  Te32  1  0.75000000  0.75000000  0.00242338  1
  Te  Te33  1  0.75000000  0.75000000  0.50242338  1
  Te  Te34  1  0.25000000  0.25000000  0.99757662  1
  Te  Te35  1  0.25000000  0.25000000  0.49757662  1
  S  S36  1  0.56725134  0.50660773  0.35273564  1
  S  S37  1  0.43274866  0.49339227  0.64726436  1
  S  S38  1  0.99339227  0.56725134  0.35273564  1
  S  S39  1  0.49339227  0.06725134  0.64726436  1
  S  S40  1  0.50660773  0.56725134  0.85273564  1
  S  S41  1  0.50660773  0.93274866  0.35273564  1
  S  S42  1  0.00660773  0.06725134  0.14726436  1
  S  S43  1  0.25000000  0.75000000  0.00000000  1
  S  S44  1  0.99339227  0.93274866  0.85273564  1
  S  S45  1  0.06725134  0.00660773  0.64726436  1
  S  S46  1  0.25000000  0.75000000  0.50000000  1
  S  S47  1  0.49339227  0.43274866  0.14726436  1
  S  S48  1  0.93274866  0.50660773  0.85273564  1
  S  S49  1  0.00660773  0.43274866  0.64726436  1
  S  S50  1  0.75000000  0.25000000  0.00000000  1
  S  S51  1  0.43274866  0.00660773  0.14726436  1
  S  S52  1  0.75000000  0.25000000  0.50000000  1
  S  S53  1  0.93274866  0.99339227  0.35273564  1
  S  S54  1  0.56725134  0.99339227  0.85273564  1
  S  S55  1  0.06725134  0.49339227  0.14726436  1
  Cl  Cl56  1  0.25000000  0.25000000  0.82256529  1
  Cl  Cl57  1  0.25000000  0.25000000  0.32256529  1
  Cl  Cl58  1  0.75000000  0.75000000  0.17743471  1
  Cl  Cl59  1  0.75000000  0.75000000  0.67743471  1
  O  O60  1  0.60316991  0.54526464  0.42056135  1
  O  O61  1  0.41510989  0.85822290  0.15618560  1
  O  O62  1  0.08489011  0.64177710  0.15618560  1
  O  O63  1  0.34510345  0.67101090  0.04043642  1
  O  O64  1  0.16318814  0.07012207  0.69233549  1
  O  O65  1  0.04526464  0.39683009  0.57943865  1
  O  O66  1  0.92683848  0.45324913  0.16213287  1
  O  O67  1  0.33681186  0.07012207  0.19233549  1
  O  O68  1  0.42683848  0.54675087  0.33786713  1
  O  O69  1  0.10316991  0.45473536  0.07943865  1
  O  O70  1  0.91510989  0.14177710  0.34381440  1
  O  O71  1  0.84510345  0.17101090  0.95956358  1
  O  O72  1  0.58489011  0.14177710  0.84381440  1
  O  O73  1  0.45473536  0.39683009  0.07943865  1
  O  O74  1  0.92683848  0.04675087  0.66213287  1
  O  O75  1  0.92987793  0.83681186  0.80766451  1
  O  O76  1  0.45473536  0.10316991  0.57943865  1
  O  O77  1  0.57316152  0.04675087  0.16213287  1
  O  O78  1  0.60910641  0.86494305  0.04940920  1
  O  O79  1  0.65489655  0.32898910  0.95956358  1
  O  O80  1  0.10910641  0.36494305  0.95059080  1
  O  O81  1  0.04675087  0.92683848  0.16213287  1
  O  O82  1  0.89089359  0.86494305  0.54940920  1
  O  O83  1  0.39683009  0.45473536  0.57943865  1
  O  O84  1  0.36494305  0.39089359  0.95059080  1
  O  O85  1  0.83681186  0.92987793  0.30766451  1
  O  O86  1  0.15489655  0.67101090  0.54043642  1
  O  O87  1  0.64177710  0.41510989  0.15618560  1
  O  O88  1  0.07012207  0.33681186  0.69233549  1
  O  O89  1  0.91510989  0.35822290  0.84381440  1
  O  O90  1  0.14177710  0.91510989  0.84381440  1
  O  O91  1  0.45324913  0.92683848  0.66213287  1
  O  O92  1  0.54526464  0.60316991  0.92056135  1
  O  O93  1  0.82898910  0.15489655  0.54043642  1
  O  O94  1  0.08489011  0.85822290  0.65618560  1
  O  O95  1  0.95473536  0.89683009  0.92056135  1
  O  O96  1  0.57012207  0.66318814  0.80766451  1
  O  O97  1  0.83681186  0.57012207  0.80766451  1
  O  O98  1  0.54675087  0.07316152  0.33786713  1
  O  O99  1  0.85822290  0.08489011  0.15618560  1
  O  O100  1  0.57012207  0.83681186  0.30766451  1
  O  O101  1  0.95473536  0.60316991  0.42056135  1
  O  O102  1  0.63505695  0.60910641  0.04940920  1
  O  O103  1  0.07316152  0.54675087  0.83786713  1
  O  O104  1  0.54675087  0.42683848  0.83786713  1
  O  O105  1  0.86494305  0.89089359  0.04940920  1
  O  O106  1  0.42987793  0.33681186  0.19233549  1
  O  O107  1  0.33681186  0.42987793  0.69233549  1
  O  O108  1  0.04526464  0.10316991  0.07943865  1
  O  O109  1  0.36494305  0.10910641  0.45059080  1
  O  O110  1  0.54526464  0.89683009  0.42056135  1
  O  O111  1  0.15489655  0.82898910  0.04043642  1
  O  O112  1  0.10910641  0.13505695  0.45059080  1
  O  O113  1  0.39683009  0.04526464  0.07943865  1
  O  O114  1  0.85822290  0.41510989  0.65618560  1
  O  O115  1  0.13505695  0.39089359  0.45059080  1
  O  O116  1  0.42987793  0.16318814  0.69233549  1
  O  O117  1  0.89683009  0.95473536  0.42056135  1
  O  O118  1  0.92987793  0.66318814  0.30766451  1
  O  O119  1  0.89683009  0.54526464  0.92056135  1
  O  O120  1  0.35822290  0.58489011  0.84381440  1
  O  O121  1  0.60910641  0.63505695  0.54940920  1
  O  O122  1  0.86494305  0.60910641  0.54940920  1
  O  O123  1  0.13505695  0.10910641  0.95059080  1
  O  O124  1  0.39089359  0.36494305  0.45059080  1
  O  O125  1  0.35822290  0.91510989  0.34381440  1
  O  O126  1  0.89089359  0.63505695  0.04940920  1
  O  O127  1  0.95324913  0.07316152  0.83786713  1
  O  O128  1  0.65489655  0.17101090  0.45956358  1
  O  O129  1  0.95324913  0.42683848  0.33786713  1
  O  O130  1  0.07316152  0.95324913  0.33786713  1
  O  O131  1  0.14177710  0.58489011  0.34381440  1
  O  O132  1  0.32898910  0.84510345  0.95956358  1
  O  O133  1  0.34510345  0.82898910  0.54043642  1
  O  O134  1  0.58489011  0.35822290  0.34381440  1
  O  O135  1  0.17101090  0.65489655  0.95956358  1
  O  O136  1  0.57316152  0.45324913  0.66213287  1
  O  O137  1  0.39089359  0.13505695  0.95059080  1
  O  O138  1  0.66318814  0.92987793  0.80766451  1
  O  O139  1  0.64177710  0.08489011  0.65618560  1
  O  O140  1  0.32898910  0.65489655  0.45956358  1
  O  O141  1  0.10316991  0.04526464  0.57943865  1
  O  O142  1  0.17101090  0.84510345  0.45956358  1
  O  O143  1  0.66318814  0.57012207  0.30766451  1
  O  O144  1  0.42683848  0.95324913  0.83786713  1
  O  O145  1  0.45324913  0.57316152  0.16213287  1
  O  O146  1  0.67101090  0.15489655  0.04043642  1
  O  O147  1  0.67101090  0.34510345  0.54043642  1
  O  O148  1  0.16318814  0.42987793  0.19233549  1
  O  O149  1  0.04675087  0.57316152  0.66213287  1
  O  O150  1  0.60316991  0.95473536  0.92056135  1
  O  O151  1  0.41510989  0.64177710  0.65618560  1
  O  O152  1  0.07012207  0.16318814  0.19233549  1
  O  O153  1  0.63505695  0.89089359  0.54940920  1
  O  O154  1  0.84510345  0.32898910  0.45956358  1
  O  O155  1  0.82898910  0.34510345  0.04043642  1
