# generated using pymatgen
data_U2InRh2
_symmetry_space_group_name_H-M   'P 1'
_cell_length_a   3.57744410
_cell_length_b   7.63805026
_cell_length_c   7.64108200
_cell_angle_alpha   89.71214373
_cell_angle_beta   89.94438466
_cell_angle_gamma   89.94580216
_symmetry_Int_Tables_number   1
_chemical_formula_structural   U2InRh2
_chemical_formula_sum   'U4 In2 Rh4'
_cell_volume   208.78743101
_cell_formula_units_Z   2
loop_
 _symmetry_equiv_pos_site_id
 _symmetry_equiv_pos_as_xyz
  1  'x, y, z'
loop_
 _atom_site_type_symbol
 _atom_site_label
 _atom_site_symmetry_multiplicity
 _atom_site_fract_x
 _atom_site_fract_y
 _atom_site_fract_z
 _atom_site_occupancy
  U  U0  1  0.50055268  0.83457298  0.33462170  1
  U  U1  1  0.49993124  0.66535262  0.83441941  1
  U  U2  1  0.49974338  0.33464877  0.16540203  1
  U  U3  1  0.49996180  0.16559287  0.66522235  1
  In  In4  1  0.00024985  -0.00018739  0.99986363  1
  In  In5  1  -0.00022676  0.50001687  0.50007156  1
  Rh  Rh6  1  0.00051670  0.63784280  0.13794156  1
  Rh  Rh7  1  -0.00063004  0.36214801  0.86208873  1
  Rh  Rh8  1  -0.00028319  0.86207117  0.63803557  1
  Rh  Rh9  1  0.00018435  0.13794131  0.36233345  1
