# generated using pymatgen
data_Rb8In11
_symmetry_space_group_name_H-M   'P 1'
_cell_length_a   18.59735648
_cell_length_b   18.59735644
_cell_length_c   18.59735600
_cell_angle_alpha   32.36104010
_cell_angle_beta   32.36104028
_cell_angle_gamma   32.36104097
_symmetry_Int_Tables_number   1
_chemical_formula_structural   Rb8In11
_chemical_formula_sum   'Rb16 In22'
_cell_volume   1638.22544130
_cell_formula_units_Z   2
loop_
 _symmetry_equiv_pos_site_id
 _symmetry_equiv_pos_as_xyz
  1  'x, y, z'
loop_
 _atom_site_type_symbol
 _atom_site_label
 _atom_site_symmetry_multiplicity
 _atom_site_fract_x
 _atom_site_fract_y
 _atom_site_fract_z
 _atom_site_occupancy
  Rb  Rb0  1  0.68120987  0.90723653  0.34618255  1
  Rb  Rb1  1  0.65381745  0.31879013  0.09276347  1
  Rb  Rb2  1  0.09276347  0.65381745  0.31879013  1
  Rb  Rb3  1  0.18120987  0.84618255  0.40723653  1
  Rb  Rb4  1  0.92051459  0.92051459  0.92051459  1
  Rb  Rb5  1  0.57948541  0.57948541  0.57948541  1
  Rb  Rb6  1  0.90723653  0.34618255  0.68120987  1
  Rb  Rb7  1  0.42051459  0.42051459  0.42051459  1
  Rb  Rb8  1  0.31879013  0.09276347  0.65381745  1
  Rb  Rb9  1  0.40723653  0.18120987  0.84618255  1
  Rb  Rb10  1  0.81879013  0.15381745  0.59276347  1
  Rb  Rb11  1  0.15381745  0.59276347  0.81879013  1
  Rb  Rb12  1  0.07948541  0.07948541  0.07948541  1
  Rb  Rb13  1  0.84618255  0.40723653  0.18120987  1
  Rb  Rb14  1  0.59276347  0.81879013  0.15381745  1
  Rb  Rb15  1  0.34618255  0.68120987  0.90723653  1
  In  In16  1  0.29889739  0.29889739  0.29889739  1
  In  In17  1  0.79889739  0.79889739  0.79889739  1
  In  In18  1  0.56739685  0.27200122  0.00031157  1
  In  In19  1  0.93260315  0.49968843  0.22799878  1
  In  In20  1  0.45624357  0.04375643  0.25000000  1
  In  In21  1  0.70110261  0.70110261  0.70110261  1
  In  In22  1  0.27200122  0.00031157  0.56739685  1
  In  In23  1  0.54375643  0.95624357  0.75000000  1
  In  In24  1  0.00031157  0.56739685  0.27200122  1
  In  In25  1  0.22799878  0.93260315  0.49968843  1
  In  In26  1  0.75000000  0.54375643  0.95624357  1
  In  In27  1  0.77200122  0.06739685  0.50031157  1
  In  In28  1  0.20110261  0.20110261  0.20110261  1
  In  In29  1  0.06739685  0.50031157  0.77200122  1
  In  In30  1  0.49968843  0.22799878  0.93260315  1
  In  In31  1  -0.00031157  0.43260315  0.72799878  1
  In  In32  1  0.25000000  0.45624357  0.04375643  1
  In  In33  1  0.72799878  -0.00031157  0.43260315  1
  In  In34  1  0.95624357  0.75000000  0.54375643  1
  In  In35  1  0.04375643  0.25000000  0.45624357  1
  In  In36  1  0.43260315  0.72799878  -0.00031157  1
  In  In37  1  0.50031157  0.77200122  0.06739685  1
