# generated using pymatgen
data_Mg2CoH5
_symmetry_space_group_name_H-M   'P 1'
_cell_length_a   4.45143486
_cell_length_b   4.45143486
_cell_length_c   6.54665155
_cell_angle_alpha   90.00000000
_cell_angle_beta   90.00000000
_cell_angle_gamma   90.00000000
_symmetry_Int_Tables_number   1
_chemical_formula_structural   Mg2CoH5
_chemical_formula_sum   'Mg4 Co2 H10'
_cell_volume   129.72368320
_cell_formula_units_Z   2
loop_
 _symmetry_equiv_pos_site_id
 _symmetry_equiv_pos_as_xyz
  1  'x, y, z'
loop_
 _atom_site_type_symbol
 _atom_site_label
 _atom_site_symmetry_multiplicity
 _atom_site_fract_x
 _atom_site_fract_y
 _atom_site_fract_z
 _atom_site_occupancy
  Mg  Mg0  1  0.75000000  0.25000000  0.00000000  1
  Mg  Mg1  1  0.25000000  0.75000000  0.00000000  1
  Mg  Mg2  1  0.75000000  0.25000000  0.50000000  1
  Mg  Mg3  1  0.25000000  0.75000000  0.50000000  1
  Co  Co4  1  0.75000000  0.75000000  0.74314425  1
  Co  Co5  1  0.25000000  0.25000000  0.25685575  1
  H  H6  1  0.75000000  0.75000000  0.50373646  1
  H  H7  1  0.25000000  0.25000000  0.49626354  1
  H  H8  1  0.99103140  0.99103140  0.77401755  1
  H  H9  1  0.50896860  0.99103140  0.77401755  1
  H  H10  1  0.99103140  0.50896860  0.77401755  1
  H  H11  1  0.50896860  0.50896860  0.77401755  1
  H  H12  1  0.00896860  0.00896860  0.22598245  1
  H  H13  1  0.49103140  0.00896860  0.22598245  1
  H  H14  1  0.00896860  0.49103140  0.22598245  1
  H  H15  1  0.49103140  0.49103140  0.22598245  1
