# generated using pymatgen
data_MnNb2O6
_symmetry_space_group_name_H-M   'P 1'
_cell_length_a   5.14827721
_cell_length_b   5.89677435
_cell_length_c   14.65101602
_cell_angle_alpha   90.00000000
_cell_angle_beta   90.00000000
_cell_angle_gamma   90.00000000
_symmetry_Int_Tables_number   1
_chemical_formula_structural   MnNb2O6
_chemical_formula_sum   'Mn4 Nb8 O24'
_cell_volume   444.77889940
_cell_formula_units_Z   4
loop_
 _symmetry_equiv_pos_site_id
 _symmetry_equiv_pos_as_xyz
  1  'x, y, z'
loop_
 _atom_site_type_symbol
 _atom_site_label
 _atom_site_symmetry_multiplicity
 _atom_site_fract_x
 _atom_site_fract_y
 _atom_site_fract_z
 _atom_site_occupancy
  O  O0  1  0.91240756  0.37114329  0.25537973  1
  O  O1  1  0.41240756  0.12885671  0.24462027  1
  O  O2  1  0.58759244  0.37114329  0.74462027  1
  O  O3  1  0.08759244  0.12885671  0.75537973  1
  O  O4  1  0.08759244  0.62885671  0.74462027  1
  O  O5  1  0.58759244  0.87114329  0.75537973  1
  O  O6  1  0.41240756  0.62885671  0.25537973  1
  O  O7  1  0.91240756  0.87114329  0.24462027  1
  O  O8  1  0.90444802  0.38197744  0.91877079  1
  O  O9  1  0.40444802  0.11802256  0.58122921  1
  O  O10  1  0.59555198  0.38197744  0.08122921  1
  O  O11  1  0.09555198  0.11802256  0.41877079  1
  O  O12  1  0.93911217  0.89986569  0.90096394  1
  O  O13  1  0.43911217  0.60013431  0.59903606  1
  O  O14  1  0.56088783  0.89986569  0.09903606  1
  O  O15  1  0.06088783  0.60013431  0.40096394  1
  O  O16  1  0.06088783  0.10013431  0.09903606  1
  O  O17  1  0.56088783  0.39986569  0.40096394  1
  O  O18  1  0.43911217  0.10013431  0.90096394  1
  O  O19  1  0.93911217  0.39986569  0.59903606  1
  O  O20  1  0.90444802  0.88197744  0.58122921  1
  O  O21  1  0.40444802  0.61802256  0.91877079  1
  O  O22  1  0.59555198  0.88197744  0.41877079  1
  O  O23  1  0.09555198  0.61802256  0.08122921  1
  Mn  Mn24  1  0.75000000  0.67643920  0.00000000  1
  Mn  Mn25  1  0.25000000  0.82356080  0.50000000  1
  Mn  Mn26  1  0.25000000  0.32356080  0.00000000  1
  Mn  Mn27  1  0.75000000  0.17643920  0.50000000  1
  Nb  Nb28  1  0.24096747  0.81857551  0.16220291  1
  Nb  Nb29  1  0.74096747  0.68142449  0.33779709  1
  Nb  Nb30  1  0.25903253  0.81857551  0.83779709  1
  Nb  Nb31  1  0.75903253  0.68142449  0.66220291  1
  Nb  Nb32  1  0.24096747  0.31857551  0.33779709  1
  Nb  Nb33  1  0.74096747  0.18142449  0.16220291  1
  Nb  Nb34  1  0.25903253  0.31857551  0.66220291  1
  Nb  Nb35  1  0.75903253  0.18142449  0.83779709  1
