# generated using pymatgen
data_CeCu5Sn
_symmetry_space_group_name_H-M   'P 1'
_cell_length_a   5.06322523
_cell_length_b   8.32430964
_cell_length_c   10.57584006
_cell_angle_alpha   90.01424120
_cell_angle_beta   90.00082538
_cell_angle_gamma   90.00043578
_symmetry_Int_Tables_number   1
_chemical_formula_structural   CeCu5Sn
_chemical_formula_sum   'Ce4 Cu20 Sn4'
_cell_volume   445.74895553
_cell_formula_units_Z   4
loop_
 _symmetry_equiv_pos_site_id
 _symmetry_equiv_pos_as_xyz
  1  'x, y, z'
loop_
 _atom_site_type_symbol
 _atom_site_label
 _atom_site_symmetry_multiplicity
 _atom_site_fract_x
 _atom_site_fract_y
 _atom_site_fract_z
 _atom_site_occupancy
  Ce  Ce0  1  0.24999888  0.75412966  0.94092639  1
  Ce  Ce1  1  0.75000022  0.24588466  0.05909039  1
  Ce  Ce2  1  0.25000150  0.25414776  0.55908177  1
  Ce  Ce3  1  0.75000009  0.74590695  0.44088699  1
  Cu  Cu4  1  0.00001690  0.06968617  0.31136838  1
  Cu  Cu5  1  0.49998156  0.06968451  0.31136960  1
  Cu  Cu6  1  0.49988575  0.93039249  0.68867102  1
  Cu  Cu7  1  0.24999944  0.31915372  0.24438561  1
  Cu  Cu8  1  0.75000002  0.68084531  0.75571205  1
  Cu  Cu9  1  0.75000118  0.93724028  0.89691690  1
  Cu  Cu10  1  -0.00001835  0.56965349  0.18864518  1
  Cu  Cu11  1  0.75000079  0.58217265  0.98350482  1
  Cu  Cu12  1  0.49989219  0.43034536  0.81130869  1
  Cu  Cu13  1  0.25000185  0.56256180  0.39694941  1
  Cu  Cu14  1  0.25000043  0.41796287  0.01647681  1
  Cu  Cu15  1  0.74999788  0.08228957  0.51653292  1
  Cu  Cu16  1  0.00011349  0.93039314  0.68867138  1
  Cu  Cu17  1  0.25000044  0.81915388  0.25561841  1
  Cu  Cu18  1  0.24999937  0.91808122  0.48356462  1
  Cu  Cu19  1  0.24999853  0.06263192  0.10306816  1
  Cu  Cu20  1  0.50001922  0.56965523  0.18864487  1
  Cu  Cu21  1  0.74999999  0.43715039  0.60308393  1
  Cu  Cu22  1  0.75000111  0.18085727  0.74426266  1
  Cu  Cu23  1  0.00010708  0.43034479  0.81130913  1
  Sn  Sn24  1  0.74999970  0.36030464  0.35949567  1
  Sn  Sn25  1  0.75000005  0.86040870  0.14050490  1
  Sn  Sn26  1  0.24999959  0.63941443  0.64065430  1
  Sn  Sn27  1  0.25000111  0.13954712  0.85929504  1
