# generated using pymatgen
data_Y5Mg8Cu5
_symmetry_space_group_name_H-M   'P 1'
_cell_length_a   4.11123253
_cell_length_b   7.28905038
_cell_length_c   25.82182051
_cell_angle_alpha   90.00000000
_cell_angle_beta   90.00000000
_cell_angle_gamma   90.00000000
_symmetry_Int_Tables_number   1
_chemical_formula_structural   Y5Mg8Cu5
_chemical_formula_sum   'Y10 Mg16 Cu10'
_cell_volume   773.80200551
_cell_formula_units_Z   2
loop_
 _symmetry_equiv_pos_site_id
 _symmetry_equiv_pos_as_xyz
  1  'x, y, z'
loop_
 _atom_site_type_symbol
 _atom_site_label
 _atom_site_symmetry_multiplicity
 _atom_site_fract_x
 _atom_site_fract_y
 _atom_site_fract_z
 _atom_site_occupancy
  Y  Y0  1  0.50000000  0.42335123  0.14890894  1
  Y  Y1  1  0.50000000  0.57664877  0.85109106  1
  Y  Y2  1  0.50000000  0.80023333  0.25000000  1
  Y  Y3  1  0.50000000  0.91763755  0.39296878  1
  Y  Y4  1  0.50000000  0.08236245  0.89296878  1
  Y  Y5  1  0.50000000  0.19976667  0.75000000  1
  Y  Y6  1  0.50000000  0.08236245  0.60703122  1
  Y  Y7  1  0.50000000  0.91763755  0.10703122  1
  Y  Y8  1  0.50000000  0.57664877  0.64890894  1
  Y  Y9  1  0.50000000  0.42335123  0.35109106  1
  Mg  Mg10  1  -0.00000000  0.90706165  0.80904805  1
  Mg  Mg11  1  0.50000000  0.29747133  0.02395008  1
  Mg  Mg12  1  0.00000000  0.59571678  0.44046621  1
  Mg  Mg13  1  -0.00000000  0.46369115  0.25000000  1
  Mg  Mg14  1  0.00000000  0.09293835  0.30904805  1
  Mg  Mg15  1  0.50000000  0.70252867  0.97604992  1
  Mg  Mg16  1  -0.00000000  0.40428322  0.94046621  1
  Mg  Mg17  1  0.00000000  0.59571678  0.05953379  1
  Mg  Mg18  1  0.00000000  -0.00000000  -0.00000000  1
  Mg  Mg19  1  0.50000000  0.29747133  0.47604992  1
  Mg  Mg20  1  -0.00000000  0.40428322  0.55953379  1
  Mg  Mg21  1  0.50000000  0.70252867  0.52395008  1
  Mg  Mg22  1  0.00000000  0.09293835  0.19095195  1
  Mg  Mg23  1  -0.00000000  0.53630885  0.75000000  1
  Mg  Mg24  1  -0.00000000  -0.00000000  0.50000000  1
  Mg  Mg25  1  0.00000000  0.90706165  0.69095195  1
  Cu  Cu26  1  0.50000000  0.22689394  0.25000000  1
  Cu  Cu27  1  0.00000000  0.20631641  0.08820339  1
  Cu  Cu28  1  -0.00000000  0.20631641  0.41179661  1
  Cu  Cu29  1  0.00000000  0.29047838  0.83427385  1
  Cu  Cu30  1  -0.00000000  0.79368359  0.91179661  1
  Cu  Cu31  1  0.50000000  0.77310606  0.75000000  1
  Cu  Cu32  1  0.00000000  0.70952162  0.16572615  1
  Cu  Cu33  1  0.00000000  0.79368359  0.58820339  1
  Cu  Cu34  1  -0.00000000  0.70952162  0.33427385  1
  Cu  Cu35  1  -0.00000000  0.29047838  0.66572615  1
