# generated using pymatgen
data_Eu5P3ClO12
_symmetry_space_group_name_H-M   'P 1'
_cell_length_a   9.95299038
_cell_length_b   9.95299063
_cell_length_c   7.23353813
_cell_angle_alpha   90.00000000
_cell_angle_beta   90.00000000
_cell_angle_gamma   120.00000300
_symmetry_Int_Tables_number   1
_chemical_formula_structural   Eu5P3ClO12
_chemical_formula_sum   'Eu10 P6 Cl2 O24'
_cell_volume   620.56685131
_cell_formula_units_Z   2
loop_
 _symmetry_equiv_pos_site_id
 _symmetry_equiv_pos_as_xyz
  1  'x, y, z'
loop_
 _atom_site_type_symbol
 _atom_site_label
 _atom_site_symmetry_multiplicity
 _atom_site_fract_x
 _atom_site_fract_y
 _atom_site_fract_z
 _atom_site_occupancy
  Eu  Eu0  1  0.33333300  0.66666700  0.99928619  1
  Eu  Eu1  1  0.74449079  0.75435458  0.75000000  1
  Eu  Eu2  1  0.25550921  0.24564542  0.25000000  1
  Eu  Eu3  1  0.99013621  0.74449079  0.25000000  1
  Eu  Eu4  1  0.75435458  0.00986379  0.25000000  1
  Eu  Eu5  1  0.66666700  0.33333300  0.00071381  1
  Eu  Eu6  1  0.24564542  0.99013621  0.75000000  1
  Eu  Eu7  1  0.00986379  0.25550921  0.75000000  1
  Eu  Eu8  1  0.33333300  0.66666700  0.50071381  1
  Eu  Eu9  1  0.66666700  0.33333300  0.49928619  1
  P  P10  1  0.37208024  0.96589769  0.25000000  1
  P  P11  1  0.40618255  0.37208024  0.75000000  1
  P  P12  1  0.03410231  0.40618255  0.25000000  1
  P  P13  1  0.59381745  0.62791976  0.25000000  1
  P  P14  1  0.62791976  0.03410231  0.75000000  1
  P  P15  1  0.96589769  0.59381745  0.75000000  1
  Cl  Cl16  1  0.00000000  0.00000000  -0.00000000  1
  Cl  Cl17  1  0.00000000  0.00000000  0.50000000  1
  O  O18  1  0.26635786  0.90930088  0.42404891  1
  O  O19  1  0.26635786  0.90930088  0.07595109  1
  O  O20  1  0.11683634  0.58758379  0.25000000  1
  O  O21  1  0.47830912  0.14547840  0.25000000  1
  O  O22  1  0.64294302  0.73364214  0.07595109  1
  O  O23  1  0.85452160  0.33282972  0.25000000  1
  O  O24  1  0.14547840  0.66717028  0.75000000  1
  O  O25  1  0.58758379  0.47074745  0.75000000  1
  O  O26  1  0.73364214  0.09069912  0.92404891  1
  O  O27  1  0.52925255  0.11683634  0.75000000  1
  O  O28  1  0.47074745  0.88316366  0.25000000  1
  O  O29  1  0.90930088  0.64294302  0.92404891  1
  O  O30  1  0.35705698  0.26635786  0.92404891  1
  O  O31  1  0.09069912  0.35705698  0.07595109  1
  O  O32  1  0.52169088  0.85452160  0.75000000  1
  O  O33  1  0.35705698  0.26635786  0.57595109  1
  O  O34  1  0.41241621  0.52925255  0.25000000  1
  O  O35  1  0.33282972  0.47830912  0.75000000  1
  O  O36  1  0.73364214  0.09069912  0.57595109  1
  O  O37  1  0.90930088  0.64294302  0.57595109  1
  O  O38  1  0.64294302  0.73364214  0.42404891  1
  O  O39  1  0.66717028  0.52169088  0.25000000  1
  O  O40  1  0.88316366  0.41241621  0.75000000  1
  O  O41  1  0.09069912  0.35705698  0.42404891  1
