# generated using pymatgen
data_Er5Al3Ni3Ge4
_symmetry_space_group_name_H-M   'P 1'
_cell_length_a   4.15839551
_cell_length_b   6.84057491
_cell_length_c   19.06536039
_cell_angle_alpha   90.00157566
_cell_angle_beta   90.00068570
_cell_angle_gamma   89.99883619
_symmetry_Int_Tables_number   1
_chemical_formula_structural   Er5Al3Ni3Ge4
_chemical_formula_sum   'Er10 Al6 Ni6 Ge8'
_cell_volume   542.32973329
_cell_formula_units_Z   2
loop_
 _symmetry_equiv_pos_site_id
 _symmetry_equiv_pos_as_xyz
  1  'x, y, z'
loop_
 _atom_site_type_symbol
 _atom_site_label
 _atom_site_symmetry_multiplicity
 _atom_site_fract_x
 _atom_site_fract_y
 _atom_site_fract_z
 _atom_site_occupancy
  Er  Er0  1  0.24999983  0.99640862  0.88046033  1
  Er  Er1  1  0.74999995  0.49975229  0.07139541  1
  Er  Er2  1  0.25000584  0.50026010  0.92860434  1
  Er  Er3  1  0.74999995  0.38494110  0.25001430  1
  Er  Er4  1  0.25000033  0.61505396  0.74998773  1
  Er  Er5  1  0.24999705  0.50024429  0.57138256  1
  Er  Er6  1  0.74999933  0.00355970  0.11954919  1
  Er  Er7  1  0.25001109  0.99642768  0.61952643  1
  Er  Er8  1  0.75000288  0.49974076  0.42861277  1
  Er  Er9  1  0.74999690  0.00357839  0.38047000  1
  Al  Al10  1  0.75000354  0.31587721  0.82155884  1
  Al  Al11  1  0.74999995  0.31587946  0.67844084  1
  Al  Al12  1  0.25000156  0.02812733  0.25000055  1
  Al  Al13  1  0.75000107  0.97186531  0.75000063  1
  Al  Al14  1  0.25000029  0.68412522  0.17844275  1
  Al  Al15  1  0.24999991  0.68412670  0.32155943  1
  Ni  Ni16  1  0.25001007  0.16594965  0.02582619  1
  Ni  Ni17  1  0.75000962  0.83404773  0.97417589  1
  Ni  Ni18  1  0.74998781  0.79384243  0.25000354  1
  Ni  Ni19  1  0.25000462  0.16595965  0.47417013  1
  Ni  Ni20  1  0.24999229  0.20618366  0.75000002  1
  Ni  Ni21  1  0.74999488  0.83405524  0.52581928  1
  Ge  Ge22  1  0.74999451  0.71036192  0.85386198  1
  Ge  Ge23  1  0.74999106  0.20336874  0.53878121  1
  Ge  Ge24  1  0.24999928  0.79662858  0.46120569  1
  Ge  Ge25  1  0.25000627  0.28963575  0.35386019  1
  Ge  Ge26  1  0.24999836  0.28962702  0.14613870  1
  Ge  Ge27  1  0.24999462  0.79664492  0.03879254  1
  Ge  Ge28  1  0.74999972  0.20337651  0.96121945  1
  Ge  Ge29  1  0.74999741  0.71035008  0.64613909  1
