# generated using pymatgen
data_KNi4(PO4)3
_symmetry_space_group_name_H-M   'P 1'
_cell_length_a   6.21225811
_cell_length_b   9.58833531
_cell_length_c   16.40349647
_cell_angle_alpha   90.00000000
_cell_angle_beta   90.00000000
_cell_angle_gamma   90.00000000
_symmetry_Int_Tables_number   1
_chemical_formula_structural   KNi4(PO4)3
_chemical_formula_sum   'K4 Ni16 P12 O48'
_cell_volume   977.07777415
_cell_formula_units_Z   4
loop_
 _symmetry_equiv_pos_site_id
 _symmetry_equiv_pos_as_xyz
  1  'x, y, z'
loop_
 _atom_site_type_symbol
 _atom_site_label
 _atom_site_symmetry_multiplicity
 _atom_site_fract_x
 _atom_site_fract_y
 _atom_site_fract_z
 _atom_site_occupancy
  K  K0  1  0.50000000  0.70319454  0.03149304  1
  K  K1  1  0.50000000  0.29680546  0.96850696  1
  K  K2  1  -0.00000000  0.20319454  0.46850696  1
  K  K3  1  -0.00000000  0.79680546  0.53149304  1
  Ni  Ni4  1  0.50000000  0.53344786  0.59252228  1
  Ni  Ni5  1  0.50000000  0.46655214  0.40747772  1
  Ni  Ni6  1  -0.00000000  0.03344786  0.90747772  1
  Ni  Ni7  1  -0.00000000  0.96655214  0.09252228  1
  Ni  Ni8  1  0.50000000  0.01229210  0.35774664  1
  Ni  Ni9  1  0.50000000  0.98770790  0.64225336  1
  Ni  Ni10  1  0.00000000  0.51229210  0.14225336  1
  Ni  Ni11  1  -0.00000000  0.48770790  0.85774664  1
  Ni  Ni12  1  0.75044479  0.75220004  0.29632092  1
  Ni  Ni13  1  0.75044479  0.24779996  0.70367908  1
  Ni  Ni14  1  0.74955521  0.25220004  0.20367908  1
  Ni  Ni15  1  0.74955521  0.74779996  0.79632092  1
  Ni  Ni16  1  0.24955521  0.24779996  0.70367908  1
  Ni  Ni17  1  0.24955521  0.75220004  0.29632092  1
  Ni  Ni18  1  0.25044479  0.74779996  0.79632092  1
  Ni  Ni19  1  0.25044479  0.25220004  0.20367908  1
  P  P20  1  0.50000000  0.96066083  0.16289942  1
  P  P21  1  0.50000000  0.03933917  0.83710058  1
  P  P22  1  -0.00000000  0.46066083  0.33710058  1
  P  P23  1  -0.00000000  0.53933917  0.66289942  1
  P  P24  1  0.50000000  0.54697962  0.22005792  1
  P  P25  1  0.50000000  0.45302038  0.77994208  1
  P  P26  1  0.00000000  0.04697962  0.27994208  1
  P  P27  1  -0.00000000  0.95302038  0.72005792  1
  P  P28  1  0.50000000  0.79399722  0.46367453  1
  P  P29  1  0.50000000  0.20600278  0.53632547  1
  P  P30  1  0.00000000  0.29399722  0.03632547  1
  P  P31  1  -0.00000000  0.70600278  0.96367453  1
  O  O32  1  0.50000000  0.12263437  0.17498451  1
  O  O33  1  0.50000000  0.87736563  0.82501549  1
  O  O34  1  0.00000000  0.62263437  0.32501549  1
  O  O35  1  0.00000000  0.37736563  0.67498451  1
  O  O36  1  0.50000000  0.61441243  0.77462858  1
  O  O37  1  0.50000000  0.38558757  0.22537142  1
  O  O38  1  -0.00000000  0.11441243  0.72537142  1
  O  O39  1  -0.00000000  0.88558757  0.27462858  1
  O  O40  1  0.70085465  0.91284893  0.11772281  1
  O  O41  1  0.70085465  0.08715107  0.88227719  1
  O  O42  1  0.79914535  0.41284893  0.38227719  1
  O  O43  1  0.79914535  0.58715107  0.61772281  1
  O  O44  1  0.29914535  0.08715107  0.88227719  1
  O  O45  1  0.29914535  0.91284893  0.11772281  1
  O  O46  1  0.20085465  0.58715107  0.61772281  1
  O  O47  1  0.20085465  0.41284893  0.38227719  1
  O  O48  1  0.50000000  0.60965978  0.31030532  1
  O  O49  1  0.50000000  0.39034022  0.68969468  1
  O  O50  1  0.00000000  0.10965978  0.18969468  1
  O  O51  1  -0.00000000  0.89034022  0.81030532  1
  O  O52  1  0.50000000  0.88864954  0.25247069  1
  O  O53  1  0.50000000  0.11135046  0.74752931  1
  O  O54  1  -0.00000000  0.38864954  0.24752931  1
  O  O55  1  0.00000000  0.61135046  0.75247069  1
  O  O56  1  0.50000000  0.13510859  0.45415941  1
  O  O57  1  0.50000000  0.86489141  0.54584059  1
  O  O58  1  0.00000000  0.63510859  0.04584059  1
  O  O59  1  0.00000000  0.36489141  0.95415941  1
  O  O60  1  0.69793500  0.84017010  0.40981778  1
  O  O61  1  0.69793500  0.15982990  0.59018222  1
  O  O62  1  0.80206500  0.34017010  0.09018222  1
  O  O63  1  0.80206500  0.65982990  0.90981778  1
  O  O64  1  0.30206500  0.15982990  0.59018222  1
  O  O65  1  0.30206500  0.84017010  0.40981778  1
  O  O66  1  0.19793500  0.65982990  0.90981778  1
  O  O67  1  0.19793500  0.34017010  0.09018222  1
  O  O68  1  0.70803835  0.60663058  0.18225201  1
  O  O69  1  0.70803835  0.39336942  0.81774799  1
  O  O70  1  0.79196165  0.10663058  0.31774799  1
  O  O71  1  0.79196165  0.89336942  0.68225201  1
  O  O72  1  0.29196165  0.39336942  0.81774799  1
  O  O73  1  0.29196165  0.60663058  0.18225201  1
  O  O74  1  0.20803835  0.89336942  0.68225201  1
  O  O75  1  0.20803835  0.10663058  0.31774799  1
  O  O76  1  0.50000000  0.63434705  0.47998290  1
  O  O77  1  0.50000000  0.36565295  0.52001710  1
  O  O78  1  -0.00000000  0.13434705  0.02001710  1
  O  O79  1  0.00000000  0.86565295  0.97998290  1
