# generated using pymatgen
data_Hf(ClO4)4
_symmetry_space_group_name_H-M   'P 1'
_cell_length_a   7.67893652
_cell_length_b   7.67893660
_cell_length_c   13.35713516
_cell_angle_alpha   74.70514528
_cell_angle_beta   74.70514516
_cell_angle_gamma   63.47069070
_symmetry_Int_Tables_number   1
_chemical_formula_structural   Hf(ClO4)4
_chemical_formula_sum   'Hf2 Cl8 O32'
_cell_volume   669.93439955
_cell_formula_units_Z   2
loop_
 _symmetry_equiv_pos_site_id
 _symmetry_equiv_pos_as_xyz
  1  'x, y, z'
loop_
 _atom_site_type_symbol
 _atom_site_label
 _atom_site_symmetry_multiplicity
 _atom_site_fract_x
 _atom_site_fract_y
 _atom_site_fract_z
 _atom_site_occupancy
  Hf  Hf0  1  0.40371692  0.34749472  0.59509093  1
  Hf  Hf1  1  0.34749472  0.40371692  0.09509093  1
  Cl  Cl2  1  0.69907015  0.16853775  0.42720806  1
  Cl  Cl3  1  0.40995063  0.99725740  0.16350505  1
  Cl  Cl4  1  0.74239070  0.36986157  0.00039654  1
  Cl  Cl5  1  0.57775839  0.04648403  0.76424029  1
  Cl  Cl6  1  0.36986157  0.74239070  0.50039654  1
  Cl  Cl7  1  0.16853775  0.69907015  0.92720806  1
  Cl  Cl8  1  0.99725740  0.40995063  0.66350505  1
  Cl  Cl9  1  0.04648403  0.57775839  0.26424029  1
  O  O10  1  0.60335136  0.30813434  0.96801571  1
  O  O11  1  0.26403625  0.94523796  0.23863415  1
  O  O12  1  0.83609710  0.58046761  0.62854507  1
  O  O13  1  0.04209028  0.47605699  0.18018844  1
  O  O14  1  0.31861846  0.14585849  0.07070566  1
  O  O15  1  0.26084058  0.71065536  0.01339247  1
  O  O16  1  0.47433651  0.00835338  0.86660388  1
  O  O17  1  0.54629581  0.26474105  0.73493103  1
  O  O18  1  0.44635692  0.61023649  0.60120502  1
  O  O19  1  0.96503212  0.82680282  0.93698861  1
  O  O20  1  0.71065536  0.26084058  0.51339247  1
  O  O21  1  0.72643955  0.28158506  0.32632828  1
  O  O22  1  0.91714088  0.20360769  0.02387767  1
  O  O23  1  0.30813434  0.60335136  0.46801571  1
  O  O24  1  0.46727889  0.13030238  0.20567238  1
  O  O25  1  0.52563731  0.77458692  0.42389897  1
  O  O26  1  0.14585849  0.31861846  0.57070566  1
  O  O27  1  0.92142089  0.78183890  0.24713519  1
  O  O28  1  0.19545155  0.48318782  0.96153661  1
  O  O29  1  0.58046761  0.83609710  0.12854507  1
  O  O30  1  0.61023649  0.44635692  0.10120502  1
  O  O31  1  0.20360769  0.91714088  0.52387767  1
  O  O32  1  0.26474105  0.54629581  0.23493103  1
  O  O33  1  0.00835338  0.47433651  0.36660388  1
  O  O34  1  0.82680282  0.96503212  0.43698861  1
  O  O35  1  0.77458692  0.52563731  0.92389897  1
  O  O36  1  0.28158506  0.72643955  0.82632828  1
  O  O37  1  0.47605699  0.04209028  0.68018844  1
  O  O38  1  0.48318782  0.19545155  0.46153661  1
  O  O39  1  0.78183890  0.92142089  0.74713519  1
  O  O40  1  0.94523796  0.26403625  0.73863415  1
  O  O41  1  0.13030238  0.46727889  0.70567238  1
