# generated using pymatgen
data_ZrGeRu
_symmetry_space_group_name_H-M   'P 1'
_cell_length_a   6.82707964
_cell_length_b   7.53579323
_cell_length_c   7.77004429
_cell_angle_alpha   119.00762679
_cell_angle_beta   116.06053488
_cell_angle_gamma   90.00000206
_symmetry_Int_Tables_number   1
_chemical_formula_structural   ZrGeRu
_chemical_formula_sum   'Zr6 Ge6 Ru6'
_cell_volume   302.29175535
_cell_formula_units_Z   6
loop_
 _symmetry_equiv_pos_site_id
 _symmetry_equiv_pos_as_xyz
  1  'x, y, z'
loop_
 _atom_site_type_symbol
 _atom_site_label
 _atom_site_symmetry_multiplicity
 _atom_site_fract_x
 _atom_site_fract_y
 _atom_site_fract_z
 _atom_site_occupancy
  Zr  Zr0  1  0.05220403  0.03029622  0.56059244  1
  Zr  Zr1  1  0.10049964  0.55312302  0.60624604  1
  Zr  Zr2  1  0.91586582  0.75173863  0.00347726  1
  Zr  Zr3  1  0.91238857  0.24826137  0.99652274  1
  Zr  Zr4  1  0.49425360  0.44687698  0.39375396  1
  Zr  Zr5  1  0.49161159  0.96970378  0.43940756  1
  Ge  Ge6  1  0.82809515  0.33754972  0.66544952  1
  Ge  Ge7  1  0.47757180  0.22467880  0.94935761  1
  Ge  Ge8  1  0.82809515  0.82789981  0.66544952  1
  Ge  Ge9  1  0.52821420  0.77532120  0.05064239  1
  Ge  Ge10  1  0.16264563  0.17210019  0.33455048  1
  Ge  Ge11  1  0.16264563  0.66245028  0.33455048  1
  Ru  Ru12  1  0.74287704  0.59463953  0.24571761  1
  Ru  Ru13  1  0.25291813  0.00000000  0.00000000  1
  Ru  Ru14  1  0.49715943  0.84892192  0.75428239  1
  Ru  Ru15  1  0.74287704  0.15107808  0.24571761  1
  Ru  Ru16  1  0.25291813  0.50000000  0.00000000  1
  Ru  Ru17  1  0.49715943  0.40536047  0.75428239  1
