# generated using pymatgen
data_Gd(SiPt)2
_symmetry_space_group_name_H-M   'P 1'
_cell_length_a   4.22283629
_cell_length_b   4.22795779
_cell_length_c   9.88709261
_cell_angle_alpha   89.97113610
_cell_angle_beta   89.97994067
_cell_angle_gamma   89.84949475
_symmetry_Int_Tables_number   1
_chemical_formula_structural   Gd(SiPt)2
_chemical_formula_sum   'Gd2 Si4 Pt4'
_cell_volume   176.52324838
_cell_formula_units_Z   2
loop_
 _symmetry_equiv_pos_site_id
 _symmetry_equiv_pos_as_xyz
  1  'x, y, z'
loop_
 _atom_site_type_symbol
 _atom_site_label
 _atom_site_symmetry_multiplicity
 _atom_site_fract_x
 _atom_site_fract_y
 _atom_site_fract_z
 _atom_site_occupancy
  Gd  Gd0  1  0.25000184  0.25000246  0.74381484  1
  Gd  Gd1  1  0.75001239  0.75000803  0.25615223  1
  Si  Si2  1  0.24996748  0.24995886  0.13245355  1
  Si  Si3  1  0.74994205  0.25007690  0.50014031  1
  Si  Si4  1  0.75003673  0.75003077  0.86750525  1
  Si  Si5  1  0.25005003  0.74993827  0.49996944  1
  Pt  Pt6  1  0.25004203  0.25006445  0.37589755  1
  Pt  Pt7  1  0.24995814  0.75005382  -0.00000127  1
  Pt  Pt8  1  0.74994562  0.74993464  0.62415362  1
  Pt  Pt9  1  0.75004370  0.24993180  0.99991450  1
