# generated using pymatgen
data_Eu2(Ga3Rh)3
_symmetry_space_group_name_H-M   'P 1'
_cell_length_a   7.61893035
_cell_length_b   7.61893031
_cell_length_c   9.83999352
_cell_angle_alpha   90.00000000
_cell_angle_beta   90.00000000
_cell_angle_gamma   119.22461575
_symmetry_Int_Tables_number   1
_chemical_formula_structural   Eu2(Ga3Rh)3
_chemical_formula_sum   'Eu4 Ga18 Rh6'
_cell_volume   498.48714542
_cell_formula_units_Z   2
loop_
 _symmetry_equiv_pos_site_id
 _symmetry_equiv_pos_as_xyz
  1  'x, y, z'
loop_
 _atom_site_type_symbol
 _atom_site_label
 _atom_site_symmetry_multiplicity
 _atom_site_fract_x
 _atom_site_fract_y
 _atom_site_fract_z
 _atom_site_occupancy
  Eu  Eu0  1  0.99744198  0.67074998  0.25000000  1
  Eu  Eu1  1  0.32925002  0.00255802  0.75000000  1
  Eu  Eu2  1  0.67074998  0.99744198  0.25000000  1
  Eu  Eu3  1  0.00255802  0.32925002  0.75000000  1
  Ga  Ga4  1  0.99513519  0.66421402  0.92635608  1
  Ga  Ga5  1  0.13070128  0.13070128  0.25000000  1
  Ga  Ga6  1  0.33578598  0.00486481  0.42635608  1
  Ga  Ga7  1  0.33586020  0.33586020  0.55644077  1
  Ga  Ga8  1  0.54583346  0.33686495  0.25000000  1
  Ga  Ga9  1  0.66313505  0.45416654  0.75000000  1
  Ga  Ga10  1  0.86929872  0.86929872  0.75000000  1
  Ga  Ga11  1  0.66413980  0.66413980  0.05644077  1
  Ga  Ga12  1  0.66413980  0.66413980  0.44355923  1
  Ga  Ga13  1  0.66421402  0.99513519  0.57364392  1
  Ga  Ga14  1  0.66421402  0.99513519  0.92635608  1
  Ga  Ga15  1  0.00486481  0.33578598  0.42635608  1
  Ga  Ga16  1  0.45416654  0.66313505  0.75000000  1
  Ga  Ga17  1  0.33686495  0.54583346  0.25000000  1
  Ga  Ga18  1  0.33586020  0.33586020  0.94355923  1
  Ga  Ga19  1  0.00486481  0.33578598  0.07364392  1
  Ga  Ga20  1  0.99513519  0.66421402  0.57364392  1
  Ga  Ga21  1  0.33578598  0.00486481  0.07364392  1
  Rh  Rh22  1  0.67137388  0.32862612  0.50000000  1
  Rh  Rh23  1  0.67137388  0.32862612  0.00000000  1
  Rh  Rh24  1  0.32862612  0.67137388  0.50000000  1
  Rh  Rh25  1  0.00000000  0.00000000  0.00000000  1
  Rh  Rh26  1  0.00000000  0.00000000  0.50000000  1
  Rh  Rh27  1  0.32862612  0.67137388  0.00000000  1
