# generated using pymatgen
data_Eu2Ru2O7
_symmetry_space_group_name_H-M   'P 1'
_cell_length_a   7.42168515
_cell_length_b   7.41934815
_cell_length_c   7.43363219
_cell_angle_alpha   60.09915307
_cell_angle_beta   60.07978692
_cell_angle_gamma   60.04672280
_symmetry_Int_Tables_number   1
_chemical_formula_structural   Eu2Ru2O7
_chemical_formula_sum   'Eu4 Ru4 O14'
_cell_volume   289.93046113
_cell_formula_units_Z   2
loop_
 _symmetry_equiv_pos_site_id
 _symmetry_equiv_pos_as_xyz
  1  'x, y, z'
loop_
 _atom_site_type_symbol
 _atom_site_label
 _atom_site_symmetry_multiplicity
 _atom_site_fract_x
 _atom_site_fract_y
 _atom_site_fract_z
 _atom_site_occupancy
  Eu  Eu0  1  0.50000017  -0.00000007  0.50000003  1
  Eu  Eu1  1  0.49999991  0.50000019  0.49999992  1
  Eu  Eu2  1  0.50000002  0.49999986  0.99999999  1
  Eu  Eu3  1  0.00000005  0.49999990  0.50000011  1
  Ru  Ru4  1  0.00000001  -0.00000001  -0.00000001  1
  Ru  Ru5  1  0.00000001  0.00000002  0.49999999  1
  Ru  Ru6  1  0.50000000  0.99999999  0.00000003  1
  Ru  Ru7  1  0.00000001  0.49999996  0.00000002  1
  O  O8  1  0.92246172  0.92250806  0.32781859  1
  O  O9  1  0.67261630  0.07737874  0.67244936  1
  O  O10  1  0.92261196  0.32737755  0.32752113  1
  O  O11  1  0.67247463  0.67245969  0.07730902  1
  O  O12  1  0.92247707  0.32777702  0.92251438  1
  O  O13  1  0.32777381  0.92249417  0.92247251  1
  O  O14  1  0.32752534  0.32754033  0.92269097  1
  O  O15  1  0.62539767  0.62555249  0.62362115  1
  O  O16  1  0.07753824  0.07749193  0.67218141  1
  O  O17  1  0.67222616  0.07750588  0.07752741  1
  O  O18  1  0.37460227  0.37444761  0.37637890  1
  O  O19  1  0.32738368  0.92262131  0.32755060  1
  O  O20  1  0.07738803  0.67262237  0.67247888  1
  O  O21  1  0.07752293  0.67222300  0.07748558  1
