# generated using pymatgen
data_Cr3B7ClO13
_symmetry_space_group_name_H-M   'P 1'
_cell_length_a   12.29874914
_cell_length_b   12.29874914
_cell_length_c   12.31993355
_cell_angle_alpha   90.00000000
_cell_angle_beta   90.00000000
_cell_angle_gamma   90.00000000
_symmetry_Int_Tables_number   1
_chemical_formula_structural   Cr3B7ClO13
_chemical_formula_sum   'Cr24 B56 Cl8 O104'
_cell_volume   1863.50366746
_cell_formula_units_Z   8
loop_
 _symmetry_equiv_pos_site_id
 _symmetry_equiv_pos_as_xyz
  1  'x, y, z'
loop_
 _atom_site_type_symbol
 _atom_site_label
 _atom_site_symmetry_multiplicity
 _atom_site_fract_x
 _atom_site_fract_y
 _atom_site_fract_z
 _atom_site_occupancy
  Cr  Cr0  1  0.24344019  0.00229193  0.25558633  1
  Cr  Cr1  1  0.50000000  0.00000000  0.97448271  1
  Cr  Cr2  1  0.75617321  0.99559507  0.75654641  1
  Cr  Cr3  1  0.00229193  0.75655981  0.74441367  1
  Cr  Cr4  1  0.74344019  0.49770807  0.24441367  1
  Cr  Cr5  1  0.49770807  0.25655981  0.75558633  1
  Cr  Cr6  1  0.50229193  0.74344019  0.75558633  1
  Cr  Cr7  1  0.00000000  0.50000000  0.52551729  1
  Cr  Cr8  1  0.24382679  0.00440493  0.75654641  1
  Cr  Cr9  1  0.00000000  0.00000000  0.50000000  1
  Cr  Cr10  1  0.25617321  0.50440493  0.74345359  1
  Cr  Cr11  1  0.99770807  0.24344019  0.74441367  1
  Cr  Cr12  1  0.99559507  0.24382679  0.24345359  1
  Cr  Cr13  1  0.50440493  0.74382679  0.25654641  1
  Cr  Cr14  1  0.25655981  0.50229193  0.24441367  1
  Cr  Cr15  1  0.74382679  0.49559507  0.74345359  1
  Cr  Cr16  1  0.00440493  0.75617321  0.24345359  1
  Cr  Cr17  1  0.00000000  0.00000000  0.00000000  1
  Cr  Cr18  1  0.50000000  0.50000000  0.50000000  1
  Cr  Cr19  1  0.75655981  0.99770807  0.25558633  1
  Cr  Cr20  1  0.00000000  0.50000000  0.02551729  1
  Cr  Cr21  1  0.50000000  0.00000000  0.47448271  1
  Cr  Cr22  1  0.49559507  0.25617321  0.25654641  1
  Cr  Cr23  1  0.50000000  0.50000000  0.00000000  1
  B  B24  1  0.25203575  0.75169877  0.24870580  1
  B  B25  1  0.34847157  0.84927888  0.59777435  1
  B  B26  1  0.82843873  0.17531807  0.92103952  1
  B  B27  1  0.24796425  0.25169877  0.25129420  1
  B  B28  1  0.82604367  0.32739796  0.07316424  1
  B  B29  1  0.82532221  0.82831194  0.57898493  1
  B  B30  1  0.25169877  0.75203575  0.74870580  1
  B  B31  1  0.00049793  0.25199357  0.99939833  1
  B  B32  1  0.82468193  0.82843873  0.07896048  1
  B  B33  1  0.17395633  0.67260204  0.07316424  1
  B  B34  1  0.74796425  0.24830123  0.24870580  1
  B  B35  1  0.84847157  0.65072112  0.90222565  1
  B  B36  1  0.65152843  0.15072112  0.59777435  1
  B  B37  1  0.32468193  0.67156127  0.42103952  1
  B  B38  1  0.75203575  0.74830123  0.25129420  1
  B  B39  1  0.50071861  0.25175235  0.00395986  1
  B  B40  1  0.74824765  0.50071861  0.99604014  1
  B  B41  1  0.75169877  0.74796425  0.75129420  1
  B  B42  1  0.67531807  0.32843873  0.42103952  1
  B  B43  1  0.67168806  0.67467779  0.07898493  1
  B  B44  1  0.17260204  0.67395633  0.57316424  1
  B  B45  1  0.15072112  0.34847157  0.40222565  1
  B  B46  1  0.25199357  0.99950207  0.00060167  1
  B  B47  1  0.99928139  0.75175235  0.49604014  1
  B  B48  1  0.84927888  0.65152843  0.40222565  1
  B  B49  1  0.32843873  0.32468193  0.57896048  1
  B  B50  1  0.67395633  0.82739796  0.42683576  1
  B  B51  1  0.74800643  0.00049793  0.00060167  1
  B  B52  1  0.15152843  0.34927888  0.90222565  1
  B  B53  1  0.99950207  0.74800643  0.99939833  1
  B  B54  1  0.25175235  0.49928139  0.99604014  1
  B  B55  1  0.74830123  0.24796425  0.74870580  1
  B  B56  1  0.24800643  0.49950207  0.49939833  1
  B  B57  1  0.17168806  0.82532221  0.42101507  1
  B  B58  1  0.24830123  0.25203575  0.75129420  1
  B  B59  1  0.32532221  0.67168806  0.92101507  1
  B  B60  1  0.32831194  0.32532221  0.07898493  1
  B  B61  1  0.49950207  0.75199357  0.50060167  1
  B  B62  1  0.17156127  0.82468193  0.92103952  1
  B  B63  1  0.82739796  0.32604367  0.57316424  1
  B  B64  1  0.00071861  0.24824765  0.49604014  1
  B  B65  1  0.32604367  0.17260204  0.42683576  1
  B  B66  1  0.75199357  0.50049793  0.49939833  1
  B  B67  1  0.50049793  0.24800643  0.50060167  1
  B  B68  1  0.32739796  0.17395633  0.92683576  1
  B  B69  1  0.67260204  0.82604367  0.92683576  1
  B  B70  1  0.49928139  0.74824765  0.00395986  1
  B  B71  1  0.34927888  0.84847157  0.09777435  1
  B  B72  1  0.17531807  0.17156127  0.07896048  1
  B  B73  1  0.75175235  0.00071861  0.50395986  1
  B  B74  1  0.82831194  0.17467779  0.42101507  1
  B  B75  1  0.67467779  0.32831194  0.92101507  1
  B  B76  1  0.17467779  0.17168806  0.57898493  1
  B  B77  1  0.24824765  0.99928139  0.50395986  1
  B  B78  1  0.67156127  0.67531807  0.57896048  1
  B  B79  1  0.65072112  0.15152843  0.09777435  1
  Cl  Cl80  1  0.00000000  0.50000000  0.74375784  1
  Cl  Cl81  1  0.00000000  0.50000000  0.24375784  1
  Cl  Cl82  1  0.50000000  0.00000000  0.75624216  1
  Cl  Cl83  1  0.00000000  0.00000000  0.75210489  1
  Cl  Cl84  1  0.50000000  0.50000000  0.25210489  1
  Cl  Cl85  1  0.50000000  0.50000000  0.74789511  1
  Cl  Cl86  1  0.50000000  0.00000000  0.25624216  1
  Cl  Cl87  1  0.00000000  0.00000000  0.24789511  1
  O  O88  1  0.22665502  0.06680616  0.60007241  1
  O  O89  1  0.15304961  0.56765552  0.52337549  1
  O  O90  1  0.07322205  0.23103143  0.09164680  1
  O  O91  1  0.77334498  0.93319384  0.60007241  1
  O  O92  1  0.34902247  0.93290223  0.52316586  1
  O  O93  1  0.15444707  0.77343290  0.81479036  1
  O  O94  1  0.72665502  0.43319384  0.89992759  1
  O  O95  1  0.57322205  0.26896857  0.40835320  1
  O  O96  1  0.84902247  0.56709777  0.97683414  1
  O  O97  1  0.25861934  0.24147406  0.01018077  1
  O  O98  1  0.06709777  0.34902247  0.47683414  1
  O  O99  1  0.73037910  0.65455710  0.17982028  1
  O  O100  1  0.56898386  0.65681273  0.52173198  1
  O  O101  1  0.26896857  0.42677795  0.59164680  1
  O  O102  1  0.24138066  0.74147406  0.48981923  1
  O  O103  1  0.26799326  0.07035040  0.40921232  1
  O  O104  1  0.84695039  0.43234448  0.52337549  1
  O  O105  1  0.65444707  0.72656710  0.68520964  1
  O  O106  1  0.15455710  0.23037910  0.67982028  1
  O  O107  1  0.92633982  0.84421106  0.51787525  1
  O  O108  1  0.76962090  0.15455710  0.32017972  1
  O  O109  1  0.33983989  0.23332085  0.32528511  1
  O  O110  1  0.16016011  0.73332085  0.17471489  1
  O  O111  1  0.73200674  0.92964960  0.40921232  1
  O  O112  1  0.34555293  0.27343290  0.68520964  1
  O  O113  1  0.25852594  0.24138066  0.51018077  1
  O  O114  1  0.15681273  0.06898386  0.02173198  1
  O  O115  1  0.22656710  0.15444707  0.18520964  1
  O  O116  1  0.23200674  0.57035040  0.09078768  1
  O  O117  1  0.35249871  0.77520220  0.18356361  1
  O  O118  1  0.65455710  0.26962090  0.82017972  1
  O  O119  1  0.34421106  0.42633982  0.01787525  1
  O  O120  1  0.34318727  0.56898386  0.47826802  1
  O  O121  1  0.76896857  0.07322205  0.90835320  1
  O  O122  1  0.56765552  0.84695039  0.47662451  1
  O  O123  1  0.75852594  0.25861934  0.98981923  1
  O  O124  1  0.77520220  0.64750129  0.81643639  1
  O  O125  1  0.24147406  0.74138066  0.98981923  1
  O  O126  1  0.34544290  0.73037910  0.82017972  1
  O  O127  1  0.43367225  0.77485431  0.60096051  1
  O  O128  1  0.84421106  0.07366018  0.48212475  1
  O  O129  1  0.23103143  0.92677795  0.90835320  1
  O  O130  1  0.65304961  0.93234448  0.97662451  1
  O  O131  1  0.74138066  0.75852594  0.01018077  1
  O  O132  1  0.07366018  0.15578894  0.51787525  1
  O  O133  1  0.15097753  0.43290223  0.97683414  1
  O  O134  1  0.06680616  0.77334498  0.39992759  1
  O  O135  1  0.83983989  0.26667915  0.17471489  1
  O  O136  1  0.93290223  0.65097753  0.47683414  1
  O  O137  1  0.56680616  0.72665502  0.10007241  1
  O  O138  1  0.65681273  0.43101614  0.47826802  1
  O  O139  1  0.76667915  0.33983989  0.67471489  1
  O  O140  1  0.06765552  0.65304961  0.02337549  1
  O  O141  1  0.26667915  0.16016011  0.82528511  1
  O  O142  1  0.42633982  0.65578894  0.98212475  1
  O  O143  1  0.43101614  0.34318727  0.52173198  1
  O  O144  1  0.93234448  0.34695039  0.02337549  1
  O  O145  1  0.64750129  0.22479780  0.18356361  1
  O  O146  1  0.27485431  0.93367225  0.10096051  1
  O  O147  1  0.85249871  0.72479780  0.31643639  1
  O  O148  1  0.23332085  0.66016011  0.67471489  1
  O  O149  1  0.26962090  0.34544290  0.17982028  1
  O  O150  1  0.72514569  0.06632775  0.10096051  1
  O  O151  1  0.07035040  0.73200674  0.59078768  1
  O  O152  1  0.75861934  0.25852594  0.48981923  1
  O  O153  1  0.84555293  0.22656710  0.81479036  1
  O  O154  1  0.43319384  0.27334498  0.10007241  1
  O  O155  1  0.77343290  0.84555293  0.18520964  1
  O  O156  1  0.65578894  0.57366018  0.01787525  1
  O  O157  1  0.14750129  0.27520220  0.31643639  1
  O  O158  1  0.72656710  0.34555293  0.31479036  1
  O  O159  1  0.34695039  0.06765552  0.97662451  1
  O  O160  1  0.76799326  0.42964960  0.09078768  1
  O  O161  1  0.72479780  0.14750129  0.68356361  1
  O  O162  1  0.27520220  0.85249871  0.68356361  1
  O  O163  1  0.92964960  0.26799326  0.59078768  1
  O  O164  1  0.42677795  0.73103143  0.40835320  1
  O  O165  1  0.56632775  0.22514569  0.60096051  1
  O  O166  1  0.84318727  0.93101614  0.02173198  1
  O  O167  1  0.73332085  0.83983989  0.82528511  1
  O  O168  1  0.06632775  0.27485431  0.89903949  1
  O  O169  1  0.56709777  0.15097753  0.02316586  1
  O  O170  1  0.66016011  0.76667915  0.32528511  1
  O  O171  1  0.84544290  0.76962090  0.67982028  1
  O  O172  1  0.43290223  0.84902247  0.02316586  1
  O  O173  1  0.93367225  0.72514569  0.89903949  1
  O  O174  1  0.22479780  0.35249871  0.81643639  1
  O  O175  1  0.93319384  0.22665502  0.39992759  1
  O  O176  1  0.42964960  0.23200674  0.90921232  1
  O  O177  1  0.77485431  0.56632775  0.39903949  1
  O  O178  1  0.43234448  0.15304961  0.47662451  1
  O  O179  1  0.74147406  0.75861934  0.51018077  1
  O  O180  1  0.27343290  0.65444707  0.31479036  1
  O  O181  1  0.06898386  0.84318727  0.97826802  1
  O  O182  1  0.57366018  0.34421106  0.98212475  1
  O  O183  1  0.73103143  0.57322205  0.59164680  1
  O  O184  1  0.27334498  0.56680616  0.89992759  1
  O  O185  1  0.65097753  0.06709777  0.52316586  1
  O  O186  1  0.23037910  0.84544290  0.32017972  1
  O  O187  1  0.15578894  0.92633982  0.48212475  1
  O  O188  1  0.22514569  0.43367225  0.39903949  1
  O  O189  1  0.93101614  0.15681273  0.97826802  1
  O  O190  1  0.92677795  0.76896857  0.09164680  1
  O  O191  1  0.57035040  0.76799326  0.90921232  1
