# generated using pymatgen
data_Ba2Na(CuO2)3
_symmetry_space_group_name_H-M   'P 1'
_cell_length_a   7.15746370
_cell_length_b   7.15746370
_cell_length_c   8.45823401
_cell_angle_alpha   107.37076794
_cell_angle_beta   107.37076792
_cell_angle_gamma   107.12012843
_symmetry_Int_Tables_number   1
_chemical_formula_structural   Ba2Na(CuO2)3
_chemical_formula_sum   'Ba4 Na2 Cu6 O12'
_cell_volume   357.99733948
_cell_formula_units_Z   2
loop_
 _symmetry_equiv_pos_site_id
 _symmetry_equiv_pos_as_xyz
  1  'x, y, z'
loop_
 _atom_site_type_symbol
 _atom_site_label
 _atom_site_symmetry_multiplicity
 _atom_site_fract_x
 _atom_site_fract_y
 _atom_site_fract_z
 _atom_site_occupancy
  O  O0  1  0.50183404  0.27773118  0.18538631  1
  O  O1  1  0.09234487  0.31644773  0.81461369  1
  O  O2  1  0.72226882  0.49816596  0.81461369  1
  O  O3  1  0.68355227  0.90765513  0.18538631  1
  O  O4  1  0.49816596  0.72226882  0.81461369  1
  O  O5  1  0.90765513  0.68355227  0.18538631  1
  O  O6  1  0.07160169  0.30515711  0.37675880  1
  O  O7  1  0.31644773  0.09234487  0.81461369  1
  O  O8  1  0.30515711  0.07160169  0.37675880  1
  O  O9  1  0.69484289  0.92839831  0.62324120  1
  O  O10  1  0.92839831  0.69484289  0.62324120  1
  O  O11  1  0.27773118  0.50183404  0.18538631  1
  Na  Na12  1  0.33054931  0.33054931  0.66109863  1
  Na  Na13  1  0.66945069  0.66945069  0.33890137  1
  Cu  Cu14  1  0.99682747  0.99682747  0.29684906  1
  Cu  Cu15  1  0.69997840  0.69997840  0.70315094  1
  Cu  Cu16  1  0.30002160  0.30002160  0.29684906  1
  Cu  Cu17  1  0.00317253  0.00317253  0.70315094  1
  Cu  Cu18  1  0.30987082  0.30987082  0.00000000  1
  Cu  Cu19  1  0.69012918  0.69012918  0.00000000  1
  Ba  Ba20  1  0.25000000  0.75000000  0.50000000  1
  Ba  Ba21  1  0.75000000  0.25000000  0.50000000  1
  Ba  Ba22  1  0.23124558  0.76875442  0.00000000  1
  Ba  Ba23  1  0.76875442  0.23124558  0.00000000  1
