# generated using pymatgen
data_Li2CuP2O7
_symmetry_space_group_name_H-M   'P 1'
_cell_length_a   5.01055696
_cell_length_b   8.14557799
_cell_length_c   8.78353484
_cell_angle_alpha   114.27961561
_cell_angle_beta   90.00000000
_cell_angle_gamma   107.91242733
_symmetry_Int_Tables_number   1
_chemical_formula_structural   Li2CuP2O7
_chemical_formula_sum   'Li4 Cu2 P4 O14'
_cell_volume   307.61875615
_cell_formula_units_Z   2
loop_
 _symmetry_equiv_pos_site_id
 _symmetry_equiv_pos_as_xyz
  1  'x, y, z'
loop_
 _atom_site_type_symbol
 _atom_site_label
 _atom_site_symmetry_multiplicity
 _atom_site_fract_x
 _atom_site_fract_y
 _atom_site_fract_z
 _atom_site_occupancy
  Li  Li0  1  0.66418636  0.62222441  0.94759103  1
  Li  Li1  1  0.04196195  0.37777559  0.55240897  1
  Li  Li2  1  0.95803805  0.62222441  0.44759103  1
  Li  Li3  1  0.33581364  0.37777559  0.05240897  1
  O  O4  1  0.88108355  0.20727213  0.65984759  1
  O  O5  1  0.11891645  0.79272787  0.34015241  1
  O  O6  1  0.95204358  0.19911763  0.94369802  1
  O  O7  1  0.75292595  0.80088237  0.55630198  1
  O  O8  1  0.32618858  0.20727213  0.15984759  1
  O  O9  1  0.24707405  0.19911763  0.44369802  1
  O  O10  1  0.74284135  0.35894269  0.39310162  1
  O  O11  1  0.38389866  0.64105731  0.10689838  1
  O  O12  1  0.25715865  0.64105731  0.60689838  1
  O  O13  1  0.61610134  0.35894269  0.89310162  1
  O  O14  1  0.51771214  0.00000000  0.25000000  1
  O  O15  1  0.48228786  0.00000000  0.75000000  1
  O  O16  1  0.04795642  0.80088237  0.05630198  1
  O  O17  1  0.67381142  0.79272787  0.84015241  1
  P  P18  1  0.54076617  0.79657232  0.68323650  1
  P  P19  1  0.74419385  0.20342768  0.81676350  1
  P  P20  1  0.25580615  0.79657232  0.18323650  1
  P  P21  1  0.45923383  0.20342768  0.31676350  1
  Cu  Cu22  1  0.00000000  0.00000000  0.50000000  1
  Cu  Cu23  1  0.00000000  0.00000000  0.00000000  1
