# generated using pymatgen
data_Eu(LuSe2)2
_symmetry_space_group_name_H-M   'P 1'
_cell_length_a   4.06195314
_cell_length_b   12.41270974
_cell_length_c   14.70193932
_cell_angle_alpha   90.00000000
_cell_angle_beta   90.00000000
_cell_angle_gamma   90.00000000
_symmetry_Int_Tables_number   1
_chemical_formula_structural   Eu(LuSe2)2
_chemical_formula_sum   'Eu4 Lu8 Se16'
_cell_volume   741.26950619
_cell_formula_units_Z   4
loop_
 _symmetry_equiv_pos_site_id
 _symmetry_equiv_pos_as_xyz
  1  'x, y, z'
loop_
 _atom_site_type_symbol
 _atom_site_label
 _atom_site_symmetry_multiplicity
 _atom_site_fract_x
 _atom_site_fract_y
 _atom_site_fract_z
 _atom_site_occupancy
  Eu  Eu0  1  0.75000000  0.23973969  0.33373895  1
  Eu  Eu1  1  0.75000000  0.73973969  0.16626105  1
  Eu  Eu2  1  0.25000000  0.76026031  0.66626105  1
  Eu  Eu3  1  0.25000000  0.26026031  0.83373895  1
  Lu  Lu4  1  0.75000000  0.56100319  0.38905113  1
  Lu  Lu5  1  0.25000000  0.91662193  0.40273481  1
  Lu  Lu6  1  0.75000000  0.08337807  0.59726519  1
  Lu  Lu7  1  0.75000000  0.06100319  0.11094887  1
  Lu  Lu8  1  0.75000000  0.58337807  0.90273481  1
  Lu  Lu9  1  0.25000000  0.41662193  0.09726519  1
  Lu  Lu10  1  0.25000000  0.43899681  0.61094887  1
  Lu  Lu11  1  0.25000000  0.93899681  0.88905113  1
  Se  Se12  1  0.75000000  0.47205712  0.21569551  1
  Se  Se13  1  0.25000000  0.02794288  0.71569551  1
  Se  Se14  1  0.75000000  0.97205712  0.28430449  1
  Se  Se15  1  0.25000000  0.52794288  0.78430449  1
  Se  Se16  1  0.75000000  0.79501953  0.82979689  1
  Se  Se17  1  0.25000000  0.12956853  0.46857377  1
  Se  Se18  1  0.25000000  0.90742944  0.07722817  1
  Se  Se19  1  0.75000000  0.09257056  0.92277183  1
  Se  Se20  1  0.75000000  0.87043147  0.53142623  1
  Se  Se21  1  0.25000000  0.40742944  0.42277183  1
  Se  Se22  1  0.25000000  0.70498047  0.32979689  1
  Se  Se23  1  0.25000000  0.62956853  0.03142623  1
  Se  Se24  1  0.75000000  0.59257056  0.57722817  1
  Se  Se25  1  0.25000000  0.20498047  0.17020311  1
  Se  Se26  1  0.75000000  0.29501953  0.67020311  1
  Se  Se27  1  0.75000000  0.37043147  0.96857377  1
