# generated using pymatgen
data_K2PO3F
_symmetry_space_group_name_H-M   'P 1'
_cell_length_a   6.06130050
_cell_length_b   7.75685400
_cell_length_c   10.23903378
_cell_angle_alpha   90.00000000
_cell_angle_beta   90.00000000
_cell_angle_gamma   90.00000000
_symmetry_Int_Tables_number   1
_chemical_formula_structural   K2PO3F
_chemical_formula_sum   'K8 P4 O12 F4'
_cell_volume   481.40479141
_cell_formula_units_Z   4
loop_
 _symmetry_equiv_pos_site_id
 _symmetry_equiv_pos_as_xyz
  1  'x, y, z'
loop_
 _atom_site_type_symbol
 _atom_site_label
 _atom_site_symmetry_multiplicity
 _atom_site_fract_x
 _atom_site_fract_y
 _atom_site_fract_z
 _atom_site_occupancy
  O  O0  1  0.75000000  0.16686866  0.03736799  1
  O  O1  1  0.25000000  0.83313134  0.96263201  1
  O  O2  1  0.25000000  0.33313134  0.53736799  1
  O  O3  1  0.75000000  0.66686866  0.46263201  1
  O  O4  1  0.96208475  0.24469471  0.82805106  1
  O  O5  1  0.46208475  0.75530529  0.17194894  1
  O  O6  1  0.53791525  0.74469471  0.67194894  1
  O  O7  1  0.03791525  0.25530529  0.32805106  1
  O  O8  1  0.03791525  0.75530529  0.17194894  1
  O  O9  1  0.53791525  0.24469471  0.82805106  1
  O  O10  1  0.46208475  0.25530529  0.32805106  1
  O  O11  1  0.96208475  0.74469471  0.67194894  1
  F  F12  1  0.75000000  0.96885397  0.54937434  1
  F  F13  1  0.25000000  0.03114603  0.45062566  1
  F  F14  1  0.25000000  0.53114603  0.04937434  1
  F  F15  1  0.75000000  0.46885397  0.95062566  1
  P  P16  1  0.25000000  0.73910354  0.09342432  1
  P  P17  1  0.75000000  0.26089646  0.90657568  1
  P  P18  1  0.25000000  0.23910354  0.40657568  1
  P  P19  1  0.75000000  0.76089646  0.59342432  1
  K  K20  1  0.25000000  0.51299306  0.77549410  1
  K  K21  1  0.75000000  0.48700694  0.22450590  1
  K  K22  1  0.25000000  0.01299306  0.72450590  1
  K  K23  1  0.75000000  0.98700694  0.27549410  1
  K  K24  1  0.25000000  0.68116866  0.42993337  1
  K  K25  1  0.75000000  0.31883134  0.57006663  1
  K  K26  1  0.25000000  0.18116866  0.07006663  1
  K  K27  1  0.75000000  0.81883134  0.92993337  1
