# generated using pymatgen
data_Eu(DySe2)2
_symmetry_space_group_name_H-M   'P 1'
_cell_length_a   4.14135001
_cell_length_b   12.52724894
_cell_length_c   14.95765740
_cell_angle_alpha   90.00000000
_cell_angle_beta   90.00000000
_cell_angle_gamma   90.00000000
_symmetry_Int_Tables_number   1
_chemical_formula_structural   Eu(DySe2)2
_chemical_formula_sum   'Eu4 Dy8 Se16'
_cell_volume   775.99911551
_cell_formula_units_Z   4
loop_
 _symmetry_equiv_pos_site_id
 _symmetry_equiv_pos_as_xyz
  1  'x, y, z'
loop_
 _atom_site_type_symbol
 _atom_site_label
 _atom_site_symmetry_multiplicity
 _atom_site_fract_x
 _atom_site_fract_y
 _atom_site_fract_z
 _atom_site_occupancy
  Eu  Eu0  1  0.25000000  0.25820612  0.83585196  1
  Eu  Eu1  1  0.75000000  0.24179388  0.33585196  1
  Eu  Eu2  1  0.25000000  0.75820612  0.66414804  1
  Eu  Eu3  1  0.75000000  0.74179388  0.16414804  1
  Dy  Dy4  1  0.25000000  0.91847064  0.40127085  1
  Dy  Dy5  1  0.75000000  0.56669232  0.38982849  1
  Dy  Dy6  1  0.75000000  0.08152936  0.59872915  1
  Dy  Dy7  1  0.75000000  0.58152936  0.90127085  1
  Dy  Dy8  1  0.25000000  0.93330768  0.88982849  1
  Dy  Dy9  1  0.25000000  0.41847064  0.09872915  1
  Dy  Dy10  1  0.75000000  0.06669232  0.11017151  1
  Dy  Dy11  1  0.25000000  0.43330768  0.61017151  1
  Se  Se12  1  0.25000000  0.70747494  0.32382329  1
  Se  Se13  1  0.25000000  0.02377674  0.71595440  1
  Se  Se14  1  0.25000000  0.52377674  0.78404560  1
  Se  Se15  1  0.25000000  0.63279242  0.02973926  1
  Se  Se16  1  0.75000000  0.47622326  0.21595440  1
  Se  Se17  1  0.75000000  0.29252506  0.67617671  1
  Se  Se18  1  0.75000000  0.58928651  0.57918747  1
  Se  Se19  1  0.75000000  0.36720758  0.97026074  1
  Se  Se20  1  0.75000000  0.08928651  0.92081253  1
  Se  Se21  1  0.25000000  0.91071349  0.07918747  1
  Se  Se22  1  0.25000000  0.41071349  0.42081253  1
  Se  Se23  1  0.75000000  0.86720758  0.52973926  1
  Se  Se24  1  0.25000000  0.13279242  0.47026074  1
  Se  Se25  1  0.75000000  0.79252506  0.82382329  1
  Se  Se26  1  0.75000000  0.97622326  0.28404560  1
  Se  Se27  1  0.25000000  0.20747494  0.17617671  1
