# generated using pymatgen
data_ZnBr2
_symmetry_space_group_name_H-M   'P 1'
_cell_length_a   11.83130118
_cell_length_b   11.83130131
_cell_length_c   13.95316163
_cell_angle_alpha   115.08516058
_cell_angle_beta   115.08516083
_cell_angle_gamma   90.00000026
_symmetry_Int_Tables_number   1
_chemical_formula_structural   ZnBr2
_chemical_formula_sum   'Zn16 Br32'
_cell_volume   1563.14686762
_cell_formula_units_Z   16
loop_
 _symmetry_equiv_pos_site_id
 _symmetry_equiv_pos_as_xyz
  1  'x, y, z'
loop_
 _atom_site_type_symbol
 _atom_site_label
 _atom_site_symmetry_multiplicity
 _atom_site_fract_x
 _atom_site_fract_y
 _atom_site_fract_z
 _atom_site_occupancy
  Zn  Zn0  1  0.81198604  0.07766721  0.87392128  1
  Zn  Zn1  1  0.79625407  0.56193524  0.37392128  1
  Zn  Zn2  1  0.31198604  0.79625407  0.87392128  1
  Zn  Zn3  1  0.07766721  0.06193524  0.37392128  1
  Zn  Zn4  1  0.43806476  0.42233279  0.12607872  1
  Zn  Zn5  1  0.20374593  0.43806476  0.62607872  1
  Zn  Zn6  1  0.68801396  0.20374593  0.12607872  1
  Zn  Zn7  1  0.42233279  0.68801396  0.62607872  1
  Zn  Zn8  1  0.06193524  0.29625407  0.87392128  1
  Zn  Zn9  1  0.57766721  0.31198604  0.37392128  1
  Zn  Zn10  1  0.18801396  0.92233279  0.12607872  1
  Zn  Zn11  1  0.70374593  0.18801396  0.62607872  1
  Zn  Zn12  1  0.92233279  0.93806476  0.62607872  1
  Zn  Zn13  1  0.93806476  0.70374593  0.12607872  1
  Zn  Zn14  1  0.29625407  0.81198604  0.37392128  1
  Zn  Zn15  1  0.56193524  0.57766721  0.87392128  1
  Br  Br16  1  0.25000000  0.97494729  0.00000000  1
  Br  Br17  1  0.39011447  0.38469433  0.75153383  1
  Br  Br18  1  0.36683949  0.86141936  0.25153383  1
  Br  Br19  1  0.50199303  0.75199303  0.00398606  1
  Br  Br20  1  0.36141936  0.86683949  0.75153383  1
  Br  Br21  1  0.60988553  0.61530567  0.24846617  1
  Br  Br22  1  0.61530567  0.63858064  0.74846617  1
  Br  Br23  1  0.00199303  0.25199303  0.00398606  1
  Br  Br24  1  0.63316051  0.13858064  0.74846617  1
  Br  Br25  1  0.86683949  0.39011447  0.25153383  1
  Br  Br26  1  0.49800697  0.24800697  0.99601394  1
  Br  Br27  1  0.52505271  0.25000000  0.50000000  1
  Br  Br28  1  0.86141936  0.88469433  0.75153383  1
  Br  Br29  1  0.25000000  0.47494729  0.00000000  1
  Br  Br30  1  0.99800697  0.74800697  0.99601394  1
  Br  Br31  1  0.97494729  0.75000000  0.50000000  1
  Br  Br32  1  0.47494729  0.75000000  0.50000000  1
  Br  Br33  1  0.75000000  0.02505271  1.00000000  1
  Br  Br34  1  0.13316051  0.60988553  0.74846617  1
  Br  Br35  1  0.89011447  0.36683949  0.75153383  1
  Br  Br36  1  0.75199303  0.50199303  0.50398606  1
  Br  Br37  1  0.88469433  0.89011447  0.25153383  1
  Br  Br38  1  0.13858064  0.11530567  0.24846617  1
  Br  Br39  1  0.10988553  0.63316051  0.24846617  1
  Br  Br40  1  0.25199303  0.00199303  0.50398606  1
  Br  Br41  1  0.38469433  0.36141936  0.25153383  1
  Br  Br42  1  0.75000000  0.52505271  1.00000000  1
  Br  Br43  1  0.74800697  0.99800697  0.49601394  1
  Br  Br44  1  0.63858064  0.13316051  0.24846617  1
  Br  Br45  1  0.02505271  0.25000000  0.50000000  1
  Br  Br46  1  0.24800697  0.49800697  0.49601394  1
  Br  Br47  1  0.11530567  0.10988553  0.74846617  1
