# generated using pymatgen
data_CaSi2(BO4)2
_symmetry_space_group_name_H-M   'P 1'
_cell_length_a   7.80844655
_cell_length_b   8.15174175
_cell_length_c   8.86151739
_cell_angle_alpha   90.00000000
_cell_angle_beta   90.00000000
_cell_angle_gamma   90.00000000
_symmetry_Int_Tables_number   1
_chemical_formula_structural   CaSi2(BO4)2
_chemical_formula_sum   'Ca4 Si8 B8 O32'
_cell_volume   564.05720171
_cell_formula_units_Z   4
loop_
 _symmetry_equiv_pos_site_id
 _symmetry_equiv_pos_as_xyz
  1  'x, y, z'
loop_
 _atom_site_type_symbol
 _atom_site_label
 _atom_site_symmetry_multiplicity
 _atom_site_fract_x
 _atom_site_fract_y
 _atom_site_fract_z
 _atom_site_occupancy
  B  B0  1  0.57948600  0.26009799  0.58170259  1
  B  B1  1  0.57948600  0.76009799  0.91829741  1
  B  B2  1  0.07948600  0.23990201  0.08170259  1
  B  B3  1  0.92051400  0.26009799  0.58170259  1
  B  B4  1  0.42051400  0.73990201  0.41829741  1
  B  B5  1  0.07948600  0.73990201  0.41829741  1
  B  B6  1  0.92051400  0.76009799  0.91829741  1
  B  B7  1  0.42051400  0.23990201  0.08170259  1
  O  O8  1  0.25000000  0.31397791  0.07255646  1
  O  O9  1  0.75000000  0.18602209  0.57255646  1
  O  O10  1  0.25000000  0.81397791  0.42744354  1
  O  O11  1  0.75000000  0.68602209  0.92744354  1
  O  O12  1  0.25000000  0.98868795  0.83500695  1
  O  O13  1  0.75000000  0.01131205  0.16499305  1
  O  O14  1  0.25000000  0.48868795  0.66499305  1
  O  O15  1  0.75000000  0.51131205  0.33500695  1
  O  O16  1  0.92218582  0.90024409  0.81315391  1
  O  O17  1  0.42218582  0.09975591  0.18684609  1
  O  O18  1  0.57781418  0.40024409  0.68684609  1
  O  O19  1  0.07781418  0.59975591  0.31315391  1
  O  O20  1  0.00271249  0.19305393  0.93348394  1
  O  O21  1  0.50271249  0.80694607  0.06651606  1
  O  O22  1  0.49728751  0.69305393  0.56651606  1
  O  O23  1  0.99728751  0.30694607  0.43348394  1
  O  O24  1  0.99728751  0.80694607  0.06651606  1
  O  O25  1  0.49728751  0.19305393  0.93348394  1
  O  O26  1  0.50271249  0.30694607  0.43348394  1
  O  O27  1  0.00271249  0.69305393  0.56651606  1
  O  O28  1  0.04116303  0.12803868  0.63567759  1
  O  O29  1  0.54116303  0.87196132  0.36432241  1
  O  O30  1  0.45883697  0.62803868  0.86432241  1
  O  O31  1  0.95883697  0.37196132  0.13567759  1
  O  O32  1  0.95883697  0.87196132  0.36432241  1
  O  O33  1  0.45883697  0.12803868  0.63567759  1
  O  O34  1  0.54116303  0.37196132  0.13567759  1
  O  O35  1  0.04116303  0.62803868  0.86432241  1
  O  O36  1  0.92218582  0.40024409  0.68684609  1
  O  O37  1  0.42218582  0.59975591  0.31315391  1
  O  O38  1  0.57781418  0.90024409  0.81315391  1
  O  O39  1  0.07781418  0.09975591  0.18684609  1
  Si  Si40  1  0.05520882  0.55476205  0.69201171  1
  Si  Si41  1  0.55520882  0.44523795  0.30798829  1
  Si  Si42  1  0.44479118  0.05476205  0.80798829  1
  Si  Si43  1  0.94479118  0.94523795  0.19201171  1
  Si  Si44  1  0.94479118  0.44523795  0.30798829  1
  Si  Si45  1  0.44479118  0.55476205  0.69201171  1
  Si  Si46  1  0.55520882  0.94523795  0.19201171  1
  Si  Si47  1  0.05520882  0.05476205  0.80798829  1
  Ca  Ca48  1  0.25000000  0.11196318  0.42388261  1
  Ca  Ca49  1  0.75000000  0.88803682  0.57611739  1
  Ca  Ca50  1  0.25000000  0.61196318  0.07611739  1
  Ca  Ca51  1  0.75000000  0.38803682  0.92388261  1
