# generated using pymatgen
data_CeSiP3
_symmetry_space_group_name_H-M   'P 1'
_cell_length_a   5.67187466
_cell_length_b   5.85785123
_cell_length_c   24.57401027
_cell_angle_alpha   90.00664584
_cell_angle_beta   89.89477743
_cell_angle_gamma   90.01639697
_symmetry_Int_Tables_number   1
_chemical_formula_structural   CeSiP3
_chemical_formula_sum   'Ce8 Si8 P24'
_cell_volume   816.47002552
_cell_formula_units_Z   8
loop_
 _symmetry_equiv_pos_site_id
 _symmetry_equiv_pos_as_xyz
  1  'x, y, z'
loop_
 _atom_site_type_symbol
 _atom_site_label
 _atom_site_symmetry_multiplicity
 _atom_site_fract_x
 _atom_site_fract_y
 _atom_site_fract_z
 _atom_site_occupancy
  Ce  Ce0  1  0.75271852  0.02484437  0.59522423  1
  Ce  Ce1  1  0.75264337  0.52470386  0.90502327  1
  Ce  Ce2  1  0.25281336  0.47459478  0.09533072  1
  Ce  Ce3  1  0.25429044  0.52175201  0.58637876  1
  Ce  Ce4  1  0.75465612  0.97821652  0.08606611  1
  Ce  Ce5  1  0.25264217  0.97472321  0.40444617  1
  Ce  Ce6  1  0.25430406  0.02183271  0.91382053  1
  Ce  Ce7  1  0.75427743  0.47822416  0.41354575  1
  Si  Si8  1  0.33958144  0.05677650  0.20503991  1
  Si  Si9  1  0.83978248  0.44309925  0.70509072  1
  Si  Si10  1  0.83511654  0.88341910  0.29161442  1
  Si  Si11  1  0.83502475  0.38313987  0.20822362  1
  Si  Si12  1  0.33945571  0.55696215  0.29497269  1
  Si  Si13  1  0.33499448  0.11661608  0.70854911  1
  Si  Si14  1  0.33496201  0.61668869  0.79164440  1
  Si  Si15  1  0.83963675  0.94328435  0.79488420  1
  P  P16  1  0.74924964  0.02955827  0.87866337  1
  P  P17  1  0.72640283  0.08257376  0.71447262  1
  P  P18  1  0.24937496  0.47065265  0.37869372  1
  P  P19  1  0.22956398  0.48041609  0.70968789  1
  P  P20  1  0.72965303  0.01956876  0.20928917  1
  P  P21  1  0.55582876  0.30780136  0.99892000  1
  P  P22  1  0.24924108  0.97072989  0.12096851  1
  P  P23  1  0.74917636  0.52954417  0.62124569  1
  P  P24  1  0.96924214  0.81205463  0.50250748  1
  P  P25  1  0.47117348  0.68884790  0.00278024  1
  P  P26  1  0.74880331  0.48541635  0.12507973  1
  P  P27  1  0.22976159  0.98073804  0.79014796  1
  P  P28  1  0.05474371  0.19111097  0.49862992  1
  P  P29  1  0.72635568  0.58284006  0.78560581  1
  P  P30  1  0.24874743  0.01462149  0.62517016  1
  P  P31  1  0.74883129  0.98535121  0.37473620  1
  P  P32  1  0.22658750  0.91753776  0.28556036  1
  P  P33  1  0.22651774  0.41723256  0.21436560  1
  P  P34  1  0.05338672  0.69139324  0.00168048  1
  P  P35  1  0.24893301  0.51480785  0.87465264  1
  P  P36  1  0.55518994  0.80899238  0.50145187  1
  P  P37  1  0.96875690  0.31145018  0.99785153  1
  P  P38  1  0.72960205  0.51984906  0.29037675  1
  P  P39  1  0.46957724  0.18803375  0.49760770  1
