# generated using pymatgen
data_LiNbGeO5
_symmetry_space_group_name_H-M   'P 1'
_cell_length_a   6.79105079
_cell_length_b   7.63831360
_cell_length_c   7.91911569
_cell_angle_alpha   90.00000000
_cell_angle_beta   90.00000000
_cell_angle_gamma   90.00000000
_symmetry_Int_Tables_number   1
_chemical_formula_structural   LiNbGeO5
_chemical_formula_sum   'Li4 Nb4 Ge4 O20'
_cell_volume   410.78175973
_cell_formula_units_Z   4
loop_
 _symmetry_equiv_pos_site_id
 _symmetry_equiv_pos_as_xyz
  1  'x, y, z'
loop_
 _atom_site_type_symbol
 _atom_site_label
 _atom_site_symmetry_multiplicity
 _atom_site_fract_x
 _atom_site_fract_y
 _atom_site_fract_z
 _atom_site_occupancy
  Li  Li0  1  0.00000000  0.00000000  0.00000000  1
  Li  Li1  1  0.50000000  0.00000000  0.00000000  1
  Li  Li2  1  0.00000000  0.50000000  0.50000000  1
  Li  Li3  1  0.50000000  0.50000000  0.50000000  1
  O  O4  1  0.95922728  0.76621745  0.12445348  1
  O  O5  1  0.25000000  0.84009607  0.88501557  1
  O  O6  1  0.75000000  0.15990393  0.11498443  1
  O  O7  1  0.75000000  0.34009607  0.61498443  1
  O  O8  1  0.25000000  0.65990393  0.38501557  1
  O  O9  1  0.04077272  0.26621745  0.37554652  1
  O  O10  1  0.54077272  0.73378255  0.62445348  1
  O  O11  1  0.25000000  0.00017026  0.55504871  1
  O  O12  1  0.25000000  0.50171614  0.68569160  1
  O  O13  1  0.75000000  0.49828386  0.31430840  1
  O  O14  1  0.75000000  0.00171614  0.81430840  1
  O  O15  1  0.25000000  0.99828386  0.18569160  1
  O  O16  1  0.75000000  0.50017026  0.94495129  1
  O  O17  1  0.75000000  0.99982974  0.44495129  1
  O  O18  1  0.95922728  0.73378255  0.62445348  1
  O  O19  1  0.25000000  0.49982974  0.05504871  1
  O  O20  1  0.54077272  0.76621745  0.12445348  1
  O  O21  1  0.04077272  0.23378255  0.87554652  1
  O  O22  1  0.45922728  0.26621745  0.37554652  1
  O  O23  1  0.45922728  0.23378255  0.87554652  1
  Ge  Ge24  1  0.75000000  0.63064545  0.13075341  1
  Ge  Ge25  1  0.75000000  0.86935455  0.63075341  1
  Ge  Ge26  1  0.25000000  0.13064545  0.36924659  1
  Ge  Ge27  1  0.25000000  0.36935455  0.86924659  1
  Nb  Nb28  1  0.25000000  0.72574795  0.16338352  1
  Nb  Nb29  1  0.25000000  0.77425205  0.66338352  1
  Nb  Nb30  1  0.75000000  0.22574795  0.33661648  1
  Nb  Nb31  1  0.75000000  0.27425205  0.83661648  1
