# generated using pymatgen
data_Na2CuP2O7
_symmetry_space_group_name_H-M   'P 1'
_cell_length_a   5.83841997
_cell_length_b   7.97348767
_cell_length_c   8.13301248
_cell_angle_alpha   113.03179280
_cell_angle_beta   90.00000000
_cell_angle_gamma   111.47619112
_symmetry_Int_Tables_number   1
_chemical_formula_structural   Na2CuP2O7
_chemical_formula_sum   'Na4 Cu2 P4 O14'
_cell_volume   319.67328276
_cell_formula_units_Z   2
loop_
 _symmetry_equiv_pos_site_id
 _symmetry_equiv_pos_as_xyz
  1  'x, y, z'
loop_
 _atom_site_type_symbol
 _atom_site_label
 _atom_site_symmetry_multiplicity
 _atom_site_fract_x
 _atom_site_fract_y
 _atom_site_fract_z
 _atom_site_occupancy
  O  O0  1  0.47647728  0.00000000  0.25000000  1
  O  O1  1  0.52352272  0.00000000  0.75000000  1
  O  O2  1  0.27677943  0.21821319  0.20026650  1
  O  O3  1  0.05856624  0.78178681  0.29973350  1
  O  O4  1  0.72322057  0.78178681  0.79973350  1
  O  O5  1  0.94143376  0.21821319  0.70026650  1
  O  O6  1  0.69977498  0.37514811  0.39844583  1
  O  O7  1  0.32462687  0.62485189  0.10155417  1
  O  O8  1  0.30022502  0.62485189  0.60155417  1
  O  O9  1  0.67537313  0.37514811  0.89844583  1
  O  O10  1  0.88996629  0.20393729  0.00853048  1
  O  O11  1  0.68602900  0.79606271  0.49146952  1
  O  O12  1  0.11003371  0.79606271  0.99146952  1
  O  O13  1  0.31397100  0.20393729  0.50853048  1
  Na  Na14  1  0.91368602  0.54367039  0.70051734  1
  Na  Na15  1  0.37001563  0.45632961  0.79948266  1
  Na  Na16  1  0.08631398  0.45632961  0.29948266  1
  Na  Na17  1  0.62998437  0.54367039  0.20051734  1
  P  P18  1  0.44289033  0.20956750  0.34379495  1
  P  P19  1  0.23332283  0.79043250  0.15620505  1
  P  P20  1  0.55710967  0.79043250  0.65620505  1
  P  P21  1  0.76667717  0.20956750  0.84379495  1
  Cu  Cu22  1  0.00000000  0.00000000  0.50000000  1
  Cu  Cu23  1  0.00000000  0.00000000  0.00000000  1
