# generated using pymatgen
data_CeP5O14
_symmetry_space_group_name_H-M   'P 1'
_cell_length_a   8.94657901
_cell_length_b   9.22317487
_cell_length_c   13.27491647
_cell_angle_alpha   89.99542538
_cell_angle_beta   89.99797282
_cell_angle_gamma   90.03131102
_symmetry_Int_Tables_number   1
_chemical_formula_structural   CeP5O14
_chemical_formula_sum   'Ce4 P20 O56'
_cell_volume   1095.39101687
_cell_formula_units_Z   4
loop_
 _symmetry_equiv_pos_site_id
 _symmetry_equiv_pos_as_xyz
  1  'x, y, z'
loop_
 _atom_site_type_symbol
 _atom_site_label
 _atom_site_symmetry_multiplicity
 _atom_site_fract_x
 _atom_site_fract_y
 _atom_site_fract_z
 _atom_site_occupancy
  Ce  Ce0  1  0.27693039  0.18891120  0.00000001  1
  Ce  Ce1  1  0.27694934  0.31117380  0.49999914  1
  Ce  Ce2  1  0.72308036  0.81110023  0.00000213  1
  Ce  Ce3  1  0.72306338  0.68871188  0.50002089  1
  P  P4  1  0.68695457  0.25282701  0.49999716  1
  P  P5  1  0.31303747  0.74716039  0.50000007  1
  P  P6  1  0.23568704  0.95024421  0.66321496  1
  P  P7  1  0.00001772  0.49999678  0.67614347  1
  P  P8  1  0.68704008  0.24718623  0.00000313  1
  P  P9  1  0.76431223  0.04976732  0.66321875  1
  P  P10  1  0.50000805  -0.00001584  0.79390826  1
  P  P11  1  0.23568285  0.54981943  0.16317026  1
  P  P12  1  0.00000820  0.49999735  0.32385660  1
  P  P13  1  0.76432437  0.45020077  0.16316282  1
  P  P14  1  0.31299264  0.75280244  0.99999740  1
  P  P15  1  0.49998612  0.49999458  0.29389247  1
  P  P16  1  0.76431781  0.45021065  0.83683590  1
  P  P17  1  0.49998236  0.49998820  0.70610677  1
  P  P18  1  -0.00001621  -0.00002279  0.17623002  1
  P  P19  1  0.23568012  0.95025443  0.33678144  1
  P  P20  1  -0.00001152  -0.00001598  0.82376978  1
  P  P21  1  0.23567734  0.54983028  0.83683228  1
  P  P22  1  0.76430797  0.04977832  0.33678205  1
  P  P23  1  0.50001708  -0.00001498  0.20609211  1
  O  O24  1  0.41407211  0.11451776  0.84755619  1
  O  O25  1  0.77474611  0.90786901  0.61261833  1
  O  O26  1  0.53468560  0.18674324  0.50000076  1
  O  O27  1  0.78649644  0.18728393  0.59348254  1
  O  O28  1  0.22523221  0.09213573  0.38739570  1
  O  O29  1  0.11248515  0.91794499  0.25498601  1
  O  O30  1  0.21353922  0.68722688  0.09351692  1
  O  O31  1  0.60955020  0.41504523  0.78437636  1
  O  O32  1  0.39046136  0.58497536  0.78436912  1
  O  O33  1  0.39033499  0.91502881  0.71561714  1
  O  O34  1  0.46527872  0.68680779  0.99999971  1
  O  O35  1  0.88755585  0.41794307  0.24501476  1
  O  O36  1  0.88755553  0.41794189  0.75498597  1
  O  O37  1  0.77475184  0.90786193  0.38737879  1
  O  O38  1  0.58599444  0.61460120  0.34756742  1
  O  O39  1  0.08049776  0.38259699  0.62167821  1
  O  O40  1  0.41399883  0.38538630  0.34755367  1
  O  O41  1  0.91947732  0.88257586  0.87835251  1
  O  O42  1  0.71095012  0.08772528  0.00000082  1
  O  O43  1  0.28899172  0.58769076  0.50000133  1
  O  O44  1  0.91948047  0.61740730  0.62168712  1
  O  O45  1  0.22522619  0.40788923  0.88740856  1
  O  O46  1  0.11248149  0.91794377  0.74501710  1
  O  O47  1  0.60954732  0.41504500  0.21562561  1
  O  O48  1  0.88752321  0.08206759  0.74500662  1
  O  O49  1  0.22522741  0.40789641  0.11259443  1
  O  O50  1  0.28902476  0.91226283  -0.00000121  1
  O  O51  1  0.21354314  0.68722338  0.90648125  1
  O  O52  1  0.21350818  0.81271774  0.40651997  1
  O  O53  1  0.91947642  0.61740226  0.37831217  1
  O  O54  1  0.41400333  0.38539139  0.65245004  1
  O  O55  1  0.91948112  0.88258222  0.12165198  1
  O  O56  1  0.08049780  0.38259297  0.37832424  1
  O  O57  1  0.78644297  0.31280168  0.09352147  1
  O  O58  1  0.11243445  0.58206645  0.75498606  1
  O  O59  1  0.77479310  0.59210800  0.11259092  1
  O  O60  1  0.46532233  0.81327043  0.50000093  1
  O  O61  1  0.78649365  0.18728033  0.40651246  1
  O  O62  1  0.53474471  0.31319605  -0.00000001  1
  O  O63  1  0.78644642  0.31280020  0.90647807  1
  O  O64  1  0.77479088  0.59210199  0.88740483  1
  O  O65  1  0.21351101  0.81272337  0.59348424  1
  O  O66  1  0.39033269  0.91502595  0.28438514  1
  O  O67  1  0.71101411  0.41232370  0.49999736  1
  O  O68  1  0.58594236  0.88546807  0.84756138  1
  O  O69  1  0.22523205  0.09214200  0.61260058  1
  O  O70  1  0.39045549  0.58497499  0.21562681  1
  O  O71  1  0.60965946  0.08498450  0.28438656  1
  O  O72  1  0.08052266  0.11740398  0.12165745  1
  O  O73  1  0.11243525  0.58206813  0.24501165  1
  O  O74  1  0.88752897  0.08207120  0.25498723  1
  O  O75  1  0.58594164  0.88547122  0.15243973  1
  O  O76  1  0.41407184  0.11451973  0.15244121  1
  O  O77  1  0.60966139  0.08498726  0.71561043  1
  O  O78  1  0.58599688  0.61460302  0.65243014  1
  O  O79  1  0.08051957  0.11739772  0.87833733  1
