# generated using pymatgen
data_K2Cu(ClF)2
_symmetry_space_group_name_H-M   'P 1'
_cell_length_a   5.04449745
_cell_length_b   5.03504232
_cell_length_c   7.29754219
_cell_angle_alpha   110.19397541
_cell_angle_beta   110.23350456
_cell_angle_gamma   89.96395243
_symmetry_Int_Tables_number   1
_chemical_formula_structural   K2Cu(ClF)2
_chemical_formula_sum   'K2 Cu1 Cl2 F2'
_cell_volume   161.73258514
_cell_formula_units_Z   1
loop_
 _symmetry_equiv_pos_site_id
 _symmetry_equiv_pos_as_xyz
  1  'x, y, z'
loop_
 _atom_site_type_symbol
 _atom_site_label
 _atom_site_symmetry_multiplicity
 _atom_site_fract_x
 _atom_site_fract_y
 _atom_site_fract_z
 _atom_site_occupancy
  K  K0  1  0.65113826  0.65113826  0.30227653  1
  K  K1  1  0.34886174  0.34886174  0.69772347  1
  Cu  Cu2  1  -0.00000000  -0.00000000  -0.00000000  1
  Cl  Cl3  1  0.50000000  -0.00000000  -0.00000000  1
  Cl  Cl4  1  -0.00000000  0.50000000  -0.00000000  1
  F  F5  1  0.84927256  0.84927256  0.69854613  1
  F  F6  1  0.15072744  0.15072744  0.30145387  1
