# generated using pymatgen
data_CaMgSiO4
_symmetry_space_group_name_H-M   'P 1'
_cell_length_a   4.86888321
_cell_length_b   6.43127110
_cell_length_c   11.22358858
_cell_angle_alpha   90.00000000
_cell_angle_beta   90.00000000
_cell_angle_gamma   90.00000000
_symmetry_Int_Tables_number   1
_chemical_formula_structural   CaMgSiO4
_chemical_formula_sum   'Ca4 Mg4 Si4 O16'
_cell_volume   351.44543998
_cell_formula_units_Z   4
loop_
 _symmetry_equiv_pos_site_id
 _symmetry_equiv_pos_as_xyz
  1  'x, y, z'
loop_
 _atom_site_type_symbol
 _atom_site_label
 _atom_site_symmetry_multiplicity
 _atom_site_fract_x
 _atom_site_fract_y
 _atom_site_fract_z
 _atom_site_occupancy
  O  O0  1  0.22796933  0.45530736  0.64735223  1
  O  O1  1  0.72796933  0.54469264  0.85264777  1
  O  O2  1  0.77203067  0.95530736  0.35264777  1
  O  O3  1  0.27203067  0.04469264  0.14735223  1
  O  O4  1  0.77203067  0.54469264  0.35264777  1
  O  O5  1  0.27203067  0.45530736  0.14735223  1
  O  O6  1  0.22796933  0.04469264  0.64735223  1
  O  O7  1  0.72796933  0.95530736  0.85264777  1
  O  O8  1  0.74765818  0.75000000  0.05124008  1
  O  O9  1  0.24765818  0.25000000  0.44875992  1
  O  O10  1  0.25234182  0.25000000  0.94875992  1
  O  O11  1  0.75234182  0.75000000  0.55124008  1
  O  O12  1  0.25370502  0.75000000  0.92237365  1
  O  O13  1  0.75370502  0.25000000  0.57762635  1
  O  O14  1  0.74629498  0.25000000  0.07762635  1
  O  O15  1  0.24629498  0.75000000  0.42237365  1
  Mg  Mg16  1  0.00000000  0.00000000  0.00000000  1
  Mg  Mg17  1  0.00000000  0.50000000  0.00000000  1
  Mg  Mg18  1  0.50000000  0.00000000  0.50000000  1
  Mg  Mg19  1  0.50000000  0.50000000  0.50000000  1
  Si  Si20  1  0.08932077  0.25000000  0.58121140  1
  Si  Si21  1  0.41067923  0.25000000  0.08121140  1
  Si  Si22  1  0.91067923  0.75000000  0.41878860  1
  Si  Si23  1  0.58932077  0.75000000  0.91878860  1
  Ca  Ca24  1  0.02084288  0.75000000  0.72293169  1
  Ca  Ca25  1  0.97915712  0.25000000  0.27706831  1
  Ca  Ca26  1  0.47915712  0.75000000  0.22293169  1
  Ca  Ca27  1  0.52084288  0.25000000  0.77706831  1
