# generated using pymatgen
data_YbMn4(CuO4)3
_symmetry_space_group_name_H-M   'P 1'
_cell_length_a   6.38481655
_cell_length_b   6.38482124
_cell_length_c   6.38480246
_cell_angle_alpha   109.46247409
_cell_angle_beta   109.47200009
_cell_angle_gamma   109.47987989
_symmetry_Int_Tables_number   1
_chemical_formula_structural   YbMn4(CuO4)3
_chemical_formula_sum   'Yb1 Mn4 Cu3 O12'
_cell_volume   200.36369068
_cell_formula_units_Z   1
loop_
 _symmetry_equiv_pos_site_id
 _symmetry_equiv_pos_as_xyz
  1  'x, y, z'
loop_
 _atom_site_type_symbol
 _atom_site_label
 _atom_site_symmetry_multiplicity
 _atom_site_fract_x
 _atom_site_fract_y
 _atom_site_fract_z
 _atom_site_occupancy
  Yb  Yb0  1  -0.00000032  -0.00000135  -0.00000110  1
  Mn  Mn1  1  0.00000250  0.00000095  0.50000151  1
  Mn  Mn2  1  0.49999878  -0.00000178  -0.00000278  1
  Mn  Mn3  1  0.50000243  0.50000393  0.50000267  1
  Mn  Mn4  1  -0.00000087  0.50000068  -0.00000004  1
  Cu  Cu5  1  0.49999969  0.00000127  0.49999937  1
  Cu  Cu6  1  0.49999825  0.49999757  1.00000012  1
  Cu  Cu7  1  0.00000256  0.50000354  0.49999858  1
  O  O8  1  0.13632628  0.82919963  0.30712661  1
  O  O9  1  0.17078828  0.30720936  0.47799624  1
  O  O10  1  0.17078756  0.69278881  0.86357914  1
  O  O11  1  0.86367338  0.17080047  0.69287436  1
  O  O12  1  0.47792511  0.17079843  0.30712653  1
  O  O13  1  0.69282713  0.86364021  0.17081401  1
  O  O14  1  0.69282397  0.52201296  0.82918515  1
  O  O15  1  0.82921218  0.69278991  0.52200368  1
  O  O16  1  0.82921216  0.30720828  0.13642189  1
  O  O17  1  0.52207395  0.82919976  0.69287408  1
  O  O18  1  0.30717361  0.47798749  0.17081401  1
  O  O19  1  0.30717336  0.13635988  0.82918597  1
