# generated using pymatgen
data_La3LuSe6
_symmetry_space_group_name_H-M   'P 1'
_cell_length_a   4.20360490
_cell_length_b   14.80810294
_cell_length_c   17.78692869
_cell_angle_alpha   90.00000000
_cell_angle_beta   90.00000000
_cell_angle_gamma   90.00000000
_symmetry_Int_Tables_number   1
_chemical_formula_structural   La3LuSe6
_chemical_formula_sum   'La12 Lu4 Se24'
_cell_volume   1107.19031535
_cell_formula_units_Z   4
loop_
 _symmetry_equiv_pos_site_id
 _symmetry_equiv_pos_as_xyz
  1  'x, y, z'
loop_
 _atom_site_type_symbol
 _atom_site_label
 _atom_site_symmetry_multiplicity
 _atom_site_fract_x
 _atom_site_fract_y
 _atom_site_fract_z
 _atom_site_occupancy
  La  La0  1  0.00000000  0.25152116  0.39999170  1
  La  La1  1  0.50000000  0.24847884  0.89999170  1
  La  La2  1  0.00000000  0.95096856  0.78147876  1
  La  La3  1  0.50000000  0.31930079  0.15110601  1
  La  La4  1  0.00000000  0.74847884  0.60000830  1
  La  La5  1  0.50000000  0.75152116  0.10000830  1
  La  La6  1  0.50000000  0.45096856  0.71852124  1
  La  La7  1  0.00000000  0.04903144  0.21852124  1
  La  La8  1  0.00000000  0.18069921  0.65110601  1
  La  La9  1  0.50000000  0.54903144  0.28147876  1
  La  La10  1  0.50000000  0.68069921  0.84889399  1
  La  La11  1  0.00000000  0.81930079  0.34889399  1
  Lu  Lu12  1  0.00000000  0.50000000  0.00000000  1
  Lu  Lu13  1  0.00000000  0.50000000  0.50000000  1
  Lu  Lu14  1  0.50000000  0.00000000  0.50000000  1
  Lu  Lu15  1  0.50000000  0.00000000  0.00000000  1
  Se  Se16  1  0.00000000  0.31347757  0.78987938  1
  Se  Se17  1  0.50000000  0.59090422  0.57830592  1
  Se  Se18  1  0.50000000  0.18652243  0.28987938  1
  Se  Se19  1  0.50000000  0.81347757  0.71012062  1
  Se  Se20  1  0.00000000  0.60450493  0.74554457  1
  Se  Se21  1  0.50000000  0.40909578  0.42169408  1
  Se  Se22  1  0.00000000  0.09090422  0.92169408  1
  Se  Se23  1  0.50000000  0.10450493  0.75445543  1
  Se  Se24  1  0.00000000  0.37471389  0.61018979  1
  Se  Se25  1  0.50000000  0.87471389  0.88981021  1
  Se  Se26  1  0.00000000  0.68652243  0.21012062  1
  Se  Se27  1  0.00000000  0.62528611  0.38981021  1
  Se  Se28  1  0.50000000  0.89549507  0.24554457  1
  Se  Se29  1  0.00000000  0.68745719  0.97655766  1
  Se  Se30  1  0.00000000  0.39549507  0.25445543  1
  Se  Se31  1  0.50000000  0.81254281  0.47655766  1
  Se  Se32  1  0.00000000  0.97669305  0.60499815  1
  Se  Se33  1  0.50000000  0.47669305  0.89500185  1
  Se  Se34  1  0.00000000  0.02330695  0.39500185  1
  Se  Se35  1  0.50000000  0.12528611  0.11018979  1
  Se  Se36  1  0.00000000  0.31254281  0.02344234  1
  Se  Se37  1  0.50000000  0.18745719  0.52344234  1
  Se  Se38  1  0.50000000  0.52330695  0.10499815  1
  Se  Se39  1  0.00000000  0.90909578  0.07830592  1
