# generated using pymatgen
data_CsSO2F
_symmetry_space_group_name_H-M   'P 1'
_cell_length_a   6.78145019
_cell_length_b   8.23595344
_cell_length_c   8.15098969
_cell_angle_alpha   90.00000000
_cell_angle_beta   90.00000000
_cell_angle_gamma   90.00000000
_symmetry_Int_Tables_number   1
_chemical_formula_structural   CsSO2F
_chemical_formula_sum   'Cs4 S4 O8 F4'
_cell_volume   455.24669624
_cell_formula_units_Z   4
loop_
 _symmetry_equiv_pos_site_id
 _symmetry_equiv_pos_as_xyz
  1  'x, y, z'
loop_
 _atom_site_type_symbol
 _atom_site_label
 _atom_site_symmetry_multiplicity
 _atom_site_fract_x
 _atom_site_fract_y
 _atom_site_fract_z
 _atom_site_occupancy
  O  O0  1  0.93066159  0.09647459  0.23445520  1
  O  O1  1  0.43066159  0.90352541  0.76554480  1
  O  O2  1  0.06933841  0.40352541  0.73445520  1
  O  O3  1  0.56933841  0.59647459  0.26554480  1
  O  O4  1  0.56933841  0.09647459  0.23445520  1
  O  O5  1  0.06933841  0.90352541  0.76554480  1
  O  O6  1  0.93066159  0.59647459  0.26554480  1
  O  O7  1  0.43066159  0.40352541  0.73445520  1
  F  F8  1  0.75000000  0.74537178  0.49053858  1
  F  F9  1  0.25000000  0.25462822  0.50946142  1
  F  F10  1  0.25000000  0.75462822  0.99053858  1
  F  F11  1  0.75000000  0.24537178  0.00946142  1
  S  S12  1  0.25000000  0.93404186  0.86279599  1
  S  S13  1  0.75000000  0.06595814  0.13720401  1
  S  S14  1  0.25000000  0.43404186  0.63720401  1
  S  S15  1  0.75000000  0.56595814  0.36279599  1
  Cs  Cs16  1  0.25000000  0.35503372  0.11644303  1
  Cs  Cs17  1  0.75000000  0.64496628  0.88355697  1
  Cs  Cs18  1  0.25000000  0.85503372  0.38355697  1
  Cs  Cs19  1  0.75000000  0.14496628  0.61644303  1
