# generated using pymatgen
data_Pr3(Ge3Pt2)2
_symmetry_space_group_name_H-M   'P 1'
_cell_length_a   4.49545000
_cell_length_b   9.01779341
_cell_length_c   26.63358767
_cell_angle_alpha   90.00000000
_cell_angle_beta   90.00000000
_cell_angle_gamma   90.00000000
_symmetry_Int_Tables_number   1
_chemical_formula_structural   Pr3(Ge3Pt2)2
_chemical_formula_sum   'Pr12 Ge24 Pt16'
_cell_volume   1079.70005952
_cell_formula_units_Z   4
loop_
 _symmetry_equiv_pos_site_id
 _symmetry_equiv_pos_as_xyz
  1  'x, y, z'
loop_
 _atom_site_type_symbol
 _atom_site_label
 _atom_site_symmetry_multiplicity
 _atom_site_fract_x
 _atom_site_fract_y
 _atom_site_fract_z
 _atom_site_occupancy
  Pr  Pr0  1  0.25000000  0.87503111  0.72087854  1
  Pr  Pr1  1  0.75000000  0.88289517  0.40779301  1
  Pr  Pr2  1  0.25000000  0.38289517  0.09220699  1
  Pr  Pr3  1  0.75000000  0.61710483  0.90779301  1
  Pr  Pr4  1  0.75000000  0.36794421  0.40755934  1
  Pr  Pr5  1  0.75000000  0.12496889  0.27912146  1
  Pr  Pr6  1  0.25000000  0.11710483  0.59220699  1
  Pr  Pr7  1  0.25000000  0.63205579  0.59244066  1
  Pr  Pr8  1  0.25000000  0.86794421  0.09244066  1
  Pr  Pr9  1  0.75000000  0.37503111  0.77912146  1
  Pr  Pr10  1  0.25000000  0.62496889  0.22087854  1
  Pr  Pr11  1  0.75000000  0.13205579  0.90755934  1
  Ge  Ge12  1  0.75000000  0.87618270  0.99851963  1
  Ge  Ge13  1  0.25000000  0.62769060  0.35837409  1
  Ge  Ge14  1  0.25000000  0.12729130  0.36167935  1
  Ge  Ge15  1  0.25000000  0.27248036  0.21441701  1
  Ge  Ge16  1  0.75000000  0.87270870  0.63832065  1
  Ge  Ge17  1  0.75000000  0.77248036  0.28558299  1
  Ge  Ge18  1  0.75000000  0.47682339  0.28522177  1
  Ge  Ge19  1  0.25000000  0.37618270  0.50148037  1
  Ge  Ge20  1  0.25000000  0.62933626  0.99806540  1
  Ge  Ge21  1  0.25000000  0.97682339  0.21477823  1
  Ge  Ge22  1  0.75000000  0.02317661  0.78522177  1
  Ge  Ge23  1  0.25000000  0.12381730  0.00148037  1
  Ge  Ge24  1  0.75000000  0.62729130  0.13832065  1
  Ge  Ge25  1  0.25000000  0.87230940  0.85837409  1
  Ge  Ge26  1  0.25000000  0.87066374  0.49806540  1
  Ge  Ge27  1  0.75000000  0.12933626  0.50193460  1
  Ge  Ge28  1  0.75000000  0.12769060  0.14162591  1
  Ge  Ge29  1  0.75000000  0.62381730  0.49851963  1
  Ge  Ge30  1  0.75000000  0.72751964  0.78558299  1
  Ge  Ge31  1  0.25000000  0.37270870  0.86167935  1
  Ge  Ge32  1  0.25000000  0.22751964  0.71441701  1
  Ge  Ge33  1  0.75000000  0.37066374  0.00193460  1
  Ge  Ge34  1  0.75000000  0.37230940  0.64162591  1
  Ge  Ge35  1  0.25000000  0.52317661  0.71477823  1
  Pt  Pt36  1  0.75000000  0.87536446  0.18710081  1
  Pt  Pt37  1  0.25000000  0.12759399  0.45619071  1
  Pt  Pt38  1  0.75000000  0.87240601  0.54380929  1
  Pt  Pt39  1  0.25000000  0.12463554  0.81289919  1
  Pt  Pt40  1  0.75000000  0.37813505  0.54809706  1
  Pt  Pt41  1  0.75000000  0.37571600  0.18720645  1
  Pt  Pt42  1  0.25000000  0.37536446  0.31289919  1
  Pt  Pt43  1  0.75000000  0.12428400  0.68720645  1
  Pt  Pt44  1  0.25000000  0.87571600  0.31279355  1
  Pt  Pt45  1  0.75000000  0.62463554  0.68710081  1
  Pt  Pt46  1  0.75000000  0.12186495  0.04809706  1
  Pt  Pt47  1  0.25000000  0.62186495  0.45190294  1
  Pt  Pt48  1  0.25000000  0.62428400  0.81279355  1
  Pt  Pt49  1  0.25000000  0.37240601  0.95619071  1
  Pt  Pt50  1  0.75000000  0.62759399  0.04380929  1
  Pt  Pt51  1  0.25000000  0.87813505  0.95190294  1
