# generated using pymatgen
data_Sr2TbIrO6
_symmetry_space_group_name_H-M   'P 1'
_cell_length_a   5.89088550
_cell_length_b   5.83309550
_cell_length_c   8.28106320
_cell_angle_alpha   90.43711990
_cell_angle_beta   90.00000000
_cell_angle_gamma   90.00000000
_symmetry_Int_Tables_number   1
_chemical_formula_structural   Sr2TbIrO6
_chemical_formula_sum   'Sr4 Tb2 Ir2 O12'
_cell_volume   284.54642163
_cell_formula_units_Z   2
loop_
 _symmetry_equiv_pos_site_id
 _symmetry_equiv_pos_as_xyz
  1  'x, y, z'
loop_
 _atom_site_type_symbol
 _atom_site_label
 _atom_site_symmetry_multiplicity
 _atom_site_fract_x
 _atom_site_fract_y
 _atom_site_fract_z
 _atom_site_occupancy
  O  O0  1  0.80027325  0.27047423  0.03823241  1
  O  O1  1  0.30027325  0.22952577  0.46176759  1
  O  O2  1  0.19972675  0.72952577  0.96176759  1
  O  O3  1  0.69972675  0.77047423  0.53823241  1
  O  O4  1  0.27144550  0.19643171  0.04027426  1
  O  O5  1  0.77144550  0.30356829  0.45972574  1
  O  O6  1  0.72855450  0.80356829  0.95972574  1
  O  O7  1  0.22855450  0.69643171  0.54027426  1
  O  O8  1  0.48145375  0.57370139  0.26579371  1
  O  O9  1  0.98145375  0.92629861  0.23420629  1
  O  O10  1  0.51854625  0.42629861  0.73420629  1
  O  O11  1  0.01854625  0.07370139  0.76579371  1
  Sr  Sr12  1  0.53644105  0.00858223  0.24916294  1
  Sr  Sr13  1  0.03644105  0.49141777  0.25083706  1
  Sr  Sr14  1  0.96355895  0.50858223  0.74916294  1
  Sr  Sr15  1  0.46355895  0.99141777  0.75083706  1
  Tb  Tb16  1  0.50000000  0.50000000  0.00000000  1
  Tb  Tb17  1  0.00000000  0.00000000  0.50000000  1
  Ir  Ir18  1  0.00000000  0.00000000  0.00000000  1
  Ir  Ir19  1  0.50000000  0.50000000  0.50000000  1
