# generated using pymatgen
data_Gd(FeGe)2
_symmetry_space_group_name_H-M   'P 1'
_cell_length_a   3.97505737
_cell_length_b   3.98526877
_cell_length_c   6.03221665
_cell_angle_alpha   108.84716319
_cell_angle_beta   109.36278711
_cell_angle_gamma   89.96543266
_symmetry_Int_Tables_number   1
_chemical_formula_structural   Gd(FeGe)2
_chemical_formula_sum   'Gd1 Fe2 Ge2'
_cell_volume   84.71236766
_cell_formula_units_Z   1
loop_
 _symmetry_equiv_pos_site_id
 _symmetry_equiv_pos_as_xyz
  1  'x, y, z'
loop_
 _atom_site_type_symbol
 _atom_site_label
 _atom_site_symmetry_multiplicity
 _atom_site_fract_x
 _atom_site_fract_y
 _atom_site_fract_z
 _atom_site_occupancy
  Gd  Gd0  1  0.99269932  0.00271113  0.00074228  1
  Fe  Fe1  1  0.24614990  0.76056261  0.50068109  1
  Fe  Fe2  1  0.73983914  0.24321080  0.49982679  1
  Ge  Ge3  1  0.37296696  0.38855218  0.76344272  1
  Ge  Ge4  1  0.61268867  0.61555327  0.23703312  1
