# generated using pymatgen
data_Cs2CuMoBr6
_symmetry_space_group_name_H-M   'P 1'
_cell_length_a   7.61494545
_cell_length_b   7.61494528
_cell_length_c   7.61494522
_cell_angle_alpha   60.00001962
_cell_angle_beta   60.00001161
_cell_angle_gamma   60.00001113
_symmetry_Int_Tables_number   1
_chemical_formula_structural   Cs2CuMoBr6
_chemical_formula_sum   'Cs2 Cu1 Mo1 Br6'
_cell_volume   312.23782150
_cell_formula_units_Z   1
loop_
 _symmetry_equiv_pos_site_id
 _symmetry_equiv_pos_as_xyz
  1  'x, y, z'
loop_
 _atom_site_type_symbol
 _atom_site_label
 _atom_site_symmetry_multiplicity
 _atom_site_fract_x
 _atom_site_fract_y
 _atom_site_fract_z
 _atom_site_occupancy
  Cs  Cs0  1  0.24999982  0.24999983  0.24999983  1
  Cs  Cs1  1  0.75000018  0.75000018  0.75000017  1
  Cu  Cu2  1  0.50000000  0.49999998  0.50000000  1
  Mo  Mo3  1  0.00000001  -0.00000001  -0.00000000  1
  Br  Br4  1  0.24647127  0.75352892  0.24647128  1
  Br  Br5  1  0.75352872  0.75352872  0.24647110  1
  Br  Br6  1  0.75352872  0.24647110  0.75352872  1
  Br  Br7  1  0.75352891  0.24647129  0.24647128  1
  Br  Br8  1  0.24647110  0.75352871  0.75352872  1
  Br  Br9  1  0.24647128  0.24647129  0.75352890  1
