# generated using pymatgen
data_KTiAsO5
_symmetry_space_group_name_H-M   'P 1'
_cell_length_a   6.68082686
_cell_length_b   10.92627837
_cell_length_c   13.34993629
_cell_angle_alpha   90.00000000
_cell_angle_beta   90.00000000
_cell_angle_gamma   90.00000000
_symmetry_Int_Tables_number   1
_chemical_formula_structural   KTiAsO5
_chemical_formula_sum   'K8 Ti8 As8 O40'
_cell_volume   974.49961248
_cell_formula_units_Z   8
loop_
 _symmetry_equiv_pos_site_id
 _symmetry_equiv_pos_as_xyz
  1  'x, y, z'
loop_
 _atom_site_type_symbol
 _atom_site_label
 _atom_site_symmetry_multiplicity
 _atom_site_fract_x
 _atom_site_fract_y
 _atom_site_fract_z
 _atom_site_occupancy
  O  O0  1  0.96841082  0.88739324  0.75868862  1
  O  O1  1  0.03158918  0.38739324  0.24131138  1
  O  O2  1  0.53158918  0.88739324  0.25868862  1
  O  O3  1  0.46841082  0.38739324  0.74131138  1
  O  O4  1  0.04042522  0.13361094  0.76094671  1
  O  O5  1  0.95957478  0.63361094  0.23905329  1
  O  O6  1  0.45957478  0.13361094  0.26094671  1
  O  O7  1  0.54042522  0.63361094  0.73905329  1
  O  O8  1  0.20996698  0.98013906  0.60515358  1
  O  O9  1  0.79003302  0.48013906  0.39484642  1
  O  O10  1  0.29003302  0.98013906  0.10515358  1
  O  O11  1  0.70996698  0.48013906  0.89484642  1
  O  O12  1  0.80645688  0.04705761  0.60755043  1
  O  O13  1  0.19354312  0.54705761  0.39244957  1
  O  O14  1  0.69354312  0.04705761  0.10755043  1
  O  O15  1  0.67540774  0.73602663  0.09958173  1
  O  O16  1  0.30645688  0.54705761  0.89244957  1
  O  O17  1  0.54793928  0.63699306  0.28083259  1
  O  O18  1  0.04793928  0.13699306  0.21916741  1
  O  O19  1  0.95206072  0.63699306  0.78083259  1
  O  O20  1  0.56280794  0.88816344  0.71701829  1
  O  O21  1  0.43719206  0.38816344  0.28298171  1
  O  O22  1  0.93719206  0.88816344  0.21701829  1
  O  O23  1  0.06280794  0.38816344  0.78298171  1
  O  O24  1  0.50254045  0.14539689  0.51359147  1
  O  O25  1  0.49745955  0.64539689  0.48640853  1
  O  O26  1  0.99745955  0.14539689  0.01359147  1
  O  O27  1  0.00254045  0.64539689  0.98640853  1
  O  O28  1  0.46477626  0.39498770  0.49314558  1
  O  O29  1  0.53522374  0.89498770  0.50685442  1
  O  O30  1  0.03522374  0.39498770  0.99314558  1
  O  O31  1  0.96477626  0.89498770  0.00685442  1
  O  O32  1  0.18232320  0.27980243  0.60651128  1
  O  O33  1  0.81767680  0.77980243  0.39348872  1
  O  O34  1  0.31767680  0.27980243  0.10651128  1
  O  O35  1  0.68232320  0.77980243  0.89348872  1
  O  O36  1  0.17540774  0.23602663  0.40041827  1
  O  O37  1  0.82459226  0.73602663  0.59958173  1
  O  O38  1  0.32459226  0.23602663  0.90041827  1
  O  O39  1  0.45206072  0.13699306  0.71916741  1
  K  K40  1  0.77906603  0.30944057  0.62473758  1
  K  K41  1  0.22093397  0.80944057  0.37526242  1
  K  K42  1  0.72093397  0.30944057  0.12473758  1
  K  K43  1  0.27906603  0.80944057  0.87526242  1
  K  K44  1  0.70214966  0.06606868  0.89191204  1
  K  K45  1  0.29785034  0.56606868  0.10808796  1
  K  K46  1  0.79785034  0.06606868  0.39191204  1
  K  K47  1  0.20214966  0.56606868  0.60808796  1
  Ti  Ti48  1  0.50675065  0.00270381  0.62745962  1
  Ti  Ti49  1  0.49324935  0.50270381  0.37254038  1
  Ti  Ti50  1  0.99324935  0.00270381  0.12745962  1
  Ti  Ti51  1  0.00675065  0.50270381  0.87254038  1
  Ti  Ti52  1  0.26743567  0.25094770  0.75432147  1
  Ti  Ti53  1  0.73256433  0.75094770  0.24567853  1
  Ti  Ti54  1  0.23256433  0.25094770  0.25432147  1
  Ti  Ti55  1  0.76743567  0.75094770  0.74567853  1
  As  As56  1  0.33182186  0.25982037  0.50210414  1
  As  As57  1  0.66817814  0.75982037  0.49789586  1
  As  As58  1  0.16817814  0.25982037  0.00210414  1
  As  As59  1  0.83182186  0.75982037  0.99789586  1
  As  As60  1  0.50904726  0.51034788  0.81938500  1
  As  As61  1  0.49095274  0.01034788  0.18061500  1
  As  As62  1  0.99095274  0.51034788  0.31938500  1
  As  As63  1  0.00904726  0.01034788  0.68061500  1
