# generated using pymatgen
data_NaSn2(PO4)3
_symmetry_space_group_name_H-M   'P 1'
_cell_length_a   9.08191040
_cell_length_b   9.08191040
_cell_length_c   9.08191041
_cell_angle_alpha   57.12453456
_cell_angle_beta   57.12453458
_cell_angle_gamma   57.12453459
_symmetry_Int_Tables_number   1
_chemical_formula_structural   NaSn2(PO4)3
_chemical_formula_sum   'Na2 Sn4 P6 O24'
_cell_volume   494.58659747
_cell_formula_units_Z   2
loop_
 _symmetry_equiv_pos_site_id
 _symmetry_equiv_pos_as_xyz
  1  'x, y, z'
loop_
 _atom_site_type_symbol
 _atom_site_label
 _atom_site_symmetry_multiplicity
 _atom_site_fract_x
 _atom_site_fract_y
 _atom_site_fract_z
 _atom_site_occupancy
  O  O0  1  0.40509294  0.23778876  0.59842254  1
  O  O1  1  0.23778876  0.59842254  0.40509294  1
  O  O2  1  0.59842254  0.40509294  0.23778876  1
  O  O3  1  0.59490706  0.76221124  0.40157746  1
  O  O4  1  0.76221124  0.40157746  0.59490706  1
  O  O5  1  0.40157746  0.59490706  0.76221124  1
  O  O6  1  0.96428456  0.06198748  0.70882291  1
  O  O7  1  0.06198748  0.70882291  0.96428456  1
  O  O8  1  0.70882291  0.96428456  0.06198748  1
  O  O9  1  0.03571544  0.93801252  0.29117709  1
  O  O10  1  0.93801252  0.29117709  0.03571544  1
  O  O11  1  0.29117709  0.03571544  0.93801252  1
  O  O12  1  0.36679793  0.97763356  0.24154705  1
  O  O13  1  0.24154705  0.36679793  0.97763356  1
  O  O14  1  0.97763356  0.24154705  0.36679793  1
  O  O15  1  0.63320207  0.02236644  0.75845295  1
  O  O16  1  0.75845295  0.63320207  0.02236644  1
  O  O17  1  0.02236644  0.75845295  0.63320207  1
  O  O18  1  0.69925594  0.48971145  0.88873640  1
  O  O19  1  0.88873640  0.69925594  0.48971145  1
  O  O20  1  0.48971145  0.88873640  0.69925594  1
  O  O21  1  0.30074406  0.51028855  0.11126360  1
  O  O22  1  0.11126360  0.30074406  0.51028855  1
  O  O23  1  0.51028855  0.11126360  0.30074406  1
  Na  Na24  1  0.00000000  0.00000000  0.00000000  1
  Na  Na25  1  0.50000000  0.50000000  0.50000000  1
  P  P26  1  0.74910704  0.45815391  0.04292233  1
  P  P27  1  0.45815391  0.04292233  0.74910704  1
  P  P28  1  0.25089296  0.54184609  0.95707767  1
  P  P29  1  0.54184609  0.95707767  0.25089296  1
  P  P30  1  0.04292233  0.74910704  0.45815391  1
  P  P31  1  0.95707767  0.25089296  0.54184609  1
  Sn  Sn32  1  0.85282681  0.85282681  0.85282681  1
  Sn  Sn33  1  0.14717319  0.14717319  0.14717319  1
  Sn  Sn34  1  0.64565178  0.64565178  0.64565178  1
  Sn  Sn35  1  0.35434822  0.35434822  0.35434822  1
