# generated using pymatgen
data_Ni3P4PbO14
_symmetry_space_group_name_H-M   'P 1'
_cell_length_a   7.48570892
_cell_length_b   7.79602175
_cell_length_c   9.52959656
_cell_angle_alpha   90.00000000
_cell_angle_beta   67.96362995
_cell_angle_gamma   90.00000000
_symmetry_Int_Tables_number   1
_chemical_formula_structural   Ni3P4PbO14
_chemical_formula_sum   'Ni6 P8 Pb2 O28'
_cell_volume   515.50735908
_cell_formula_units_Z   2
loop_
 _symmetry_equiv_pos_site_id
 _symmetry_equiv_pos_as_xyz
  1  'x, y, z'
loop_
 _atom_site_type_symbol
 _atom_site_label
 _atom_site_symmetry_multiplicity
 _atom_site_fract_x
 _atom_site_fract_y
 _atom_site_fract_z
 _atom_site_occupancy
  Ni  Ni0  1  0.81534542  0.62408117  0.02603197  1
  Ni  Ni1  1  0.81534542  0.87591883  0.52603197  1
  Ni  Ni2  1  0.18465458  0.37591883  0.97396803  1
  Ni  Ni3  1  0.18465458  0.12408117  0.47396803  1
  Ni  Ni4  1  0.00000000  0.00000000  0.00000000  1
  Ni  Ni5  1  0.00000000  0.50000000  0.50000000  1
  P  P6  1  0.60377606  0.55800213  0.79851123  1
  P  P7  1  0.89055900  0.20227817  0.30476888  1
  P  P8  1  0.39622394  0.44199787  0.20148877  1
  P  P9  1  0.39622394  0.05800213  0.70148877  1
  P  P10  1  0.10944100  0.70227817  0.19523112  1
  P  P11  1  0.10944100  0.79772183  0.69523112  1
  P  P12  1  0.89055900  0.29772183  0.80476888  1
  P  P13  1  0.60377606  0.94199787  0.29851123  1
  Pb  Pb14  1  0.50000000  0.50000000  0.50000000  1
  Pb  Pb15  1  0.50000000  0.00000000  0.00000000  1
  O  O16  1  0.26715061  0.12096906  0.86351423  1
  O  O17  1  0.31553999  0.87072484  0.68412866  1
  O  O18  1  0.15256440  0.62620136  0.61284724  1
  O  O19  1  0.68446001  0.37072484  0.81587134  1
  O  O20  1  0.73284939  0.87903094  0.13648577  1
  O  O21  1  0.84743560  0.12620136  0.88715276  1
  O  O22  1  0.60061242  0.47749561  0.19288381  1
  O  O23  1  0.97274058  0.42541806  0.88745038  1
  O  O24  1  0.02725942  0.57458194  0.11254962  1
  O  O25  1  0.84743560  0.37379864  0.38715276  1
  O  O26  1  0.62327544  0.67400619  0.92021206  1
  O  O27  1  0.02725942  0.92541806  0.61254962  1
  O  O28  1  0.68446001  0.12927516  0.31587134  1
  O  O29  1  0.62327544  0.82599381  0.42021206  1
  O  O30  1  0.00433135  0.29093826  0.63365136  1
  O  O31  1  0.37672456  0.17400619  0.57978794  1
  O  O32  1  0.31553999  0.62927516  0.18412866  1
  O  O33  1  0.26715061  0.37903094  0.36351423  1
  O  O34  1  0.73284939  0.62096906  0.63648577  1
  O  O35  1  0.60061242  0.02250439  0.69288381  1
  O  O36  1  0.99566865  0.70906174  0.36634864  1
  O  O37  1  0.37672456  0.32599381  0.07978794  1
  O  O38  1  0.99566865  0.79093826  0.86634864  1
  O  O39  1  0.97274058  0.07458194  0.38745038  1
  O  O40  1  0.15256440  0.87379864  0.11284724  1
  O  O41  1  0.39938758  0.52250439  0.80711619  1
  O  O42  1  0.39938758  0.97749561  0.30711619  1
  O  O43  1  0.00433135  0.20906174  0.13365136  1
