# generated using pymatgen
data_Eu(AsRh)2
_symmetry_space_group_name_H-M   'P 1'
_cell_length_a   4.10387395
_cell_length_b   4.10387370
_cell_length_c   6.45476890
_cell_angle_alpha   108.53564850
_cell_angle_beta   108.53564728
_cell_angle_gamma   90.00000038
_symmetry_Int_Tables_number   1
_chemical_formula_structural   Eu(AsRh)2
_chemical_formula_sum   'Eu1 As2 Rh2'
_cell_volume   97.10444853
_cell_formula_units_Z   1
loop_
 _symmetry_equiv_pos_site_id
 _symmetry_equiv_pos_as_xyz
  1  'x, y, z'
loop_
 _atom_site_type_symbol
 _atom_site_label
 _atom_site_symmetry_multiplicity
 _atom_site_fract_x
 _atom_site_fract_y
 _atom_site_fract_z
 _atom_site_occupancy
  Eu  Eu0  1  -0.00000000  -0.00000000  -0.00000000  1
  As  As1  1  0.62911347  0.62911347  0.25822694  1
  As  As2  1  0.37088653  0.37088653  0.74177306  1
  Rh  Rh3  1  0.25000000  0.75000000  0.50000000  1
  Rh  Rh4  1  0.75000000  0.25000000  0.50000000  1
