# generated using pymatgen
data_Tb2EuSe4
_symmetry_space_group_name_H-M   'P 1'
_cell_length_a   4.15601173
_cell_length_b   12.51032539
_cell_length_c   15.00073575
_cell_angle_alpha   90.00000000
_cell_angle_beta   90.00000000
_cell_angle_gamma   90.00000000
_symmetry_Int_Tables_number   1
_chemical_formula_structural   Tb2EuSe4
_chemical_formula_sum   'Tb8 Eu4 Se16'
_cell_volume   779.93413990
_cell_formula_units_Z   4
loop_
 _symmetry_equiv_pos_site_id
 _symmetry_equiv_pos_as_xyz
  1  'x, y, z'
loop_
 _atom_site_type_symbol
 _atom_site_label
 _atom_site_symmetry_multiplicity
 _atom_site_fract_x
 _atom_site_fract_y
 _atom_site_fract_z
 _atom_site_occupancy
  Eu  Eu0  1  0.25000000  0.75736133  0.66328383  1
  Eu  Eu1  1  0.25000000  0.25736133  0.83671617  1
  Eu  Eu2  1  0.75000000  0.24263867  0.33671617  1
  Eu  Eu3  1  0.75000000  0.74263867  0.16328383  1
  Tb  Tb4  1  0.75000000  0.56898210  0.38979595  1
  Tb  Tb5  1  0.75000000  0.58048179  0.90092453  1
  Tb  Tb6  1  0.25000000  0.41951821  0.09907547  1
  Tb  Tb7  1  0.75000000  0.06898210  0.11020405  1
  Tb  Tb8  1  0.25000000  0.43101790  0.61020405  1
  Tb  Tb9  1  0.25000000  0.91951821  0.40092453  1
  Tb  Tb10  1  0.75000000  0.08048179  0.59907547  1
  Tb  Tb11  1  0.25000000  0.93101790  0.88979595  1
  Se  Se12  1  0.75000000  0.97837875  0.28392806  1
  Se  Se13  1  0.75000000  0.58822284  0.58026224  1
  Se  Se14  1  0.25000000  0.70881758  0.32152004  1
  Se  Se15  1  0.75000000  0.79118242  0.82152004  1
  Se  Se16  1  0.25000000  0.20881758  0.17847996  1
  Se  Se17  1  0.25000000  0.41177716  0.41973776  1
  Se  Se18  1  0.25000000  0.63431710  0.02921949  1
  Se  Se19  1  0.25000000  0.02162125  0.71607194  1
  Se  Se20  1  0.75000000  0.29118242  0.67847996  1
  Se  Se21  1  0.25000000  0.13431710  0.47078051  1
  Se  Se22  1  0.75000000  0.86568290  0.52921949  1
  Se  Se23  1  0.25000000  0.91177716  0.08026224  1
  Se  Se24  1  0.75000000  0.47837875  0.21607194  1
  Se  Se25  1  0.75000000  0.08822284  0.91973776  1
  Se  Se26  1  0.25000000  0.52162125  0.78392806  1
  Se  Se27  1  0.75000000  0.36568290  0.97078051  1
