# generated using pymatgen
data_Cs2AgBr3
_symmetry_space_group_name_H-M   'P 1'
_cell_length_a   4.82043830
_cell_length_b   14.08974245
_cell_length_c   14.65688496
_cell_angle_alpha   90.00000000
_cell_angle_beta   90.00000000
_cell_angle_gamma   90.00000000
_symmetry_Int_Tables_number   1
_chemical_formula_structural   Cs2AgBr3
_chemical_formula_sum   'Cs8 Ag4 Br12'
_cell_volume   995.47707296
_cell_formula_units_Z   4
loop_
 _symmetry_equiv_pos_site_id
 _symmetry_equiv_pos_as_xyz
  1  'x, y, z'
loop_
 _atom_site_type_symbol
 _atom_site_label
 _atom_site_symmetry_multiplicity
 _atom_site_fract_x
 _atom_site_fract_y
 _atom_site_fract_z
 _atom_site_occupancy
  Cs  Cs0  1  0.75000000  0.98857351  0.17405519  1
  Cs  Cs1  1  0.25000000  0.17244582  0.48093535  1
  Cs  Cs2  1  0.75000000  0.82755418  0.51906465  1
  Cs  Cs3  1  0.75000000  0.48857351  0.32594481  1
  Cs  Cs4  1  0.25000000  0.51142649  0.67405519  1
  Cs  Cs5  1  0.25000000  0.01142649  0.82594481  1
  Cs  Cs6  1  0.75000000  0.32755418  0.98093535  1
  Cs  Cs7  1  0.25000000  0.67244582  0.01906465  1
  Ag  Ag8  1  0.25000000  0.25515816  0.19576235  1
  Ag  Ag9  1  0.75000000  0.24484184  0.69576235  1
  Ag  Ag10  1  0.25000000  0.75515816  0.30423765  1
  Ag  Ag11  1  0.75000000  0.74484184  0.80423765  1
  Br  Br12  1  0.25000000  0.13785515  0.04912567  1
  Br  Br13  1  0.75000000  0.22483181  0.28793167  1
  Br  Br14  1  0.75000000  0.86214485  0.95087433  1
  Br  Br15  1  0.25000000  0.44030650  0.14033157  1
  Br  Br16  1  0.25000000  0.77516819  0.71206833  1
  Br  Br17  1  0.75000000  0.72483181  0.21206833  1
  Br  Br18  1  0.25000000  0.27516819  0.78793167  1
  Br  Br19  1  0.25000000  0.63785515  0.45087433  1
  Br  Br20  1  0.75000000  0.05969350  0.64033157  1
  Br  Br21  1  0.75000000  0.55969350  0.85966843  1
  Br  Br22  1  0.75000000  0.36214485  0.54912567  1
  Br  Br23  1  0.25000000  0.94030650  0.35966843  1
