# generated using pymatgen
data_Tb15(Ni4P3)7
_symmetry_space_group_name_H-M   'P 1'
_cell_length_a   24.04470686
_cell_length_b   24.04470686
_cell_length_c   3.82990891
_cell_angle_alpha   90.00000000
_cell_angle_beta   90.00000000
_cell_angle_gamma   120.00000000
_symmetry_Int_Tables_number   1
_chemical_formula_structural   Tb15(Ni4P3)7
_chemical_formula_sum   'Tb30 Ni56 P42'
_cell_volume   1917.60012821
_cell_formula_units_Z   2
loop_
 _symmetry_equiv_pos_site_id
 _symmetry_equiv_pos_as_xyz
  1  'x, y, z'
loop_
 _atom_site_type_symbol
 _atom_site_label
 _atom_site_symmetry_multiplicity
 _atom_site_fract_x
 _atom_site_fract_y
 _atom_site_fract_z
 _atom_site_occupancy
  Tb  Tb0  1  0.38716592  0.14483075  0.75000000  1
  Tb  Tb1  1  0.11771747  0.58478470  0.25000000  1
  Tb  Tb2  1  0.29326365  0.73249978  0.25000000  1
  Tb  Tb3  1  0.75799488  0.82804090  0.25000000  1
  Tb  Tb4  1  0.07004602  0.24200512  0.25000000  1
  Tb  Tb5  1  0.92995398  0.75799488  0.75000000  1
  Tb  Tb6  1  0.58674820  0.68009047  0.25000000  1
  Tb  Tb7  1  0.09334226  0.41325180  0.25000000  1
  Tb  Tb8  1  0.17195910  0.92995398  0.25000000  1
  Tb  Tb9  1  0.14483075  0.75766482  0.25000000  1
  Tb  Tb10  1  0.68009047  0.09334226  0.75000000  1
  Tb  Tb11  1  0.41325180  0.31990953  0.75000000  1
  Tb  Tb12  1  0.24233518  0.38716592  0.25000000  1
  Tb  Tb13  1  0.56076387  0.29326365  0.75000000  1
  Tb  Tb14  1  0.70673635  0.26750022  0.75000000  1
  Tb  Tb15  1  0.26750022  0.56076387  0.25000000  1
  Tb  Tb16  1  0.85516925  0.24233518  0.75000000  1
  Tb  Tb17  1  0.43923613  0.70673635  0.25000000  1
  Tb  Tb18  1  0.58478470  0.46706723  0.75000000  1
  Tb  Tb19  1  0.88228253  0.41521530  0.75000000  1
  Tb  Tb20  1  0.73249978  0.43923613  0.75000000  1
  Tb  Tb21  1  0.31990953  0.90665774  0.25000000  1
  Tb  Tb22  1  0.41521530  0.53293277  0.25000000  1
  Tb  Tb23  1  0.53293277  0.11771747  0.75000000  1
  Tb  Tb24  1  0.61283408  0.85516925  0.25000000  1
  Tb  Tb25  1  0.82804090  0.07004602  0.75000000  1
  Tb  Tb26  1  0.90665774  0.58674820  0.75000000  1
  Tb  Tb27  1  0.24200512  0.17195910  0.75000000  1
  Tb  Tb28  1  0.46706723  0.88228253  0.25000000  1
  Tb  Tb29  1  0.75766482  0.61283408  0.75000000  1
  Ni  Ni30  1  0.65265938  0.78835768  0.75000000  1
  Ni  Ni31  1  0.80068316  0.75770211  0.75000000  1
  Ni  Ni32  1  0.37012848  0.38950023  0.25000000  1
  Ni  Ni33  1  0.30794881  0.49346555  0.75000000  1
  Ni  Ni34  1  0.35986423  0.84038135  0.75000000  1
  Ni  Ni35  1  0.54361646  0.53667057  0.25000000  1
  Ni  Ni36  1  0.19931684  0.24229789  0.25000000  1
  Ni  Ni37  1  0.00694589  0.54361646  0.75000000  1
  Ni  Ni38  1  0.11420426  0.17456541  0.75000000  1
  Ni  Ni39  1  0.95701895  0.19931684  0.75000000  1
  Ni  Ni40  1  0.93422082  0.03540363  0.75000000  1
  Ni  Ni41  1  0.13569830  0.34734062  0.75000000  1
  Ni  Ni42  1  0.33333300  0.66666700  0.75000000  1
  Ni  Ni43  1  0.04298105  0.80068316  0.25000000  1
  Ni  Ni44  1  0.45638354  0.46332943  0.75000000  1
  Ni  Ni45  1  0.03540363  0.10118282  0.25000000  1
  Ni  Ni46  1  0.53667057  0.99305411  0.75000000  1
  Ni  Ni47  1  0.10118282  0.06577918  0.75000000  1
  Ni  Ni48  1  0.96459637  0.89881718  0.75000000  1
  Ni  Ni49  1  0.64013577  0.15961865  0.25000000  1
  Ni  Ni50  1  0.81448325  0.30794881  0.25000000  1
  Ni  Ni51  1  0.31627603  0.03104573  0.25000000  1
  Ni  Ni52  1  0.24229789  0.04298105  0.75000000  1
  Ni  Ni53  1  0.34734062  0.21164232  0.25000000  1
  Ni  Ni54  1  0.03104573  0.71476970  0.75000000  1
  Ni  Ni55  1  0.49346555  0.18551675  0.25000000  1
  Ni  Ni56  1  0.51948288  0.35986423  0.25000000  1
  Ni  Ni57  1  0.99305411  0.45638354  0.25000000  1
  Ni  Ni58  1  0.38950023  0.01937176  0.75000000  1
  Ni  Ni59  1  0.46332943  0.00694589  0.25000000  1
  Ni  Ni60  1  0.71476970  0.68372397  0.25000000  1
  Ni  Ni61  1  0.98062824  0.37012848  0.75000000  1
  Ni  Ni62  1  0.06036115  0.88579574  0.75000000  1
  Ni  Ni63  1  0.15961865  0.51948288  0.75000000  1
  Ni  Ni64  1  0.01937176  0.62987152  0.25000000  1
  Ni  Ni65  1  0.86430170  0.65265938  0.25000000  1
  Ni  Ni66  1  0.69205119  0.50653445  0.25000000  1
  Ni  Ni67  1  0.82543459  0.93963885  0.75000000  1
  Ni  Ni68  1  0.66666700  0.33333300  0.25000000  1
  Ni  Ni69  1  0.96895427  0.28523030  0.25000000  1
  Ni  Ni70  1  0.78835768  0.13569830  0.25000000  1
  Ni  Ni71  1  0.93963885  0.11420426  0.25000000  1
  Ni  Ni72  1  0.21164232  0.86430170  0.75000000  1
  Ni  Ni73  1  0.18551675  0.69205119  0.75000000  1
  Ni  Ni74  1  0.88579574  0.82543459  0.25000000  1
  Ni  Ni75  1  0.61049977  0.98062824  0.25000000  1
  Ni  Ni76  1  0.17456541  0.06036115  0.25000000  1
  Ni  Ni77  1  0.06577918  0.96459637  0.25000000  1
  Ni  Ni78  1  0.75770211  0.95701895  0.25000000  1
  Ni  Ni79  1  0.28523030  0.31627603  0.75000000  1
  Ni  Ni80  1  0.89881718  0.93422082  0.25000000  1
  Ni  Ni81  1  0.68372397  0.96895427  0.75000000  1
  Ni  Ni82  1  0.62987152  0.61049977  0.75000000  1
  Ni  Ni83  1  0.84038135  0.48051712  0.25000000  1
  Ni  Ni84  1  0.50653445  0.81448325  0.75000000  1
  Ni  Ni85  1  0.48051712  0.64013577  0.75000000  1
  P  P86  1  0.57275134  0.92023123  0.75000000  1
  P  P87  1  0.92023123  0.34747989  0.25000000  1
  P  P88  1  0.05338386  0.47902131  0.75000000  1
  P  P89  1  0.82290957  0.71684246  0.25000000  1
  P  P90  1  0.86190197  0.86862865  0.75000000  1
  P  P91  1  0.47902131  0.42563746  0.25000000  1
  P  P92  1  0.13137135  0.99327332  0.75000000  1
  P  P93  1  0.62531838  0.39958616  0.25000000  1
  P  P94  1  0.89393289  0.17709043  0.25000000  1
  P  P95  1  0.71684246  0.89393289  0.75000000  1
  P  P96  1  0.52097869  0.57436254  0.75000000  1
  P  P97  1  0.79791023  0.54528345  0.25000000  1
  P  P98  1  0.86862865  0.00672668  0.25000000  1
  P  P99  1  0.39958616  0.77426778  0.75000000  1
  P  P100  1  0.72170288  0.03022434  0.25000000  1
  P  P101  1  0.37468162  0.60041384  0.75000000  1
  P  P102  1  0.25262678  0.79791023  0.75000000  1
  P  P103  1  0.74737322  0.20208977  0.25000000  1
  P  P104  1  0.22573222  0.62531838  0.75000000  1
  P  P105  1  0.94661614  0.52097869  0.25000000  1
  P  P106  1  0.57436254  0.05338386  0.25000000  1
  P  P107  1  0.45471655  0.25262678  0.25000000  1
  P  P108  1  0.00672668  0.13809803  0.75000000  1
  P  P109  1  0.27829712  0.96977566  0.75000000  1
  P  P110  1  0.42724866  0.07976877  0.25000000  1
  P  P111  1  0.17709043  0.28315754  0.75000000  1
  P  P112  1  0.28315754  0.10606711  0.25000000  1
  P  P113  1  0.42563746  0.94661614  0.75000000  1
  P  P114  1  0.60041384  0.22573222  0.25000000  1
  P  P115  1  0.34747989  0.42724866  0.75000000  1
  P  P116  1  0.10606711  0.82290957  0.75000000  1
  P  P117  1  0.03022434  0.30852146  0.75000000  1
  P  P118  1  0.07976877  0.65252011  0.75000000  1
  P  P119  1  0.77426778  0.37468162  0.25000000  1
  P  P120  1  0.30852146  0.27829712  0.25000000  1
  P  P121  1  0.20208977  0.45471655  0.75000000  1
  P  P122  1  0.54528345  0.74737322  0.75000000  1
  P  P123  1  0.99327332  0.86190197  0.25000000  1
  P  P124  1  0.96977566  0.69147854  0.25000000  1
  P  P125  1  0.69147854  0.72170288  0.75000000  1
  P  P126  1  0.65252011  0.57275134  0.25000000  1
  P  P127  1  0.13809803  0.13137135  0.25000000  1
