# generated using pymatgen
data_LiFe(GeO3)2
_symmetry_space_group_name_H-M   'P 1'
_cell_length_a   5.44780131
_cell_length_b   8.93562996
_cell_length_c   9.75470582
_cell_angle_alpha   90.00000000
_cell_angle_beta   103.03923726
_cell_angle_gamma   90.00000000
_symmetry_Int_Tables_number   1
_chemical_formula_structural   LiFe(GeO3)2
_chemical_formula_sum   'Li4 Fe4 Ge8 O24'
_cell_volume   462.61080720
_cell_formula_units_Z   4
loop_
 _symmetry_equiv_pos_site_id
 _symmetry_equiv_pos_as_xyz
  1  'x, y, z'
loop_
 _atom_site_type_symbol
 _atom_site_label
 _atom_site_symmetry_multiplicity
 _atom_site_fract_x
 _atom_site_fract_y
 _atom_site_fract_z
 _atom_site_occupancy
  Li  Li0  1  0.53630441  0.49088110  0.25607342  1
  Li  Li1  1  0.96369559  0.99088110  0.74392658  1
  Li  Li2  1  0.46369559  0.50911890  0.74392658  1
  Li  Li3  1  0.03630441  0.00911890  0.25607342  1
  O  O4  1  0.68316669  0.33234377  0.85825851  1
  O  O5  1  0.81683331  0.83234377  0.14174149  1
  O  O6  1  0.31683331  0.66765623  0.14174149  1
  O  O7  1  0.18316669  0.16765623  0.85825851  1
  O  O8  1  0.82784223  0.51983387  0.11554755  1
  O  O9  1  0.67215777  0.01983387  0.88445245  1
  O  O10  1  0.17215777  0.48016613  0.88445245  1
  O  O11  1  0.32784223  0.98016613  0.11554755  1
  O  O12  1  0.50124890  0.29287525  0.11619178  1
  O  O13  1  0.99875110  0.79287525  0.88380822  1
  O  O14  1  0.49875110  0.70712475  0.88380822  1
  O  O15  1  0.00124890  0.20712475  0.11619178  1
  O  O16  1  0.65532195  0.81095777  0.61127205  1
  O  O17  1  0.84467805  0.31095777  0.38872795  1
  O  O18  1  0.34467805  0.18904223  0.38872795  1
  O  O19  1  0.15532195  0.68904223  0.61127205  1
  O  O20  1  0.25616832  0.83200840  0.36350787  1
  O  O21  1  0.24383168  0.33200840  0.63649213  1
  O  O22  1  0.74383168  0.16799160  0.63649213  1
  O  O23  1  0.75616832  0.66799160  0.36350787  1
  O  O24  1  0.24606975  0.00210916  0.63059846  1
  O  O25  1  0.25393025  0.50210916  0.36940154  1
  O  O26  1  0.75393025  0.99789084  0.36940154  1
  O  O27  1  0.74606975  0.49789084  0.63059846  1
  Fe  Fe28  1  0.96319915  0.34972972  0.74898169  1
  Fe  Fe29  1  0.53680085  0.84972972  0.25101831  1
  Fe  Fe30  1  0.46319915  0.15027028  0.74898169  1
  Fe  Fe31  1  0.03680085  0.65027028  0.25101831  1
  Ge  Ge32  1  0.32292130  0.83947860  0.55154372  1
  Ge  Ge33  1  0.17707870  0.33947860  0.44845628  1
  Ge  Ge34  1  0.82292130  0.66052140  0.55154372  1
  Ge  Ge35  1  0.67707870  0.16052140  0.44845628  1
  Ge  Ge36  1  0.26592986  0.15838449  0.04536672  1
  Ge  Ge37  1  0.23407014  0.65838449  0.95463328  1
  Ge  Ge38  1  0.73407014  0.84161551  0.95463328  1
  Ge  Ge39  1  0.76592986  0.34161551  0.04536672  1
