# generated using pymatgen
data_RbTiAsO5
_symmetry_space_group_name_H-M   'P 1'
_cell_length_a   6.79163703
_cell_length_b   10.91300261
_cell_length_c   13.48165135
_cell_angle_alpha   90.00000000
_cell_angle_beta   90.00000000
_cell_angle_gamma   90.00000000
_symmetry_Int_Tables_number   1
_chemical_formula_structural   RbTiAsO5
_chemical_formula_sum   'Rb8 Ti8 As8 O40'
_cell_volume   999.22161087
_cell_formula_units_Z   8
loop_
 _symmetry_equiv_pos_site_id
 _symmetry_equiv_pos_as_xyz
  1  'x, y, z'
loop_
 _atom_site_type_symbol
 _atom_site_label
 _atom_site_symmetry_multiplicity
 _atom_site_fract_x
 _atom_site_fract_y
 _atom_site_fract_z
 _atom_site_occupancy
  O  O0  1  0.96222911  0.08942263  0.24267642  1
  O  O1  1  0.03777089  0.58942263  0.75732358  1
  O  O2  1  0.53777089  0.08942263  0.74267642  1
  O  O3  1  0.46222911  0.58942263  0.25732358  1
  O  O4  1  0.04350571  0.84355489  0.24203769  1
  O  O5  1  0.95649429  0.34355489  0.75796231  1
  O  O6  1  0.45649429  0.84355489  0.74203769  1
  O  O7  1  0.54350571  0.34355489  0.25796231  1
  O  O8  1  0.20742588  0.00053413  0.39314085  1
  O  O9  1  0.79257412  0.50053413  0.60685915  1
  O  O10  1  0.29257412  0.00053413  0.89314085  1
  O  O11  1  0.70742588  0.50053413  0.10685915  1
  O  O12  1  0.80409500  0.93027503  0.39079955  1
  O  O13  1  0.19590500  0.43027503  0.60920045  1
  O  O14  1  0.69590500  0.93027503  0.89079955  1
  O  O15  1  0.67944336  0.24269219  0.89868850  1
  O  O16  1  0.30409500  0.43027503  0.10920045  1
  O  O17  1  0.43694587  0.58860151  0.71767394  1
  O  O18  1  0.93694587  0.08860151  0.78232606  1
  O  O19  1  0.06305413  0.58860151  0.21767394  1
  O  O20  1  0.94645869  0.34039573  0.21723189  1
  O  O21  1  0.05354131  0.84039573  0.78276811  1
  O  O22  1  0.55354131  0.34039573  0.71723189  1
  O  O23  1  0.44645869  0.84039573  0.28276811  1
  O  O24  1  0.49464359  0.83640059  0.48656529  1
  O  O25  1  0.50535641  0.33640059  0.51343471  1
  O  O26  1  0.00535641  0.83640059  0.98656529  1
  O  O27  1  0.99464359  0.33640059  0.01343471  1
  O  O28  1  0.46450494  0.58542014  0.51115259  1
  O  O29  1  0.53549506  0.08542014  0.48884741  1
  O  O30  1  0.03549506  0.58542014  0.01115259  1
  O  O31  1  0.96450494  0.08542014  0.98884741  1
  O  O32  1  0.18811959  0.69682260  0.39530714  1
  O  O33  1  0.81188041  0.19682260  0.60469286  1
  O  O34  1  0.31188041  0.69682260  0.89530714  1
  O  O35  1  0.68811959  0.19682260  0.10469286  1
  O  O36  1  0.17944336  0.74269219  0.60131150  1
  O  O37  1  0.82055664  0.24269219  0.39868850  1
  O  O38  1  0.32055664  0.74269219  0.10131150  1
  O  O39  1  0.56305413  0.08860151  0.28232606  1
  Ti  Ti40  1  0.00497317  0.47558916  0.12828619  1
  Ti  Ti41  1  0.50497317  0.97558916  0.37171381  1
  Ti  Ti42  1  0.49502683  0.47558916  0.62828619  1
  Ti  Ti43  1  0.99502683  0.97558916  0.87171381  1
  Ti  Ti44  1  0.26570564  0.72613864  0.24775660  1
  Ti  Ti45  1  0.73429436  0.22613864  0.75224340  1
  Ti  Ti46  1  0.23429436  0.72613864  0.74775660  1
  Ti  Ti47  1  0.76570564  0.22613864  0.25224340  1
  As  As48  1  0.00672925  0.96743020  0.32068720  1
  As  As49  1  0.66862768  0.21961824  0.50026263  1
  As  As50  1  0.16862768  0.71961824  0.99973737  1
  As  As51  1  0.83137232  0.21961824  0.00026263  1
  As  As52  1  0.33137232  0.71961824  0.49973737  1
  As  As53  1  0.50672925  0.46743020  0.17931280  1
  As  As54  1  0.49327075  0.96743020  0.82068720  1
  As  As55  1  0.99327075  0.46743020  0.67931280  1
  Rb  Rb56  1  0.19420330  0.40409859  0.39006011  1
  Rb  Rb57  1  0.80579670  0.90409859  0.60993989  1
  Rb  Rb58  1  0.30579670  0.40409859  0.89006011  1
  Rb  Rb59  1  0.69420330  0.90409859  0.10993989  1
  Rb  Rb60  1  0.28204975  0.15330573  0.11806742  1
  Rb  Rb61  1  0.71795025  0.65330573  0.88193258  1
  Rb  Rb62  1  0.21795025  0.15330573  0.61806742  1
  Rb  Rb63  1  0.78204975  0.65330573  0.38193258  1
