# generated using pymatgen
data_MnGeO3
_symmetry_space_group_name_H-M   'P 1'
_cell_length_a   5.56853122
_cell_length_b   9.39399841
_cell_length_c   19.58038936
_cell_angle_alpha   90.00000000
_cell_angle_beta   90.00000000
_cell_angle_gamma   90.00000000
_symmetry_Int_Tables_number   1
_chemical_formula_structural   MnGeO3
_chemical_formula_sum   'Mn16 Ge16 O48'
_cell_volume   1024.26531142
_cell_formula_units_Z   16
loop_
 _symmetry_equiv_pos_site_id
 _symmetry_equiv_pos_as_xyz
  1  'x, y, z'
loop_
 _atom_site_type_symbol
 _atom_site_label
 _atom_site_symmetry_multiplicity
 _atom_site_fract_x
 _atom_site_fract_y
 _atom_site_fract_z
 _atom_site_occupancy
  Mn  Mn0  1  0.85933933  0.65399977  0.37636060  1
  Mn  Mn1  1  0.14066067  0.84600023  0.87636060  1
  Mn  Mn2  1  0.64066067  0.15399977  0.62363940  1
  Mn  Mn3  1  0.35933933  0.34600023  0.12363940  1
  Mn  Mn4  1  0.14066067  0.34600023  0.62363940  1
  Mn  Mn5  1  0.85933933  0.15399977  0.12363940  1
  Mn  Mn6  1  0.35933933  0.84600023  0.37636060  1
  Mn  Mn7  1  0.64066067  0.65399977  0.87636060  1
  Mn  Mn8  1  0.85073012  0.51841990  0.12255109  1
  Mn  Mn9  1  0.14926988  0.98158010  0.62255109  1
  Mn  Mn10  1  0.64926988  0.01841990  0.87744891  1
  Mn  Mn11  1  0.35073012  0.48158010  0.37744891  1
  Mn  Mn12  1  0.14926988  0.48158010  0.87744891  1
  Mn  Mn13  1  0.85073012  0.01841990  0.37744891  1
  Mn  Mn14  1  0.35073012  0.98158010  0.12255109  1
  Mn  Mn15  1  0.64926988  0.51841990  0.62255109  1
  Ge  Ge16  1  0.53434303  0.65675001  0.22957219  1
  Ge  Ge17  1  0.46565697  0.84324999  0.72957219  1
  Ge  Ge18  1  0.96565697  0.15675001  0.77042781  1
  Ge  Ge19  1  0.03434303  0.34324999  0.27042781  1
  Ge  Ge20  1  0.46565697  0.34324999  0.77042781  1
  Ge  Ge21  1  0.53434303  0.15675001  0.27042781  1
  Ge  Ge22  1  0.03434303  0.84324999  0.22957219  1
  Ge  Ge23  1  0.96565697  0.65675001  0.72957219  1
  Ge  Ge24  1  0.29795146  0.66208721  0.02693751  1
  Ge  Ge25  1  0.70204854  0.83791279  0.52693751  1
  Ge  Ge26  1  0.20204854  0.16208721  0.97306249  1
  Ge  Ge27  1  0.79795146  0.33791279  0.47306249  1
  Ge  Ge28  1  0.70204854  0.33791279  0.97306249  1
  Ge  Ge29  1  0.29795146  0.16208721  0.47306249  1
  Ge  Ge30  1  0.79795146  0.83791279  0.02693751  1
  Ge  Ge31  1  0.20204854  0.66208721  0.52693751  1
  O  O32  1  0.52352259  0.65951126  0.31927980  1
  O  O33  1  0.47647741  0.84048874  0.81927980  1
  O  O34  1  0.97647741  0.15951126  0.68072020  1
  O  O35  1  0.02352259  0.34048874  0.18072020  1
  O  O36  1  0.47647741  0.34048874  0.68072020  1
  O  O37  1  0.52352259  0.15951126  0.18072020  1
  O  O38  1  0.02352259  0.84048874  0.31927980  1
  O  O39  1  0.97647741  0.65951126  0.81927980  1
  O  O40  1  0.54543479  0.49095945  0.19003803  1
  O  O41  1  0.45456521  0.00904055  0.69003803  1
  O  O42  1  0.95456521  0.99095945  0.80996197  1
  O  O43  1  0.04543479  0.50904055  0.30996197  1
  O  O44  1  0.45456521  0.50904055  0.80996197  1
  O  O45  1  0.54543479  0.99095945  0.30996197  1
  O  O46  1  0.04543479  0.00904055  0.19003803  1
  O  O47  1  0.95456521  0.49095945  0.69003803  1
  O  O48  1  0.81562822  0.72382474  0.19423545  1
  O  O49  1  0.18437178  0.77617526  0.69423545  1
  O  O50  1  0.68437178  0.22382474  0.80576455  1
  O  O51  1  0.31562822  0.27617526  0.30576455  1
  O  O52  1  0.18437178  0.27617526  0.80576455  1
  O  O53  1  0.81562822  0.22382474  0.30576455  1
  O  O54  1  0.31562822  0.77617526  0.19423545  1
  O  O55  1  0.68437178  0.72382474  0.69423545  1
  O  O56  1  0.30414119  0.65951294  0.93677752  1
  O  O57  1  0.69585881  0.84048706  0.43677752  1
  O  O58  1  0.19585881  0.15951294  0.06322248  1
  O  O59  1  0.80414119  0.34048706  0.56322248  1
  O  O60  1  0.69585881  0.34048706  0.06322248  1
  O  O61  1  0.30414119  0.15951294  0.56322248  1
  O  O62  1  0.80414119  0.84048706  0.93677752  1
  O  O63  1  0.19585881  0.65951294  0.43677752  1
  O  O64  1  0.17870893  0.51501517  0.06837193  1
  O  O65  1  0.82129107  0.98498483  0.56837193  1
  O  O66  1  0.32129107  0.01501517  0.93162807  1
  O  O67  1  0.67870893  0.48498483  0.43162807  1
  O  O68  1  0.82129107  0.48498483  0.93162807  1
  O  O69  1  0.17870893  0.01501517  0.43162807  1
  O  O70  1  0.67870893  0.98498483  0.06837193  1
  O  O71  1  0.32129107  0.51501517  0.56837193  1
  O  O72  1  0.60935581  0.68826961  0.05468515  1
  O  O73  1  0.39064419  0.81173039  0.55468515  1
  O  O74  1  0.89064419  0.18826961  0.94531485  1
  O  O75  1  0.10935581  0.31173039  0.44531485  1
  O  O76  1  0.39064419  0.31173039  0.94531485  1
  O  O77  1  0.60935581  0.18826961  0.44531485  1
  O  O78  1  0.10935581  0.81173039  0.05468515  1
  O  O79  1  0.89064419  0.68826961  0.55468515  1
