# generated using pymatgen
data_NaGeSbO5
_symmetry_space_group_name_H-M   'P 1'
_cell_length_a   5.66972880
_cell_length_b   5.66972880
_cell_length_c   7.35317784
_cell_angle_alpha   104.94082254
_cell_angle_beta   104.94082256
_cell_angle_gamma   105.40737497
_symmetry_Int_Tables_number   1
_chemical_formula_structural   NaGeSbO5
_chemical_formula_sum   'Na2 Ge2 Sb2 O10'
_cell_volume   206.22188370
_cell_formula_units_Z   2
loop_
 _symmetry_equiv_pos_site_id
 _symmetry_equiv_pos_as_xyz
  1  'x, y, z'
loop_
 _atom_site_type_symbol
 _atom_site_label
 _atom_site_symmetry_multiplicity
 _atom_site_fract_x
 _atom_site_fract_y
 _atom_site_fract_z
 _atom_site_occupancy
  O  O0  1  0.07945820  0.92054180  0.75000000  1
  O  O1  1  0.92054180  0.07945820  0.25000000  1
  O  O2  1  0.09470237  0.68851045  0.38491074  1
  O  O3  1  0.31148955  0.90529763  0.11508926  1
  O  O4  1  0.90529763  0.31148955  0.61508926  1
  O  O5  1  0.68851045  0.09470237  0.88491074  1
  O  O6  1  0.37026571  0.24603903  0.58023526  1
  O  O7  1  0.75396097  0.62973429  0.91976474  1
  O  O8  1  0.62973429  0.75396097  0.41976474  1
  O  O9  1  0.24603903  0.37026571  0.08023526  1
  Na  Na10  1  0.33300593  0.66699407  0.75000000  1
  Na  Na11  1  0.66699407  0.33300593  0.25000000  1
  Ge  Ge12  1  0.31372311  0.68627689  0.25000000  1
  Ge  Ge13  1  0.68627689  0.31372311  0.75000000  1
  Sb  Sb14  1  0.00000000  0.00000000  0.50000000  1
  Sb  Sb15  1  0.00000000  0.00000000  0.00000000  1
