# generated using pymatgen
data_Pr6Si4Ni7
_symmetry_space_group_name_H-M   'P 1'
_cell_length_a   5.95178960
_cell_length_b   7.43818842
_cell_length_c   29.78581058
_cell_angle_alpha   90.00000000
_cell_angle_beta   90.00000000
_cell_angle_gamma   90.00000000
_symmetry_Int_Tables_number   1
_chemical_formula_structural   Pr6Si4Ni7
_chemical_formula_sum   'Pr24 Si16 Ni28'
_cell_volume   1318.63369475
_cell_formula_units_Z   4
loop_
 _symmetry_equiv_pos_site_id
 _symmetry_equiv_pos_as_xyz
  1  'x, y, z'
loop_
 _atom_site_type_symbol
 _atom_site_label
 _atom_site_symmetry_multiplicity
 _atom_site_fract_x
 _atom_site_fract_y
 _atom_site_fract_z
 _atom_site_occupancy
  Pr  Pr0  1  0.87308094  0.52103595  0.25000000  1
  Pr  Pr1  1  0.88630122  0.61703575  0.92072389  1
  Pr  Pr2  1  0.62358442  0.25000000  0.50000000  1
  Pr  Pr3  1  0.60608365  0.61224136  0.81805887  1
  Pr  Pr4  1  0.39391635  0.38775864  0.31805887  1
  Pr  Pr5  1  0.39391635  0.11224136  0.81805887  1
  Pr  Pr6  1  0.12691906  0.47896405  0.75000000  1
  Pr  Pr7  1  0.37641558  0.75000000  0.00000000  1
  Pr  Pr8  1  0.11369878  0.38296425  0.42072389  1
  Pr  Pr9  1  0.60608365  0.88775864  0.18194113  1
  Pr  Pr10  1  0.11369878  0.11703575  0.92072389  1
  Pr  Pr11  1  0.88630122  0.88296425  0.42072389  1
  Pr  Pr12  1  0.37641558  0.75000000  0.50000000  1
  Pr  Pr13  1  0.12691906  0.02103595  0.25000000  1
  Pr  Pr14  1  0.11369878  0.38296425  0.07927611  1
  Pr  Pr15  1  0.60608365  0.61224136  0.68194113  1
  Pr  Pr16  1  0.87308094  0.97896405  0.75000000  1
  Pr  Pr17  1  0.11369878  0.11703575  0.57927611  1
  Pr  Pr18  1  0.60608365  0.88775864  0.31805887  1
  Pr  Pr19  1  0.39391635  0.11224136  0.68194113  1
  Pr  Pr20  1  0.88630122  0.61703575  0.57927611  1
  Pr  Pr21  1  0.88630122  0.88296425  0.07927611  1
  Pr  Pr22  1  0.62358442  0.25000000  0.00000000  1
  Pr  Pr23  1  0.39391635  0.38775864  0.18194113  1
  Si  Si24  1  0.11196900  0.76923440  0.67233845  1
  Si  Si25  1  0.39102001  0.46547693  0.58306017  1
  Si  Si26  1  0.60897999  0.53452307  0.41693983  1
  Si  Si27  1  0.60897999  0.53452307  0.08306017  1
  Si  Si28  1  0.39102001  0.03452307  0.08306017  1
  Si  Si29  1  0.88803100  0.26923440  0.82766155  1
  Si  Si30  1  0.88803100  0.23076560  0.32766155  1
  Si  Si31  1  0.39102001  0.46547693  0.91693983  1
  Si  Si32  1  0.88803100  0.26923440  0.67233845  1
  Si  Si33  1  0.11196900  0.73076560  0.32766155  1
  Si  Si34  1  0.60897999  0.96547693  0.91693983  1
  Si  Si35  1  0.11196900  0.73076560  0.17233845  1
  Si  Si36  1  0.60897999  0.96547693  0.58306017  1
  Si  Si37  1  0.39102001  0.03452307  0.41693983  1
  Si  Si38  1  0.11196900  0.76923440  0.82766155  1
  Si  Si39  1  0.88803100  0.23076560  0.17233845  1
  Ni  Ni40  1  0.64580936  0.25747410  0.89029588  1
  Ni  Ni41  1  0.15018943  0.09448562  0.01826894  1
  Ni  Ni42  1  0.84106034  0.97160004  0.85197408  1
  Ni  Ni43  1  0.31208969  0.82472090  0.75000000  1
  Ni  Ni44  1  0.35419064  0.75747410  0.89029588  1
  Ni  Ni45  1  0.15018943  0.40551438  0.51826894  1
  Ni  Ni46  1  0.84106034  0.52839996  0.14802592  1
  Ni  Ni47  1  0.84981057  0.90551438  0.51826894  1
  Ni  Ni48  1  0.15018943  0.09448562  0.48173106  1
  Ni  Ni49  1  0.35419064  0.75747410  0.60970412  1
  Ni  Ni50  1  0.84106034  0.52839996  0.35197408  1
  Ni  Ni51  1  0.15893966  0.02839996  0.35197408  1
  Ni  Ni52  1  0.15893966  0.47160004  0.85197408  1
  Ni  Ni53  1  0.84981057  0.59448562  0.48173106  1
  Ni  Ni54  1  0.15893966  0.47160004  0.64802592  1
  Ni  Ni55  1  0.68791031  0.17527910  0.25000000  1
  Ni  Ni56  1  0.64580936  0.24252590  0.39029588  1
  Ni  Ni57  1  0.64580936  0.24252590  0.10970412  1
  Ni  Ni58  1  0.84981057  0.90551438  0.98173106  1
  Ni  Ni59  1  0.15018943  0.40551438  0.98173106  1
  Ni  Ni60  1  0.68791031  0.32472090  0.75000000  1
  Ni  Ni61  1  0.15893966  0.02839996  0.14802592  1
  Ni  Ni62  1  0.84106034  0.97160004  0.64802592  1
  Ni  Ni63  1  0.84981057  0.59448562  0.01826894  1
  Ni  Ni64  1  0.31208969  0.67527910  0.25000000  1
  Ni  Ni65  1  0.35419064  0.74252590  0.10970412  1
  Ni  Ni66  1  0.64580936  0.25747410  0.60970412  1
  Ni  Ni67  1  0.35419064  0.74252590  0.39029588  1
