# generated using pymatgen
data_KAlGeO4
_symmetry_space_group_name_H-M   'P 1'
_cell_length_a   18.66148994
_cell_length_b   18.66148978
_cell_length_c   8.73110591
_cell_angle_alpha   90.00000000
_cell_angle_beta   90.00000000
_cell_angle_gamma   120.00000027
_symmetry_Int_Tables_number   1
_chemical_formula_structural   KAlGeO4
_chemical_formula_sum   'K24 Al24 Ge24 O96'
_cell_volume   2633.25254875
_cell_formula_units_Z   24
loop_
 _symmetry_equiv_pos_site_id
 _symmetry_equiv_pos_as_xyz
  1  'x, y, z'
loop_
 _atom_site_type_symbol
 _atom_site_label
 _atom_site_symmetry_multiplicity
 _atom_site_fract_x
 _atom_site_fract_y
 _atom_site_fract_z
 _atom_site_occupancy
  K  K0  1  0.33333300  0.66666700  0.98368451  1
  K  K1  1  0.18500436  0.33296537  0.49021928  1
  K  K2  1  0.66666700  0.33333300  0.48368451  1
  K  K3  1  0.66750008  0.80392969  0.98615022  1
  K  K4  1  0.33296537  0.14796101  0.99021928  1
  K  K5  1  0.47103066  0.99424888  0.98987709  1
  K  K6  1  0.81499564  0.66703463  0.99021928  1
  K  K7  1  0.66703463  0.85203899  0.49021928  1
  K  K8  1  0.13642961  0.33249992  0.98615022  1
  K  K9  1  0.80392969  0.13642961  0.48615022  1
  K  K10  1  0.33333300  0.66666700  0.48103781  1
  K  K11  1  0.00575112  0.47678178  0.98987709  1
  K  K12  1  0.66666700  0.33333300  0.98103781  1
  K  K13  1  0.99424888  0.52321822  0.48987709  1
  K  K14  1  0.00000000  0.00000000  0.50116076  1
  K  K15  1  0.52896934  0.00575112  0.48987709  1
  K  K16  1  0.14796101  0.81499564  0.49021928  1
  K  K17  1  0.85203899  0.18500436  0.99021928  1
  K  K18  1  0.19607031  0.86357039  0.98615022  1
  K  K19  1  0.86357039  0.66750008  0.48615022  1
  K  K20  1  0.47678178  0.47103066  0.48987709  1
  K  K21  1  0.33249992  0.19607031  0.48615022  1
  K  K22  1  0.00000000  0.00000000  0.00116076  1
  K  K23  1  0.52321822  0.52896934  0.98987709  1
  Al  Al24  1  0.50057573  0.17911990  0.68954612  1
  Al  Al25  1  0.01077723  0.83968224  0.17005133  1
  Al  Al26  1  0.83968224  0.82890501  0.67005133  1
  Al  Al27  1  0.16031776  0.17109499  0.17005133  1
  Al  Al28  1  0.65189862  0.16219103  0.19009048  1
  Al  Al29  1  0.16219103  0.51029241  0.69009048  1
  Al  Al30  1  0.48970759  0.65189862  0.69009048  1
  Al  Al31  1  0.51029241  0.34810138  0.19009048  1
  Al  Al32  1  0.33033904  0.33052905  0.79280412  1
  Al  Al33  1  0.82088010  0.32145583  0.68954612  1
  Al  Al34  1  0.33052905  0.00019001  0.29280412  1
  Al  Al35  1  0.34810138  0.83780897  0.69009048  1
  Al  Al36  1  0.66947095  0.99980999  0.79280412  1
  Al  Al37  1  0.99980999  0.33033904  0.29280412  1
  Al  Al38  1  0.66966096  0.66947095  0.29280412  1
  Al  Al39  1  0.82890501  0.98922277  0.17005133  1
  Al  Al40  1  0.98922277  0.16031776  0.67005133  1
  Al  Al41  1  0.00019001  0.66966096  0.79280412  1
  Al  Al42  1  0.17911990  0.67854417  0.18954612  1
  Al  Al43  1  0.83780897  0.48970759  0.19009048  1
  Al  Al44  1  0.32145583  0.50057573  0.18954612  1
  Al  Al45  1  0.67854417  0.49942427  0.68954612  1
  Al  Al46  1  0.17109499  0.01077723  0.67005133  1
  Al  Al47  1  0.49942427  0.82088010  0.18954612  1
  Ge  Ge48  1  0.33517020  0.00075948  0.68517150  1
  Ge  Ge49  1  0.68115848  0.50369980  0.30859629  1
  Ge  Ge50  1  0.15703934  0.16816214  0.78646971  1
  Ge  Ge51  1  0.01112280  0.84296066  0.78646971  1
  Ge  Ge52  1  0.33441071  0.33517020  0.18517150  1
  Ge  Ge53  1  0.49402239  0.65600005  0.30912816  1
  Ge  Ge54  1  0.50597761  0.34399995  0.80912816  1
  Ge  Ge55  1  0.50369980  0.82254133  0.80859629  1
  Ge  Ge56  1  0.66558929  0.66482980  0.68517150  1
  Ge  Ge57  1  0.65600005  0.16197766  0.80912816  1
  Ge  Ge58  1  0.84296066  0.83183786  0.28646971  1
  Ge  Ge59  1  0.82254133  0.31884152  0.30859629  1
  Ge  Ge60  1  0.83183786  0.98887720  0.78646971  1
  Ge  Ge61  1  0.49630020  0.17745867  0.30859629  1
  Ge  Ge62  1  0.17745867  0.68115848  0.80859629  1
  Ge  Ge63  1  0.34399995  0.83802234  0.30912816  1
  Ge  Ge64  1  0.99924052  0.33441071  0.68517150  1
  Ge  Ge65  1  0.16816214  0.01112280  0.28646971  1
  Ge  Ge66  1  0.83802234  0.49402239  0.80912816  1
  Ge  Ge67  1  0.98887720  0.15703934  0.28646971  1
  Ge  Ge68  1  0.66482980  0.99924052  0.18517150  1
  Ge  Ge69  1  0.16197766  0.50597761  0.30912816  1
  Ge  Ge70  1  0.00075948  0.66558929  0.18517150  1
  Ge  Ge71  1  0.31884152  0.49630020  0.80859629  1
  O  O72  1  0.73252797  0.46232324  0.20298898  1
  O  O73  1  0.02968778  0.26029724  0.22149374  1
  O  O74  1  0.81275924  0.95391512  0.97811120  1
  O  O75  1  0.23060945  0.97031222  0.22149374  1
  O  O76  1  0.92702960  0.36484745  0.73780758  1
  O  O77  1  0.40850672  0.31223220  0.26192376  1
  O  O78  1  0.29568470  0.39885950  0.73259037  1
  O  O79  1  0.39904128  0.60532203  0.21000963  1
  O  O80  1  0.61593528  0.14187267  0.99813065  1
  O  O81  1  0.59149328  0.68776780  0.76192376  1
  O  O82  1  0.95391512  0.14115588  0.47811120  1
  O  O83  1  0.72979527  0.26747203  0.20298898  1
  O  O84  1  0.73507466  0.97029892  0.26015534  1
  O  O85  1  0.47261144  0.23723235  0.81112743  1
  O  O86  1  0.56218215  0.92702960  0.23780758  1
  O  O87  1  0.32157846  0.98806729  0.48880276  1
  O  O88  1  0.13922850  0.57378166  0.80674260  1
  O  O89  1  0.67842154  0.01193271  0.98880276  1
  O  O90  1  0.80532525  0.90146784  0.67122815  1
  O  O91  1  0.60532203  0.20628076  0.71000963  1
  O  O92  1  0.10317480  0.70431530  0.73259037  1
  O  O93  1  0.68776780  0.09627452  0.26192376  1
  O  O94  1  0.76462090  0.52738856  0.81112743  1
  O  O95  1  0.09627452  0.40850672  0.76192376  1
  O  O96  1  0.97031222  0.73970276  0.72149374  1
  O  O97  1  0.42621834  0.56544684  0.80674260  1
  O  O98  1  0.38406472  0.85812733  0.49813065  1
  O  O99  1  0.63515255  0.56218215  0.73780758  1
  O  O100  1  0.36484745  0.43781785  0.23780758  1
  O  O101  1  0.98806729  0.66648883  0.98880276  1
  O  O102  1  0.26747203  0.53767676  0.70298898  1
  O  O103  1  0.39885950  0.10317480  0.23259037  1
  O  O104  1  0.90385741  0.80532525  0.17122815  1
  O  O105  1  0.85812733  0.47406262  0.99813065  1
  O  O106  1  0.39467797  0.79371924  0.21000963  1
  O  O107  1  0.27020473  0.73252797  0.70298898  1
  O  O108  1  0.43781785  0.07297040  0.73780758  1
  O  O109  1  0.23522426  0.26492534  0.26015534  1
  O  O110  1  0.60095872  0.39467797  0.71000963  1
  O  O111  1  0.09853216  0.90385741  0.67122815  1
  O  O112  1  0.53767676  0.27020473  0.20298898  1
  O  O113  1  0.36112913  0.93073390  0.21869766  1
  O  O114  1  0.26492534  0.02970108  0.76015534  1
  O  O115  1  0.06466693  0.12752008  0.26827951  1
  O  O116  1  0.26029724  0.23060945  0.72149374  1
  O  O117  1  0.56960477  0.63887087  0.21869766  1
  O  O118  1  0.63887087  0.06926610  0.71869766  1
  O  O119  1  0.02970108  0.76477574  0.26015534  1
  O  O120  1  0.90372548  0.59149328  0.26192376  1
  O  O121  1  0.85884412  0.81275924  0.47811120  1
  O  O122  1  0.89682520  0.29568470  0.23259037  1
  O  O123  1  0.46232324  0.72979527  0.70298898  1
  O  O124  1  0.07297040  0.63515255  0.23780758  1
  O  O125  1  0.20147624  0.71716924  0.99964865  1
  O  O126  1  0.23537910  0.47261144  0.31112743  1
  O  O127  1  0.70431530  0.60114050  0.23259037  1
  O  O128  1  0.76477574  0.73507466  0.76015534  1
  O  O129  1  0.71716924  0.51569300  0.49964865  1
  O  O130  1  0.43455316  0.86077150  0.80674260  1
  O  O131  1  0.52593738  0.38406472  0.99813065  1
  O  O132  1  0.23723235  0.76462090  0.31112743  1
  O  O133  1  0.51569300  0.79852376  0.99964865  1
  O  O134  1  0.18724076  0.04608488  0.47811120  1
  O  O135  1  0.09614259  0.19467475  0.67122815  1
  O  O136  1  0.06285314  0.93533307  0.26827951  1
  O  O137  1  0.20628076  0.60095872  0.21000963  1
  O  O138  1  0.73970276  0.76939055  0.22149374  1
  O  O139  1  0.76939055  0.02968778  0.72149374  1
  O  O140  1  0.01193271  0.33351117  0.48880276  1
  O  O141  1  0.90146784  0.09614259  0.17122815  1
  O  O142  1  0.56544684  0.13922850  0.30674260  1
  O  O143  1  0.60114050  0.89682520  0.73259037  1
  O  O144  1  0.14115588  0.18724076  0.97811120  1
  O  O145  1  0.93073390  0.56960477  0.71869766  1
  O  O146  1  0.52738856  0.76276765  0.31112743  1
  O  O147  1  0.76276765  0.23537910  0.81112743  1
  O  O148  1  0.19467475  0.09853216  0.17122815  1
  O  O149  1  0.93714686  0.06466693  0.76827951  1
  O  O150  1  0.97029892  0.23522426  0.76015534  1
  O  O151  1  0.48430700  0.20147624  0.49964865  1
  O  O152  1  0.12752008  0.06285314  0.76827951  1
  O  O153  1  0.33351117  0.32157846  0.98880276  1
  O  O154  1  0.66648883  0.67842154  0.48880276  1
  O  O155  1  0.14187267  0.52593738  0.49813065  1
  O  O156  1  0.86077150  0.42621834  0.30674260  1
  O  O157  1  0.47406262  0.61593528  0.49813065  1
  O  O158  1  0.28283076  0.48430700  0.99964865  1
  O  O159  1  0.57378166  0.43455316  0.30674260  1
  O  O160  1  0.43039523  0.36112913  0.71869766  1
  O  O161  1  0.79371924  0.39904128  0.71000963  1
  O  O162  1  0.87247992  0.93714686  0.26827951  1
  O  O163  1  0.31223220  0.90372548  0.76192376  1
  O  O164  1  0.79852376  0.28283076  0.49964865  1
  O  O165  1  0.93533307  0.87247992  0.76827951  1
  O  O166  1  0.06926610  0.43039523  0.21869766  1
  O  O167  1  0.04608488  0.85884412  0.97811120  1
