# generated using pymatgen
data_Cs4TlSbCl12
_symmetry_space_group_name_H-M   'P 1'
_cell_length_a   10.74358385
_cell_length_b   10.74358463
_cell_length_c   13.19810518
_cell_angle_alpha   114.01729194
_cell_angle_beta   114.01729377
_cell_angle_gamma   90.00000362
_symmetry_Int_Tables_number   1
_chemical_formula_structural   Cs4TlSbCl12
_chemical_formula_sum   'Cs8 Tl2 Sb2 Cl24'
_cell_volume   1245.71802314
_cell_formula_units_Z   2
loop_
 _symmetry_equiv_pos_site_id
 _symmetry_equiv_pos_as_xyz
  1  'x, y, z'
loop_
 _atom_site_type_symbol
 _atom_site_label
 _atom_site_symmetry_multiplicity
 _atom_site_fract_x
 _atom_site_fract_y
 _atom_site_fract_z
 _atom_site_occupancy
  Cs  Cs0  1  0.77856472  0.00000000  0.00000000  1
  Cs  Cs1  1  0.00000000  0.77856472  0.50000000  1
  Cs  Cs2  1  0.77856472  0.50000000  0.00000000  1
  Cs  Cs3  1  0.22143528  1.00000000  1.00000000  1
  Cs  Cs4  1  0.50000000  0.77856472  0.50000000  1
  Cs  Cs5  1  1.00000000  0.22143528  0.50000000  1
  Cs  Cs6  1  0.22143528  0.50000000  1.00000000  1
  Cs  Cs7  1  0.50000000  0.22143528  0.50000000  1
  Tl  Tl8  1  0.87500000  0.12500000  0.75000000  1
  Tl  Tl9  1  0.12500000  0.87500000  0.25000000  1
  Sb  Sb10  1  0.62500000  0.37500000  0.25000000  1
  Sb  Sb11  1  0.37500000  0.62500000  0.75000000  1
  Cl  Cl12  1  0.12880836  0.12508185  0.25761672  1
  Cl  Cl13  1  0.37593100  0.85169868  0.75186200  1
  Cl  Cl14  1  0.62406900  0.14830132  0.24813800  1
  Cl  Cl15  1  0.59983668  0.62406900  0.74813800  1
  Cl  Cl16  1  0.14830132  0.62406900  0.74813800  1
  Cl  Cl17  1  0.00270993  0.75270993  0.00541987  1
  Cl  Cl18  1  0.87119164  0.87491815  0.74238328  1
  Cl  Cl19  1  0.87491815  0.87119164  0.24238328  1
  Cl  Cl20  1  0.51266831  0.26266831  0.02533662  1
  Cl  Cl21  1  0.75270993  0.00270993  0.50541987  1
  Cl  Cl22  1  0.85169868  0.37593100  0.25186200  1
  Cl  Cl23  1  0.24729007  0.99729007  0.49458013  1
  Cl  Cl24  1  0.12880836  0.63253487  0.25761672  1
  Cl  Cl25  1  0.40016332  0.37593100  0.25186200  1
  Cl  Cl26  1  0.37593100  0.40016332  0.75186200  1
  Cl  Cl27  1  0.12508185  0.12880836  0.75761672  1
  Cl  Cl28  1  0.87119164  0.36746513  0.74238328  1
  Cl  Cl29  1  0.48733169  0.73733169  0.97466338  1
  Cl  Cl30  1  0.99729007  0.24729007  0.99458013  1
  Cl  Cl31  1  0.73733169  0.48733169  0.47466338  1
  Cl  Cl32  1  0.63253487  0.12880836  0.75761672  1
  Cl  Cl33  1  0.62406900  0.59983668  0.24813800  1
  Cl  Cl34  1  0.26266831  0.51266831  0.52533662  1
  Cl  Cl35  1  0.36746513  0.87119164  0.24238328  1
