# generated using pymatgen
data_Gd2AlCo2
_symmetry_space_group_name_H-M   'P 1'
_cell_length_a   3.98584786
_cell_length_b   5.46905172
_cell_length_c   5.46905172
_cell_angle_alpha   60.78615480
_cell_angle_beta   68.62932589
_cell_angle_gamma   68.62932272
_symmetry_Int_Tables_number   1
_chemical_formula_structural   Gd2AlCo2
_chemical_formula_sum   'Gd2 Al1 Co2'
_cell_volume   94.31341384
_cell_formula_units_Z   1
loop_
 _symmetry_equiv_pos_site_id
 _symmetry_equiv_pos_as_xyz
  1  'x, y, z'
loop_
 _atom_site_type_symbol
 _atom_site_label
 _atom_site_symmetry_multiplicity
 _atom_site_fract_x
 _atom_site_fract_y
 _atom_site_fract_z
 _atom_site_occupancy
  Gd  Gd0  1  0.79935634  0.70064366  0.70064366  1
  Gd  Gd1  1  0.20064366  0.29935634  0.29935634  1
  Al  Al2  1  0.00000000  0.00000000  0.00000000  1
  Co  Co3  1  0.50000000  0.27347563  0.72652437  1
  Co  Co4  1  0.50000000  0.72652437  0.27347563  1
