# generated using pymatgen
data_Lu6CuTe2
_symmetry_space_group_name_H-M   'P 1'
_cell_length_a   3.94432108
_cell_length_b   11.31651823
_cell_length_c   21.14473704
_cell_angle_alpha   89.99639376
_cell_angle_beta   90.00167090
_cell_angle_gamma   89.99924810
_symmetry_Int_Tables_number   1
_chemical_formula_structural   Lu6CuTe2
_chemical_formula_sum   'Lu24 Cu4 Te8'
_cell_volume   943.81608691
_cell_formula_units_Z   4
loop_
 _symmetry_equiv_pos_site_id
 _symmetry_equiv_pos_as_xyz
  1  'x, y, z'
loop_
 _atom_site_type_symbol
 _atom_site_label
 _atom_site_symmetry_multiplicity
 _atom_site_fract_x
 _atom_site_fract_y
 _atom_site_fract_z
 _atom_site_occupancy
  Lu  Lu0  1  0.74999376  0.93999922  0.64137032  1
  Lu  Lu1  1  0.25000215  0.38034837  0.47570490  1
  Lu  Lu2  1  0.24999865  0.11970151  0.97575247  1
  Lu  Lu3  1  0.24995170  0.30944397  0.10865746  1
  Lu  Lu4  1  0.75001804  0.23689066  0.23190704  1
  Lu  Lu5  1  0.25001301  0.76313084  0.76807850  1
  Lu  Lu6  1  0.74999378  0.69054086  0.89133125  1
  Lu  Lu7  1  0.24996835  0.02972069  0.15452885  1
  Lu  Lu8  1  0.75004240  0.11233105  0.49368923  1
  Lu  Lu9  1  0.25002254  0.47030624  0.65450063  1
  Lu  Lu10  1  0.75000556  0.88032176  0.02428508  1
  Lu  Lu11  1  0.75003967  0.56001466  0.14139885  1
  Lu  Lu12  1  0.74996452  0.80940257  0.39136799  1
  Lu  Lu13  1  0.74999959  0.61969340  0.52421756  1
  Lu  Lu14  1  0.24998998  0.43997561  0.85863427  1
  Lu  Lu15  1  0.25001085  0.05998460  0.35860622  1
  Lu  Lu16  1  0.24999165  0.19056350  0.60865004  1
  Lu  Lu17  1  0.24996752  0.73686088  0.26807223  1
  Lu  Lu18  1  0.74999678  0.38765655  0.99368868  1
  Lu  Lu19  1  0.75004676  0.52976543  0.34549483  1
  Lu  Lu20  1  0.25000800  0.61234239  0.00631924  1
  Lu  Lu21  1  0.74999615  0.26310371  0.73194904  1
  Lu  Lu22  1  0.74997796  0.97027844  0.84547188  1
  Lu  Lu23  1  0.24999391  0.88763066  0.50630784  1
  Cu  Cu24  1  0.75001870  0.13621595  0.07665958  1
  Cu  Cu25  1  0.25000180  0.63620832  0.42335640  1
  Cu  Cu26  1  0.24996014  0.86377583  0.92337109  1
  Cu  Cu27  1  0.74998018  0.36381479  0.57663841  1
  Te  Te28  1  0.25002503  0.73310918  0.62577703  1
  Te  Te29  1  0.75000745  0.26688782  0.37420385  1
  Te  Te30  1  0.25001459  0.04591782  0.73871826  1
  Te  Te31  1  0.25001695  0.45408142  0.23873877  1
  Te  Te32  1  0.75000855  0.23311382  0.87421149  1
  Te  Te33  1  0.75000126  0.54592129  0.76125983  1
  Te  Te34  1  0.24999321  0.76687703  0.12580282  1
  Te  Te35  1  0.74997886  0.95406918  0.26127808  1
