# generated using pymatgen
data_Na2Ca(SO4)2
_symmetry_space_group_name_H-M   'P 1'
_cell_length_a   6.61750106
_cell_length_b   6.61750106
_cell_length_c   8.69985949
_cell_angle_alpha   72.94830338
_cell_angle_beta   72.94830340
_cell_angle_gamma   78.32569933
_symmetry_Int_Tables_number   1
_chemical_formula_structural   Na2Ca(SO4)2
_chemical_formula_sum   'Na4 Ca2 S4 O16'
_cell_volume   345.38596607
_cell_formula_units_Z   2
loop_
 _symmetry_equiv_pos_site_id
 _symmetry_equiv_pos_as_xyz
  1  'x, y, z'
loop_
 _atom_site_type_symbol
 _atom_site_label
 _atom_site_symmetry_multiplicity
 _atom_site_fract_x
 _atom_site_fract_y
 _atom_site_fract_z
 _atom_site_occupancy
  O  O0  1  0.73897014  0.48152187  0.86874350  1
  O  O1  1  0.51847813  0.26102986  0.63125650  1
  O  O2  1  0.26102986  0.51847813  0.13125650  1
  O  O3  1  0.48152187  0.73897014  0.36874350  1
  O  O4  1  0.99983377  0.32606097  0.65990164  1
  O  O5  1  0.67393903  0.00016623  0.84009836  1
  O  O6  1  0.00016623  0.67393903  0.34009836  1
  O  O7  1  0.32606097  0.99983377  0.15990164  1
  O  O8  1  0.10527938  0.56935656  0.77672806  1
  O  O9  1  0.43064344  0.89472062  0.72327194  1
  O  O10  1  0.21159188  0.03666739  0.44075157  1
  O  O11  1  0.96333261  0.78840812  0.05924843  1
  O  O12  1  0.78840812  0.96333261  0.55924843  1
  O  O13  1  0.03666739  0.21159188  0.94075157  1
  O  O14  1  0.56935656  0.10527938  0.27672806  1
  O  O15  1  0.89472062  0.43064344  0.22327194  1
  Na  Na16  1  0.69533517  0.58605662  0.56215862  1
  Na  Na17  1  0.30466483  0.41394338  0.43784138  1
  Na  Na18  1  0.41394338  0.30466483  0.93784138  1
  Na  Na19  1  0.58605662  0.69533517  0.06215862  1
  S  S20  1  0.03185456  0.60022494  0.18602694  1
  S  S21  1  0.96814544  0.39977506  0.81397306  1
  S  S22  1  0.39977506  0.96814544  0.31397306  1
  S  S23  1  0.60022494  0.03185456  0.68602694  1
  Ca  Ca24  1  0.93882705  0.06117295  0.25000000  1
  Ca  Ca25  1  0.06117295  0.93882705  0.75000000  1
