# generated using pymatgen
data_NaZr2(PO4)3
_symmetry_space_group_name_H-M   'P 1'
_cell_length_a   9.24747349
_cell_length_b   9.24747349
_cell_length_c   9.24747348
_cell_angle_alpha   57.83823011
_cell_angle_beta   57.83823014
_cell_angle_gamma   57.83823009
_symmetry_Int_Tables_number   1
_chemical_formula_structural   NaZr2(PO4)3
_chemical_formula_sum   'Na2 Zr4 P6 O24'
_cell_volume   531.43031608
_cell_formula_units_Z   2
loop_
 _symmetry_equiv_pos_site_id
 _symmetry_equiv_pos_as_xyz
  1  'x, y, z'
loop_
 _atom_site_type_symbol
 _atom_site_label
 _atom_site_symmetry_multiplicity
 _atom_site_fract_x
 _atom_site_fract_y
 _atom_site_fract_z
 _atom_site_occupancy
  O  O0  1  0.78056201  0.41569362  0.56261795  1
  O  O1  1  0.41569362  0.56261795  0.78056201  1
  O  O2  1  0.56261795  0.78056201  0.41569362  1
  O  O3  1  0.93738205  0.08430638  0.71943799  1
  O  O4  1  0.08430638  0.71943799  0.93738205  1
  O  O5  1  0.71943799  0.93738205  0.08430638  1
  O  O6  1  0.21943799  0.58430638  0.43738205  1
  O  O7  1  0.58430638  0.43738205  0.21943799  1
  O  O8  1  0.43738205  0.21943799  0.58430638  1
  O  O9  1  0.06261795  0.91569362  0.28056201  1
  O  O10  1  0.91569362  0.28056201  0.06261795  1
  O  O11  1  0.28056201  0.06261795  0.91569362  1
  O  O12  1  0.38057690  0.99580827  0.20913146  1
  O  O13  1  0.20913146  0.38057690  0.99580827  1
  O  O14  1  0.99580827  0.20913146  0.38057690  1
  O  O15  1  0.50419173  0.11942310  0.29086854  1
  O  O16  1  0.29086854  0.50419173  0.11942310  1
  O  O17  1  0.11942310  0.29086854  0.50419173  1
  O  O18  1  0.61942310  0.00419173  0.79086854  1
  O  O19  1  0.79086854  0.61942310  0.00419173  1
  O  O20  1  0.00419173  0.79086854  0.61942310  1
  O  O21  1  0.49580827  0.88057690  0.70913146  1
  O  O22  1  0.70913146  0.49580827  0.88057690  1
  O  O23  1  0.88057690  0.70913146  0.49580827  1
  Na  Na24  1  0.00000000  0.00000000  0.00000000  1
  Na  Na25  1  0.50000000  0.50000000  0.50000000  1
  P  P26  1  0.75000000  0.45895522  0.04104478  1
  P  P27  1  0.45895522  0.04104478  0.75000000  1
  P  P28  1  0.25000000  0.54104478  0.95895522  1
  P  P29  1  0.54104478  0.95895522  0.25000000  1
  P  P30  1  0.04104478  0.75000000  0.45895522  1
  P  P31  1  0.95895522  0.25000000  0.54104478  1
  Zr  Zr32  1  0.35488878  0.35488878  0.35488878  1
  Zr  Zr33  1  0.14511122  0.14511122  0.14511122  1
  Zr  Zr34  1  0.85488878  0.85488878  0.85488878  1
  Zr  Zr35  1  0.64511122  0.64511122  0.64511122  1
