# generated using pymatgen
data_RbAlSiO4
_symmetry_space_group_name_H-M   'P 1'
_cell_length_a   5.37988397
_cell_length_b   8.90839629
_cell_length_c   9.34334749
_cell_angle_alpha   90.00000000
_cell_angle_beta   90.00000000
_cell_angle_gamma   90.00000000
_symmetry_Int_Tables_number   1
_chemical_formula_structural   RbAlSiO4
_chemical_formula_sum   'Rb4 Al4 Si4 O16'
_cell_volume   447.79056492
_cell_formula_units_Z   4
loop_
 _symmetry_equiv_pos_site_id
 _symmetry_equiv_pos_as_xyz
  1  'x, y, z'
loop_
 _atom_site_type_symbol
 _atom_site_label
 _atom_site_symmetry_multiplicity
 _atom_site_fract_x
 _atom_site_fract_y
 _atom_site_fract_z
 _atom_site_occupancy
  O  O0  1  0.08911913  0.75352529  0.25652404  1
  O  O1  1  0.58911913  0.24647471  0.74347596  1
  O  O2  1  0.58911913  0.74647471  0.75652404  1
  O  O3  1  0.08911913  0.25352529  0.24347596  1
  O  O4  1  0.21838803  0.75509273  0.53114072  1
  O  O5  1  0.71838803  0.24490727  0.46885928  1
  O  O6  1  0.71838803  0.74490727  0.03114072  1
  O  O7  1  0.21838803  0.25509273  0.96885928  1
  O  O8  1  0.73669959  0.75560001  0.46239853  1
  O  O9  1  0.23669959  0.24439999  0.53760147  1
  O  O10  1  0.23669959  0.74439999  0.96239853  1
  O  O11  1  0.73669959  0.25560001  0.03760147  1
  O  O12  1  0.01196566  0.01006048  0.08873671  1
  O  O13  1  0.51196566  0.98993952  0.91126329  1
  O  O14  1  0.51196566  0.48993952  0.58873671  1
  O  O15  1  0.01196566  0.51006048  0.41126329  1
  Al  Al16  1  0.01154825  0.81484095  0.08394212  1
  Al  Al17  1  0.51154825  0.18515905  0.91605788  1
  Al  Al18  1  0.51154825  0.68515905  0.58394212  1
  Al  Al19  1  0.01154825  0.31484095  0.41605788  1
  Si  Si20  1  0.01206675  0.69220476  0.41522632  1
  Si  Si21  1  0.51206675  0.30779524  0.58477368  1
  Si  Si22  1  0.51206675  0.80779524  0.91522632  1
  Si  Si23  1  0.01206675  0.19220476  0.08477368  1
  Rb  Rb24  1  0.48794258  0.00118261  0.30136773  1
  Rb  Rb25  1  0.98794258  0.99881739  0.69863227  1
  Rb  Rb26  1  0.98794258  0.49881739  0.80136773  1
  Rb  Rb27  1  0.48794258  0.50118261  0.19863227  1
