# generated using pymatgen
data_SeBr4
_symmetry_space_group_name_H-M   'P 1'
_cell_length_a   10.76156413
_cell_length_b   10.76156401
_cell_length_c   31.50138119
_cell_angle_alpha   90.00000000
_cell_angle_beta   90.00000000
_cell_angle_gamma   120.00000035
_symmetry_Int_Tables_number   1
_chemical_formula_structural   SeBr4
_chemical_formula_sum   'Se16 Br64'
_cell_volume   3159.44658412
_cell_formula_units_Z   16
loop_
 _symmetry_equiv_pos_site_id
 _symmetry_equiv_pos_as_xyz
  1  'x, y, z'
loop_
 _atom_site_type_symbol
 _atom_site_label
 _atom_site_symmetry_multiplicity
 _atom_site_fract_x
 _atom_site_fract_y
 _atom_site_fract_z
 _atom_site_occupancy
  Se  Se0  1  0.95834084  0.21822703  0.91399830  1
  Se  Se1  1  0.92165977  0.55923893  0.60498117  1
  Se  Se2  1  0.25988620  0.04165916  0.91399830  1
  Se  Se3  1  0.00000000  0.00000000  0.29871651  1
  Se  Se4  1  0.55923893  0.92165977  0.10498117  1
  Se  Se5  1  0.74011380  0.78177297  0.41399830  1
  Se  Se6  1  0.21822703  0.95834084  0.41399830  1
  Se  Se7  1  0.04165916  0.25988620  0.41399830  1
  Se  Se8  1  0.63757915  0.07834023  0.60498117  1
  Se  Se9  1  0.36242085  0.44076107  0.10498117  1
  Se  Se10  1  0.00000000  0.00000000  0.79871651  1
  Se  Se11  1  0.33333300  0.66666700  0.21942124  1
  Se  Se12  1  0.66666700  0.33333300  0.71942124  1
  Se  Se13  1  0.07834023  0.63757915  0.10498117  1
  Se  Se14  1  0.44076107  0.36242085  0.60498117  1
  Se  Se15  1  0.78177297  0.74011380  0.91399830  1
  Br  Br16  1  0.43767150  0.92237188  0.56033174  1
  Br  Br17  1  0.92237188  0.43767150  0.06033174  1
  Br  Br18  1  0.48470037  0.56232850  0.56033174  1
  Br  Br19  1  0.27841091  0.86115344  0.95417768  1
  Br  Br20  1  0.85666734  0.30322996  0.65867534  1
  Br  Br21  1  0.22045703  0.18848628  0.36132901  1
  Br  Br22  1  0.99148920  0.18711695  0.25941386  1
  Br  Br23  1  0.33333300  0.66666700  0.05879930  1
  Br  Br24  1  0.58274253  0.72158909  0.95417768  1
  Br  Br25  1  0.81288305  0.80437226  0.25941386  1
  Br  Br26  1  0.00851080  0.19562774  0.75941386  1
  Br  Br27  1  0.88074417  0.49510750  0.75853074  1
  Br  Br28  1  0.91766906  0.35636754  0.86188502  1
  Br  Br29  1  0.50489250  0.38563667  0.75853074  1
  Br  Br30  1  0.81151372  0.03197075  0.36132901  1
  Br  Br31  1  0.74344384  0.92417365  0.06198036  1
  Br  Br32  1  0.08233094  0.43869848  0.36188502  1
  Br  Br33  1  0.66666700  0.33333300  0.55879930  1
  Br  Br34  1  0.89911331  0.61446103  0.15467174  1
  Br  Br35  1  0.75849560  0.16711800  0.95953217  1
  Br  Br36  1  0.59137759  0.83288200  0.45953217  1
  Br  Br37  1  0.49510750  0.88074417  0.25853074  1
  Br  Br38  1  0.51529963  0.07762812  0.06033174  1
  Br  Br39  1  0.38563667  0.50489250  0.25853074  1
  Br  Br40  1  0.72158909  0.58274253  0.45417768  1
  Br  Br41  1  0.07762812  0.51529963  0.56033174  1
  Br  Br42  1  0.64363246  0.56130152  0.86188502  1
  Br  Br43  1  0.44656262  0.14333266  0.65867534  1
  Br  Br44  1  0.00000000  0.00000000  0.46164154  1
  Br  Br45  1  0.11925583  0.61436333  0.25853074  1
  Br  Br46  1  0.10088669  0.71534772  0.65467174  1
  Br  Br47  1  0.18711695  0.99148920  0.75941386  1
  Br  Br48  1  0.00000000  0.00000000  0.96164154  1
  Br  Br49  1  0.83288200  0.59137759  0.95953217  1
  Br  Br50  1  0.35636754  0.91766906  0.36188502  1
  Br  Br51  1  0.19562774  0.00851080  0.25941386  1
  Br  Br52  1  0.41725747  0.13884656  0.45417768  1
  Br  Br53  1  0.61446103  0.89911331  0.65467174  1
  Br  Br54  1  0.30322996  0.85666734  0.15867534  1
  Br  Br55  1  0.18072981  0.25655616  0.06198036  1
  Br  Br56  1  0.24150440  0.40862241  0.45953217  1
  Br  Br57  1  0.56130152  0.64363246  0.36188502  1
  Br  Br58  1  0.28465228  0.38553897  0.65467174  1
  Br  Br59  1  0.56232850  0.48470037  0.06033174  1
  Br  Br60  1  0.25655616  0.18072981  0.56198036  1
  Br  Br61  1  0.18848628  0.22045703  0.86132901  1
  Br  Br62  1  0.43869848  0.08233094  0.86188502  1
  Br  Br63  1  0.69677004  0.55343738  0.65867534  1
  Br  Br64  1  0.61436333  0.11925583  0.75853074  1
  Br  Br65  1  0.71534772  0.10088669  0.15467174  1
  Br  Br66  1  0.14333266  0.44656262  0.15867534  1
  Br  Br67  1  0.81927019  0.07582635  0.56198036  1
  Br  Br68  1  0.55343738  0.69677004  0.15867534  1
  Br  Br69  1  0.07582635  0.81927019  0.06198036  1
  Br  Br70  1  0.38553897  0.28465228  0.15467174  1
  Br  Br71  1  0.77954297  0.96802925  0.86132901  1
  Br  Br72  1  0.96802925  0.77954297  0.36132901  1
  Br  Br73  1  0.03197075  0.81151372  0.86132901  1
  Br  Br74  1  0.16711800  0.75849560  0.45953217  1
  Br  Br75  1  0.92417365  0.74344384  0.56198036  1
  Br  Br76  1  0.13884656  0.41725747  0.95417768  1
  Br  Br77  1  0.80437226  0.81288305  0.75941386  1
  Br  Br78  1  0.86115344  0.27841091  0.45417768  1
  Br  Br79  1  0.40862241  0.24150440  0.95953217  1
