# generated using pymatgen
data_RbPPbS4
_symmetry_space_group_name_H-M   'P 1'
_cell_length_a   6.55783204
_cell_length_b   6.83364612
_cell_length_c   17.65035844
_cell_angle_alpha   90.00000000
_cell_angle_beta   90.00000000
_cell_angle_gamma   90.00000000
_symmetry_Int_Tables_number   1
_chemical_formula_structural   RbPPbS4
_chemical_formula_sum   'Rb4 P4 Pb4 S16'
_cell_volume   790.98145944
_cell_formula_units_Z   4
loop_
 _symmetry_equiv_pos_site_id
 _symmetry_equiv_pos_as_xyz
  1  'x, y, z'
loop_
 _atom_site_type_symbol
 _atom_site_label
 _atom_site_symmetry_multiplicity
 _atom_site_fract_x
 _atom_site_fract_y
 _atom_site_fract_z
 _atom_site_occupancy
  Rb  Rb0  1  0.01886987  0.00294357  0.04344364  1
  Rb  Rb1  1  0.51886987  0.49705643  0.95655636  1
  Rb  Rb2  1  0.98113013  0.50294357  0.45655636  1
  Rb  Rb3  1  0.48113013  0.99705643  0.54344364  1
  P  P4  1  0.21874762  0.01134411  0.34698008  1
  P  P5  1  0.28125238  0.98865589  0.84698008  1
  P  P6  1  0.71874762  0.48865589  0.65301992  1
  P  P7  1  0.78125238  0.51134411  0.15301992  1
  Pb  Pb8  1  0.28599414  0.47149517  0.23061489  1
  Pb  Pb9  1  0.78599414  0.02850483  0.76938511  1
  Pb  Pb10  1  0.71400586  0.97149517  0.26938511  1
  Pb  Pb11  1  0.21400586  0.52850483  0.73061489  1
  S  S12  1  0.34889577  0.96438163  0.73271919  1
  S  S13  1  0.15110423  0.03561837  0.23271919  1
  S  S14  1  0.39727308  0.24807093  0.37410263  1
  S  S15  1  0.89727308  0.25192907  0.62589737  1
  S  S16  1  0.88768382  0.73734016  0.63347316  1
  S  S17  1  0.95634775  0.00380665  0.41012817  1
  S  S18  1  0.04365225  0.50380665  0.08987183  1
  S  S19  1  0.11231618  0.23734016  0.86652684  1
  S  S20  1  0.65110423  0.46438163  0.76728081  1
  S  S21  1  0.10272692  0.75192907  0.87410263  1
  S  S22  1  0.60272692  0.74807093  0.12589737  1
  S  S23  1  0.84889577  0.53561837  0.26728081  1
  S  S24  1  0.38768382  0.76265984  0.36652684  1
  S  S25  1  0.45634775  0.49619335  0.58987183  1
  S  S26  1  0.54365225  0.99619335  0.91012817  1
  S  S27  1  0.61231618  0.26265984  0.13347316  1
