# generated using pymatgen
data_Y14(InRh)3
_symmetry_space_group_name_H-M   'P 1'
_cell_length_a   9.71012272
_cell_length_b   9.71012272
_cell_length_c   23.62347107
_cell_angle_alpha   90.00000000
_cell_angle_beta   90.00000000
_cell_angle_gamma   90.00000000
_symmetry_Int_Tables_number   1
_chemical_formula_structural   Y14(InRh)3
_chemical_formula_sum   'Y56 In12 Rh12'
_cell_volume   2227.37400905
_cell_formula_units_Z   4
loop_
 _symmetry_equiv_pos_site_id
 _symmetry_equiv_pos_as_xyz
  1  'x, y, z'
loop_
 _atom_site_type_symbol
 _atom_site_label
 _atom_site_symmetry_multiplicity
 _atom_site_fract_x
 _atom_site_fract_y
 _atom_site_fract_z
 _atom_site_occupancy
  Y  Y0  1  0.54853219  0.25000000  0.80647319  1
  Y  Y1  1  0.95146781  0.25000000  0.80647319  1
  Y  Y2  1  0.43795273  0.06510957  0.10456387  1
  Y  Y3  1  0.25000000  0.44162652  0.46628757  1
  Y  Y4  1  0.04853219  0.75000000  0.19352681  1
  Y  Y5  1  0.75000000  0.04853219  0.69352681  1
  Y  Y6  1  0.75000000  0.75000000  0.78451291  1
  Y  Y7  1  0.25000000  0.75000000  0.64606674  1
  Y  Y8  1  0.06060194  0.75000000  0.51646651  1
  Y  Y9  1  0.06204727  0.43489043  0.10456387  1
  Y  Y10  1  0.25000000  0.75000000  0.85393326  1
  Y  Y11  1  0.06150186  0.56150186  0.75000000  1
  Y  Y12  1  0.25000000  0.25000000  0.21548709  1
  Y  Y13  1  0.75000000  0.25000000  0.14606674  1
  Y  Y14  1  0.56510957  0.56204727  0.39543613  1
  Y  Y15  1  0.75000000  0.94162652  0.53371243  1
  Y  Y16  1  0.93849814  0.43849814  0.25000000  1
  Y  Y17  1  0.44162652  0.25000000  0.96628757  1
  Y  Y18  1  0.25000000  0.95146781  0.30647319  1
  Y  Y19  1  0.75000000  0.06060194  0.01646651  1
  Y  Y20  1  0.93849814  0.06150186  0.25000000  1
  Y  Y21  1  0.93795273  0.56510957  0.89543613  1
  Y  Y22  1  0.06510957  0.43795273  0.60456387  1
  Y  Y23  1  0.75000000  0.75000000  0.28451291  1
  Y  Y24  1  0.45146781  0.75000000  0.19352681  1
  Y  Y25  1  0.06150186  0.93849814  0.75000000  1
  Y  Y26  1  0.75000000  0.45146781  0.69352681  1
  Y  Y27  1  0.43795273  0.43489043  0.10456387  1
  Y  Y28  1  0.56204727  0.56510957  0.89543613  1
  Y  Y29  1  0.93489043  0.56204727  0.39543613  1
  Y  Y30  1  0.56204727  0.93489043  0.89543613  1
  Y  Y31  1  0.25000000  0.93939806  0.98353349  1
  Y  Y32  1  0.25000000  0.54853219  0.30647319  1
  Y  Y33  1  0.93795273  0.93489043  0.89543613  1
  Y  Y34  1  0.43939806  0.75000000  0.51646651  1
  Y  Y35  1  0.43489043  0.43795273  0.60456387  1
  Y  Y36  1  0.56510957  0.93795273  0.39543613  1
  Y  Y37  1  0.55837348  0.75000000  0.03371243  1
  Y  Y38  1  0.43849814  0.93849814  0.75000000  1
  Y  Y39  1  0.56060194  0.25000000  0.48353349  1
  Y  Y40  1  0.94162652  0.75000000  0.03371243  1
  Y  Y41  1  0.56150186  0.43849814  0.25000000  1
  Y  Y42  1  0.75000000  0.43939806  0.01646651  1
  Y  Y43  1  0.06510957  0.06204727  0.60456387  1
  Y  Y44  1  0.93489043  0.93795273  0.39543613  1
  Y  Y45  1  0.25000000  0.05837348  0.46628757  1
  Y  Y46  1  0.56150186  0.06150186  0.25000000  1
  Y  Y47  1  0.75000000  0.55837348  0.53371243  1
  Y  Y48  1  0.93939806  0.25000000  0.48353349  1
  Y  Y49  1  0.25000000  0.25000000  0.71548709  1
  Y  Y50  1  0.43489043  0.06204727  0.60456387  1
  Y  Y51  1  0.25000000  0.56060194  0.98353349  1
  Y  Y52  1  0.06204727  0.06510957  0.10456387  1
  Y  Y53  1  0.75000000  0.25000000  0.35393326  1
  Y  Y54  1  0.43849814  0.56150186  0.75000000  1
  Y  Y55  1  0.05837348  0.25000000  0.96628757  1
  In  In56  1  0.41066912  0.25000000  0.35478086  1
  In  In57  1  0.75000000  0.25000000  0.90907097  1
  In  In58  1  0.58933088  0.75000000  0.64521914  1
  In  In59  1  0.91066912  0.75000000  0.64521914  1
  In  In60  1  0.75000000  0.91066912  0.14521914  1
  In  In61  1  0.08933088  0.25000000  0.35478086  1
  In  In62  1  0.25000000  0.75000000  0.09092903  1
  In  In63  1  0.25000000  0.75000000  0.40907097  1
  In  In64  1  0.25000000  0.41066912  0.85478086  1
  In  In65  1  0.75000000  0.25000000  0.59092903  1
  In  In66  1  0.25000000  0.08933088  0.85478086  1
  In  In67  1  0.75000000  0.58933088  0.14521914  1
  Rh  Rh68  1  0.75000000  0.75000000  0.44895688  1
  Rh  Rh69  1  0.25000000  0.25000000  0.05104312  1
  Rh  Rh70  1  0.75000000  0.03124510  0.81093871  1
  Rh  Rh71  1  0.96875490  0.25000000  0.68906129  1
  Rh  Rh72  1  0.46875490  0.75000000  0.31093871  1
  Rh  Rh73  1  0.03124510  0.75000000  0.31093871  1
  Rh  Rh74  1  0.75000000  0.46875490  0.81093871  1
  Rh  Rh75  1  0.25000000  0.96875490  0.18906129  1
  Rh  Rh76  1  0.75000000  0.75000000  0.94895688  1
  Rh  Rh77  1  0.25000000  0.53124510  0.18906129  1
  Rh  Rh78  1  0.25000000  0.25000000  0.55104312  1
  Rh  Rh79  1  0.53124510  0.25000000  0.68906129  1
