# generated using pymatgen
data_Ca4SmB3O10
_symmetry_space_group_name_H-M   'P 1'
_cell_length_a   3.60416138
_cell_length_b   8.16652565
_cell_length_c   9.05494636
_cell_angle_alpha   63.19581114
_cell_angle_beta   84.91633205
_cell_angle_gamma   78.66762244
_symmetry_Int_Tables_number   1
_chemical_formula_structural   Ca4SmB3O10
_chemical_formula_sum   'Ca4 Sm1 B3 O10'
_cell_volume   233.24409287
_cell_formula_units_Z   1
loop_
 _symmetry_equiv_pos_site_id
 _symmetry_equiv_pos_as_xyz
  1  'x, y, z'
loop_
 _atom_site_type_symbol
 _atom_site_label
 _atom_site_symmetry_multiplicity
 _atom_site_fract_x
 _atom_site_fract_y
 _atom_site_fract_z
 _atom_site_occupancy
  B  B0  1  0.91594756  0.75656575  0.38979241  1
  B  B1  1  0.91594756  0.14635816  0.61020759  1
  B  B2  1  0.29589203  0.37763220  0.00000000  1
  O  O3  1  0.39106245  0.20395867  0.00000000  1
  O  O4  1  0.24842904  0.53787509  0.85084490  1
  O  O5  1  0.57758060  0.82597796  0.00000000  1
  O  O6  1  0.91374741  0.94614996  0.28773214  1
  O  O7  1  0.91374741  0.23388211  0.71226786  1
  O  O8  1  0.72571731  0.23770753  0.46053064  1
  O  O9  1  0.72571731  0.69823817  0.53946936  1
  O  O10  1  0.11323237  0.96661499  0.65722390  1
  O  O11  1  0.11323237  0.62383889  0.34277610  1
  O  O12  1  0.24842904  0.38871999  0.14915510  1
  Ca  Ca13  1  0.33818871  0.44817404  0.63630595  1
  Ca  Ca14  1  0.33818871  0.08447998  0.36369405  1
  Ca  Ca15  1  0.66972051  0.52960775  0.22594924  1
  Ca  Ca16  1  0.66972051  0.75555699  0.77405076  1
  Sm  Sm17  1  0.99741909  0.00076176  0.00000000  1
