# generated using pymatgen
data_CsMoP2O7
_symmetry_space_group_name_H-M   'P 1'
_cell_length_a   7.87831025
_cell_length_b   8.67588361
_cell_length_c   10.61114138
_cell_angle_alpha   90.00000000
_cell_angle_beta   90.00000000
_cell_angle_gamma   105.08222127
_symmetry_Int_Tables_number   1
_chemical_formula_structural   CsMoP2O7
_chemical_formula_sum   'Cs4 Mo4 P8 O28'
_cell_volume   700.30173649
_cell_formula_units_Z   4
loop_
 _symmetry_equiv_pos_site_id
 _symmetry_equiv_pos_as_xyz
  1  'x, y, z'
loop_
 _atom_site_type_symbol
 _atom_site_label
 _atom_site_symmetry_multiplicity
 _atom_site_fract_x
 _atom_site_fract_y
 _atom_site_fract_z
 _atom_site_occupancy
  O  O0  1  0.31543494  0.29751895  0.05830712  1
  O  O1  1  0.68456506  0.20248105  0.55830712  1
  O  O2  1  0.68456506  0.70248105  0.94169288  1
  O  O3  1  0.31543494  0.79751895  0.44169288  1
  O  O4  1  0.00830487  0.77219793  0.99367263  1
  O  O5  1  0.99169513  0.72780207  0.49367263  1
  O  O6  1  0.99169513  0.22780207  0.00632737  1
  O  O7  1  0.00830487  0.27219793  0.50632737  1
  O  O8  1  0.44065637  0.73238197  0.23088844  1
  O  O9  1  0.55934363  0.76761803  0.73088844  1
  O  O10  1  0.55934363  0.26761803  0.76911156  1
  O  O11  1  0.44065637  0.23238197  0.26911156  1
  O  O12  1  0.14553227  0.50393404  0.09009346  1
  O  O13  1  0.85446773  0.99606596  0.59009346  1
  O  O14  1  0.85446773  0.49606596  0.90990654  1
  O  O15  1  0.14553227  0.00393404  0.40990654  1
  O  O16  1  0.08321936  0.25913088  0.23278465  1
  O  O17  1  0.91678064  0.24086912  0.73278465  1
  O  O18  1  0.91678064  0.74086912  0.76721535  1
  O  O19  1  0.08321936  0.75913088  0.26721535  1
  O  O20  1  0.32458238  0.51464979  0.39770428  1
  O  O21  1  0.67541762  0.98535021  0.89770428  1
  O  O22  1  0.67541762  0.48535021  0.60229572  1
  O  O23  1  0.32458238  0.01464979  0.10229572  1
  O  O24  1  0.39071567  0.26371761  0.57024537  1
  O  O25  1  0.60928433  0.23628239  0.07024537  1
  O  O26  1  0.60928433  0.73628239  0.42975463  1
  O  O27  1  0.39071567  0.76371761  0.92975463  1
  P  P28  1  0.42592191  0.18622762  0.12883191  1
  P  P29  1  0.57407809  0.31377238  0.62883191  1
  P  P30  1  0.57407809  0.81377238  0.87116809  1
  P  P31  1  0.42592191  0.68622762  0.37116809  1
  P  P32  1  0.12662804  0.82669973  0.40119782  1
  P  P33  1  0.87337196  0.67330027  0.90119782  1
  P  P34  1  0.87337196  0.17330027  0.59880218  1
  P  P35  1  0.12662804  0.32669973  0.09880218  1
  Mo  Mo36  1  0.23911219  0.75686801  0.10154210  1
  Mo  Mo37  1  0.76088781  0.74313199  0.60154210  1
  Mo  Mo38  1  0.76088781  0.24313199  0.89845790  1
  Mo  Mo39  1  0.23911219  0.25686801  0.39845790  1
  Cs  Cs40  1  0.19664890  0.55126527  0.69166416  1
  Cs  Cs41  1  0.80335110  0.94873473  0.19166416  1
  Cs  Cs42  1  0.80335110  0.44873473  0.30833584  1
  Cs  Cs43  1  0.19664890  0.05126527  0.80833584  1
