# generated using pymatgen
data_ZnH2SO5
_symmetry_space_group_name_H-M   'P 1'
_cell_length_a   5.19919145
_cell_length_b   5.19919145
_cell_length_c   7.79190666
_cell_angle_alpha   71.93085505
_cell_angle_beta   108.06914495
_cell_angle_gamma   83.18051026
_symmetry_Int_Tables_number   1
_chemical_formula_structural   ZnH2SO5
_chemical_formula_sum   'Zn2 H4 S2 O10'
_cell_volume   184.90299371
_cell_formula_units_Z   2
loop_
 _symmetry_equiv_pos_site_id
 _symmetry_equiv_pos_as_xyz
  1  'x, y, z'
loop_
 _atom_site_type_symbol
 _atom_site_label
 _atom_site_symmetry_multiplicity
 _atom_site_fract_x
 _atom_site_fract_y
 _atom_site_fract_z
 _atom_site_occupancy
  Zn  Zn0  1  0.50000000  0.50000000  0.50000000  1
  Zn  Zn1  1  0.50000000  0.50000000  0.00000000  1
  H  H2  1  0.42541672  0.15807930  0.79595642  1
  H  H3  1  0.15807930  0.42541672  0.70404358  1
  H  H4  1  0.57458328  0.84192070  0.20404358  1
  H  H5  1  0.84192070  0.57458328  0.29595642  1
  S  S6  1  0.84441053  0.84441053  0.75000000  1
  S  S7  1  0.15558947  0.15558947  0.25000000  1
  O  O8  1  0.12549026  0.78327795  0.89908437  1
  O  O9  1  0.78327795  0.12549026  0.60091563  1
  O  O10  1  0.87450974  0.21672205  0.10091563  1
  O  O11  1  0.21672205  0.87450974  0.39908437  1
  O  O12  1  0.83640642  0.62915067  0.65838122  1
  O  O13  1  0.62915067  0.83640642  0.84161878  1
  O  O14  1  0.16359358  0.37084933  0.34161878  1
  O  O15  1  0.37084933  0.16359358  0.15838122  1
  O  O16  1  0.36579731  0.36579731  0.75000000  1
  O  O17  1  0.63420269  0.63420269  0.25000000  1
