# generated using pymatgen
data_Mn2GeSe4
_symmetry_space_group_name_H-M   'P 1'
_cell_length_a   6.40143243
_cell_length_b   7.66988485
_cell_length_c   13.20131150
_cell_angle_alpha   90.02774376
_cell_angle_beta   89.99570400
_cell_angle_gamma   90.02338303
_symmetry_Int_Tables_number   1
_chemical_formula_structural   Mn2GeSe4
_chemical_formula_sum   'Mn8 Ge4 Se16'
_cell_volume   648.16115553
_cell_formula_units_Z   4
loop_
 _symmetry_equiv_pos_site_id
 _symmetry_equiv_pos_as_xyz
  1  'x, y, z'
loop_
 _atom_site_type_symbol
 _atom_site_label
 _atom_site_symmetry_multiplicity
 _atom_site_fract_x
 _atom_site_fract_y
 _atom_site_fract_z
 _atom_site_occupancy
  Mn  Mn0  1  0.00209377  0.74989256  0.73349055  1
  Mn  Mn1  1  0.49786471  0.74997515  0.23366338  1
  Mn  Mn2  1  0.50207853  0.24993148  0.76638140  1
  Mn  Mn3  1  0.49996612  0.50003315  0.49991661  1
  Mn  Mn4  1  0.99786494  0.25008328  0.26652449  1
  Mn  Mn5  1  0.00009202  0.99994870  0.00008003  1
  Mn  Mn6  1  0.99995905  0.50000923  0.00008917  1
  Mn  Mn7  1  0.49998598  0.00010902  0.49989205  1
  Ge  Ge8  1  0.91559864  0.74995505  0.41140641  1
  Ge  Ge9  1  0.41566166  0.25004034  0.08864455  1
  Ge  Ge10  1  0.58438040  0.74991421  0.91139440  1
  Ge  Ge11  1  0.08433860  0.25007555  0.58861651  1
  Se  Se12  1  0.26342225  0.49601287  0.66904735  1
  Se  Se13  1  0.24271705  0.24997750  0.92241763  1
  Se  Se14  1  0.29991645  0.74994565  0.40836842  1
  Se  Se15  1  0.23655316  0.00385190  0.16915236  1
  Se  Se16  1  0.79989923  0.24995536  0.09174215  1
  Se  Se17  1  0.23665832  0.49605246  0.16911749  1
  Se  Se18  1  0.25745869  0.24993593  0.42241075  1
  Se  Se19  1  0.20016002  0.74989833  0.90823882  1
  Se  Se20  1  0.74251001  0.75014897  0.57754090  1
  Se  Se21  1  0.70000991  0.25017573  0.59163315  1
  Se  Se22  1  0.75732658  0.75002312  0.07756426  1
  Se  Se23  1  0.73648654  0.99639420  0.33083857  1
  Se  Se24  1  0.73657194  0.50404951  0.33095149  1
  Se  Se25  1  0.26351456  0.00362820  0.66913505  1
  Se  Se26  1  0.76355583  0.99612115  0.83083262  1
  Se  Se27  1  0.76335505  0.50386138  0.83090946  1
