# generated using pymatgen
data_Ce10Te19
_symmetry_space_group_name_H-M   'P 1'
_cell_length_a   10.06887734
_cell_length_b   10.06887734
_cell_length_c   18.12674873
_cell_angle_alpha   90.00000000
_cell_angle_beta   90.00000000
_cell_angle_gamma   90.00000000
_symmetry_Int_Tables_number   1
_chemical_formula_structural   Ce10Te19
_chemical_formula_sum   'Ce20 Te38'
_cell_volume   1837.73131260
_cell_formula_units_Z   2
loop_
 _symmetry_equiv_pos_site_id
 _symmetry_equiv_pos_as_xyz
  1  'x, y, z'
loop_
 _atom_site_type_symbol
 _atom_site_label
 _atom_site_symmetry_multiplicity
 _atom_site_fract_x
 _atom_site_fract_y
 _atom_site_fract_z
 _atom_site_occupancy
  Ce  Ce0  1  0.75000000  0.25000000  0.88063444  1
  Ce  Ce1  1  0.85038358  0.95640172  0.61857938  1
  Ce  Ce2  1  0.95640172  0.64961642  0.88142062  1
  Ce  Ce3  1  0.64961642  0.54359828  0.61857938  1
  Ce  Ce4  1  0.04359828  0.35038358  0.11857938  1
  Ce  Ce5  1  0.64721837  0.54926053  0.10983038  1
  Ce  Ce6  1  0.95073947  0.64721837  0.39016962  1
  Ce  Ce7  1  0.35278163  0.45073947  0.89016962  1
  Ce  Ce8  1  0.45073947  0.14721837  0.60983038  1
  Ce  Ce9  1  0.54926053  0.85278163  0.39016962  1
  Ce  Ce10  1  0.35038358  0.45640172  0.38142062  1
  Ce  Ce11  1  0.14961642  0.04359828  0.38142062  1
  Ce  Ce12  1  0.85278163  0.95073947  0.10983038  1
  Ce  Ce13  1  0.54359828  0.85038358  0.88142062  1
  Ce  Ce14  1  0.45640172  0.14961642  0.11857938  1
  Ce  Ce15  1  0.25000000  0.75000000  0.61936556  1
  Ce  Ce16  1  0.14721837  0.04926053  0.89016962  1
  Ce  Ce17  1  0.04926053  0.35278163  0.60983038  1
  Ce  Ce18  1  0.75000000  0.25000000  0.38063444  1
  Ce  Ce19  1  0.25000000  0.75000000  0.11936556  1
  Te  Te20  1  0.34959138  0.44710384  0.56534486  1
  Te  Te21  1  0.15244581  0.04976948  0.07081129  1
  Te  Te22  1  0.05289616  0.34959138  0.93465514  1
  Te  Te23  1  0.44710384  0.15040862  0.93465514  1
  Te  Te24  1  0.83586119  0.47565029  0.24955665  1
  Te  Te25  1  0.02434971  0.83586119  0.25044335  1
  Te  Te26  1  0.16413881  0.52434971  0.75044335  1
  Te  Te27  1  0.34755419  0.45023052  0.07081129  1
  Te  Te28  1  0.84755419  0.95023052  0.92918871  1
  Te  Te29  1  0.25000000  0.25000000  0.25000000  1
  Te  Te30  1  0.33586119  0.97565029  0.75044335  1
  Te  Te31  1  0.44521382  0.64096993  0.75011493  1
  Te  Te32  1  0.94710384  0.65040862  0.06534486  1
  Te  Te33  1  0.65244581  0.54976948  0.92918871  1
  Te  Te34  1  0.25000000  0.75000000  0.43453931  1
  Te  Te35  1  0.75000000  0.25000000  0.06546069  1
  Te  Te36  1  0.45023052  0.15244581  0.42918871  1
  Te  Te37  1  0.35903007  0.94521382  0.25011493  1
  Te  Te38  1  0.55289616  0.84959138  0.06534486  1
  Te  Te39  1  0.04976948  0.34755419  0.42918871  1
  Te  Te40  1  0.55478618  0.35903007  0.24988507  1
  Te  Te41  1  0.14096993  0.55478618  0.25011493  1
  Te  Te42  1  0.54976948  0.84755419  0.57081129  1
  Te  Te43  1  0.25000000  0.75000000  0.93453931  1
  Te  Te44  1  0.47565029  0.66413881  0.25044335  1
  Te  Te45  1  0.95023052  0.65244581  0.57081129  1
  Te  Te46  1  0.85903007  0.44521382  0.74988507  1
  Te  Te47  1  0.97565029  0.16413881  0.74955665  1
  Te  Te48  1  0.52434971  0.33586119  0.74955665  1
  Te  Te49  1  0.65040862  0.55289616  0.43465514  1
  Te  Te50  1  0.66413881  0.02434971  0.24955665  1
  Te  Te51  1  0.84959138  0.94710384  0.43465514  1
  Te  Te52  1  0.64096993  0.05478618  0.74988507  1
  Te  Te53  1  0.15040862  0.05289616  0.56534486  1
  Te  Te54  1  0.94521382  0.14096993  0.24988507  1
  Te  Te55  1  0.05478618  0.85903007  0.75011493  1
  Te  Te56  1  0.75000000  0.25000000  0.56546069  1
  Te  Te57  1  0.75000000  0.75000000  0.75000000  1
