# generated using pymatgen
data_Ho5NiSb2
_symmetry_space_group_name_H-M   'P 1'
_cell_length_a   7.88184115
_cell_length_b   8.81454280
_cell_length_c   12.02321010
_cell_angle_alpha   89.99997499
_cell_angle_beta   89.98955850
_cell_angle_gamma   90.00103000
_symmetry_Int_Tables_number   1
_chemical_formula_structural   Ho5NiSb2
_chemical_formula_sum   'Ho20 Ni4 Sb8'
_cell_volume   835.31041792
_cell_formula_units_Z   4
loop_
 _symmetry_equiv_pos_site_id
 _symmetry_equiv_pos_as_xyz
  1  'x, y, z'
loop_
 _atom_site_type_symbol
 _atom_site_label
 _atom_site_symmetry_multiplicity
 _atom_site_fract_x
 _atom_site_fract_y
 _atom_site_fract_z
 _atom_site_occupancy
  Ho  Ho0  1  0.32037213  0.04330372  0.56506172  1
  Ho  Ho1  1  0.87302806  0.75000253  0.19886612  1
  Ho  Ho2  1  0.17955311  0.04322956  0.06503424  1
  Ho  Ho3  1  0.32037161  0.45669487  0.56506204  1
  Ho  Ho4  1  0.12696079  0.24999964  0.80112048  1
  Ho  Ho5  1  0.84078034  0.25000053  0.20722347  1
  Ho  Ho6  1  0.37299241  0.25000017  0.30104025  1
  Ho  Ho7  1  0.95536067  0.24999888  0.49933721  1
  Ho  Ho8  1  0.45536144  0.75000022  0.00065142  1
  Ho  Ho9  1  0.67960006  0.95680603  0.43493373  1
  Ho  Ho10  1  0.82041896  0.54324928  0.93497485  1
  Ho  Ho11  1  0.65916571  0.24999886  0.70722854  1
  Ho  Ho12  1  0.54458793  0.24999936  0.99935485  1
  Ho  Ho13  1  0.04455142  0.74999985  0.50065090  1
  Ho  Ho14  1  0.67959863  0.54319516  0.43493038  1
  Ho  Ho15  1  0.17955485  0.45676959  0.06503415  1
  Ho  Ho16  1  0.62704580  0.75000022  0.69901232  1
  Ho  Ho17  1  0.34076132  0.75000127  0.29268955  1
  Ho  Ho18  1  0.82042077  0.95675515  0.93497818  1
  Ho  Ho19  1  0.15916657  0.74999911  0.79281669  1
  Ni  Ni20  1  0.91730157  0.24999621  0.98363728  1
  Ni  Ni21  1  0.58294819  0.24999708  0.48346941  1
  Ni  Ni22  1  0.08297370  0.74999971  0.01653970  1
  Ni  Ni23  1  0.41729545  0.75000244  0.51634701  1
  Sb  Sb24  1  0.92941650  0.99054091  0.67308903  1
  Sb  Sb25  1  0.42941232  0.00947835  0.82693922  1
  Sb  Sb26  1  0.42941448  0.49052043  0.82693825  1
  Sb  Sb27  1  0.57054390  0.99053193  0.17306428  1
  Sb  Sb28  1  0.07054128  0.00946381  0.32691060  1
  Sb  Sb29  1  0.57054271  0.50946789  0.17306475  1
  Sb  Sb30  1  0.92941523  0.50946123  0.67308855  1
  Sb  Sb31  1  0.07054208  0.49053602  0.32691086  1
