# generated using pymatgen
data_Ce4Te3N2
_symmetry_space_group_name_H-M   'P 1'
_cell_length_a   7.29603536
_cell_length_b   11.44761531
_cell_length_c   11.55383586
_cell_angle_alpha   90.00000000
_cell_angle_beta   90.00000000
_cell_angle_gamma   90.00000000
_symmetry_Int_Tables_number   1
_chemical_formula_structural   Ce4Te3N2
_chemical_formula_sum   'Ce16 Te12 N8'
_cell_volume   965.00185982
_cell_formula_units_Z   4
loop_
 _symmetry_equiv_pos_site_id
 _symmetry_equiv_pos_as_xyz
  1  'x, y, z'
loop_
 _atom_site_type_symbol
 _atom_site_label
 _atom_site_symmetry_multiplicity
 _atom_site_fract_x
 _atom_site_fract_y
 _atom_site_fract_z
 _atom_site_occupancy
  Ce  Ce0  1  0.15022839  0.39054561  0.44899887  1
  Ce  Ce1  1  0.34977161  0.89054561  0.94899887  1
  Ce  Ce2  1  0.21985420  0.02540523  0.25000000  1
  Ce  Ce3  1  0.15022839  0.39054561  0.05100113  1
  Ce  Ce4  1  0.28014580  0.52540523  0.75000000  1
  Ce  Ce5  1  0.84977161  0.60945439  0.55100113  1
  Ce  Ce6  1  0.91320820  0.33954670  0.75000000  1
  Ce  Ce7  1  0.08679180  0.66045330  0.25000000  1
  Ce  Ce8  1  0.58679180  0.83954670  0.25000000  1
  Ce  Ce9  1  0.41320820  0.16045330  0.75000000  1
  Ce  Ce10  1  0.71985420  0.47459477  0.25000000  1
  Ce  Ce11  1  0.84977161  0.60945439  0.94899887  1
  Ce  Ce12  1  0.78014580  0.97459477  0.75000000  1
  Ce  Ce13  1  0.65022839  0.10945439  0.05100113  1
  Ce  Ce14  1  0.34977161  0.89054561  0.55100113  1
  Ce  Ce15  1  0.65022839  0.10945439  0.44899887  1
  Te  Te16  1  0.92021075  0.23145780  0.25000000  1
  Te  Te17  1  0.57978925  0.73145780  0.75000000  1
  Te  Te18  1  0.43276166  0.63578412  0.07644003  1
  Te  Te19  1  0.43276166  0.63578412  0.42355997  1
  Te  Te20  1  0.56723834  0.36421588  0.57644003  1
  Te  Te21  1  0.93276166  0.86421588  0.42355997  1
  Te  Te22  1  0.06723834  0.13578412  0.57644003  1
  Te  Te23  1  0.06723834  0.13578412  0.92355997  1
  Te  Te24  1  0.93276166  0.86421588  0.07644003  1
  Te  Te25  1  0.56723834  0.36421588  0.92355997  1
  Te  Te26  1  0.42021075  0.26854220  0.25000000  1
  Te  Te27  1  0.07978925  0.76854220  0.75000000  1
  N  N28  1  0.55450196  0.03196438  0.62012618  1
  N  N29  1  0.44549804  0.96803562  0.12012618  1
  N  N30  1  0.94549804  0.53196438  0.12012618  1
  N  N31  1  0.05450196  0.46803562  0.62012618  1
  N  N32  1  0.44549804  0.96803562  0.37987382  1
  N  N33  1  0.94549804  0.53196438  0.37987382  1
  N  N34  1  0.05450196  0.46803562  0.87987382  1
  N  N35  1  0.55450196  0.03196438  0.87987382  1
