# generated using pymatgen
data_Bi2Te2O7
_symmetry_space_group_name_H-M   'P 1'
_cell_length_a   5.62215101
_cell_length_b   22.40919413
_cell_length_c   22.96973106
_cell_angle_alpha   90.00000000
_cell_angle_beta   90.00000000
_cell_angle_gamma   90.00000000
_symmetry_Int_Tables_number   1
_chemical_formula_structural   Bi2Te2O7
_chemical_formula_sum   'Bi32 Te32 O112'
_cell_volume   2893.90756908
_cell_formula_units_Z   16
loop_
 _symmetry_equiv_pos_site_id
 _symmetry_equiv_pos_as_xyz
  1  'x, y, z'
loop_
 _atom_site_type_symbol
 _atom_site_label
 _atom_site_symmetry_multiplicity
 _atom_site_fract_x
 _atom_site_fract_y
 _atom_site_fract_z
 _atom_site_occupancy
  Bi  Bi0  1  0.48937524  0.82085192  0.30635578  1
  Bi  Bi1  1  0.54379937  0.93064776  0.94432527  1
  Bi  Bi2  1  0.02162611  0.94359406  0.31210708  1
  Bi  Bi3  1  0.04379937  0.56935224  0.44432527  1
  Bi  Bi4  1  0.95620063  0.06935224  0.44432527  1
  Bi  Bi5  1  0.48937524  0.67914808  0.69364422  1
  Bi  Bi6  1  0.98937524  0.67914808  0.80635578  1
  Bi  Bi7  1  0.04379937  0.93064776  0.55567473  1
  Bi  Bi8  1  0.49869558  0.19597267  0.19371611  1
  Bi  Bi9  1  0.99869558  0.30402733  0.69371611  1
  Bi  Bi10  1  0.01062476  0.32085192  0.19364422  1
  Bi  Bi11  1  0.45620063  0.43064776  0.94432527  1
  Bi  Bi12  1  0.49869558  0.30402733  0.80628389  1
  Bi  Bi13  1  0.00130442  0.69597267  0.30628389  1
  Bi  Bi14  1  0.98937524  0.82085192  0.19364422  1
  Bi  Bi15  1  0.45620063  0.06935224  0.05567473  1
  Bi  Bi16  1  0.01062476  0.17914808  0.80635578  1
  Bi  Bi17  1  0.02162611  0.55640594  0.68789292  1
  Bi  Bi18  1  0.00130442  0.80402733  0.69371611  1
  Bi  Bi19  1  0.95620063  0.43064776  0.55567473  1
  Bi  Bi20  1  0.50130442  0.80402733  0.80628389  1
  Bi  Bi21  1  0.99869558  0.19597267  0.30628389  1
  Bi  Bi22  1  0.52162611  0.55640594  0.81210708  1
  Bi  Bi23  1  0.97837389  0.44359406  0.31210708  1
  Bi  Bi24  1  0.97837389  0.05640594  0.68789292  1
  Bi  Bi25  1  0.51062476  0.32085192  0.30635578  1
  Bi  Bi26  1  0.50130442  0.69597267  0.19371611  1
  Bi  Bi27  1  0.47837389  0.44359406  0.18789292  1
  Bi  Bi28  1  0.47837389  0.05640594  0.81210708  1
  Bi  Bi29  1  0.51062476  0.17914808  0.69364422  1
  Bi  Bi30  1  0.54379937  0.56935224  0.05567473  1
  Bi  Bi31  1  0.52162611  0.94359406  0.18789292  1
  Te  Te32  1  0.98767440  0.68856195  0.56747944  1
  Te  Te33  1  0.07641379  0.93388012  0.81134143  1
  Te  Te34  1  0.42358621  0.06611988  0.31134143  1
  Te  Te35  1  0.50071614  0.05666147  0.56425250  1
  Te  Te36  1  0.50071614  0.44333853  0.43574750  1
  Te  Te37  1  0.49571238  0.30668974  0.56631592  1
  Te  Te38  1  0.92358621  0.06611988  0.18865857  1
  Te  Te39  1  0.49571238  0.19331026  0.43368408  1
  Te  Te40  1  0.01232560  0.18856195  0.56747944  1
  Te  Te41  1  0.42358621  0.43388012  0.68865857  1
  Te  Te42  1  0.49928386  0.94333853  0.43574750  1
  Te  Te43  1  0.50428762  0.69331026  0.43368408  1
  Te  Te44  1  0.00071614  0.05666147  0.93574750  1
  Te  Te45  1  0.49928386  0.55666147  0.56425250  1
  Te  Te46  1  0.92358621  0.43388012  0.81134143  1
  Te  Te47  1  0.99928386  0.55666147  0.93574750  1
  Te  Te48  1  0.50428762  0.80668974  0.56631592  1
  Te  Te49  1  0.51232560  0.18856195  0.93252056  1
  Te  Te50  1  0.48767440  0.68856195  0.93252056  1
  Te  Te51  1  0.98767440  0.81143805  0.43252056  1
  Te  Te52  1  0.00071614  0.44333853  0.06425250  1
  Te  Te53  1  0.48767440  0.81143805  0.06747944  1
  Te  Te54  1  0.07641379  0.56611988  0.18865857  1
  Te  Te55  1  0.99571238  0.30668974  0.93368408  1
  Te  Te56  1  0.57641379  0.56611988  0.31134143  1
  Te  Te57  1  0.99571238  0.19331026  0.06631592  1
  Te  Te58  1  0.00428762  0.80668974  0.93368408  1
  Te  Te59  1  0.51232560  0.31143805  0.06747944  1
  Te  Te60  1  0.00428762  0.69331026  0.06631592  1
  Te  Te61  1  0.99928386  0.94333853  0.06425250  1
  Te  Te62  1  0.57641379  0.93388012  0.68865857  1
  Te  Te63  1  0.01232560  0.31143805  0.43252056  1
  O  O64  1  0.69745058  0.63265688  0.26673754  1
  O  O65  1  0.28245099  0.14253035  0.97366277  1
  O  O66  1  0.75597673  0.00921066  0.53071320  1
  O  O67  1  0.81921597  0.27610366  0.86872724  1
  O  O68  1  0.36392044  0.93819348  0.85603783  1
  O  O69  1  0.13607956  0.06180652  0.35603783  1
  O  O70  1  0.74413651  0.85663177  0.53471264  1
  O  O71  1  0.21200004  0.24479935  0.74931654  1
  O  O72  1  0.81166518  0.27449474  0.37492911  1
  O  O73  1  0.74402327  0.50921066  0.96928680  1
  O  O74  1  0.71200004  0.24479935  0.75068346  1
  O  O75  1  0.78799996  0.75520065  0.25068346  1
  O  O76  1  0.15413714  0.36882880  0.38215101  1
  O  O77  1  0.75597673  0.49078934  0.46928680  1
  O  O78  1  0.20614092  0.62252659  0.74186889  1
  O  O79  1  0.19745058  0.86734312  0.76673754  1
  O  O80  1  0.34586286  0.86882880  0.11784899  1
  O  O81  1  0.31183609  0.63649746  0.39279926  1
  O  O82  1  0.28799996  0.74479935  0.75068346  1
  O  O83  1  0.18816391  0.13649746  0.10720074  1
  O  O84  1  0.21754901  0.64253035  0.52633723  1
  O  O85  1  0.68833482  0.77449474  0.12507089  1
  O  O86  1  0.18078403  0.77610366  0.86872724  1
  O  O87  1  0.68833482  0.72550526  0.87492911  1
  O  O88  1  0.31410732  0.50511876  0.39876163  1
  O  O89  1  0.31166518  0.22550526  0.87492911  1
  O  O90  1  0.31410732  0.99488124  0.60123837  1
  O  O91  1  0.70541389  0.50422504  0.26165802  1
  O  O92  1  0.79385908  0.37747341  0.25813111  1
  O  O93  1  0.31166518  0.27449474  0.12507089  1
  O  O94  1  0.29385908  0.12252659  0.75813111  1
  O  O95  1  0.84586286  0.86882880  0.38215101  1
  O  O96  1  0.70541389  0.99577496  0.73834198  1
  O  O97  1  0.75586349  0.14336823  0.03471264  1
  O  O98  1  0.13902179  0.42179089  0.13765593  1
  O  O99  1  0.68078403  0.77610366  0.63127276  1
  O  O100  1  0.13607956  0.43819348  0.64396217  1
  O  O101  1  0.20541389  0.99577496  0.76165802  1
  O  O102  1  0.86097821  0.92179089  0.13765593  1
  O  O103  1  0.86392044  0.93819348  0.64396217  1
  O  O104  1  0.19745058  0.63265688  0.23326246  1
  O  O105  1  0.31183609  0.86350254  0.60720074  1
  O  O106  1  0.79458611  0.49577496  0.76165802  1
  O  O107  1  0.86392044  0.56180652  0.35603783  1
  O  O108  1  0.78245099  0.14253035  0.52633723  1
  O  O109  1  0.69745058  0.86734312  0.73326246  1
  O  O110  1  0.24413651  0.64336823  0.03471264  1
  O  O111  1  0.13902179  0.07820911  0.86234407  1
  O  O112  1  0.71754901  0.64253035  0.97366277  1
  O  O113  1  0.28245099  0.35746965  0.02633723  1
  O  O114  1  0.79385908  0.12252659  0.74186889  1
  O  O115  1  0.18589268  0.00511876  0.10123837  1
  O  O116  1  0.31921597  0.22389634  0.36872724  1
  O  O117  1  0.70614092  0.87747341  0.24186889  1
  O  O118  1  0.63902179  0.42179089  0.36234407  1
  O  O119  1  0.21200004  0.25520065  0.25068346  1
  O  O120  1  0.18078403  0.72389634  0.13127276  1
  O  O121  1  0.15413714  0.13117120  0.61784899  1
  O  O122  1  0.20541389  0.50422504  0.23834198  1
  O  O123  1  0.21754901  0.85746965  0.47366277  1
  O  O124  1  0.63902179  0.07820911  0.63765593  1
  O  O125  1  0.79458611  0.00422504  0.23834198  1
  O  O126  1  0.70614092  0.62252659  0.75813111  1
  O  O127  1  0.86097821  0.57820911  0.86234407  1
  O  O128  1  0.84586286  0.63117120  0.61784899  1
  O  O129  1  0.36097821  0.92179089  0.36234407  1
  O  O130  1  0.25597673  0.00921066  0.96928680  1
  O  O131  1  0.63607956  0.43819348  0.85603783  1
  O  O132  1  0.65413714  0.13117120  0.88215101  1
  O  O133  1  0.68589268  0.49488124  0.60123837  1
  O  O134  1  0.25586349  0.35663177  0.53471264  1
  O  O135  1  0.18833482  0.72550526  0.62507089  1
  O  O136  1  0.24402327  0.50921066  0.53071320  1
  O  O137  1  0.78245099  0.35746965  0.47366277  1
  O  O138  1  0.29385908  0.37747341  0.24186889  1
  O  O139  1  0.18816391  0.36350254  0.89279926  1
  O  O140  1  0.65413714  0.36882880  0.11784899  1
  O  O141  1  0.68078403  0.72389634  0.36872724  1
  O  O142  1  0.68816391  0.36350254  0.60720074  1
  O  O143  1  0.18833482  0.77449474  0.37492911  1
  O  O144  1  0.74402327  0.99078934  0.03071320  1
  O  O145  1  0.30254942  0.13265688  0.26673754  1
  O  O146  1  0.80254942  0.36734312  0.76673754  1
  O  O147  1  0.24413651  0.85663177  0.96528736  1
  O  O148  1  0.31921597  0.27610366  0.63127276  1
  O  O149  1  0.71200004  0.25520065  0.24931654  1
  O  O150  1  0.34586286  0.63117120  0.88215101  1
  O  O151  1  0.25586349  0.14336823  0.46528736  1
  O  O152  1  0.81410732  0.50511876  0.10123837  1
  O  O153  1  0.81410732  0.99488124  0.89876163  1
  O  O154  1  0.18589268  0.49488124  0.89876163  1
  O  O155  1  0.28799996  0.75520065  0.24931654  1
  O  O156  1  0.74413651  0.64336823  0.46528736  1
  O  O157  1  0.25597673  0.49078934  0.03071320  1
  O  O158  1  0.81166518  0.22550526  0.62507089  1
  O  O159  1  0.63607956  0.06180652  0.14396217  1
  O  O160  1  0.81183609  0.86350254  0.89279926  1
  O  O161  1  0.24402327  0.99078934  0.46928680  1
  O  O162  1  0.68589268  0.00511876  0.39876163  1
  O  O163  1  0.75586349  0.35663177  0.96528736  1
  O  O164  1  0.30254942  0.36734312  0.73326246  1
  O  O165  1  0.36392044  0.56180652  0.14396217  1
  O  O166  1  0.29458611  0.00422504  0.26165802  1
  O  O167  1  0.29458611  0.49577496  0.73834198  1
  O  O168  1  0.81921597  0.22389634  0.13127276  1
  O  O169  1  0.78799996  0.74479935  0.74931654  1
  O  O170  1  0.80254942  0.13265688  0.23326246  1
  O  O171  1  0.71754901  0.85746965  0.02633723  1
  O  O172  1  0.68816391  0.13649746  0.39279926  1
  O  O173  1  0.20614092  0.87747341  0.25813111  1
  O  O174  1  0.81183609  0.63649746  0.10720074  1
  O  O175  1  0.36097821  0.57820911  0.63765593  1
