# generated using pymatgen
data_La10Ga5Cl4
_symmetry_space_group_name_H-M   'P 1'
_cell_length_a   8.08890240
_cell_length_b   8.08890183
_cell_length_c   17.09911095
_cell_angle_alpha   103.68182424
_cell_angle_beta   103.68182325
_cell_angle_gamma   89.99999622
_symmetry_Int_Tables_number   1
_chemical_formula_structural   La10Ga5Cl4
_chemical_formula_sum   'La20 Ga10 Cl8'
_cell_volume   1054.35141432
_cell_formula_units_Z   2
loop_
 _symmetry_equiv_pos_site_id
 _symmetry_equiv_pos_as_xyz
  1  'x, y, z'
loop_
 _atom_site_type_symbol
 _atom_site_label
 _atom_site_symmetry_multiplicity
 _atom_site_fract_x
 _atom_site_fract_y
 _atom_site_fract_z
 _atom_site_occupancy
  La  La0  1  0.10561223  0.60561223  0.86212875  1
  La  La1  1  0.53543228  0.36981544  0.40524772  1
  La  La2  1  0.46456772  0.63018456  0.59475228  1
  La  La3  1  0.60561223  0.75651652  0.86212875  1
  La  La4  1  0.15106108  0.15106108  0.30212216  1
  La  La5  1  0.63018456  0.13018456  0.59475228  1
  La  La6  1  0.74348348  0.89438777  0.13787125  1
  La  La7  1  0.13018456  0.96456772  0.59475228  1
  La  La8  1  0.75651652  0.25651652  0.86212875  1
  La  La9  1  0.65106108  0.65106108  0.30212216  1
  La  La10  1  0.84893892  0.84893892  0.69787784  1
  La  La11  1  0.86981544  0.03543228  0.40524772  1
  La  La12  1  0.36981544  0.86981544  0.40524772  1
  La  La13  1  0.39438777  0.24348348  0.13787125  1
  La  La14  1  0.03543228  0.53543228  0.40524772  1
  La  La15  1  0.24348348  0.74348348  0.13787125  1
  La  La16  1  0.25651652  0.10561223  0.86212875  1
  La  La17  1  0.89438777  0.39438777  0.13787125  1
  La  La18  1  0.96456772  0.46456772  0.59475228  1
  La  La19  1  0.34893892  0.34893892  0.69787784  1
  Ga  Ga20  1  0.75251378  0.25251378  0.26414484  1
  Ga  Ga21  1  0.25251378  0.51163106  0.26414484  1
  Ga  Ga22  1  0.01163106  0.75251378  0.26414484  1
  Ga  Ga23  1  0.98836894  0.24748622  0.73585516  1
  Ga  Ga24  1  0.74748622  0.48836894  0.73585516  1
  Ga  Ga25  1  0.48836894  0.98836894  0.73585516  1
  Ga  Ga26  1  0.24748622  0.74748622  0.73585516  1
  Ga  Ga27  1  0.75000000  0.75000000  0.50000000  1
  Ga  Ga28  1  0.25000000  0.25000000  0.50000000  1
  Ga  Ga29  1  0.51163106  0.01163106  0.26414484  1
  Cl  Cl30  1  0.55456593  0.55456593  0.10913186  1
  Cl  Cl31  1  0.86032183  0.63967817  0.00000000  1
  Cl  Cl32  1  0.13967817  0.36032183  0.00000000  1
  Cl  Cl33  1  0.36032183  0.86032183  0.00000000  1
  Cl  Cl34  1  0.05456593  0.05456593  0.10913186  1
  Cl  Cl35  1  0.94543407  0.94543407  0.89086814  1
  Cl  Cl36  1  0.44543407  0.44543407  0.89086814  1
  Cl  Cl37  1  0.63967817  0.13967817  0.00000000  1
