# generated using pymatgen
data_NaYbF4
_symmetry_space_group_name_H-M   'P 1'
_cell_length_a   8.06479596
_cell_length_b   10.24339183
_cell_length_c   6.32901683
_cell_angle_alpha   29.76234868
_cell_angle_beta   50.42234305
_cell_angle_gamma   38.16963825
_symmetry_Int_Tables_number   1
_chemical_formula_structural   NaYbF4
_chemical_formula_sum   'Na2 Yb2 F8'
_cell_volume   158.63229934
_cell_formula_units_Z   2
loop_
 _symmetry_equiv_pos_site_id
 _symmetry_equiv_pos_as_xyz
  1  'x, y, z'
loop_
 _atom_site_type_symbol
 _atom_site_label
 _atom_site_symmetry_multiplicity
 _atom_site_fract_x
 _atom_site_fract_y
 _atom_site_fract_z
 _atom_site_occupancy
  Yb  Yb0  1  -0.00020606  0.00129502  -0.00212449  1
  Yb  Yb1  1  0.74987210  0.49891348  0.00190141  1
  Na  Na2  1  0.49964685  -0.00085342  0.00215340  1
  Na  Na3  1  0.25052124  0.50072868  0.99797981  1
  F  F4  1  0.11186440  0.01321325  0.23636539  1
  F  F5  1  0.63803030  0.98663849  0.26375505  1
  F  F6  1  0.37544770  0.98688434  0.76200858  1
  F  F7  1  0.37442043  0.51332975  0.23803954  1
  F  F8  1  0.11190043  0.51345414  0.73616082  1
  F  F9  1  0.87445962  0.01361526  0.73750811  1
  F  F10  1  0.87564980  0.48621833  0.26240259  1
  F  F11  1  0.63839317  0.48656268  0.76384978  1
