# generated using pymatgen
data_Cs2PO3F
_symmetry_space_group_name_H-M   'P 1'
_cell_length_a   6.47228551
_cell_length_b   8.50548031
_cell_length_c   11.20680868
_cell_angle_alpha   90.00000000
_cell_angle_beta   90.00000000
_cell_angle_gamma   90.00000000
_symmetry_Int_Tables_number   1
_chemical_formula_structural   Cs2PO3F
_chemical_formula_sum   'Cs8 P4 O12 F4'
_cell_volume   616.93366315
_cell_formula_units_Z   4
loop_
 _symmetry_equiv_pos_site_id
 _symmetry_equiv_pos_as_xyz
  1  'x, y, z'
loop_
 _atom_site_type_symbol
 _atom_site_label
 _atom_site_symmetry_multiplicity
 _atom_site_fract_x
 _atom_site_fract_y
 _atom_site_fract_z
 _atom_site_occupancy
  O  O0  1  0.75000000  0.20068307  0.04693033  1
  O  O1  1  0.25000000  0.79931693  0.95306967  1
  O  O2  1  0.25000000  0.29931693  0.54693033  1
  O  O3  1  0.75000000  0.70068307  0.45306967  1
  O  O4  1  0.94918447  0.21863588  0.84866155  1
  O  O5  1  0.44918447  0.78136412  0.15133845  1
  O  O6  1  0.55081553  0.71863588  0.65133845  1
  O  O7  1  0.05081553  0.28136412  0.34866155  1
  O  O8  1  0.05081553  0.78136412  0.15133845  1
  O  O9  1  0.55081553  0.21863588  0.84866155  1
  O  O10  1  0.44918447  0.28136412  0.34866155  1
  O  O11  1  0.94918447  0.71863588  0.65133845  1
  F  F12  1  0.75000000  0.94998812  0.57387828  1
  F  F13  1  0.25000000  0.05001188  0.42612172  1
  F  F14  1  0.25000000  0.55001188  0.07387828  1
  F  F15  1  0.75000000  0.44998812  0.92612172  1
  P  P16  1  0.25000000  0.74754449  0.08349485  1
  P  P17  1  0.75000000  0.25245551  0.91650515  1
  P  P18  1  0.25000000  0.24754449  0.41650515  1
  P  P19  1  0.75000000  0.75245551  0.58349485  1
  Cs  Cs20  1  0.25000000  0.50073062  0.78555741  1
  Cs  Cs21  1  0.75000000  0.49926938  0.21444259  1
  Cs  Cs22  1  0.25000000  0.00073062  0.71444259  1
  Cs  Cs23  1  0.75000000  0.99926938  0.28555741  1
  Cs  Cs24  1  0.25000000  0.67531806  0.41779138  1
  Cs  Cs25  1  0.75000000  0.32468194  0.58220862  1
  Cs  Cs26  1  0.25000000  0.17531806  0.08220862  1
  Cs  Cs27  1  0.75000000  0.82468194  0.91779138  1
