# generated using pymatgen
data_Na2ZrSi4O11
_symmetry_space_group_name_H-M   'P 1'
_cell_length_a   7.58702908
_cell_length_b   7.58702909
_cell_length_c   8.69353801
_cell_angle_alpha   82.28980773
_cell_angle_beta   82.28980771
_cell_angle_gamma   84.95803536
_symmetry_Int_Tables_number   1
_chemical_formula_structural   Na2ZrSi4O11
_chemical_formula_sum   'Na4 Zr2 Si8 O22'
_cell_volume   490.17273687
_cell_formula_units_Z   2
loop_
 _symmetry_equiv_pos_site_id
 _symmetry_equiv_pos_as_xyz
  1  'x, y, z'
loop_
 _atom_site_type_symbol
 _atom_site_label
 _atom_site_symmetry_multiplicity
 _atom_site_fract_x
 _atom_site_fract_y
 _atom_site_fract_z
 _atom_site_occupancy
  O  O0  1  0.20581691  0.37226856  0.35466926  1
  O  O1  1  0.62773144  0.79418309  0.14533074  1
  O  O2  1  0.79418309  0.62773144  0.64533074  1
  O  O3  1  0.37226856  0.20581691  0.85466926  1
  O  O4  1  0.10407583  0.37279684  0.69891239  1
  O  O5  1  0.62720316  0.89592417  0.80108761  1
  O  O6  1  0.89592417  0.62720316  0.30108761  1
  O  O7  1  0.37279684  0.10407583  0.19891239  1
  O  O8  1  0.82364345  0.28665368  0.53091307  1
  O  O9  1  0.71334632  0.17635655  0.96908693  1
  O  O10  1  0.17635655  0.71334632  0.46908693  1
  O  O11  1  0.28665368  0.82364345  0.03091307  1
  O  O12  1  0.75606611  0.47386410  0.08615110  1
  O  O13  1  0.52613590  0.24393389  0.41384890  1
  O  O14  1  0.15929617  0.84070383  0.75000000  1
  O  O15  1  0.84070383  0.15929617  0.25000000  1
  O  O16  1  0.24639912  0.04128316  0.49629921  1
  O  O17  1  0.95871684  0.75360088  0.00370079  1
  O  O18  1  0.75360088  0.95871684  0.50370079  1
  O  O19  1  0.04128316  0.24639912  0.99629921  1
  O  O20  1  0.47386410  0.75606611  0.58615110  1
  O  O21  1  0.24393389  0.52613590  0.91384890  1
  Na  Na22  1  0.07562544  0.92437456  0.25000000  1
  Na  Na23  1  0.92437456  0.07562544  0.75000000  1
  Na  Na24  1  0.39418062  0.60581938  0.25000000  1
  Na  Na25  1  0.60581938  0.39418062  0.75000000  1
  Si  Si26  1  0.66350598  0.80795812  0.63927295  1
  Si  Si27  1  0.33649402  0.19204188  0.36072705  1
  Si  Si28  1  0.80795812  0.66350598  0.13927295  1
  Si  Si29  1  0.83304643  0.26739123  0.07308315  1
  Si  Si30  1  0.73260877  0.16695357  0.42691685  1
  Si  Si31  1  0.16695357  0.73260877  0.92691685  1
  Si  Si32  1  0.26739123  0.83304643  0.57308315  1
  Si  Si33  1  0.19204188  0.33649402  0.86072705  1
  Zr  Zr34  1  0.00000000  0.50000000  0.50000000  1
  Zr  Zr35  1  0.50000000  0.00000000  0.00000000  1
