# generated using pymatgen
data_CsHo2Cu3Se5
_symmetry_space_group_name_H-M   'P 1'
_cell_length_a   4.12493926
_cell_length_b   7.64470550
_cell_length_c   17.36245691
_cell_angle_alpha   90.01584801
_cell_angle_beta   90.03408364
_cell_angle_gamma   105.59231843
_symmetry_Int_Tables_number   1
_chemical_formula_structural   CsHo2Cu3Se5
_chemical_formula_sum   'Cs2 Ho4 Cu6 Se10'
_cell_volume   527.35761817
_cell_formula_units_Z   2
loop_
 _symmetry_equiv_pos_site_id
 _symmetry_equiv_pos_as_xyz
  1  'x, y, z'
loop_
 _atom_site_type_symbol
 _atom_site_label
 _atom_site_symmetry_multiplicity
 _atom_site_fract_x
 _atom_site_fract_y
 _atom_site_fract_z
 _atom_site_occupancy
  Cs  Cs0  1  0.94667838  0.87962541  0.74939749  1
  Cs  Cs1  1  0.06021804  0.11986374  0.24964830  1
  Ho  Ho2  1  0.80815224  0.61816247  0.09103815  1
  Ho  Ho3  1  0.19020913  0.38471315  0.59096630  1
  Ho  Ho4  1  0.19388774  0.38655324  0.90880324  1
  Ho  Ho5  1  0.80120097  0.61497998  0.40893228  1
  Cu  Cu6  1  0.42103256  0.83395974  0.53383932  1
  Cu  Cu7  1  0.34837503  0.68608336  0.24908386  1
  Cu  Cu8  1  0.66781153  0.31495199  0.75081418  1
  Cu  Cu9  1  0.59120076  0.16966491  0.03243521  1
  Cu  Cu10  1  0.57712345  0.16515725  0.46643866  1
  Cu  Cu11  1  0.41836254  0.83682183  0.96715593  1
  Se  Se12  1  0.83204837  0.66398641  0.56989697  1
  Se  Se13  1  0.16351271  0.33765214  0.42944402  1
  Se  Se14  1  0.76859711  0.52723185  0.24979098  1
  Se  Se15  1  0.56190576  0.12538056  0.61114274  1
  Se  Se16  1  0.17192118  0.33874088  0.06995266  1
  Se  Se17  1  0.43217003  0.87494536  0.38884824  1
  Se  Se18  1  0.43628254  0.87827845  0.11146238  1
  Se  Se19  1  0.56426822  0.12763513  0.88820089  1
  Se  Se20  1  0.24605162  0.47518771  0.74972556  1
  Se  Se21  1  0.83305009  0.66583544  0.92983267  1
