# generated using pymatgen
data_Tl2S
_symmetry_space_group_name_H-M   'P 1'
_cell_length_a   9.69436378
_cell_length_b   9.69436378
_cell_length_c   9.69436379
_cell_angle_alpha   81.51809147
_cell_angle_beta   81.51809148
_cell_angle_gamma   81.51809149
_symmetry_Int_Tables_number   1
_chemical_formula_structural   Tl2S
_chemical_formula_sum   'Tl18 S9'
_cell_volume   883.86861323
_cell_formula_units_Z   9
loop_
 _symmetry_equiv_pos_site_id
 _symmetry_equiv_pos_as_xyz
  1  'x, y, z'
loop_
 _atom_site_type_symbol
 _atom_site_label
 _atom_site_symmetry_multiplicity
 _atom_site_fract_x
 _atom_site_fract_y
 _atom_site_fract_z
 _atom_site_occupancy
  S  S0  1  0.31723372  0.65686728  0.98849088  1
  S  S1  1  0.65686728  0.98849088  0.31723372  1
  S  S2  1  0.98849088  0.31723372  0.65686728  1
  S  S3  1  0.67985791  0.35346292  0.01795264  1
  S  S4  1  0.35346292  0.01795264  0.67985791  1
  S  S5  1  0.01795264  0.67985791  0.35346292  1
  S  S6  1  0.64875257  0.64875257  0.64875257  1
  S  S7  1  0.31591705  0.31591705  0.31591705  1
  S  S8  1  0.02368297  0.02368297  0.02368297  1
  Tl  Tl9  1  0.33082966  0.96717072  0.98849947  1
  Tl  Tl10  1  0.98849947  0.33082966  0.96717072  1
  Tl  Tl11  1  0.96717072  0.98849947  0.33082966  1
  Tl  Tl12  1  0.62601632  0.29810828  0.32306521  1
  Tl  Tl13  1  0.32306521  0.62601632  0.29810828  1
  Tl  Tl14  1  0.29810828  0.32306521  0.62601632  1
  Tl  Tl15  1  0.95921368  0.62861803  0.65853041  1
  Tl  Tl16  1  0.65853041  0.95921368  0.62861803  1
  Tl  Tl17  1  0.62861803  0.65853041  0.95921368  1
  Tl  Tl18  1  0.67945542  0.34098021  0.70643232  1
  Tl  Tl19  1  0.34098021  0.70643232  0.67945542  1
  Tl  Tl20  1  0.70643232  0.67945542  0.34098021  1
  Tl  Tl21  1  0.34873883  0.00899498  0.37038841  1
  Tl  Tl22  1  0.00899498  0.37038841  0.34873883  1
  Tl  Tl23  1  0.37038841  0.34873883  0.00899498  1
  Tl  Tl24  1  0.01255643  0.71331640  0.04246727  1
  Tl  Tl25  1  0.71331640  0.04246727  0.01255643  1
  Tl  Tl26  1  0.04246727  0.01255643  0.71331640  1
