# generated using pymatgen
data_Li3AlGeO5
_symmetry_space_group_name_H-M   'P 1'
_cell_length_a   4.94963894
_cell_length_b   5.45517129
_cell_length_c   16.00565673
_cell_angle_alpha   90.00000000
_cell_angle_beta   90.00000000
_cell_angle_gamma   90.00000000
_symmetry_Int_Tables_number   1
_chemical_formula_structural   Li3AlGeO5
_chemical_formula_sum   'Li12 Al4 Ge4 O20'
_cell_volume   432.17078995
_cell_formula_units_Z   4
loop_
 _symmetry_equiv_pos_site_id
 _symmetry_equiv_pos_as_xyz
  1  'x, y, z'
loop_
 _atom_site_type_symbol
 _atom_site_label
 _atom_site_symmetry_multiplicity
 _atom_site_fract_x
 _atom_site_fract_y
 _atom_site_fract_z
 _atom_site_occupancy
  Li  Li0  1  0.49048711  0.32111985  0.40073114  1
  Li  Li1  1  0.99048711  0.67888015  0.59926886  1
  Li  Li2  1  0.99048711  0.17888015  0.90073114  1
  Li  Li3  1  0.49048711  0.82111985  0.09926886  1
  Li  Li4  1  0.49261312  0.83808151  0.50303805  1
  Li  Li5  1  0.99261312  0.16191849  0.49696195  1
  Li  Li6  1  0.99261312  0.66191849  0.00303805  1
  Li  Li7  1  0.49261312  0.33808151  0.99696195  1
  Li  Li8  1  0.49054932  0.83603443  0.69914668  1
  Li  Li9  1  0.99054932  0.16396557  0.30085332  1
  Li  Li10  1  0.99054932  0.66396557  0.19914668  1
  Li  Li11  1  0.49054932  0.33603443  0.80085332  1
  O  O12  1  0.58382156  0.13698750  0.28813795  1
  O  O13  1  0.13091983  0.81106461  0.89018256  1
  O  O14  1  0.13091983  0.31106461  0.60981744  1
  O  O15  1  0.63091983  0.18893539  0.10981744  1
  O  O16  1  0.09482360  0.31636322  0.00795300  1
  O  O17  1  0.59482360  0.68363678  0.99204700  1
  O  O18  1  0.59482360  0.18363678  0.50795300  1
  O  O19  1  0.09482360  0.81636322  0.49204700  1
  O  O20  1  0.09086424  0.85366829  0.10315233  1
  O  O21  1  0.59086424  0.14633171  0.89684767  1
  O  O22  1  0.59086424  0.64633171  0.60315233  1
  O  O23  1  0.09086424  0.35366829  0.39684767  1
  O  O24  1  0.12792152  0.31414922  0.19066854  1
  O  O25  1  0.62792152  0.68585078  0.80933146  1
  O  O26  1  0.62792152  0.18585078  0.69066854  1
  O  O27  1  0.12792152  0.81414922  0.30933146  1
  O  O28  1  0.08382156  0.36301250  0.78813795  1
  O  O29  1  0.58382156  0.63698750  0.21186205  1
  O  O30  1  0.63091983  0.68893539  0.39018256  1
  O  O31  1  0.08382156  0.86301250  0.71186205  1
  Al  Al32  1  0.49000090  0.32435976  0.20189547  1
  Al  Al33  1  0.99000090  0.67564024  0.79810453  1
  Al  Al34  1  0.99000090  0.17564024  0.70189547  1
  Al  Al35  1  0.49000090  0.82435976  0.29810453  1
  Ge  Ge36  1  0.99499881  0.16059746  0.09743729  1
  Ge  Ge37  1  0.49499881  0.83940254  0.90256271  1
  Ge  Ge38  1  0.49499881  0.33940254  0.59743729  1
  Ge  Ge39  1  0.99499881  0.66059746  0.40256271  1
