# generated using pymatgen
data_BaSi2(NO)2
_symmetry_space_group_name_H-M   'P 1'
_cell_length_a   4.88006985
_cell_length_b   5.40355092
_cell_length_c   14.56127319
_cell_angle_alpha   90.00000000
_cell_angle_beta   90.00000000
_cell_angle_gamma   90.00000000
_symmetry_Int_Tables_number   1
_chemical_formula_structural   BaSi2(NO)2
_chemical_formula_sum   'Ba4 Si8 N8 O8'
_cell_volume   383.97649195
_cell_formula_units_Z   4
loop_
 _symmetry_equiv_pos_site_id
 _symmetry_equiv_pos_as_xyz
  1  'x, y, z'
loop_
 _atom_site_type_symbol
 _atom_site_label
 _atom_site_symmetry_multiplicity
 _atom_site_fract_x
 _atom_site_fract_y
 _atom_site_fract_z
 _atom_site_occupancy
  N  N0  1  0.15362645  0.36893755  0.22203700  1
  N  N1  1  0.15362645  0.86893755  0.27796300  1
  N  N2  1  0.65362645  0.13106245  0.27796300  1
  N  N3  1  0.34637355  0.36893755  0.77796300  1
  N  N4  1  0.84637355  0.13106245  0.72203700  1
  N  N5  1  0.84637355  0.63106245  0.77796300  1
  N  N6  1  0.34637355  0.86893755  0.72203700  1
  N  N7  1  0.65362645  0.63106245  0.22203700  1
  O  O8  1  0.24858687  0.73352012  0.09315497  1
  O  O9  1  0.74858687  0.76647988  0.40684503  1
  O  O10  1  0.25141313  0.73352012  0.90684503  1
  O  O11  1  0.75141313  0.76647988  0.59315497  1
  O  O12  1  0.75141313  0.26647988  0.90684503  1
  O  O13  1  0.25141313  0.23352012  0.59315497  1
  O  O14  1  0.24858687  0.23352012  0.40684503  1
  O  O15  1  0.74858687  0.26647988  0.09315497  1
  Si  Si16  1  0.30052267  0.66018712  0.20031929  1
  Si  Si17  1  0.30052267  0.16018712  0.29968071  1
  Si  Si18  1  0.80052267  0.33981288  0.20031929  1
  Si  Si19  1  0.19947733  0.16018712  0.70031929  1
  Si  Si20  1  0.69947733  0.33981288  0.79968071  1
  Si  Si21  1  0.69947733  0.83981288  0.70031929  1
  Si  Si22  1  0.19947733  0.66018712  0.79968071  1
  Si  Si23  1  0.80052267  0.83981288  0.29968071  1
  Ba  Ba24  1  0.75000000  0.75370229  0.00000000  1
  Ba  Ba25  1  0.25000000  0.74629771  0.50000000  1
  Ba  Ba26  1  0.25000000  0.24629771  0.00000000  1
  Ba  Ba27  1  0.75000000  0.25370229  0.50000000  1
