# generated using pymatgen
data_Ba(IrO3)2
_symmetry_space_group_name_H-M   'P 1'
_cell_length_a   8.26102085
_cell_length_b   8.21504401
_cell_length_c   8.26010014
_cell_angle_alpha   109.36932834
_cell_angle_beta   109.61665806
_cell_angle_gamma   109.34834418
_symmetry_Int_Tables_number   1
_chemical_formula_structural   Ba(IrO3)2
_chemical_formula_sum   'Ba3 Ir6 O18'
_cell_volume   431.94583780
_cell_formula_units_Z   3
loop_
 _symmetry_equiv_pos_site_id
 _symmetry_equiv_pos_as_xyz
  1  'x, y, z'
loop_
 _atom_site_type_symbol
 _atom_site_label
 _atom_site_symmetry_multiplicity
 _atom_site_fract_x
 _atom_site_fract_y
 _atom_site_fract_z
 _atom_site_occupancy
  Ba  Ba0  1  0.36407340  0.36074561  0.36704971  1
  Ba  Ba1  1  0.00299240  0.99655621  0.63614369  1
  Ba  Ba2  1  0.63294270  0.99332484  0.99736613  1
  Ir  Ir3  1  0.15557554  0.50174808  0.66302546  1
  Ir  Ir4  1  0.33662091  0.83844377  0.49235007  1
  Ir  Ir5  1  0.50741952  0.34579075  0.84398957  1
  Ir  Ir6  1  0.49457123  0.65628448  0.15582376  1
  Ir  Ir7  1  0.66097317  0.16162416  0.50550197  1
  Ir  Ir8  1  0.84457241  0.50074731  0.33935011  1
  O  O9  1  0.99936010  0.63891007  0.63208412  1
  O  O10  1  0.04934250  0.71903045  0.35505109  1
  O  O11  1  0.30589120  0.67013602  0.95055677  1
  O  O12  1  0.35667801  0.68761384  0.63747875  1
  O  O13  1  0.28090593  0.33105033  0.64314397  1
  O  O14  1  0.34147070  0.64186979  0.28915019  1
  O  O15  1  0.36238886  0.05012018  0.71885952  1
  O  O16  1  0.63737545  0.99846432  0.64025423  1
  O  O17  1  0.35965317  0.35801711  0.99690813  1
  O  O18  1  0.36807956  0.00680451  0.36716989  1
  O  O19  1  0.66893815  0.94997477  0.31012308  1
  O  O20  1  0.64490596  0.36434796  0.69456435  1
  O  O21  1  0.69005641  0.64001064  0.35905332  1
  O  O22  1  0.64106744  0.28123546  0.33117217  1
  O  O23  1  0.63283858  0.63971923  0.00101606  1
  O  O24  1  0.71031326  0.35210846  0.05176594  1
  O  O25  1  0.94836149  0.30066937  0.65874528  1
  O  O26  1  0.00263194  0.36065228  0.36230266  1
