# generated using pymatgen
data_Y4SiS3
_symmetry_space_group_name_H-M   'P 1'
_cell_length_a   7.94671178
_cell_length_b   10.51084701
_cell_length_c   6.89306068
_cell_angle_alpha   29.17733391
_cell_angle_beta   54.83183472
_cell_angle_gamma   41.01474983
_symmetry_Int_Tables_number   1
_chemical_formula_structural   Y4SiS3
_chemical_formula_sum   'Y4 Si1 S3'
_cell_volume   177.92344700
_cell_formula_units_Z   1
loop_
 _symmetry_equiv_pos_site_id
 _symmetry_equiv_pos_as_xyz
  1  'x, y, z'
loop_
 _atom_site_type_symbol
 _atom_site_label
 _atom_site_symmetry_multiplicity
 _atom_site_fract_x
 _atom_site_fract_y
 _atom_site_fract_z
 _atom_site_occupancy
  Y  Y0  1  0.24880668  0.99918965  0.50317555  1
  Y  Y1  1  0.75688406  0.99501187  0.49763105  1
  Y  Y2  1  0.50257887  0.49703000  0.50002410  1
  Y  Y3  1  0.00168513  0.49915993  0.49775972  1
  Si  Si4  1  0.00234393  0.99816407  0.99940027  1
  S  S5  1  0.50145299  0.99782190  -0.00026665  1
  S  S6  1  0.25449039  0.49613811  0.00097416  1
  S  S7  1  0.75167194  0.49820847  0.99869381  1
