# generated using pymatgen
data_YbCd6
_symmetry_space_group_name_H-M   'P 1'
_cell_length_a   13.68542466
_cell_length_b   13.68542440
_cell_length_c   13.68542413
_cell_angle_alpha   109.47122160
_cell_angle_beta   109.47122121
_cell_angle_gamma   109.47122049
_symmetry_Int_Tables_number   1
_chemical_formula_structural   YbCd6
_chemical_formula_sum   'Yb12 Cd72'
_cell_volume   1973.11733027
_cell_formula_units_Z   12
loop_
 _symmetry_equiv_pos_site_id
 _symmetry_equiv_pos_as_xyz
  1  'x, y, z'
loop_
 _atom_site_type_symbol
 _atom_site_label
 _atom_site_symmetry_multiplicity
 _atom_site_fract_x
 _atom_site_fract_y
 _atom_site_fract_z
 _atom_site_occupancy
  Yb  Yb0  1  0.51094709  0.69795236  0.80911222  1
  Yb  Yb1  1  0.88884013  0.70183487  0.19088778  1
  Yb  Yb2  1  0.70183487  0.19088778  0.88884013  1
  Yb  Yb3  1  0.48905291  0.29816513  0.18700526  1
  Yb  Yb4  1  0.69795236  0.80911222  0.51094709  1
  Yb  Yb5  1  0.80911222  0.51094709  0.69795236  1
  Yb  Yb6  1  0.81299474  0.11115987  0.30204764  1
  Yb  Yb7  1  0.19088778  0.88884013  0.70183487  1
  Yb  Yb8  1  0.29816513  0.18700526  0.48905291  1
  Yb  Yb9  1  0.11115987  0.30204764  0.81299474  1
  Yb  Yb10  1  0.30204764  0.81299474  0.11115987  1
  Yb  Yb11  1  0.18700526  0.48905291  0.29816513  1
  Cd  Cd12  1  0.90540644  0.24018624  0.14565717  1
  Cd  Cd13  1  0.31363282  0.31363282  0.31363282  1
  Cd  Cd14  1  0.31284254  0.76624058  0.85200716  1
  Cd  Cd15  1  0.00000000  0.40373472  0.40373472  1
  Cd  Cd16  1  0.05777065  0.65714118  0.40710643  1
  Cd  Cd17  1  1.00000000  1.00000000  0.13549226  1
  Cd  Cd18  1  0.75974928  0.85434283  0.09452908  1
  Cd  Cd19  1  0.45339804  0.68715746  0.53916363  1
  Cd  Cd20  1  0.33477980  0.09459356  0.24025072  1
  Cd  Cd21  1  0.31079663  0.81079663  0.50000000  1
  Cd  Cd22  1  0.86124421  0.08410858  0.54261947  1
  Cd  Cd23  1  1.00000000  1.00000000  0.35178864  1
  Cd  Cd24  1  0.46083637  0.14799284  0.91423442  1
  Cd  Cd25  1  0.24018624  0.14565717  0.90540644  1
  Cd  Cd26  1  0.68636718  0.00000000  0.00000000  1
  Cd  Cd27  1  0.08410858  0.54261947  0.86124421  1
  Cd  Cd28  1  0.31862474  0.45738053  0.54148911  1
  Cd  Cd29  1  0.14799284  0.91423442  0.46083637  1
  Cd  Cd30  1  0.45851089  0.91589142  0.77713563  1
  Cd  Cd31  1  0.59289357  0.25003475  0.65066422  1
  Cd  Cd32  1  0.75981376  0.66522020  0.90547092  1
  Cd  Cd33  1  0.50000000  0.68920337  0.18920337  1
  Cd  Cd34  1  0.40062947  0.74996525  0.34285882  1
  Cd  Cd35  1  0.09459356  0.24025072  0.33477980  1
  Cd  Cd36  1  0.50000000  0.31079663  0.81079663  1
  Cd  Cd37  1  0.85434283  0.09452908  0.75974928  1
  Cd  Cd38  1  0.14565717  0.90540644  0.24018624  1
  Cd  Cd39  1  1.00000000  0.68636718  1.00000000  1
  Cd  Cd40  1  0.68920337  0.18920337  0.50000000  1
  Cd  Cd41  1  0.09452908  0.75974928  0.85434283  1
  Cd  Cd42  1  0.90547092  0.75981376  0.66522020  1
  Cd  Cd43  1  0.40373472  0.40373472  0.00000000  1
  Cd  Cd44  1  0.68715746  0.53916363  0.45339804  1
  Cd  Cd45  1  0.45738053  0.54148911  0.31862474  1
  Cd  Cd46  1  0.76624058  0.85200716  0.31284254  1
  Cd  Cd47  1  0.68137526  0.22286437  0.13875579  1
  Cd  Cd48  1  1.00000000  0.35178864  1.00000000  1
  Cd  Cd49  1  0.64821136  0.64821136  0.64821136  1
  Cd  Cd50  1  0.54660196  0.08576558  0.23375942  1
  Cd  Cd51  1  0.54261947  0.86124421  0.08410858  1
  Cd  Cd52  1  0.22286437  0.13875579  0.68137526  1
  Cd  Cd53  1  0.08576558  0.23375942  0.54660196  1
  Cd  Cd54  1  0.34933578  0.59937053  0.94222935  1
  Cd  Cd55  1  0.53916363  0.45339804  0.68715746  1
  Cd  Cd56  1  0.18920337  0.50000000  0.68920337  1
  Cd  Cd57  1  0.66522020  0.90547092  0.75981376  1
  Cd  Cd58  1  0.34285882  0.40062947  0.74996525  1
  Cd  Cd59  1  0.40710643  0.05777065  0.65714118  1
  Cd  Cd60  1  0.59626528  0.59626528  1.00000000  1
  Cd  Cd61  1  0.91423442  0.46083637  0.14799284  1
  Cd  Cd62  1  0.24025072  0.33477980  0.09459356  1
  Cd  Cd63  1  0.86450774  0.86450774  0.86450774  1
  Cd  Cd64  1  0.81079663  0.50000000  0.31079663  1
  Cd  Cd65  1  0.54148911  0.31862474  0.45738053  1
  Cd  Cd66  1  0.13549226  0.00000000  0.00000000  1
  Cd  Cd67  1  0.94222935  0.34933578  0.59937053  1
  Cd  Cd68  1  0.65714118  0.40710643  0.05777065  1
  Cd  Cd69  1  0.74996525  0.34285882  0.40062947  1
  Cd  Cd70  1  0.40373472  0.00000000  0.40373472  1
  Cd  Cd71  1  1.00000000  0.59626528  0.59626528  1
  Cd  Cd72  1  0.59937053  0.94222935  0.34933578  1
  Cd  Cd73  1  0.77713563  0.45851089  0.91589142  1
  Cd  Cd74  1  0.13875579  0.68137526  0.22286437  1
  Cd  Cd75  1  0.35178864  0.00000000  0.00000000  1
  Cd  Cd76  1  1.00000000  0.13549226  1.00000000  1
  Cd  Cd77  1  0.85200716  0.31284254  0.76624058  1
  Cd  Cd78  1  1.00000000  1.00000000  0.68636718  1
  Cd  Cd79  1  0.91589142  0.77713563  0.45851089  1
  Cd  Cd80  1  0.59626528  1.00000000  0.59626528  1
  Cd  Cd81  1  0.65066422  0.59289357  0.25003475  1
  Cd  Cd82  1  0.25003475  0.65066422  0.59289357  1
  Cd  Cd83  1  0.23375942  0.54660196  0.08576558  1
