# generated using pymatgen
data_Yb2Te4O11
_symmetry_space_group_name_H-M   'P 1'
_cell_length_a   5.31718233
_cell_length_b   6.70319083
_cell_length_c   17.56829146
_cell_angle_alpha   76.46232596
_cell_angle_beta   81.27204403
_cell_angle_gamma   66.66575766
_symmetry_Int_Tables_number   1
_chemical_formula_structural   Yb2Te4O11
_chemical_formula_sum   'Yb4 Te8 O22'
_cell_volume   557.75836845
_cell_formula_units_Z   2
loop_
 _symmetry_equiv_pos_site_id
 _symmetry_equiv_pos_as_xyz
  1  'x, y, z'
loop_
 _atom_site_type_symbol
 _atom_site_label
 _atom_site_symmetry_multiplicity
 _atom_site_fract_x
 _atom_site_fract_y
 _atom_site_fract_z
 _atom_site_occupancy
  Yb  Yb0  1  0.34013370  0.79854935  0.96647603  1
  Yb  Yb1  1  0.89552756  0.29856208  0.46630867  1
  Yb  Yb2  1  0.65986630  0.20145065  0.03352397  1
  Yb  Yb3  1  0.10447244  0.70143792  0.53369133  1
  Te  Te4  1  0.16680075  0.05643731  0.17669965  1
  Te  Te5  1  0.40428214  0.44138150  0.32268832  1
  Te  Te6  1  0.19831530  0.36725220  0.88219211  1
  Te  Te7  1  0.55287746  0.86672606  0.38242589  1
  Te  Te8  1  0.59571786  0.55861850  0.67731168  1
  Te  Te9  1  0.44712254  0.13327394  0.61757411  1
  Te  Te10  1  0.80168470  0.63274780  0.11780789  1
  Te  Te11  1  0.83319925  0.94356269  0.82330035  1
  O  O12  1  0.08631579  0.38529366  0.33683699  1
  O  O13  1  0.83088238  0.68772887  0.44891993  1
  O  O14  1  0.54952764  0.45207494  0.59086103  1
  O  O15  1  0.74259275  0.03652217  0.54552455  1
  O  O16  1  0.19340647  0.88506855  0.83708627  1
  O  O17  1  0.91368421  0.61470634  0.66316301  1
  O  O18  1  0.33144548  0.85213460  0.63536938  1
  O  O19  1  0.45047236  0.54792506  0.40913897  1
  O  O20  1  0.32395061  0.46370909  0.95452556  1
  O  O21  1  0.80659353  0.11493145  0.16291373  1
  O  O22  1  0.30792660  0.75650579  0.24940547  1
  O  O23  1  0.16911762  0.31227113  0.55108007  1
  O  O24  1  0.66855452  0.14786540  0.36463062  1
  O  O25  1  0.40821264  0.95216708  0.09030278  1
  O  O26  1  0.25740725  0.96347783  0.45447545  1
  O  O27  1  0.81852942  0.64963233  0.86384412  1
  O  O28  1  0.67604939  0.53629091  0.04547444  1
  O  O29  1  0.69207340  0.24349421  0.75059453  1
  O  O30  1  0.03150025  0.18846382  0.94852912  1
  O  O31  1  0.18147058  0.35036767  0.13615588  1
  O  O32  1  0.59178736  0.04783292  0.90969722  1
  O  O33  1  0.96849975  0.81153618  0.05147088  1
