# generated using pymatgen
data_Rb2Gd4Cu4S9
_symmetry_space_group_name_H-M   'P 1'
_cell_length_a   4.00114650
_cell_length_b   7.27086285
_cell_length_c   15.51290985
_cell_angle_alpha   81.94911963
_cell_angle_beta   82.56916613
_cell_angle_gamma   74.11159370
_symmetry_Int_Tables_number   1
_chemical_formula_structural   Rb2Gd4Cu4S9
_chemical_formula_sum   'Rb2 Gd4 Cu4 S9'
_cell_volume   427.81303992
_cell_formula_units_Z   1
loop_
 _symmetry_equiv_pos_site_id
 _symmetry_equiv_pos_as_xyz
  1  'x, y, z'
loop_
 _atom_site_type_symbol
 _atom_site_label
 _atom_site_symmetry_multiplicity
 _atom_site_fract_x
 _atom_site_fract_y
 _atom_site_fract_z
 _atom_site_occupancy
  Rb  Rb0  1  0.97887401  0.28550734  0.76899284  1
  Rb  Rb1  1  0.02263885  0.71305653  0.23088968  1
  Gd  Gd2  1  0.34519778  0.25477512  0.05311194  1
  Gd  Gd3  1  0.22957195  0.14022318  0.39601278  1
  Gd  Gd4  1  0.76466615  0.85992582  0.60329438  1
  Gd  Gd5  1  0.65309947  0.74565235  0.94631706  1
  Cu  Cu6  1  0.42672649  0.67402343  0.45932601  1
  Cu  Cu7  1  0.75130522  0.26622432  0.22673631  1
  Cu  Cu8  1  0.25146894  0.73191651  0.77227336  1
  Cu  Cu9  1  0.56474903  0.32136090  0.54330609  1
  S  S10  1  0.60658548  0.40879900  0.37529100  1
  S  S11  1  0.38809479  0.59196780  0.62346345  1
  S  S12  1  0.70133692  0.49283271  0.10084337  1
  S  S13  1  0.29678832  0.50761338  0.89826689  1
  S  S14  1  0.33954460  0.09481157  0.22255258  1
  S  S15  1  0.66382277  0.90345429  0.77663961  1
  S  S16  1  -0.00014944  0.00146279  0.99892651  1
  S  S17  1  0.85774626  0.84958148  0.42583055  1
  S  S18  1  0.13524842  0.15064247  0.57362459  1
