# generated using pymatgen
data_KSO2F
_symmetry_space_group_name_H-M   'P 1'
_cell_length_a   4.70904444
_cell_length_b   5.81599662
_cell_length_c   7.15126209
_cell_angle_alpha   90.00000000
_cell_angle_beta   108.34580241
_cell_angle_gamma   90.00000000
_symmetry_Int_Tables_number   1
_chemical_formula_structural   KSO2F
_chemical_formula_sum   'K2 S2 O4 F2'
_cell_volume   185.90263243
_cell_formula_units_Z   2
loop_
 _symmetry_equiv_pos_site_id
 _symmetry_equiv_pos_as_xyz
  1  'x, y, z'
loop_
 _atom_site_type_symbol
 _atom_site_label
 _atom_site_symmetry_multiplicity
 _atom_site_fract_x
 _atom_site_fract_y
 _atom_site_fract_z
 _atom_site_occupancy
  O  O0  1  0.33454366  0.46022030  0.69241700  1
  O  O1  1  0.66545634  0.96022030  0.30758300  1
  O  O2  1  0.66545634  0.53977970  0.30758300  1
  O  O3  1  0.33454366  0.03977970  0.69241700  1
  F  F4  1  0.19104836  0.75000000  0.11703050  1
  F  F5  1  0.80895164  0.25000000  0.88296950  1
  S  S6  1  0.39944746  0.25000000  0.81537866  1
  S  S7  1  0.60055254  0.75000000  0.18462134  1
  K  K8  1  0.15647192  0.25000000  0.28936113  1
  K  K9  1  0.84352808  0.75000000  0.71063887  1
