# generated using pymatgen
data_Ca5B3O9F
_symmetry_space_group_name_H-M   'P 1'
_cell_length_a   3.57233585
_cell_length_b   8.19806959
_cell_length_c   9.09264057
_cell_angle_alpha   63.20446610
_cell_angle_beta   85.18017148
_cell_angle_gamma   79.25825646
_symmetry_Int_Tables_number   1
_chemical_formula_structural   Ca5B3O9F
_chemical_formula_sum   'Ca5 B3 O9 F1'
_cell_volume   233.53043989
_cell_formula_units_Z   1
loop_
 _symmetry_equiv_pos_site_id
 _symmetry_equiv_pos_as_xyz
  1  'x, y, z'
loop_
 _atom_site_type_symbol
 _atom_site_label
 _atom_site_symmetry_multiplicity
 _atom_site_fract_x
 _atom_site_fract_y
 _atom_site_fract_z
 _atom_site_occupancy
  B  B0  1  0.59318994  0.31961075  0.60716586  1
  B  B1  1  0.96432391  0.55947910  0.00000000  1
  B  B2  1  0.59318994  0.92677660  0.39283414  1
  O  O3  1  0.05113557  0.38753132  0.00000000  1
  O  O4  1  0.57877428  0.40635664  0.70859340  1
  O  O5  1  0.92013261  0.71995217  0.85187745  1
  O  O6  1  0.79450597  0.14135349  0.65344623  1
  O  O7  1  0.92013261  0.57182962  0.14812255  1
  O  O8  1  0.79450597  0.79479972  0.34655377  1
  O  O9  1  0.40996739  0.40778109  0.45522733  1
  O  O10  1  0.40996739  0.86300842  0.54477267  1
  O  O11  1  0.57877428  0.11495004  0.29140660  1
  F  F12  1  0.24864450  0.00021388  0.00000000  1
  Ca  Ca13  1  0.00395360  0.26197937  0.35570478  1
  Ca  Ca14  1  0.34785182  0.93484283  0.76366480  1
  Ca  Ca15  1  0.34785182  0.69850763  0.23633520  1
  Ca  Ca16  1  0.00395360  0.61768416  0.64429522  1
  Ca  Ca17  1  0.63674481  0.20694318  0.00000000  1
