# generated using pymatgen
data_Li3ErCl6
_symmetry_space_group_name_H-M   'P 1'
_cell_length_a   11.08728965
_cell_length_b   11.08728969
_cell_length_c   6.11251245
_cell_angle_alpha   90.00000000
_cell_angle_beta   90.00000000
_cell_angle_gamma   119.99999984
_symmetry_Int_Tables_number   1
_chemical_formula_structural   Li3ErCl6
_chemical_formula_sum   'Li9 Er3 Cl18'
_cell_volume   650.73052231
_cell_formula_units_Z   3
loop_
 _symmetry_equiv_pos_site_id
 _symmetry_equiv_pos_as_xyz
  1  'x, y, z'
loop_
 _atom_site_type_symbol
 _atom_site_label
 _atom_site_symmetry_multiplicity
 _atom_site_fract_x
 _atom_site_fract_y
 _atom_site_fract_z
 _atom_site_occupancy
  Li  Li0  1  0.00000000  0.69909196  0.50000000  1
  Li  Li1  1  0.00000000  0.65475989  0.00000000  1
  Li  Li2  1  0.30090804  0.30090804  0.50000000  1
  Li  Li3  1  0.34524011  0.34524011  0.00000000  1
  Li  Li4  1  0.65354246  0.65354246  0.00000000  1
  Li  Li5  1  0.34645754  0.00000000  0.00000000  1
  Li  Li6  1  0.65475989  0.00000000  0.00000000  1
  Li  Li7  1  0.69909196  0.00000000  0.50000000  1
  Li  Li8  1  0.00000000  0.34645754  0.00000000  1
  Er  Er9  1  0.33333300  0.66666700  0.51128219  1
  Er  Er10  1  0.00000000  0.00000000  0.00000000  1
  Er  Er11  1  0.66666700  0.33333300  0.48871781  1
  Cl  Cl12  1  0.11706781  0.88585337  0.77429999  1
  Cl  Cl13  1  0.10824248  0.56007404  0.75590359  1
  Cl  Cl14  1  0.21028392  0.77186874  0.26910449  1
  Cl  Cl15  1  0.22813126  0.43841519  0.26910449  1
  Cl  Cl16  1  0.45183156  0.89175752  0.75590359  1
  Cl  Cl17  1  0.11414663  0.23121443  0.77429999  1
  Cl  Cl18  1  0.56158481  0.78971608  0.26910449  1
  Cl  Cl19  1  0.43992596  0.54816844  0.75590359  1
  Cl  Cl20  1  0.23121443  0.11414663  0.22570001  1
  Cl  Cl21  1  0.76878557  0.88293219  0.77429999  1
  Cl  Cl22  1  0.54816844  0.43992596  0.24409641  1
  Cl  Cl23  1  0.43841519  0.22813126  0.73089551  1
  Cl  Cl24  1  0.88293219  0.76878557  0.22570001  1
  Cl  Cl25  1  0.56007404  0.10824248  0.24409641  1
  Cl  Cl26  1  0.78971608  0.56158481  0.73089551  1
  Cl  Cl27  1  0.77186874  0.21028392  0.73089551  1
  Cl  Cl28  1  0.89175752  0.45183156  0.24409641  1
  Cl  Cl29  1  0.88585337  0.11706781  0.22570001  1
