# generated using pymatgen
data_Ta(Cu3O4)2
_symmetry_space_group_name_H-M   'P 1'
_cell_length_a   6.52754553
_cell_length_b   6.52471251
_cell_length_c   6.53070806
_cell_angle_alpha   60.06070378
_cell_angle_beta   60.07660065
_cell_angle_gamma   60.07616004
_symmetry_Int_Tables_number   1
_chemical_formula_structural   Ta(Cu3O4)2
_chemical_formula_sum   'Ta1 Cu6 O8'
_cell_volume   196.99549347
_cell_formula_units_Z   1
loop_
 _symmetry_equiv_pos_site_id
 _symmetry_equiv_pos_as_xyz
  1  'x, y, z'
loop_
 _atom_site_type_symbol
 _atom_site_label
 _atom_site_symmetry_multiplicity
 _atom_site_fract_x
 _atom_site_fract_y
 _atom_site_fract_z
 _atom_site_occupancy
  Ta  Ta0  1  0.49999883  0.49999895  0.50000148  1
  Cu  Cu1  1  0.50000128  0.00000045  0.49999749  1
  Cu  Cu2  1  0.50000088  0.49999963  0.99999913  1
  Cu  Cu3  1  0.99999949  0.50000114  0.49999954  1
  Cu  Cu4  1  0.99999923  0.49999941  0.00000182  1
  Cu  Cu5  1  0.99999982  0.99999920  0.50000000  1
  Cu  Cu6  1  0.50000224  0.99999952  0.99999984  1
  O  O7  1  0.63445914  0.09672720  0.63462914  1
  O  O8  1  0.09664163  0.63438235  0.63469972  1
  O  O9  1  0.63466802  0.63452868  0.09664424  1
  O  O10  1  0.90335698  0.36561663  0.36530308  1
  O  O11  1  0.63448790  0.63432157  0.63440476  1
  O  O12  1  0.36551165  0.36568023  0.36559420  1
  O  O13  1  0.36554039  0.90327199  0.36536995  1
  O  O14  1  0.36533251  0.36547107  0.90335560  1
