# generated using pymatgen
data_Li7Co5O12
_symmetry_space_group_name_H-M   'P 1'
_cell_length_a   2.97619382
_cell_length_b   14.42695581
_cell_length_c   4.96681082
_cell_angle_alpha   87.78429158
_cell_angle_beta   90.00000000
_cell_angle_gamma   90.00000000
_symmetry_Int_Tables_number   1
_chemical_formula_structural   Li7Co5O12
_chemical_formula_sum   'Li7 Co5 O12'
_cell_volume   213.10258156
_cell_formula_units_Z   1
loop_
 _symmetry_equiv_pos_site_id
 _symmetry_equiv_pos_as_xyz
  1  'x, y, z'
loop_
 _atom_site_type_symbol
 _atom_site_label
 _atom_site_symmetry_multiplicity
 _atom_site_fract_x
 _atom_site_fract_y
 _atom_site_fract_z
 _atom_site_occupancy
  Li  Li0  1  -0.00000000  0.49511226  0.01319602  1
  Li  Li1  1  0.50000000  0.83353592  0.16492836  1
  Li  Li2  1  -0.00000000  0.17210015  0.32509004  1
  Li  Li3  1  -0.00000000  0.83295730  0.66178543  1
  Li  Li4  1  0.50000000  0.17233994  0.83373950  1
  Li  Li5  1  0.50000000  0.49406878  0.50061512  1
  Li  Li6  1  0.50000000  0.33331539  0.16728205  1
  Co  Co7  1  0.00000000  0.00237042  0.99796607  1
  Co  Co8  1  -0.00000000  0.33331875  0.66790488  1
  Co  Co9  1  0.00000000  0.66423334  0.33485842  1
  Co  Co10  1  0.50000000  0.00189684  0.49866056  1
  Co  Co11  1  0.50000000  0.66475406  0.83437335  1
  O  O12  1  -0.00000000  0.74184099  0.00579388  1
  O  O13  1  0.50000000  0.08121611  0.17584813  1
  O  O14  1  -0.00000000  0.40724881  0.37146840  1
  O  O15  1  -0.00000000  0.07894973  0.67335685  1
  O  O16  1  0.50000000  0.40449002  0.81405856  1
  O  O17  1  0.50000000  0.74286122  0.50503217  1
  O  O18  1  -0.00000000  0.25959121  0.96327584  1
  O  O19  1  0.50000000  0.58522676  0.16143747  1
  O  O20  1  -0.00000000  0.92423633  0.32140519  1
  O  O21  1  -0.00000000  0.58822745  0.66447733  1
  O  O22  1  0.50000000  0.92379703  0.82269227  1
  O  O23  1  0.50000000  0.26231119  0.52075412  1
