# generated using pymatgen
data_La3Ge3Br2
_symmetry_space_group_name_H-M   'P 1'
_cell_length_a   4.38551928
_cell_length_b   9.68889409
_cell_length_c   11.04146073
_cell_angle_alpha   97.94679348
_cell_angle_beta   89.99284699
_cell_angle_gamma   103.07944033
_symmetry_Int_Tables_number   1
_chemical_formula_structural   La3Ge3Br2
_chemical_formula_sum   'La6 Ge6 Br4'
_cell_volume   452.36480389
_cell_formula_units_Z   2
loop_
 _symmetry_equiv_pos_site_id
 _symmetry_equiv_pos_as_xyz
  1  'x, y, z'
loop_
 _atom_site_type_symbol
 _atom_site_label
 _atom_site_symmetry_multiplicity
 _atom_site_fract_x
 _atom_site_fract_y
 _atom_site_fract_z
 _atom_site_occupancy
  La  La0  1  0.46948095  0.93904126  0.16903912  1
  La  La1  1  0.67756557  0.35516598  0.14684345  1
  La  La2  1  0.32253913  0.64484737  0.85316371  1
  La  La3  1  0.53046934  0.06098071  0.83095747  1
  La  La4  1  0.61210323  0.22426679  0.48825986  1
  La  La5  1  0.38792476  0.77570734  0.51173768  1
  Ge  Ge6  1  0.93185632  0.86374631  0.95566268  1
  Ge  Ge7  1  0.97669972  0.95339384  0.38421288  1
  Ge  Ge8  1  0.09305843  0.18614394  0.28024725  1
  Ge  Ge9  1  0.02331410  0.04662864  0.61574288  1
  Ge  Ge10  1  0.90693029  0.81384558  0.71976449  1
  Ge  Ge11  1  0.06809866  0.13624845  0.04438325  1
  Br  Br12  1  0.22468844  0.44931185  0.60881495  1
  Br  Br13  1  0.29941048  0.59902134  0.12986993  1
  Br  Br14  1  0.77527472  0.55066487  0.39118700  1
  Br  Br15  1  0.70058585  0.40098574  0.87011340  1
