# generated using pymatgen
data_BaCdP2O7
_symmetry_space_group_name_H-M   'P 1'
_cell_length_a   5.74054079
_cell_length_b   7.17602037
_cell_length_c   7.77479428
_cell_angle_alpha   78.41587010
_cell_angle_beta   89.41554601
_cell_angle_gamma   86.37916260
_symmetry_Int_Tables_number   1
_chemical_formula_structural   BaCdP2O7
_chemical_formula_sum   'Ba2 Cd2 P4 O14'
_cell_volume   313.12566347
_cell_formula_units_Z   2
loop_
 _symmetry_equiv_pos_site_id
 _symmetry_equiv_pos_as_xyz
  1  'x, y, z'
loop_
 _atom_site_type_symbol
 _atom_site_label
 _atom_site_symmetry_multiplicity
 _atom_site_fract_x
 _atom_site_fract_y
 _atom_site_fract_z
 _atom_site_occupancy
  O  O0  1  0.52595995  0.73916794  0.88106031  1
  O  O1  1  0.47404005  0.26083206  0.11893969  1
  O  O2  1  0.23158578  0.02659175  0.78932692  1
  O  O3  1  0.76841422  0.97340825  0.21067308  1
  O  O4  1  0.09229219  0.68728646  0.89207076  1
  O  O5  1  0.90770781  0.31271354  0.10792924  1
  O  O6  1  0.50859545  0.60646020  0.30964110  1
  O  O7  1  0.49140455  0.39353980  0.69035890  1
  O  O8  1  0.93257814  0.39084252  0.68620932  1
  O  O9  1  0.06742186  0.60915748  0.31379068  1
  O  O10  1  0.73285433  0.12807850  0.89557973  1
  O  O11  1  0.26714567  0.87192150  0.10442027  1
  O  O12  1  0.72929718  0.13849413  0.56849346  1
  O  O13  1  0.27070282  0.86150587  0.43150654  1
  P  P14  1  0.28117561  0.83150284  0.90453449  1
  P  P15  1  0.71882439  0.16849716  0.09546551  1
  P  P16  1  0.28043033  0.73345854  0.29676019  1
  P  P17  1  0.71956967  0.26654146  0.70323981  1
  Cd  Cd18  1  0.78913865  0.65255466  0.09901454  1
  Cd  Cd19  1  0.21086135  0.34744534  0.90098546  1
  Ba  Ba20  1  0.76299539  0.76447177  0.56150441  1
  Ba  Ba21  1  0.23700461  0.23552823  0.43849559  1
