# generated using pymatgen
data_Ce5(In2Pt)2
_symmetry_space_group_name_H-M   'P 1'
_cell_length_a   3.82430227
_cell_length_b   8.15298965
_cell_length_c   18.41542679
_cell_angle_alpha   89.66810239
_cell_angle_beta   90.00016332
_cell_angle_gamma   90.00083642
_symmetry_Int_Tables_number   1
_chemical_formula_structural   Ce5(In2Pt)2
_chemical_formula_sum   'Ce10 In8 Pt4'
_cell_volume   574.17410790
_cell_formula_units_Z   2
loop_
 _symmetry_equiv_pos_site_id
 _symmetry_equiv_pos_as_xyz
  1  'x, y, z'
loop_
 _atom_site_type_symbol
 _atom_site_label
 _atom_site_symmetry_multiplicity
 _atom_site_fract_x
 _atom_site_fract_y
 _atom_site_fract_z
 _atom_site_occupancy
  Ce  Ce0  1  0.99995005  0.62608916  0.07931121  1
  Ce  Ce1  1  0.99987008  0.25792891  0.72249179  1
  Ce  Ce2  1  0.00013114  0.74189390  0.27746961  1
  Ce  Ce3  1  0.00014304  0.37366644  0.92084543  1
  Ce  Ce4  1  0.00006528  0.12422591  0.42029910  1
  Ce  Ce5  1  0.00002911  0.50085399  0.50012943  1
  Ce  Ce6  1  0.00000916  0.87545444  0.57990105  1
  Ce  Ce7  1  0.00006402  0.24204519  0.22213407  1
  Ce  Ce8  1  0.99994622  0.00014768  0.99996988  1
  Ce  Ce9  1  0.99990154  0.75798904  0.77769816  1
  In  In10  1  0.50000105  0.06813159  0.85208547  1
  In  In11  1  0.49980158  0.93195196  0.14789198  1
  In  In12  1  0.50001383  0.78987833  0.43012562  1
  In  In13  1  0.50006457  0.20989969  0.56998957  1
  In  In14  1  0.50000218  0.71047982  0.93028928  1
  In  In15  1  0.49984584  0.56873889  0.64833805  1
  In  In16  1  0.50013920  0.43177543  0.35152095  1
  In  In17  1  0.49992582  0.28933509  0.06961998  1
  Pt  Pt18  1  0.50002336  0.47837193  0.80479857  1
  Pt  Pt19  1  0.50009657  0.02138772  0.30436683  1
  Pt  Pt20  1  0.50000195  0.97795552  0.69548018  1
  Pt  Pt21  1  0.49997439  0.52179936  0.19524378  1
