# generated using pymatgen
data_K2Na2Gd4Nb2O13
_symmetry_space_group_name_H-M   'P 1'
_cell_length_a   5.68226303
_cell_length_b   11.25431565
_cell_length_c   12.44017183
_cell_angle_alpha   115.59184918
_cell_angle_beta   103.20193334
_cell_angle_gamma   90.00000025
_symmetry_Int_Tables_number   1
_chemical_formula_structural   K2Na2Gd4Nb2O13
_chemical_formula_sum   'K4 Na4 Gd8 Nb4 O26'
_cell_volume   694.11510299
_cell_formula_units_Z   2
loop_
 _symmetry_equiv_pos_site_id
 _symmetry_equiv_pos_as_xyz
  1  'x, y, z'
loop_
 _atom_site_type_symbol
 _atom_site_label
 _atom_site_symmetry_multiplicity
 _atom_site_fract_x
 _atom_site_fract_y
 _atom_site_fract_z
 _atom_site_occupancy
  K  K0  1  0.80412921  0.63326967  0.49849872  1
  K  K1  1  0.19587079  0.36673033  0.50150128  1
  K  K2  1  0.30563049  0.86673033  0.50150128  1
  K  K3  1  0.69436951  0.13326967  0.49849872  1
  Na  Na4  1  0.19871552  0.52227295  0.31796157  1
  Na  Na5  1  0.80128448  0.47772705  0.68203843  1
  Na  Na6  1  0.11924605  0.02227295  0.31796157  1
  Na  Na7  1  0.88075395  0.97772705  0.68203843  1
  Gd  Gd8  1  0.60854201  0.44951011  0.12500839  1
  Gd  Gd9  1  0.51646638  0.94951011  0.12500839  1
  Gd  Gd10  1  0.90118154  0.32849548  0.87550498  1
  Gd  Gd11  1  0.39145799  0.55048989  0.87499161  1
  Gd  Gd12  1  0.48353362  0.05048989  0.87499161  1
  Gd  Gd13  1  0.02567656  0.17150452  0.12449502  1
  Gd  Gd14  1  0.97432344  0.82849548  0.87550498  1
  Gd  Gd15  1  0.09881846  0.67150452  0.12449502  1
  Nb  Nb16  1  0.38389286  0.71766884  0.69915279  1
  Nb  Nb17  1  0.61610714  0.28233116  0.30084721  1
  Nb  Nb18  1  0.31525993  0.21766884  0.69915279  1
  Nb  Nb19  1  0.68474007  0.78233116  0.30084721  1
  O  O20  1  0.75378483  0.25000000  1.00000000  1
  O  O21  1  0.33079917  0.62236634  0.52849503  1
  O  O22  1  0.24886642  0.47742590  0.00255788  1
  O  O23  1  0.86521356  0.37724908  0.27019558  1
  O  O24  1  0.59501798  0.12275092  0.72980442  1
  O  O25  1  0.66920083  0.37763366  0.47150497  1
  O  O26  1  0.24621517  0.75000000  0.00000000  1
  O  O27  1  0.80230415  0.87763366  0.47150497  1
  O  O28  1  0.17060287  0.16099964  0.80188253  1
  O  O29  1  0.90804122  0.63856020  0.26265741  1
  O  O30  1  0.24630854  0.02257410  0.99744212  1
  O  O31  1  0.35461619  0.13856020  0.26265741  1
  O  O32  1  0.63127965  0.66099964  0.80188253  1
  O  O33  1  0.64538381  0.86143980  0.73734259  1
  O  O34  1  0.13478644  0.62275092  0.72980442  1
  O  O35  1  0.43880069  0.63596294  0.25922488  1
  O  O36  1  0.75113358  0.52257410  0.99744212  1
  O  O37  1  0.40498202  0.87724908  0.27019558  1
  O  O38  1  0.36872035  0.33900036  0.19811747  1
  O  O39  1  0.82042419  0.13596294  0.25922488  1
  O  O40  1  0.82939713  0.83900036  0.19811747  1
  O  O41  1  0.09195878  0.36143980  0.73734259  1
  O  O42  1  0.19769585  0.12236634  0.52849503  1
  O  O43  1  0.75369146  0.97742590  0.00255788  1
  O  O44  1  0.56119931  0.36403706  0.74077512  1
  O  O45  1  0.17957581  0.86403706  0.74077512  1
