# generated using pymatgen
data_K3UO2F5
_symmetry_space_group_name_H-M   'P 1'
_cell_length_a   9.30299883
_cell_length_b   9.30299883
_cell_length_c   11.33049732
_cell_angle_alpha   114.23807939
_cell_angle_beta   114.23807942
_cell_angle_gamma   90.00000000
_symmetry_Int_Tables_number   1
_chemical_formula_structural   K3UO2F5
_chemical_formula_sum   'K12 U4 O8 F20'
_cell_volume   798.41608503
_cell_formula_units_Z   4
loop_
 _symmetry_equiv_pos_site_id
 _symmetry_equiv_pos_as_xyz
  1  'x, y, z'
loop_
 _atom_site_type_symbol
 _atom_site_label
 _atom_site_symmetry_multiplicity
 _atom_site_fract_x
 _atom_site_fract_y
 _atom_site_fract_z
 _atom_site_occupancy
  O  O0  1  0.64992510  0.16107819  0.21053400  1
  O  O1  1  0.04945581  0.14992510  0.71053400  1
  O  O2  1  0.66107819  0.06060890  0.71053400  1
  O  O3  1  0.56060890  0.54945581  0.21053400  1
  O  O4  1  0.35007490  0.83892181  0.78946600  1
  O  O5  1  0.95054419  0.85007490  0.28946600  1
  O  O6  1  0.33892181  0.93939110  0.28946600  1
  O  O7  1  0.43939110  0.45054419  0.78946600  1
  F  F8  1  0.12645573  0.55304054  0.71006286  1
  F  F9  1  0.15702232  0.62645573  0.21006286  1
  F  F10  1  0.05304054  0.08360713  0.21006286  1
  F  F11  1  0.58360713  0.65702232  0.71006286  1
  F  F12  1  0.87354427  0.44695946  0.28993714  1
  F  F13  1  0.84297768  0.37354427  0.78993714  1
  F  F14  1  0.94695946  0.91639287  0.78993714  1
  F  F15  1  0.41639287  0.34297768  0.28993714  1
  F  F16  1  0.27001120  0.52001120  0.54002240  1
  F  F17  1  0.02001120  0.77001120  0.04002240  1
  F  F18  1  0.72998880  0.47998880  0.45997760  1
  F  F19  1  0.97998880  0.22998880  0.95997760  1
  F  F20  1  0.36418665  0.23683037  0.01315699  1
  F  F21  1  0.77632662  0.86418665  0.51315699  1
  F  F22  1  0.73683037  0.14897034  0.51315699  1
  F  F23  1  0.64897034  0.27632662  0.01315699  1
  F  F24  1  0.63581335  0.76316963  0.98684301  1
  F  F25  1  0.22367338  0.13581335  0.48684301  1
  F  F26  1  0.26316963  0.85102966  0.48684301  1
  F  F27  1  0.35102966  0.72367338  0.98684301  1
  K  K28  1  0.20506904  0.47277849  0.97769681  1
  K  K29  1  0.50491832  0.70506904  0.47769681  1
  K  K30  1  0.97277849  0.27262777  0.47769681  1
  K  K31  1  0.77262777  0.00491832  0.97769681  1
  K  K32  1  0.79493096  0.52722151  0.02230319  1
  K  K33  1  0.49508168  0.29493096  0.52230319  1
  K  K34  1  0.02722151  0.72737223  0.52230319  1
  K  K35  1  0.22737223  0.99508168  0.02230319  1
  K  K36  1  0.37500000  0.12500000  0.75000000  1
  K  K37  1  0.62500000  0.87500000  0.25000000  1
  K  K38  1  0.87500000  0.62500000  0.75000000  1
  K  K39  1  0.12500000  0.37500000  0.25000000  1
  U  U40  1  0.85573242  0.10573242  0.71146484  1
  U  U41  1  0.60573242  0.35573242  0.21146484  1
  U  U42  1  0.14426758  0.89426758  0.28853516  1
  U  U43  1  0.39426758  0.64426758  0.78853516  1
