# generated using pymatgen
data_Ni2RhS4
_symmetry_space_group_name_H-M   'P 1'
_cell_length_a   6.79262907
_cell_length_b   6.79262980
_cell_length_c   6.77329083
_cell_angle_alpha   60.09413021
_cell_angle_beta   60.09412664
_cell_angle_gamma   60.34957523
_symmetry_Int_Tables_number   1
_chemical_formula_structural   Ni2RhS4
_chemical_formula_sum   'Ni4 Rh2 S8'
_cell_volume   221.87814369
_cell_formula_units_Z   2
loop_
 _symmetry_equiv_pos_site_id
 _symmetry_equiv_pos_as_xyz
  1  'x, y, z'
loop_
 _atom_site_type_symbol
 _atom_site_label
 _atom_site_symmetry_multiplicity
 _atom_site_fract_x
 _atom_site_fract_y
 _atom_site_fract_z
 _atom_site_occupancy
  Ni  Ni0  1  0.00096654  0.00096654  0.99903346  1
  Ni  Ni1  1  0.24903346  0.24903346  0.25096654  1
  Ni  Ni2  1  0.62500000  0.62500000  0.12500000  1
  Ni  Ni3  1  0.62500000  0.62500000  0.62500000  1
  Rh  Rh4  1  0.12500000  0.62500000  0.62500000  1
  Rh  Rh5  1  0.62500000  0.12500000  0.62500000  1
  S  S6  1  0.38564691  0.38564691  0.37347629  1
  S  S7  1  0.38947967  0.85525826  0.37763103  1
  S  S8  1  0.38564691  0.38564691  0.85522989  1
  S  S9  1  0.85525826  0.38947967  0.37763103  1
  S  S10  1  0.39474174  0.86052033  0.87236897  1
  S  S11  1  0.86052033  0.39474174  0.87236897  1
  S  S12  1  0.86435309  0.86435309  0.39477011  1
  S  S13  1  0.86435309  0.86435309  0.87652371  1
