# generated using pymatgen
data_TiTlPO5
_symmetry_space_group_name_H-M   'P 1'
_cell_length_a   6.57356505
_cell_length_b   10.69808362
_cell_length_c   13.11606855
_cell_angle_alpha   90.00000000
_cell_angle_beta   90.00000000
_cell_angle_gamma   90.00000000
_symmetry_Int_Tables_number   1
_chemical_formula_structural   TiTlPO5
_chemical_formula_sum   'Ti8 Tl8 P8 O40'
_cell_volume   922.38160001
_cell_formula_units_Z   8
loop_
 _symmetry_equiv_pos_site_id
 _symmetry_equiv_pos_as_xyz
  1  'x, y, z'
loop_
 _atom_site_type_symbol
 _atom_site_label
 _atom_site_symmetry_multiplicity
 _atom_site_fract_x
 _atom_site_fract_y
 _atom_site_fract_z
 _atom_site_occupancy
  O  O0  1  0.46118807  0.14061269  0.27746727  1
  O  O1  1  0.53881193  0.64061269  0.72253273  1
  O  O2  1  0.03881193  0.14061269  0.77746727  1
  O  O3  1  0.96118807  0.64061269  0.22253273  1
  O  O4  1  0.55046283  0.88691778  0.27751399  1
  O  O5  1  0.44953717  0.38691778  0.72248601  1
  O  O6  1  0.94953717  0.88691778  0.77751399  1
  O  O7  1  0.05046283  0.38691778  0.22248601  1
  O  O8  1  0.96210491  0.89664215  0.24932356  1
  O  O9  1  0.03789509  0.39664215  0.75067644  1
  O  O10  1  0.53789509  0.89664215  0.74932356  1
  O  O11  1  0.46210491  0.39664215  0.25067644  1
  O  O12  1  0.04520820  0.12595276  0.24727543  1
  O  O13  1  0.95479180  0.62595276  0.75272457  1
  O  O14  1  0.45479180  0.12595276  0.74727543  1
  O  O15  1  0.70078602  0.73860363  0.90569073  1
  O  O16  1  0.54520820  0.62595276  0.25272457  1
  O  O17  1  0.80509824  0.48499446  0.61495572  1
  O  O18  1  0.30509824  0.98499446  0.88504428  1
  O  O19  1  0.69490176  0.48499446  0.11495572  1
  O  O20  1  0.81483235  0.04141460  0.38458642  1
  O  O21  1  0.18516765  0.54141460  0.61541358  1
  O  O22  1  0.68516765  0.04141460  0.88458642  1
  O  O23  1  0.31483235  0.54141460  0.11541358  1
  O  O24  1  0.48604977  0.14921028  0.48555922  1
  O  O25  1  0.51395023  0.64921028  0.51444078  1
  O  O26  1  0.01395023  0.14921028  0.98555922  1
  O  O27  1  0.98604977  0.64921028  0.01444078  1
  O  O28  1  0.46183583  0.38389971  0.51349228  1
  O  O29  1  0.53816417  0.88389971  0.48650772  1
  O  O30  1  0.03816417  0.38389971  0.01349228  1
  O  O31  1  0.96183583  0.88389971  0.98650772  1
  O  O32  1  0.20690807  0.27825671  0.40130625  1
  O  O33  1  0.79309193  0.77825671  0.59869375  1
  O  O34  1  0.29309193  0.27825671  0.90130625  1
  O  O35  1  0.70690807  0.77825671  0.09869375  1
  O  O36  1  0.20078602  0.23860363  0.59430927  1
  O  O37  1  0.79921398  0.73860363  0.40569073  1
  O  O38  1  0.29921398  0.23860363  0.09430927  1
  O  O39  1  0.19490176  0.98499446  0.38504428  1
  P  P40  1  0.83850560  0.76019076  0.00115640  1
  P  P41  1  0.16149440  0.26019076  0.99884360  1
  P  P42  1  0.33850560  0.26019076  0.49884360  1
  P  P43  1  0.50462278  0.51174530  0.18108547  1
  P  P44  1  0.49537722  0.01174530  0.81891453  1
  P  P45  1  0.99537722  0.51174530  0.68108547  1
  P  P46  1  0.00462278  0.01174530  0.31891453  1
  P  P47  1  0.66149440  0.76019076  0.50115640  1
  Ti  Ti48  1  0.23536203  0.25339978  0.74521209  1
  Ti  Ti49  1  0.73536203  0.75339978  0.75478791  1
  Ti  Ti50  1  0.26463797  0.25339978  0.24521209  1
  Ti  Ti51  1  0.99914952  0.50376243  0.12989988  1
  Ti  Ti52  1  0.00085048  0.00376243  0.87010012  1
  Ti  Ti53  1  0.50085048  0.50376243  0.62989988  1
  Ti  Ti54  1  0.76463797  0.75339978  0.25478791  1
  Ti  Ti55  1  0.49914952  0.00376243  0.37010012  1
  Tl  Tl56  1  0.69365503  0.07456904  0.10262143  1
  Tl  Tl57  1  0.30634497  0.57456904  0.89737857  1
  Tl  Tl58  1  0.80634497  0.07456904  0.60262143  1
  Tl  Tl59  1  0.19365503  0.57456904  0.39737857  1
  Tl  Tl60  1  0.78791759  0.32882791  0.38265719  1
  Tl  Tl61  1  0.21208241  0.82882791  0.61734281  1
  Tl  Tl62  1  0.71208241  0.32882791  0.88265719  1
  Tl  Tl63  1  0.28791759  0.82882791  0.11734281  1
