# generated using pymatgen
data_Rb3Nb5P2O19
_symmetry_space_group_name_H-M   'P 1'
_cell_length_a   19.75989871
_cell_length_b   19.75989841
_cell_length_c   19.75989869
_cell_angle_alpha   39.07306986
_cell_angle_beta   39.07307090
_cell_angle_gamma   39.07307041
_symmetry_Int_Tables_number   1
_chemical_formula_structural   Rb3Nb5P2O19
_chemical_formula_sum   'Rb18 Nb30 P12 O114'
_cell_volume   2756.99373640
_cell_formula_units_Z   6
loop_
 _symmetry_equiv_pos_site_id
 _symmetry_equiv_pos_as_xyz
  1  'x, y, z'
loop_
 _atom_site_type_symbol
 _atom_site_label
 _atom_site_symmetry_multiplicity
 _atom_site_fract_x
 _atom_site_fract_y
 _atom_site_fract_z
 _atom_site_occupancy
  Rb  Rb0  1  0.67143602  0.31861902  0.97373001  1
  Rb  Rb1  1  0.25000000  0.92264296  0.57735704  1
  Rb  Rb2  1  0.82856398  0.52626999  0.18138098  1
  Rb  Rb3  1  0.75000000  0.07735704  0.42264296  1
  Rb  Rb4  1  0.47373001  0.81861902  0.17143602  1
  Rb  Rb5  1  0.42264296  0.75000000  0.07735704  1
  Rb  Rb6  1  0.18138098  0.82856398  0.52626999  1
  Rb  Rb7  1  0.68138098  0.02626999  0.32856398  1
  Rb  Rb8  1  0.97373001  0.67143602  0.31861902  1
  Rb  Rb9  1  0.52626999  0.18138098  0.82856398  1
  Rb  Rb10  1  0.17143602  0.47373001  0.81861902  1
  Rb  Rb11  1  0.31861902  0.97373001  0.67143602  1
  Rb  Rb12  1  0.81861902  0.17143602  0.47373001  1
  Rb  Rb13  1  0.07735704  0.42264296  0.75000000  1
  Rb  Rb14  1  0.02626999  0.32856398  0.68138098  1
  Rb  Rb15  1  0.92264296  0.57735704  0.25000000  1
  Rb  Rb16  1  0.32856398  0.68138098  0.02626999  1
  Rb  Rb17  1  0.57735704  0.25000000  0.92264296  1
  Nb  Nb18  1  0.86729315  0.73272255  0.54513766  1
  Nb  Nb19  1  0.53376196  0.72414555  0.40505363  1
  Nb  Nb20  1  0.40505363  0.53376196  0.72414555  1
  Nb  Nb21  1  0.77585445  0.96623804  0.09494637  1
  Nb  Nb22  1  0.72414555  0.40505363  0.53376196  1
  Nb  Nb23  1  0.59494637  0.46623804  0.27585445  1
  Nb  Nb24  1  0.46623804  0.27585445  0.59494637  1
  Nb  Nb25  1  0.09494637  0.77585445  0.96623804  1
  Nb  Nb26  1  0.90505363  0.22414555  0.03376196  1
  Nb  Nb27  1  0.73272255  0.54513766  0.86729315  1
  Nb  Nb28  1  0.36729315  0.04513766  0.23272255  1
  Nb  Nb29  1  0.65922872  0.65922872  0.65922872  1
  Nb  Nb30  1  0.45486234  0.13270685  0.26727745  1
  Nb  Nb31  1  0.50000000  0.50000000  0.50000000  1
  Nb  Nb32  1  0.84077128  0.84077128  0.84077128  1
  Nb  Nb33  1  0.76727745  0.63270685  0.95486234  1
  Nb  Nb34  1  0.63270685  0.95486234  0.76727745  1
  Nb  Nb35  1  0.54513766  0.86729315  0.73272255  1
  Nb  Nb36  1  0.13270685  0.26727745  0.45486234  1
  Nb  Nb37  1  0.15922872  0.15922872  0.15922872  1
  Nb  Nb38  1  0.03376196  0.90505363  0.22414555  1
  Nb  Nb39  1  0.26727745  0.45486234  0.13270685  1
  Nb  Nb40  1  0.04513766  0.23272255  0.36729315  1
  Nb  Nb41  1  0.95486234  0.76727745  0.63270685  1
  Nb  Nb42  1  0.22414555  0.03376196  0.90505363  1
  Nb  Nb43  1  0.96623804  0.09494637  0.77585445  1
  Nb  Nb44  1  0.34077128  0.34077128  0.34077128  1
  Nb  Nb45  1  0.00000000  0.00000000  0.00000000  1
  Nb  Nb46  1  0.23272255  0.36729315  0.04513766  1
  Nb  Nb47  1  0.27585445  0.59494637  0.46623804  1
  P  P48  1  0.16305528  0.59880810  0.38403700  1
  P  P49  1  0.09880810  0.66305528  0.88403700  1
  P  P50  1  0.61596300  0.83694472  0.40119190  1
  P  P51  1  0.33694472  0.11596300  0.90119190  1
  P  P52  1  0.88403700  0.09880810  0.66305528  1
  P  P53  1  0.66305528  0.88403700  0.09880810  1
  P  P54  1  0.90119190  0.33694472  0.11596300  1
  P  P55  1  0.38403700  0.16305528  0.59880810  1
  P  P56  1  0.59880810  0.38403700  0.16305528  1
  P  P57  1  0.40119190  0.61596300  0.83694472  1
  P  P58  1  0.11596300  0.90119190  0.33694472  1
  P  P59  1  0.83694472  0.40119190  0.61596300  1
  O  O60  1  0.28840736  0.14817220  0.40730030  1
  O  O61  1  0.49655410  0.35292516  0.24773172  1
  O  O62  1  0.09269970  0.35182780  0.21159264  1
  O  O63  1  0.39902864  0.52298436  0.96291036  1
  O  O64  1  0.56065249  0.93934751  0.75000000  1
  O  O65  1  0.92935654  0.81680716  0.07328334  1
  O  O66  1  0.68319284  0.57064346  0.42671666  1
  O  O67  1  0.06017383  0.91643791  0.29697304  1
  O  O68  1  0.35331885  0.60208985  0.48332998  1
  O  O69  1  0.31680716  0.42935654  0.57328334  1
  O  O70  1  0.59269970  0.71159264  0.85182780  1
  O  O71  1  0.90730030  0.64817220  0.78840736  1
  O  O72  1  0.34027494  0.23212294  0.78224193  1
  O  O73  1  0.28224193  0.73212294  0.84027494  1
  O  O74  1  0.39791015  0.51667002  0.64668115  1
  O  O75  1  0.93982617  0.08356209  0.70302696  1
  O  O76  1  0.98332998  0.10208985  0.85331885  1
  O  O77  1  0.81548837  0.70289256  0.94664624  1
  O  O78  1  0.79697304  0.41643791  0.56017383  1
  O  O79  1  0.91643791  0.29697304  0.06017383  1
  O  O80  1  0.57064346  0.42671666  0.68319284  1
  O  O81  1  0.52298436  0.96291036  0.39902864  1
  O  O82  1  0.07064346  0.18319284  0.92671666  1
  O  O83  1  0.43982617  0.20302696  0.58356209  1
  O  O84  1  0.55335376  0.79710744  0.68451163  1
  O  O85  1  0.51667002  0.64668115  0.39791015  1
  O  O86  1  0.37631093  0.90940339  0.84878833  1
  O  O87  1  0.42935654  0.57328334  0.31680716  1
  O  O88  1  0.25000000  0.43934751  0.06065249  1
  O  O89  1  0.02298436  0.89902864  0.46291036  1
  O  O90  1  0.74773172  0.85292516  0.99655410  1
  O  O91  1  0.10208985  0.85331885  0.98332998  1
  O  O92  1  0.14707484  0.00344590  0.25226828  1
  O  O93  1  0.15121167  0.62368907  0.09059661  1
  O  O94  1  0.99655410  0.74773172  0.85292516  1
  O  O95  1  0.59059661  0.12368907  0.65121167  1
  O  O96  1  0.64817220  0.78840736  0.90730030  1
  O  O97  1  0.00344590  0.25226828  0.14707484  1
  O  O98  1  0.75226828  0.50344590  0.64707484  1
  O  O99  1  0.35182780  0.21159264  0.09269970  1
  O  O100  1  0.05335376  0.18451163  0.29710744  1
  O  O101  1  0.78840736  0.90730030  0.64817220  1
  O  O102  1  0.62368907  0.09059661  0.15121167  1
  O  O103  1  0.64668115  0.39791015  0.51667002  1
  O  O104  1  0.08356209  0.70302696  0.93982617  1
  O  O105  1  0.65972506  0.76787706  0.21775807  1
  O  O106  1  0.21775807  0.65972506  0.76787706  1
  O  O107  1  0.68451163  0.55335376  0.79710744  1
  O  O108  1  0.97701564  0.10097136  0.53708964  1
  O  O109  1  0.71159264  0.85182780  0.59269970  1
  O  O110  1  0.57328334  0.31680716  0.42935654  1
  O  O111  1  0.31548837  0.44664624  0.20289256  1
  O  O112  1  0.35292516  0.24773172  0.49655410  1
  O  O113  1  0.58356209  0.43982617  0.20302696  1
  O  O114  1  0.85331885  0.98332998  0.10208985  1
  O  O115  1  0.60208985  0.48332998  0.35331885  1
  O  O116  1  0.14668115  0.01667002  0.89791015  1
  O  O117  1  0.96291036  0.39902864  0.52298436  1
  O  O118  1  0.65121167  0.59059661  0.12368907  1
  O  O119  1  0.01667002  0.89791015  0.14668115  1
  O  O120  1  0.29710744  0.05335376  0.18451163  1
  O  O121  1  0.18451163  0.29710744  0.05335376  1
  O  O122  1  0.20289256  0.31548837  0.44664624  1
  O  O123  1  0.60097136  0.47701564  0.03708964  1
  O  O124  1  0.76787706  0.21775807  0.65972506  1
  O  O125  1  0.34878833  0.40940339  0.87631093  1
  O  O126  1  0.94664624  0.81548837  0.70289256  1
  O  O127  1  0.18319284  0.92671666  0.07064346  1
  O  O128  1  0.44664624  0.20289256  0.31548837  1
  O  O129  1  0.42671666  0.68319284  0.57064346  1
  O  O130  1  0.50344590  0.64707484  0.75226828  1
  O  O131  1  0.07328334  0.92935654  0.81680716  1
  O  O132  1  0.89902864  0.46291036  0.02298436  1
  O  O133  1  0.48332998  0.35331885  0.60208985  1
  O  O134  1  0.75000000  0.56065249  0.93934751  1
  O  O135  1  0.41643791  0.56017383  0.79697304  1
  O  O136  1  0.46291036  0.02298436  0.89902864  1
  O  O137  1  0.87631093  0.34878833  0.40940339  1
  O  O138  1  0.23212294  0.78224193  0.34027494  1
  O  O139  1  0.09059661  0.15121167  0.62368907  1
  O  O140  1  0.64707484  0.75226828  0.50344590  1
  O  O141  1  0.47701564  0.03708964  0.60097136  1
  O  O142  1  0.71775807  0.26787706  0.15972506  1
  O  O143  1  0.93934751  0.75000000  0.56065249  1
  O  O144  1  0.90940339  0.84878833  0.37631093  1
  O  O145  1  0.92671666  0.07064346  0.18319284  1
  O  O146  1  0.03708964  0.60097136  0.47701564  1
  O  O147  1  0.84027494  0.28224193  0.73212294  1
  O  O148  1  0.40940339  0.87631093  0.34878833  1
  O  O149  1  0.24773172  0.49655410  0.35292516  1
  O  O150  1  0.70302696  0.93982617  0.08356209  1
  O  O151  1  0.73212294  0.84027494  0.28224193  1
  O  O152  1  0.85292516  0.99655410  0.74773172  1
  O  O153  1  0.43934751  0.06065249  0.25000000  1
  O  O154  1  0.14817220  0.40730030  0.28840736  1
  O  O155  1  0.84878833  0.37631093  0.90940339  1
  O  O156  1  0.15972506  0.71775807  0.26787706  1
  O  O157  1  0.79710744  0.68451163  0.55335376  1
  O  O158  1  0.29697304  0.06017383  0.91643791  1
  O  O159  1  0.78224193  0.34027494  0.23212294  1
  O  O160  1  0.89791015  0.14668115  0.01667002  1
  O  O161  1  0.10097136  0.53708964  0.97701564  1
  O  O162  1  0.56017383  0.79697304  0.41643791  1
  O  O163  1  0.12368907  0.65121167  0.59059661  1
  O  O164  1  0.85182780  0.59269970  0.71159264  1
  O  O165  1  0.40730030  0.28840736  0.14817220  1
  O  O166  1  0.70289256  0.94664624  0.81548837  1
  O  O167  1  0.25226828  0.14707484  0.00344590  1
  O  O168  1  0.53708964  0.97701564  0.10097136  1
  O  O169  1  0.81680716  0.07328334  0.92935654  1
  O  O170  1  0.20302696  0.58356209  0.43982617  1
  O  O171  1  0.26787706  0.15972506  0.71775807  1
  O  O172  1  0.21159264  0.09269970  0.35182780  1
  O  O173  1  0.06065249  0.25000000  0.43934751  1
