# generated using pymatgen
data_Ho7(CuTe4)3
_symmetry_space_group_name_H-M   'P 1'
_cell_length_a   14.27017353
_cell_length_b   42.78802304
_cell_length_c   28.20629219
_cell_angle_alpha   8.68186635
_cell_angle_beta   15.22550999
_cell_angle_gamma   17.47161177
_symmetry_Int_Tables_number   1
_chemical_formula_structural   Ho7(CuTe4)3
_chemical_formula_sum   'Ho7 Cu3 Te12'
_cell_volume   682.73236570
_cell_formula_units_Z   1
loop_
 _symmetry_equiv_pos_site_id
 _symmetry_equiv_pos_as_xyz
  1  'x, y, z'
loop_
 _atom_site_type_symbol
 _atom_site_label
 _atom_site_symmetry_multiplicity
 _atom_site_fract_x
 _atom_site_fract_y
 _atom_site_fract_z
 _atom_site_occupancy
  Ho  Ho0  1  0.58384164  0.99798449  0.58457648  1
  Ho  Ho1  1  0.99993497  0.66686643  0.99937694  1
  Ho  Ho2  1  0.41406566  0.33328531  0.41900667  1
  Ho  Ho3  1  0.58508337  0.33557251  0.57758234  1
  Ho  Ho4  1  0.42062785  0.66811592  0.41348449  1
  Ho  Ho5  1  0.57732258  0.66638103  0.58525771  1
  Ho  Ho6  1  0.41841355  0.99873401  0.41870432  1
  Cu  Cu7  1  0.18872342  0.33407538  0.18911173  1
  Cu  Cu8  1  0.81191939  0.33326024  0.81003434  1
  Cu  Cu9  1  0.81012979  0.99950950  0.81154715  1
  Te  Te10  1  0.12483967  0.99743991  0.13212927  1
  Te  Te11  1  0.12340245  0.33701034  0.12282752  1
  Te  Te12  1  0.29274499  0.33247897  0.29272412  1
  Te  Te13  1  0.70791532  0.00102558  0.70686336  1
  Te  Te14  1  0.13028585  0.66665638  0.12572743  1
  Te  Te15  1  0.87105163  0.99687923  0.87912022  1
  Te  Te16  1  0.29079996  0.66664979  0.29258634  1
  Te  Te17  1  0.70694129  0.33255337  0.71003667  1
  Te  Te18  1  0.87853818  0.33324037  0.87083993  1
  Te  Te19  1  0.29245236  0.00067371  0.29070869  1
  Te  Te20  1  0.70949152  0.66642651  0.70781686  1
  Te  Te21  1  0.87227457  0.66851402  0.87073738  1
