# generated using pymatgen
data_Sr3CuPtO6
_symmetry_space_group_name_H-M   'P 1'
_cell_length_a   6.76044261
_cell_length_b   6.83323565
_cell_length_c   6.83323565
_cell_angle_alpha   92.12221795
_cell_angle_beta   90.79931620
_cell_angle_gamma   90.79931625
_symmetry_Int_Tables_number   1
_chemical_formula_structural   Sr3CuPtO6
_chemical_formula_sum   'Sr6 Cu2 Pt2 O12'
_cell_volume   315.38581796
_cell_formula_units_Z   2
loop_
 _symmetry_equiv_pos_site_id
 _symmetry_equiv_pos_as_xyz
  1  'x, y, z'
loop_
 _atom_site_type_symbol
 _atom_site_label
 _atom_site_symmetry_multiplicity
 _atom_site_fract_x
 _atom_site_fract_y
 _atom_site_fract_z
 _atom_site_occupancy
  O  O0  1  0.46331271  0.28202181  0.60686051  1
  O  O1  1  0.03668729  0.39313949  0.71797819  1
  O  O2  1  0.53668729  0.71797819  0.39313949  1
  O  O3  1  0.96331271  0.60686051  0.28202181  1
  O  O4  1  0.43103246  0.07796181  0.21790262  1
  O  O5  1  0.06896754  0.78209738  0.92203819  1
  O  O6  1  0.56896754  0.92203819  0.78209738  1
  O  O7  1  0.93103246  0.21790262  0.07796181  1
  O  O8  1  0.78515202  0.10400110  0.47819333  1
  O  O9  1  0.71484798  0.52180667  0.89599890  1
  O  O10  1  0.28515202  0.47819333  0.10400110  1
  O  O11  1  0.21484798  0.89599890  0.52180667  1
  Cu  Cu12  1  0.25000000  0.69385805  0.30614195  1
  Cu  Cu13  1  0.75000000  0.30614195  0.69385805  1
  Sr  Sr14  1  0.25000000  0.09808891  0.90191109  1
  Sr  Sr15  1  0.75000000  0.90191109  0.09808891  1
  Sr  Sr16  1  0.87720561  0.75947315  0.61017362  1
  Sr  Sr17  1  0.62279439  0.38982638  0.24052685  1
  Sr  Sr18  1  0.12279439  0.24052685  0.38982638  1
  Sr  Sr19  1  0.37720561  0.61017362  0.75947315  1
  Pt  Pt20  1  0.50000000  0.00000000  0.50000000  1
  Pt  Pt21  1  0.00000000  0.50000000  0.00000000  1
