# generated using pymatgen
data_Sr3U11O36
_symmetry_space_group_name_H-M   'P 1'
_cell_length_a   6.79020204
_cell_length_b   8.47887240
_cell_length_c   28.80258326
_cell_angle_alpha   90.00000000
_cell_angle_beta   90.00000000
_cell_angle_gamma   90.00000000
_symmetry_Int_Tables_number   1
_chemical_formula_structural   Sr3U11O36
_chemical_formula_sum   'Sr6 U22 O72'
_cell_volume   1658.25851871
_cell_formula_units_Z   2
loop_
 _symmetry_equiv_pos_site_id
 _symmetry_equiv_pos_as_xyz
  1  'x, y, z'
loop_
 _atom_site_type_symbol
 _atom_site_label
 _atom_site_symmetry_multiplicity
 _atom_site_fract_x
 _atom_site_fract_y
 _atom_site_fract_z
 _atom_site_occupancy
  Sr  Sr0  1  0.76384533  0.25000000  0.75000000  1
  Sr  Sr1  1  0.23615467  0.75000000  0.25000000  1
  Sr  Sr2  1  0.31748871  0.75000000  0.39515744  1
  Sr  Sr3  1  0.31748871  0.75000000  0.10484256  1
  Sr  Sr4  1  0.68251129  0.25000000  0.89515744  1
  Sr  Sr5  1  0.68251129  0.25000000  0.60484256  1
  U  U6  1  0.24896343  0.25000000  0.38432488  1
  U  U7  1  0.77796468  0.75000000  0.32256211  1
  U  U8  1  0.22385295  0.75000000  0.96318594  1
  U  U9  1  0.75103657  0.75000000  0.61567512  1
  U  U10  1  0.22203532  0.25000000  0.82256211  1
  U  U11  1  0.77318799  0.75000000  0.03124380  1
  U  U12  1  0.22203532  0.25000000  0.67743789  1
  U  U13  1  0.77614705  0.25000000  0.03681406  1
  U  U14  1  0.75103657  0.75000000  0.88432488  1
  U  U15  1  0.22385295  0.75000000  0.53681406  1
  U  U16  1  0.24896343  0.25000000  0.11567512  1
  U  U17  1  0.32157613  0.25000000  0.25000000  1
  U  U18  1  0.22681201  0.25000000  0.53124380  1
  U  U19  1  0.21976231  0.75000000  0.82153981  1
  U  U20  1  0.77796468  0.75000000  0.17743789  1
  U  U21  1  0.77614705  0.25000000  0.46318594  1
  U  U22  1  0.67842387  0.75000000  0.75000000  1
  U  U23  1  0.78023769  0.25000000  0.17846019  1
  U  U24  1  0.78023769  0.25000000  0.32153981  1
  U  U25  1  0.77318799  0.75000000  0.46875620  1
  U  U26  1  0.21976231  0.75000000  0.67846019  1
  U  U27  1  0.22681201  0.25000000  0.96875620  1
  O  O28  1  0.77855705  0.01434700  0.32177517  1
  O  O29  1  0.25024782  0.03194829  0.11471140  1
  O  O30  1  0.52734360  0.25000000  0.42444410  1
  O  O31  1  0.71099785  0.75000000  0.10081375  1
  O  O32  1  0.22088527  0.97765712  0.53279367  1
  O  O33  1  0.46692667  0.25000000  0.32430178  1
  O  O34  1  0.25024782  0.46805171  0.11471140  1
  O  O35  1  0.77911473  0.02234288  0.03279367  1
  O  O36  1  0.22144295  0.98565300  0.82177517  1
  O  O37  1  0.77855705  0.48565300  0.17822483  1
  O  O38  1  0.48365080  0.75000000  0.02237995  1
  O  O39  1  0.68814787  0.25000000  0.25000000  1
  O  O40  1  0.49978212  0.75000000  0.18483767  1
  O  O41  1  0.74975218  0.53194829  0.61471140  1
  O  O42  1  0.09378030  0.75000000  0.60913697  1
  O  O43  1  0.09378030  0.75000000  0.89086303  1
  O  O44  1  0.77911473  0.47765712  0.03279367  1
  O  O45  1  0.74975218  0.53194829  0.88528860  1
  O  O46  1  0.08367851  0.25000000  0.19324690  1
  O  O47  1  0.90621970  0.25000000  0.39086303  1
  O  O48  1  0.46692667  0.25000000  0.17569822  1
  O  O49  1  0.31185213  0.75000000  0.75000000  1
  O  O50  1  0.77855705  0.48565300  0.32177517  1
  O  O51  1  0.77855705  0.01434700  0.17822483  1
  O  O52  1  0.22144295  0.98565300  0.67822483  1
  O  O53  1  0.08367851  0.25000000  0.30675310  1
  O  O54  1  0.13920849  0.25000000  0.46371650  1
  O  O55  1  0.77911473  0.02234288  0.46720633  1
  O  O56  1  0.93787726  0.25000000  0.96106790  1
  O  O57  1  0.06212274  0.75000000  0.46106790  1
  O  O58  1  0.53307333  0.75000000  0.82430178  1
  O  O59  1  0.31820562  0.46778544  0.25000000  1
  O  O60  1  0.22088527  0.97765712  0.96720633  1
  O  O61  1  0.48365080  0.75000000  0.47762005  1
  O  O62  1  0.74975218  0.96805171  0.61471140  1
  O  O63  1  0.77911473  0.47765712  0.46720633  1
  O  O64  1  0.22144295  0.51434700  0.82177517  1
  O  O65  1  0.13920849  0.25000000  0.03628350  1
  O  O66  1  0.25024782  0.03194829  0.38528860  1
  O  O67  1  0.28900215  0.25000000  0.89918625  1
  O  O68  1  0.51634920  0.25000000  0.97762005  1
  O  O69  1  0.94600439  0.25000000  0.66842567  1
  O  O70  1  0.25024782  0.46805171  0.38528860  1
  O  O71  1  0.50021788  0.25000000  0.68483767  1
  O  O72  1  0.91632149  0.75000000  0.69324690  1
  O  O73  1  0.86079151  0.75000000  0.96371650  1
  O  O74  1  0.15635133  0.25000000  0.75000000  1
  O  O75  1  0.68179438  0.53221456  0.75000000  1
  O  O76  1  0.06212274  0.75000000  0.03893210  1
  O  O77  1  0.93787726  0.25000000  0.53893210  1
  O  O78  1  0.47265640  0.75000000  0.57555590  1
  O  O79  1  0.84364867  0.75000000  0.25000000  1
  O  O80  1  0.53307333  0.75000000  0.67569822  1
  O  O81  1  0.31820562  0.03221456  0.25000000  1
  O  O82  1  0.05399561  0.75000000  0.16842567  1
  O  O83  1  0.47265640  0.75000000  0.92444410  1
  O  O84  1  0.91632149  0.75000000  0.80675310  1
  O  O85  1  0.50021788  0.25000000  0.81516233  1
  O  O86  1  0.52734360  0.25000000  0.07555590  1
  O  O87  1  0.22088527  0.52234288  0.53279367  1
  O  O88  1  0.05399561  0.75000000  0.33157433  1
  O  O89  1  0.94600439  0.25000000  0.83157433  1
  O  O90  1  0.49978212  0.75000000  0.31516233  1
  O  O91  1  0.22088527  0.52234288  0.96720633  1
  O  O92  1  0.86079151  0.75000000  0.53628350  1
  O  O93  1  0.68179438  0.96778544  0.75000000  1
  O  O94  1  0.51634920  0.25000000  0.52237995  1
  O  O95  1  0.28900215  0.25000000  0.60081375  1
  O  O96  1  0.90621970  0.25000000  0.10913697  1
  O  O97  1  0.71099785  0.75000000  0.39918625  1
  O  O98  1  0.22144295  0.51434700  0.67822483  1
  O  O99  1  0.74975218  0.96805171  0.88528860  1
