# generated using pymatgen
data_Lu2Si5Ru3
_symmetry_space_group_name_H-M   'P 1'
_cell_length_a   5.57166289
_cell_length_b   10.68957768
_cell_length_c   10.68957768
_cell_angle_alpha   90.00000000
_cell_angle_beta   90.00000000
_cell_angle_gamma   90.00000000
_symmetry_Int_Tables_number   1
_chemical_formula_structural   Lu2Si5Ru3
_chemical_formula_sum   'Lu8 Si20 Ru12'
_cell_volume   636.65759891
_cell_formula_units_Z   4
loop_
 _symmetry_equiv_pos_site_id
 _symmetry_equiv_pos_as_xyz
  1  'x, y, z'
loop_
 _atom_site_type_symbol
 _atom_site_label
 _atom_site_symmetry_multiplicity
 _atom_site_fract_x
 _atom_site_fract_y
 _atom_site_fract_z
 _atom_site_occupancy
  Lu  Lu0  1  0.50000000  0.73618303  0.56968439  1
  Lu  Lu1  1  0.50000000  0.26381697  0.43031561  1
  Lu  Lu2  1  -0.00000000  0.76381697  0.06968439  1
  Lu  Lu3  1  -0.00000000  0.23618303  0.93031561  1
  Lu  Lu4  1  0.50000000  0.56968439  0.26381697  1
  Lu  Lu5  1  0.50000000  0.43031561  0.73618303  1
  Lu  Lu6  1  -0.00000000  0.06968439  0.23618303  1
  Lu  Lu7  1  -0.00000000  0.93031561  0.76381697  1
  Si  Si8  1  0.25000000  0.17525937  0.67525937  1
  Si  Si9  1  0.25000000  0.82474063  0.32474063  1
  Si  Si10  1  0.75000000  0.32474063  0.17525937  1
  Si  Si11  1  0.75000000  0.67525937  0.82474063  1
  Si  Si12  1  0.25000000  0.67525937  0.82474063  1
  Si  Si13  1  0.25000000  0.32474063  0.17525937  1
  Si  Si14  1  0.75000000  0.17525937  0.67525937  1
  Si  Si15  1  0.75000000  0.82474063  0.32474063  1
  Si  Si16  1  0.25531740  0.50000000  0.50000000  1
  Si  Si17  1  0.75531740  -0.00000000  -0.00000000  1
  Si  Si18  1  0.74468260  0.50000000  0.50000000  1
  Si  Si19  1  0.24468260  0.00000000  -0.00000000  1
  Si  Si20  1  0.50000000  0.97414403  0.68047066  1
  Si  Si21  1  0.50000000  0.02585597  0.31952934  1
  Si  Si22  1  -0.00000000  0.52585597  0.18047066  1
  Si  Si23  1  -0.00000000  0.47414403  0.81952934  1
  Si  Si24  1  0.50000000  0.68047066  0.02585597  1
  Si  Si25  1  0.50000000  0.31952934  0.97414403  1
  Si  Si26  1  -0.00000000  0.18047066  0.47414403  1
  Si  Si27  1  -0.00000000  0.81952934  0.52585597  1
  Ru  Ru28  1  0.25000000  0.00000000  0.50000000  1
  Ru  Ru29  1  0.75000000  0.50000000  -0.00000000  1
  Ru  Ru30  1  0.25000000  0.50000000  -0.00000000  1
  Ru  Ru31  1  0.75000000  -0.00000000  0.50000000  1
  Ru  Ru32  1  0.50000000  0.85602710  0.87461241  1
  Ru  Ru33  1  0.50000000  0.14397290  0.12538759  1
  Ru  Ru34  1  -0.00000000  0.64397290  0.37461241  1
  Ru  Ru35  1  -0.00000000  0.35602710  0.62538759  1
  Ru  Ru36  1  0.50000000  0.87461241  0.14397290  1
  Ru  Ru37  1  0.50000000  0.12538759  0.85602710  1
  Ru  Ru38  1  -0.00000000  0.37461241  0.35602710  1
  Ru  Ru39  1  -0.00000000  0.62538759  0.64397290  1
