# generated using pymatgen
data_NaLuGeO4
_symmetry_space_group_name_H-M   'P 1'
_cell_length_a   5.28250128
_cell_length_b   6.38057601
_cell_length_c   11.32070188
_cell_angle_alpha   90.00000000
_cell_angle_beta   90.00000000
_cell_angle_gamma   90.00000000
_symmetry_Int_Tables_number   1
_chemical_formula_structural   NaLuGeO4
_chemical_formula_sum   'Na4 Lu4 Ge4 O16'
_cell_volume   381.56879579
_cell_formula_units_Z   4
loop_
 _symmetry_equiv_pos_site_id
 _symmetry_equiv_pos_as_xyz
  1  'x, y, z'
loop_
 _atom_site_type_symbol
 _atom_site_label
 _atom_site_symmetry_multiplicity
 _atom_site_fract_x
 _atom_site_fract_y
 _atom_site_fract_z
 _atom_site_occupancy
  O  O0  1  0.83349403  0.75000000  0.95302519  1
  O  O1  1  0.33349403  0.25000000  0.54697481  1
  O  O2  1  0.16650597  0.25000000  0.04697481  1
  O  O3  1  0.66650597  0.75000000  0.45302519  1
  O  O4  1  0.20788305  0.03971662  0.82270247  1
  O  O5  1  0.70788305  0.96028338  0.67729753  1
  O  O6  1  0.79211695  0.53971662  0.17729753  1
  O  O7  1  0.29211695  0.46028338  0.32270247  1
  O  O8  1  0.79211695  0.96028338  0.17729753  1
  O  O9  1  0.29211695  0.03971662  0.32270247  1
  O  O10  1  0.20788305  0.46028338  0.82270247  1
  O  O11  1  0.70788305  0.53971662  0.67729753  1
  O  O12  1  0.22139187  0.75000000  0.61300359  1
  O  O13  1  0.72139187  0.25000000  0.88699641  1
  O  O14  1  0.77860813  0.25000000  0.38699641  1
  O  O15  1  0.27860813  0.75000000  0.11300359  1
  Na  Na16  1  0.50000000  0.50000000  0.00000000  1
  Na  Na17  1  0.00000000  0.50000000  0.50000000  1
  Na  Na18  1  0.50000000  0.00000000  0.00000000  1
  Na  Na19  1  0.00000000  0.00000000  0.50000000  1
  Ge  Ge20  1  0.94977034  0.75000000  0.09907968  1
  Ge  Ge21  1  0.44977034  0.25000000  0.40092032  1
  Ge  Ge22  1  0.05022966  0.25000000  0.90092032  1
  Ge  Ge23  1  0.55022966  0.75000000  0.59907968  1
  Lu  Lu24  1  0.99371423  0.75000000  0.77652304  1
  Lu  Lu25  1  0.49371423  0.25000000  0.72347696  1
  Lu  Lu26  1  0.00628577  0.25000000  0.22347696  1
  Lu  Lu27  1  0.50628577  0.75000000  0.27652304  1
