# generated using pymatgen
data_NaLa(PO3)4
_symmetry_space_group_name_H-M   'P 1'
_cell_length_a   7.36023134
_cell_length_b   10.18386845
_cell_length_c   13.42166584
_cell_angle_alpha   90.00000000
_cell_angle_beta   90.00000000
_cell_angle_gamma   90.29245775
_symmetry_Int_Tables_number   1
_chemical_formula_structural   NaLa(PO3)4
_chemical_formula_sum   'Na4 La4 P16 O48'
_cell_volume   1006.01628197
_cell_formula_units_Z   4
loop_
 _symmetry_equiv_pos_site_id
 _symmetry_equiv_pos_as_xyz
  1  'x, y, z'
loop_
 _atom_site_type_symbol
 _atom_site_label
 _atom_site_symmetry_multiplicity
 _atom_site_fract_x
 _atom_site_fract_y
 _atom_site_fract_z
 _atom_site_occupancy
  O  O0  1  0.07371516  0.70728571  0.61111892  1
  O  O1  1  0.42628484  0.79271429  0.11111892  1
  O  O2  1  0.92628484  0.29271429  0.38888108  1
  O  O3  1  0.57371516  0.20728571  0.88888108  1
  O  O4  1  0.68819054  0.60186043  0.64532382  1
  O  O5  1  0.81180946  0.89813957  0.14532382  1
  O  O6  1  0.31180946  0.39813957  0.35467618  1
  O  O7  1  0.18819054  0.10186043  0.85467618  1
  O  O8  1  0.21596790  0.40322019  0.60947326  1
  O  O9  1  0.28403210  0.09677981  0.10947326  1
  O  O10  1  0.78403210  0.59677981  0.39052674  1
  O  O11  1  0.71596790  0.90322019  0.89052674  1
  O  O12  1  0.07485413  0.16979192  0.62085158  1
  O  O13  1  0.42514587  0.33020808  0.12085158  1
  O  O14  1  0.92514587  0.83020808  0.37914842  1
  O  O15  1  0.57485413  0.66979192  0.87914842  1
  O  O16  1  0.32057474  0.83920219  0.86562155  1
  O  O17  1  0.40466154  0.20560408  0.66307192  1
  O  O18  1  0.17942526  0.66079781  0.36562155  1
  O  O19  1  0.82057474  0.33920219  0.63437845  1
  O  O20  1  0.78905447  0.13796589  0.52020793  1
  O  O21  1  0.71094553  0.36203411  0.02020793  1
  O  O22  1  0.21094553  0.86203411  0.47979207  1
  O  O23  1  0.28905447  0.63796589  0.97979207  1
  O  O24  1  0.78669432  0.71589339  0.01362436  1
  O  O25  1  0.71330568  0.78410661  0.51362436  1
  O  O26  1  0.21330568  0.28410661  0.98637564  1
  O  O27  1  0.28669432  0.21589339  0.48637564  1
  O  O28  1  0.75639546  0.41341241  0.83998435  1
  O  O29  1  0.74360454  0.08658759  0.33998435  1
  O  O30  1  0.24360454  0.58658759  0.16001565  1
  O  O31  1  0.25639546  0.91341241  0.66001565  1
  O  O32  1  0.13203380  0.34538708  0.81401567  1
  O  O33  1  0.36796620  0.15461292  0.31401567  1
  O  O34  1  0.86796620  0.65461292  0.18598433  1
  O  O35  1  0.63203380  0.84538708  0.68598433  1
  O  O36  1  0.29014026  0.60212624  0.79521427  1
  O  O37  1  0.20985974  0.89787376  0.29521427  1
  O  O38  1  0.70985974  0.39787376  0.20478573  1
  O  O39  1  0.79014026  0.10212624  0.70478573  1
  O  O40  1  0.90955170  0.21130333  0.92034273  1
  O  O41  1  0.59044830  0.28869667  0.42034273  1
  O  O42  1  0.09044830  0.78869667  0.07965727  1
  O  O43  1  0.40955170  0.71130333  0.57965727  1
  O  O44  1  0.90466154  0.70560408  0.83692808  1
  O  O45  1  0.59533846  0.79439592  0.33692808  1
  O  O46  1  0.09533846  0.29439592  0.16307192  1
  O  O47  1  0.67942526  0.16079781  0.13437845  1
  Na  Na48  1  0.50030118  0.43528593  0.72103495  1
  Na  Na49  1  0.99969882  0.06471407  0.22103495  1
  Na  Na50  1  0.49969882  0.56471407  0.27896505  1
  Na  Na51  1  0.00030118  0.93528593  0.77896505  1
  P  P52  1  0.22865788  0.79975781  0.59014648  1
  P  P53  1  0.27134212  0.70024219  0.09014648  1
  P  P54  1  0.77134212  0.20024219  0.40985352  1
  P  P55  1  0.72865788  0.29975781  0.90985352  1
  P  P56  1  0.85842403  0.19495506  0.62594247  1
  P  P57  1  0.64157597  0.30504494  0.12594247  1
  P  P58  1  0.14157597  0.80504494  0.37405753  1
  P  P59  1  0.35842403  0.69495506  0.87405753  1
  P  P60  1  0.61769624  0.73378030  0.61370776  1
  P  P61  1  0.88230376  0.76621970  0.11370776  1
  P  P62  1  0.38230376  0.26621970  0.38629224  1
  P  P63  1  0.11769624  0.23378030  0.88629224  1
  P  P64  1  0.25193603  0.25829716  0.59983350  1
  P  P65  1  0.24806397  0.24170284  0.09983350  1
  P  P66  1  0.74806397  0.74170284  0.40016650  1
  P  P67  1  0.75193603  0.75829716  0.90016650  1
  La  La68  1  0.48682337  0.02224698  0.77954899  1
  La  La69  1  0.01317663  0.47775302  0.27954899  1
  La  La70  1  0.51317663  0.97775302  0.22045101  1
  La  La71  1  0.98682337  0.52224698  0.72045101  1
