# generated using pymatgen
data_Pr2C3
_symmetry_space_group_name_H-M   'P 1'
_cell_length_a   7.53443477
_cell_length_b   7.53443477
_cell_length_c   7.53443477
_cell_angle_alpha   109.47122066
_cell_angle_beta   109.47122067
_cell_angle_gamma   109.47122059
_symmetry_Int_Tables_number   1
_chemical_formula_structural   Pr2C3
_chemical_formula_sum   'Pr8 C12'
_cell_volume   329.25330340
_cell_formula_units_Z   4
loop_
 _symmetry_equiv_pos_site_id
 _symmetry_equiv_pos_as_xyz
  1  'x, y, z'
loop_
 _atom_site_type_symbol
 _atom_site_label
 _atom_site_symmetry_multiplicity
 _atom_site_fract_x
 _atom_site_fract_y
 _atom_site_fract_z
 _atom_site_occupancy
  C  C0  1  0.25000000  0.54867782  0.29867782  1
  C  C1  1  0.45132218  0.25000000  0.70132218  1
  C  C2  1  0.04867782  0.75000000  0.79867782  1
  C  C3  1  0.79867782  0.04867782  0.75000000  1
  C  C4  1  0.70132218  0.45132218  0.25000000  1
  C  C5  1  0.25000000  0.70132218  0.45132218  1
  C  C6  1  0.95132218  0.20132218  0.75000000  1
  C  C7  1  0.20132218  0.75000000  0.95132218  1
  C  C8  1  0.54867782  0.29867782  0.25000000  1
  C  C9  1  0.29867782  0.25000000  0.54867782  1
  C  C10  1  0.75000000  0.95132218  0.20132218  1
  C  C11  1  0.75000000  0.79867782  0.04867782  1
  Pr  Pr12  1  0.10348768  0.10348768  0.10348768  1
  Pr  Pr13  1  0.89651232  0.50000000  0.00000000  1
  Pr  Pr14  1  0.00000000  0.89651232  0.50000000  1
  Pr  Pr15  1  0.50000000  0.00000000  0.89651232  1
  Pr  Pr16  1  0.00000000  0.39651232  0.50000000  1
  Pr  Pr17  1  0.50000000  0.00000000  0.39651232  1
  Pr  Pr18  1  0.39651232  0.50000000  0.00000000  1
  Pr  Pr19  1  0.60348768  0.60348768  0.60348768  1
