# generated using pymatgen
data_MgAlPO5
_symmetry_space_group_name_H-M   'P 1'
_cell_length_a   5.51107394
_cell_length_b   7.18916423
_cell_length_c   10.47154354
_cell_angle_alpha   90.00000000
_cell_angle_beta   90.00000000
_cell_angle_gamma   98.52682403
_symmetry_Int_Tables_number   1
_chemical_formula_structural   MgAlPO5
_chemical_formula_sum   'Mg4 Al4 P4 O20'
_cell_volume   410.29683553
_cell_formula_units_Z   4
loop_
 _symmetry_equiv_pos_site_id
 _symmetry_equiv_pos_as_xyz
  1  'x, y, z'
loop_
 _atom_site_type_symbol
 _atom_site_label
 _atom_site_symmetry_multiplicity
 _atom_site_fract_x
 _atom_site_fract_y
 _atom_site_fract_z
 _atom_site_occupancy
  O  O0  1  0.68521659  0.11226319  0.54585741  1
  O  O1  1  0.81478341  0.88773681  0.04585741  1
  O  O2  1  0.31478341  0.88773681  0.45414259  1
  O  O3  1  0.18521659  0.11226319  0.95414259  1
  O  O4  1  0.94255388  0.91219860  0.31585079  1
  O  O5  1  0.55744612  0.08780140  0.81585079  1
  O  O6  1  0.05744612  0.08780140  0.68414921  1
  O  O7  1  0.44255388  0.91219860  0.18414921  1
  O  O8  1  0.60436214  0.28290936  0.01592578  1
  O  O9  1  0.89563786  0.71709064  0.51592578  1
  O  O10  1  0.39563786  0.71709064  0.98407422  1
  O  O11  1  0.10436214  0.28290936  0.48407422  1
  O  O12  1  0.25493279  0.26812077  0.21975533  1
  O  O13  1  0.24506721  0.73187923  0.71975533  1
  O  O14  1  0.74506721  0.73187923  0.78024467  1
  O  O15  1  0.75493279  0.26812077  0.28024467  1
  O  O16  1  0.61796685  0.60678550  0.17458667  1
  O  O17  1  0.88203315  0.39321450  0.67458667  1
  O  O18  1  0.38203315  0.39321450  0.82541333  1
  O  O19  1  0.11796685  0.60678550  0.32541333  1
  Mg  Mg20  1  0.11861547  0.01381547  0.14219057  1
  Mg  Mg21  1  0.38138453  0.98618453  0.64219057  1
  Mg  Mg22  1  0.88138453  0.98618453  0.85780943  1
  Mg  Mg23  1  0.61861547  0.01381547  0.35780943  1
  Al  Al24  1  0.55612114  0.35884038  0.17473413  1
  Al  Al25  1  0.94387886  0.64115962  0.67473413  1
  Al  Al26  1  0.44387886  0.64115962  0.82526587  1
  Al  Al27  1  0.05612114  0.35884038  0.32526587  1
  P  P28  1  0.56944435  0.78024951  0.09738223  1
  P  P29  1  0.93055565  0.21975049  0.59738223  1
  P  P30  1  0.43055565  0.21975049  0.90261777  1
  P  P31  1  0.06944435  0.78024951  0.40261777  1
