# generated using pymatgen
data_U5(B12Mo5)2
_symmetry_space_group_name_H-M   'P 1'
_cell_length_a   3.09938294
_cell_length_b   14.64970405
_cell_length_c   17.99326094
_cell_angle_alpha   90.00000000
_cell_angle_beta   90.00000000
_cell_angle_gamma   90.00000000
_symmetry_Int_Tables_number   1
_chemical_formula_structural   U5(B12Mo5)2
_chemical_formula_sum   'U10 B48 Mo20'
_cell_volume   816.98478325
_cell_formula_units_Z   2
loop_
 _symmetry_equiv_pos_site_id
 _symmetry_equiv_pos_as_xyz
  1  'x, y, z'
loop_
 _atom_site_type_symbol
 _atom_site_label
 _atom_site_symmetry_multiplicity
 _atom_site_fract_x
 _atom_site_fract_y
 _atom_site_fract_z
 _atom_site_occupancy
  U  U0  1  0.25000000  0.47465581  0.63613486  1
  U  U1  1  0.75000000  0.97792011  0.75000000  1
  U  U2  1  0.75000000  0.17605385  0.49500865  1
  U  U3  1  0.25000000  0.02207989  0.25000000  1
  U  U4  1  0.75000000  0.17605385  0.00499135  1
  U  U5  1  0.75000000  0.52534419  0.36386514  1
  U  U6  1  0.25000000  0.82394615  0.99500865  1
  U  U7  1  0.75000000  0.52534419  0.13613486  1
  U  U8  1  0.25000000  0.82394615  0.50499135  1
  U  U9  1  0.25000000  0.47465581  0.86386514  1
  B  B10  1  0.75000000  0.81165116  0.11859189  1
  B  B11  1  0.25000000  0.83247300  0.75000000  1
  B  B12  1  0.75000000  0.47224595  0.51374337  1
  B  B13  1  0.25000000  0.88906031  0.65587940  1
  B  B14  1  0.75000000  0.81165116  0.38140811  1
  B  B15  1  0.25000000  0.08632640  0.39467665  1
  B  B16  1  0.25000000  0.38595884  0.33727387  1
  B  B17  1  0.25000000  0.64107808  0.05717780  1
  B  B18  1  0.75000000  0.61404116  0.83727387  1
  B  B19  1  0.25000000  0.66318134  0.87529166  1
  B  B20  1  0.25000000  0.66318134  0.62470834  1
  B  B21  1  0.75000000  0.70323922  0.42690272  1
  B  B22  1  0.25000000  0.86456854  0.34913834  1
  B  B23  1  0.25000000  0.46000975  0.25000000  1
  B  B24  1  0.25000000  0.02143160  0.47951499  1
  B  B25  1  0.25000000  0.52775405  0.48625663  1
  B  B26  1  0.75000000  0.91367360  0.60532335  1
  B  B27  1  0.75000000  0.35892192  0.94282220  1
  B  B28  1  0.25000000  0.29676078  0.57309728  1
  B  B29  1  0.25000000  0.58112832  0.25000000  1
  B  B30  1  0.75000000  0.13543146  0.84913834  1
  B  B31  1  0.75000000  0.70323922  0.07309728  1
  B  B32  1  0.25000000  0.64107808  0.44282220  1
  B  B33  1  0.25000000  0.18834884  0.88140811  1
  B  B34  1  0.25000000  0.29676078  0.92690272  1
  B  B35  1  0.75000000  0.35892192  0.55717780  1
  B  B36  1  0.25000000  0.08632640  0.10532335  1
  B  B37  1  0.75000000  0.33681866  0.37529166  1
  B  B38  1  0.75000000  0.91367360  0.89467665  1
  B  B39  1  0.25000000  0.52775405  0.01374337  1
  B  B40  1  0.75000000  0.13543146  0.65086166  1
  B  B41  1  0.75000000  0.53999025  0.75000000  1
  B  B42  1  0.25000000  0.02143160  0.02048501  1
  B  B43  1  0.25000000  0.35927373  0.75000000  1
  B  B44  1  0.75000000  0.16752700  0.25000000  1
  B  B45  1  0.25000000  0.86456854  0.15086166  1
  B  B46  1  0.75000000  0.97856840  0.52048501  1
  B  B47  1  0.75000000  0.33681866  0.12470834  1
  B  B48  1  0.75000000  0.61404116  0.66272613  1
  B  B49  1  0.75000000  0.11093969  0.15587940  1
  B  B50  1  0.75000000  0.97856840  0.97951499  1
  B  B51  1  0.25000000  0.18834884  0.61859189  1
  B  B52  1  0.25000000  0.38595884  0.16272613  1
  B  B53  1  0.25000000  0.88906031  0.84412060  1
  B  B54  1  0.75000000  0.47224595  0.98625663  1
  B  B55  1  0.75000000  0.64072627  0.25000000  1
  B  B56  1  0.75000000  0.41887168  0.75000000  1
  B  B57  1  0.75000000  0.11093969  0.34412060  1
  Mo  Mo58  1  0.25000000  0.03318511  0.60601787  1
  Mo  Mo59  1  0.75000000  0.62802847  0.53704184  1
  Mo  Mo60  1  0.25000000  0.65414140  0.75000000  1
  Mo  Mo61  1  0.75000000  0.29051444  0.66991079  1
  Mo  Mo62  1  0.75000000  0.77491019  0.83773281  1
  Mo  Mo63  1  0.25000000  0.70948556  0.33008921  1
  Mo  Mo64  1  0.25000000  0.15483437  0.75000000  1
  Mo  Mo65  1  0.25000000  0.22508981  0.33773281  1
  Mo  Mo66  1  0.75000000  0.96681489  0.10601787  1
  Mo  Mo67  1  0.75000000  0.84516563  0.25000000  1
  Mo  Mo68  1  0.75000000  0.34585860  0.25000000  1
  Mo  Mo69  1  0.25000000  0.22508981  0.16226719  1
  Mo  Mo70  1  0.25000000  0.37197153  0.03704184  1
  Mo  Mo71  1  0.25000000  0.37197153  0.46295816  1
  Mo  Mo72  1  0.75000000  0.77491019  0.66226719  1
  Mo  Mo73  1  0.25000000  0.70948556  0.16991079  1
  Mo  Mo74  1  0.75000000  0.29051444  0.83008921  1
  Mo  Mo75  1  0.75000000  0.96681489  0.39398213  1
  Mo  Mo76  1  0.75000000  0.62802847  0.96295816  1
  Mo  Mo77  1  0.25000000  0.03318511  0.89398213  1
