# generated using pymatgen
data_Re(Se2Cl3)2
_symmetry_space_group_name_H-M   'P 1'
_cell_length_a   10.84081994
_cell_length_b   10.81721650
_cell_length_c   11.25220652
_cell_angle_alpha   89.99560242
_cell_angle_beta   89.99630846
_cell_angle_gamma   89.99871210
_symmetry_Int_Tables_number   1
_chemical_formula_structural   Re(Se2Cl3)2
_chemical_formula_sum   'Re4 Se16 Cl24'
_cell_volume   1319.51807968
_cell_formula_units_Z   4
loop_
 _symmetry_equiv_pos_site_id
 _symmetry_equiv_pos_as_xyz
  1  'x, y, z'
loop_
 _atom_site_type_symbol
 _atom_site_label
 _atom_site_symmetry_multiplicity
 _atom_site_fract_x
 _atom_site_fract_y
 _atom_site_fract_z
 _atom_site_occupancy
  Re  Re0  1  0.49991270  0.50006745  -0.00002140  1
  Re  Re1  1  0.50003804  0.99997075  0.50002133  1
  Re  Re2  1  0.00000494  0.00006233  0.99990612  1
  Re  Re3  1  0.00004360  0.49996626  0.49998733  1
  Se  Se4  1  0.97787057  0.89190752  0.39795394  1
  Se  Se5  1  0.02209504  0.10808429  0.60208177  1
  Se  Se6  1  0.07255151  0.41161167  0.09956748  1
  Se  Se7  1  0.52211547  0.10810348  0.89793549  1
  Se  Se8  1  0.47787358  0.60808841  0.39794717  1
  Se  Se9  1  0.42742464  0.58836356  0.59957628  1
  Se  Se10  1  0.47787748  0.89190736  0.10208653  1
  Se  Se11  1  0.92744711  0.58839354  0.90046465  1
  Se  Se12  1  0.07254383  0.08837643  0.40045369  1
  Se  Se13  1  0.02211530  0.39191335  0.89795134  1
  Se  Se14  1  0.57255728  0.41161915  0.40046589  1
  Se  Se15  1  0.97788631  0.60809394  0.10207544  1
  Se  Se16  1  0.92742551  0.91160612  0.59958309  1
  Se  Se17  1  0.57256995  0.08837648  0.09956114  1
  Se  Se18  1  0.42742540  0.91163273  0.90046615  1
  Se  Se19  1  0.52210242  0.39189747  0.60209025  1
  Cl  Cl20  1  0.65339265  0.15478257  0.52638993  1
  Cl  Cl21  1  0.11663852  0.58584833  0.34208612  1
  Cl  Cl22  1  0.34653069  0.65486374  0.02641451  1
  Cl  Cl23  1  0.61665885  0.91411524  0.34208693  1
  Cl  Cl24  1  0.39721051  0.12699957  0.36443121  1
  Cl  Cl25  1  0.88339357  0.08586007  0.84208165  1
  Cl  Cl26  1  0.60278915  0.62700043  0.86444208  1
  Cl  Cl27  1  0.84665897  0.65476023  0.47360779  1
  Cl  Cl28  1  0.89719794  0.37300865  0.36445638  1
  Cl  Cl29  1  0.11663655  0.91412550  0.15786502  1
  Cl  Cl30  1  0.10282030  0.87300520  0.86445602  1
  Cl  Cl31  1  0.39719026  0.37305857  0.13555623  1
  Cl  Cl32  1  0.60277509  0.87304089  0.63553269  1
  Cl  Cl33  1  0.10277346  0.62690670  0.63552614  1
  Cl  Cl34  1  0.88339667  0.41411865  0.65787383  1
  Cl  Cl35  1  0.34662482  0.84518922  0.47360485  1
  Cl  Cl36  1  0.38340793  0.08585473  0.65785911  1
  Cl  Cl37  1  0.15343397  0.15481863  0.97357433  1
  Cl  Cl38  1  0.38335273  0.41416319  0.84212805  1
  Cl  Cl39  1  0.65333667  0.34526287  0.97361151  1
  Cl  Cl40  1  0.61660305  0.58587708  0.15789144  1
  Cl  Cl41  1  0.84667288  0.84520865  0.02640264  1
  Cl  Cl42  1  0.89722849  0.12694766  0.13555224  1
  Cl  Cl43  1  0.15339562  0.34514137  0.52641562  1
