# generated using pymatgen
data_Ba3Bi6PbSe13
_symmetry_space_group_name_H-M   'P 1'
_cell_length_a   4.33408182
_cell_length_b   17.59451432
_cell_length_c   18.94102326
_cell_angle_alpha   90.63777161
_cell_angle_beta   90.00000000
_cell_angle_gamma   90.00000000
_symmetry_Int_Tables_number   1
_chemical_formula_structural   Ba3Bi6PbSe13
_chemical_formula_sum   'Ba6 Bi12 Pb2 Se26'
_cell_volume   1444.27841410
_cell_formula_units_Z   2
loop_
 _symmetry_equiv_pos_site_id
 _symmetry_equiv_pos_as_xyz
  1  'x, y, z'
loop_
 _atom_site_type_symbol
 _atom_site_label
 _atom_site_symmetry_multiplicity
 _atom_site_fract_x
 _atom_site_fract_y
 _atom_site_fract_z
 _atom_site_occupancy
  Ba  Ba0  1  0.25000000  0.74776867  0.73381219  1
  Ba  Ba1  1  0.75000000  0.73328920  0.17592214  1
  Ba  Ba2  1  0.75000000  0.25223133  0.26618781  1
  Ba  Ba3  1  0.25000000  0.48244315  0.65581936  1
  Ba  Ba4  1  0.75000000  0.51755685  0.34418064  1
  Ba  Ba5  1  0.25000000  0.26671080  0.82407786  1
  Bi  Bi6  1  0.75000000  0.91879366  0.57729831  1
  Bi  Bi7  1  0.25000000  0.08120634  0.42270169  1
  Bi  Bi8  1  0.25000000  0.32683610  0.47503264  1
  Bi  Bi9  1  0.25000000  0.10306314  0.02288824  1
  Bi  Bi10  1  0.25000000  0.50994618  0.11806828  1
  Bi  Bi11  1  0.75000000  0.89693686  0.97711176  1
  Bi  Bi12  1  0.25000000  0.82828580  0.38168759  1
  Bi  Bi13  1  0.75000000  0.49005382  0.88193172  1
  Bi  Bi14  1  0.75000000  0.31202376  0.04257885  1
  Bi  Bi15  1  0.75000000  0.17171420  0.61831241  1
  Bi  Bi16  1  0.75000000  0.67316390  0.52496736  1
  Bi  Bi17  1  0.25000000  0.68797624  0.95742115  1
  Pb  Pb18  1  0.75000000  0.98675520  0.24857431  1
  Pb  Pb19  1  0.25000000  0.01324480  0.75142569  1
  Se  Se20  1  0.25000000  0.57367424  0.48777377  1
  Se  Se21  1  0.25000000  0.80453247  0.55468411  1
  Se  Se22  1  0.75000000  0.19546753  0.44531589  1
  Se  Se23  1  0.75000000  0.72410383  0.36326982  1
  Se  Se24  1  0.75000000  0.62546750  0.66424809  1
  Se  Se25  1  0.25000000  0.10804552  0.27888262  1
  Se  Se26  1  0.25000000  0.81086850  0.05567896  1
  Se  Se27  1  0.25000000  0.86231561  0.23977800  1
  Se  Se28  1  0.25000000  0.39581439  0.96547205  1
  Se  Se29  1  0.25000000  0.03914563  0.58779839  1
  Se  Se30  1  0.75000000  0.42632576  0.51222623  1
  Se  Se31  1  0.25000000  0.60516746  0.23386512  1
  Se  Se32  1  0.75000000  0.89195448  0.72111738  1
  Se  Se33  1  0.25000000  0.57846667  0.82688618  1
  Se  Se34  1  0.25000000  0.27589617  0.63673018  1
  Se  Se35  1  0.75000000  0.18913150  0.94432104  1
  Se  Se36  1  0.75000000  0.42153333  0.17311382  1
  Se  Se37  1  0.75000000  0.76464572  0.87730458  1
  Se  Se38  1  0.75000000  0.13768439  0.76022200  1
  Se  Se39  1  0.75000000  0.39483254  0.76613488  1
  Se  Se40  1  0.25000000  0.37453250  0.33575191  1
  Se  Se41  1  0.75000000  0.01825234  0.08925330  1
  Se  Se42  1  0.75000000  0.60418561  0.03452795  1
  Se  Se43  1  0.25000000  0.98174766  0.91074670  1
  Se  Se44  1  0.25000000  0.23535428  0.12269542  1
  Se  Se45  1  0.75000000  0.96085437  0.41220161  1
