# generated using pymatgen
data_EuPaO4
_symmetry_space_group_name_H-M   'P 1'
_cell_length_a   7.74409792
_cell_length_b   10.22637786
_cell_length_c   6.67131369
_cell_angle_alpha   29.18643681
_cell_angle_beta   54.46076730
_cell_angle_gamma   40.72346715
_symmetry_Int_Tables_number   1
_chemical_formula_structural   EuPaO4
_chemical_formula_sum   'Eu2 Pa2 O8'
_cell_volume   162.63332047
_cell_formula_units_Z   2
loop_
 _symmetry_equiv_pos_site_id
 _symmetry_equiv_pos_as_xyz
  1  'x, y, z'
loop_
 _atom_site_type_symbol
 _atom_site_label
 _atom_site_symmetry_multiplicity
 _atom_site_fract_x
 _atom_site_fract_y
 _atom_site_fract_z
 _atom_site_occupancy
  Eu  Eu0  1  0.49989968  0.00017589  0.99942316  1
  Eu  Eu1  1  0.25006327  0.49994372  0.00003802  1
  Pa  Pa2  1  -0.00003230  0.00013956  -0.00006380  1
  Pa  Pa3  1  0.75009152  0.49977917  -0.00015968  1
  O  O4  1  0.10780638  0.01774943  0.23238877  1
  O  O5  1  0.64120403  0.98400477  0.26614040  1
  O  O6  1  0.37581390  0.98193422  0.76813967  1
  O  O7  1  0.37496859  0.51711220  0.23246243  1
  O  O8  1  0.10770951  0.51759819  0.73255658  1
  O  O9  1  0.87519788  0.01609736  0.73391885  1
  O  O10  1  0.87523790  0.48240085  0.26786940  1
  O  O11  1  0.64203964  0.48306463  0.76728622  1
