# generated using pymatgen
data_BaYAgSe3
_symmetry_space_group_name_H-M   'P 1'
_cell_length_a   4.29685098
_cell_length_b   7.48604287
_cell_length_c   10.81311942
_cell_angle_alpha   90.00000000
_cell_angle_beta   90.00000000
_cell_angle_gamma   106.67788555
_symmetry_Int_Tables_number   1
_chemical_formula_structural   BaYAgSe3
_chemical_formula_sum   'Ba2 Y2 Ag2 Se6'
_cell_volume   333.18764451
_cell_formula_units_Z   2
loop_
 _symmetry_equiv_pos_site_id
 _symmetry_equiv_pos_as_xyz
  1  'x, y, z'
loop_
 _atom_site_type_symbol
 _atom_site_label
 _atom_site_symmetry_multiplicity
 _atom_site_fract_x
 _atom_site_fract_y
 _atom_site_fract_z
 _atom_site_occupancy
  Se  Se0  1  0.63545589  0.27091178  0.55008766  1
  Se  Se1  1  0.36454411  0.72908822  0.44991234  1
  Se  Se2  1  0.36454411  0.72908822  0.05008766  1
  Se  Se3  1  0.92041095  0.84082190  0.75000000  1
  Se  Se4  1  0.07958905  0.15917810  0.25000000  1
  Se  Se5  1  0.63545589  0.27091178  0.94991234  1
  Y  Y6  1  0.00000000  0.00000000  0.00000000  1
  Y  Y7  1  0.00000000  0.00000000  0.50000000  1
  Ag  Ag8  1  0.46962548  0.93925095  0.25000000  1
  Ag  Ag9  1  0.53037452  0.06074905  0.75000000  1
  Ba  Ba10  1  0.75124575  0.50249150  0.25000000  1
  Ba  Ba11  1  0.24875425  0.49750850  0.75000000  1
