# generated using pymatgen
data_Th2Cu(PO4)3
_symmetry_space_group_name_H-M   'P 1'
_cell_length_a   6.79082039
_cell_length_b   7.12744019
_cell_length_c   11.55121421
_cell_angle_alpha   106.33606179
_cell_angle_beta   107.09422622
_cell_angle_gamma   90.00000000
_symmetry_Int_Tables_number   1
_chemical_formula_structural   Th2Cu(PO4)3
_chemical_formula_sum   'Th4 Cu2 P6 O24'
_cell_volume   510.73119873
_cell_formula_units_Z   2
loop_
 _symmetry_equiv_pos_site_id
 _symmetry_equiv_pos_as_xyz
  1  'x, y, z'
loop_
 _atom_site_type_symbol
 _atom_site_label
 _atom_site_symmetry_multiplicity
 _atom_site_fract_x
 _atom_site_fract_y
 _atom_site_fract_z
 _atom_site_occupancy
  O  O0  1  0.06572927  0.21145064  0.10449796  1
  O  O1  1  0.96123130  0.28854936  0.89550204  1
  O  O2  1  0.93427073  0.78854936  0.89550204  1
  O  O3  1  0.03876870  0.71145064  0.10449796  1
  O  O4  1  0.31194749  0.42710946  0.07059992  1
  O  O5  1  0.24134758  0.07289054  0.92940008  1
  O  O6  1  0.68805251  0.57289054  0.92940008  1
  O  O7  1  0.75865242  0.92710946  0.07059992  1
  O  O8  1  0.64232795  0.63797926  0.65891616  1
  O  O9  1  0.98341179  0.86202074  0.34108384  1
  O  O10  1  0.35767205  0.36202074  0.34108384  1
  O  O11  1  0.01658821  0.13797926  0.65891616  1
  O  O12  1  0.36823590  0.32234597  0.70808209  1
  O  O13  1  0.66015380  0.17765403  0.29191791  1
  O  O14  1  0.63176410  0.67765403  0.29191791  1
  O  O15  1  0.33984620  0.82234597  0.70808209  1
  O  O16  1  0.03203609  0.49178716  0.69426914  1
  O  O17  1  0.33776695  0.00821284  0.30573086  1
  O  O18  1  0.96796391  0.50821284  0.30573086  1
  O  O19  1  0.66223305  0.99178716  0.69426914  1
  O  O20  1  0.09957723  0.27581787  0.49553980  1
  O  O21  1  0.60403743  0.22418213  0.50446020  1
  O  O22  1  0.90042277  0.72418213  0.50446020  1
  O  O23  1  0.39596257  0.77581787  0.49553980  1
  P  P24  1  0.14098946  0.25000000  0.00000000  1
  P  P25  1  0.85901054  0.75000000  0.00000000  1
  P  P26  1  0.50122307  0.80506546  0.63705256  1
  P  P27  1  0.86417051  0.69493454  0.36294744  1
  P  P28  1  0.49877693  0.19493454  0.36294744  1
  P  P29  1  0.13582949  0.30506546  0.63705256  1
  Cu  Cu30  1  0.50000000  0.00000000  0.00000000  1
  Cu  Cu31  1  0.50000000  0.50000000  0.00000000  1
  Th  Th32  1  0.28635703  0.65696818  0.27983531  1
  Th  Th33  1  0.00652172  0.84303182  0.72016469  1
  Th  Th34  1  0.71364297  0.34303182  0.72016469  1
  Th  Th35  1  0.99347828  0.15696818  0.27983531  1
