# generated using pymatgen
data_Ba8CaY2U4O24
_symmetry_space_group_name_H-M   'P 1'
_cell_length_a   12.40363707
_cell_length_b   12.38854177
_cell_length_c   17.61684827
_cell_angle_alpha   90.00000000
_cell_angle_beta   90.00000000
_cell_angle_gamma   90.00000000
_symmetry_Int_Tables_number   1
_chemical_formula_structural   Ba8CaY2U4O24
_chemical_formula_sum   'Ba32 Ca4 Y8 U16 O96'
_cell_volume   2707.05733188
_cell_formula_units_Z   4
loop_
 _symmetry_equiv_pos_site_id
 _symmetry_equiv_pos_as_xyz
  1  'x, y, z'
loop_
 _atom_site_type_symbol
 _atom_site_label
 _atom_site_symmetry_multiplicity
 _atom_site_fract_x
 _atom_site_fract_y
 _atom_site_fract_z
 _atom_site_occupancy
  Ba  Ba0  1  0.50000000  0.26502688  0.11681231  1
  Ba  Ba1  1  0.50000000  0.26502688  0.88318769  1
  Ba  Ba2  1  0.76409420  0.50000000  0.61882401  1
  Ba  Ba3  1  0.23590580  0.50000000  0.38117599  1
  Ba  Ba4  1  0.50000000  0.73497312  0.88318769  1
  Ba  Ba5  1  0.50000000  0.73497312  0.11681231  1
  Ba  Ba6  1  -0.00000000  0.26808625  0.61650408  1
  Ba  Ba7  1  0.73896662  -0.00000000  0.61732078  1
  Ba  Ba8  1  -0.00000000  0.76204873  0.88238366  1
  Ba  Ba9  1  0.76409420  0.50000000  0.38117599  1
  Ba  Ba10  1  0.76971324  -0.00000000  0.11691107  1
  Ba  Ba11  1  0.76971324  -0.00000000  0.88308893  1
  Ba  Ba12  1  0.25959581  0.50000000  0.12011554  1
  Ba  Ba13  1  -0.00000000  0.73191375  0.61650408  1
  Ba  Ba14  1  0.26103338  -0.00000000  0.61732078  1
  Ba  Ba15  1  -0.00000000  0.73191375  0.38349592  1
  Ba  Ba16  1  -0.00000000  0.26808625  0.38349592  1
  Ba  Ba17  1  0.50000000  0.76797070  0.61779932  1
  Ba  Ba18  1  0.50000000  0.76797070  0.38220068  1
  Ba  Ba19  1  -0.00000000  0.23795127  0.11761634  1
  Ba  Ba20  1  0.25959581  0.50000000  0.87988446  1
  Ba  Ba21  1  0.50000000  0.23202930  0.38220068  1
  Ba  Ba22  1  0.23590580  0.50000000  0.61882401  1
  Ba  Ba23  1  0.50000000  0.23202930  0.61779932  1
  Ba  Ba24  1  0.73896662  -0.00000000  0.38267922  1
  Ba  Ba25  1  0.74040419  0.50000000  0.12011554  1
  Ba  Ba26  1  0.23028676  -0.00000000  0.11691107  1
  Ba  Ba27  1  0.74040419  0.50000000  0.87988446  1
  Ba  Ba28  1  0.26103338  -0.00000000  0.38267922  1
  Ba  Ba29  1  -0.00000000  0.23795127  0.88238366  1
  Ba  Ba30  1  -0.00000000  0.76204873  0.11761634  1
  Ba  Ba31  1  0.23028676  -0.00000000  0.88308893  1
  Ca  Ca32  1  0.50000000  0.50000000  0.50000000  1
  Ca  Ca33  1  -0.00000000  -0.00000000  0.50000000  1
  Ca  Ca34  1  0.50000000  -0.00000000  0.00000000  1
  Ca  Ca35  1  -0.00000000  0.50000000  0.00000000  1
  Y  Y36  1  0.75024934  0.24958023  0.25000252  1
  Y  Y37  1  0.24975066  0.75041977  0.25000252  1
  Y  Y38  1  0.75024934  0.75041977  0.25000252  1
  Y  Y39  1  0.24975066  0.75041977  0.74999748  1
  Y  Y40  1  0.24975066  0.24958023  0.74999748  1
  Y  Y41  1  0.75024934  0.75041977  0.74999748  1
  Y  Y42  1  0.24975066  0.24958023  0.25000252  1
  Y  Y43  1  0.75024934  0.24958023  0.74999748  1
  U  U44  1  0.50000000  0.50000000  0.74678709  1
  U  U45  1  -0.00000000  -0.00000000  0.74682664  1
  U  U46  1  0.75108109  0.74882555  0.50000000  1
  U  U47  1  0.24891891  0.25117445  0.50000000  1
  U  U48  1  0.50000000  0.50000000  0.25321291  1
  U  U49  1  0.24891891  0.74882555  0.50000000  1
  U  U50  1  -0.00000000  0.50000000  0.75378421  1
  U  U51  1  -0.00000000  -0.00000000  0.25317336  1
  U  U52  1  0.75127958  0.25039865  0.00000000  1
  U  U53  1  0.50000000  -0.00000000  0.75299455  1
  U  U54  1  0.75127958  0.74960135  0.00000000  1
  U  U55  1  0.24872042  0.74960135  0.00000000  1
  U  U56  1  0.75108109  0.25117445  0.50000000  1
  U  U57  1  0.50000000  -0.00000000  0.24700545  1
  U  U58  1  -0.00000000  0.50000000  0.24621579  1
  U  U59  1  0.24872042  0.25039865  0.00000000  1
  O  O60  1  0.37782769  0.62133385  0.75173826  1
  O  O61  1  0.63118709  0.63129127  0.50000000  1
  O  O62  1  0.75456535  0.74717083  0.37744885  1
  O  O63  1  0.87808965  0.12038358  0.75236187  1
  O  O64  1  0.12759404  0.36684574  0.00000000  1
  O  O65  1  0.36881291  0.36870873  0.50000000  1
  O  O66  1  0.12191035  0.12038358  0.24763813  1
  O  O67  1  0.87932476  0.37856136  0.25062580  1
  O  O68  1  -0.00000000  0.50000000  0.63882377  1
  O  O69  1  0.13561636  0.86669608  0.00000000  1
  O  O70  1  0.36291408  0.86556124  0.50000000  1
  O  O71  1  0.13063454  0.13143724  0.50000000  1
  O  O72  1  0.37915087  0.12212751  0.25325520  1
  O  O73  1  0.12759404  0.63315426  0.00000000  1
  O  O74  1  0.13401429  0.36677058  0.50000000  1
  O  O75  1  0.50000000  -0.00000000  0.36167439  1
  O  O76  1  0.12191035  0.12038358  0.75236187  1
  O  O77  1  0.87808965  0.12038358  0.24763813  1
  O  O78  1  0.87240596  0.36684574  0.00000000  1
  O  O79  1  -0.00000000  0.50000000  0.13109655  1
  O  O80  1  0.87932476  0.37856136  0.74937420  1
  O  O81  1  0.50000000  -0.00000000  0.86772165  1
  O  O82  1  0.37915087  0.12212751  0.74674480  1
  O  O83  1  0.86438364  0.13330392  0.00000000  1
  O  O84  1  0.12067524  0.62143864  0.74937420  1
  O  O85  1  0.63708592  0.13443876  0.50000000  1
  O  O86  1  0.63708592  0.86556124  0.50000000  1
  O  O87  1  -0.00000000  0.50000000  0.36117623  1
  O  O88  1  0.86598571  0.36677058  0.50000000  1
  O  O89  1  0.24612688  0.25181522  0.12266887  1
  O  O90  1  0.87808965  0.87961642  0.75236187  1
  O  O91  1  0.86598571  0.63322942  0.50000000  1
  O  O92  1  0.36881291  0.63129127  0.50000000  1
  O  O93  1  0.62217231  0.62133385  0.75173826  1
  O  O94  1  0.87240596  0.63315426  0.00000000  1
  O  O95  1  0.63832893  0.36737441  0.00000000  1
  O  O96  1  0.75387312  0.25181522  0.12266887  1
  O  O97  1  0.50000000  0.50000000  0.63216628  1
  O  O98  1  0.50000000  0.50000000  0.86100941  1
  O  O99  1  0.50000000  0.50000000  0.13899059  1
  O  O100  1  0.62084913  0.87787249  0.74674480  1
  O  O101  1  0.12067524  0.62143864  0.25062580  1
  O  O102  1  0.12191035  0.87961642  0.75236187  1
  O  O103  1  0.50000000  -0.00000000  0.13227835  1
  O  O104  1  0.86936546  0.13143724  0.50000000  1
  O  O105  1  0.13401429  0.63322942  0.50000000  1
  O  O106  1  0.12191035  0.87961642  0.24763813  1
  O  O107  1  0.75387312  0.74818478  0.87733113  1
  O  O108  1  0.62999013  0.13320910  0.00000000  1
  O  O109  1  0.37782769  0.37866615  0.75173826  1
  O  O110  1  -0.00000000  -0.00000000  0.63155816  1
  O  O111  1  0.62217231  0.62133385  0.24826174  1
  O  O112  1  0.37915087  0.87787249  0.74674480  1
  O  O113  1  0.37000987  0.86679090  0.00000000  1
  O  O114  1  0.24612688  0.74818478  0.87733113  1
  O  O115  1  0.13561636  0.13330392  0.00000000  1
  O  O116  1  0.37915087  0.87787249  0.25325520  1
  O  O117  1  0.12067524  0.37856136  0.25062580  1
  O  O118  1  0.50000000  0.50000000  0.36783372  1
  O  O119  1  -0.00000000  0.50000000  0.86890345  1
  O  O120  1  0.36167107  0.36737441  0.00000000  1
  O  O121  1  0.75456535  0.25282917  0.62255115  1
  O  O122  1  0.86438364  0.86669608  0.00000000  1
  O  O123  1  0.63832893  0.63262559  0.00000000  1
  O  O124  1  -0.00000000  -0.00000000  0.36844184  1
  O  O125  1  0.62217231  0.37866615  0.75173826  1
  O  O126  1  -0.00000000  -0.00000000  0.86160530  1
  O  O127  1  0.87932476  0.62143864  0.74937420  1
  O  O128  1  0.62084913  0.12212751  0.74674480  1
  O  O129  1  0.13063454  0.86856276  0.50000000  1
  O  O130  1  0.36291408  0.13443876  0.50000000  1
  O  O131  1  0.24612688  0.74818478  0.12266887  1
  O  O132  1  0.75456535  0.74717083  0.62255115  1
  O  O133  1  0.24543465  0.25282917  0.62255115  1
  O  O134  1  0.87808965  0.87961642  0.24763813  1
  O  O135  1  0.86936546  0.86856276  0.50000000  1
  O  O136  1  0.36167107  0.63262559  0.00000000  1
  O  O137  1  0.24543465  0.25282917  0.37744885  1
  O  O138  1  0.75456535  0.25282917  0.37744885  1
  O  O139  1  0.37782769  0.62133385  0.24826174  1
  O  O140  1  0.37782769  0.37866615  0.24826174  1
  O  O141  1  0.24612688  0.25181522  0.87733113  1
  O  O142  1  0.24543465  0.74717083  0.37744885  1
  O  O143  1  0.62999013  0.86679090  0.00000000  1
  O  O144  1  0.62084913  0.12212751  0.25325520  1
  O  O145  1  0.75387312  0.25181522  0.87733113  1
  O  O146  1  -0.00000000  -0.00000000  0.13839470  1
  O  O147  1  0.37000987  0.13320910  0.00000000  1
  O  O148  1  0.12067524  0.37856136  0.74937420  1
  O  O149  1  0.75387312  0.74818478  0.12266887  1
  O  O150  1  0.62084913  0.87787249  0.25325520  1
  O  O151  1  0.87932476  0.62143864  0.25062580  1
  O  O152  1  0.63118709  0.36870873  0.50000000  1
  O  O153  1  0.62217231  0.37866615  0.24826174  1
  O  O154  1  0.50000000  -0.00000000  0.63832561  1
  O  O155  1  0.24543465  0.74717083  0.62255115  1
