# generated using pymatgen
data_NaLiZnP2O7
_symmetry_space_group_name_H-M   'P 1'
_cell_length_a   6.43472562
_cell_length_b   7.35148006
_cell_length_c   7.35148084
_cell_angle_alpha   118.00782892
_cell_angle_beta   90.00000000
_cell_angle_gamma   90.00000000
_symmetry_Int_Tables_number   1
_chemical_formula_structural   NaLiZnP2O7
_chemical_formula_sum   'Na2 Li2 Zn2 P4 O14'
_cell_volume   307.03155683
_cell_formula_units_Z   2
loop_
 _symmetry_equiv_pos_site_id
 _symmetry_equiv_pos_as_xyz
  1  'x, y, z'
loop_
 _atom_site_type_symbol
 _atom_site_label
 _atom_site_symmetry_multiplicity
 _atom_site_fract_x
 _atom_site_fract_y
 _atom_site_fract_z
 _atom_site_occupancy
  Na  Na0  1  0.25000000  0.24110153  0.24110153  1
  Na  Na1  1  0.75000000  0.75889847  0.75889847  1
  Li  Li2  1  0.00000000  0.21420885  0.78579115  1
  Li  Li3  1  0.50000000  0.78579115  0.21420885  1
  Zn  Zn4  1  0.00000000  0.78332620  0.21667380  1
  Zn  Zn5  1  0.50000000  0.21667380  0.78332620  1
  P  P6  1  0.25361426  0.57656784  0.80682171  1
  P  P7  1  0.24638574  0.80682171  0.57656784  1
  P  P8  1  0.74638574  0.19317829  0.42343216  1
  P  P9  1  0.75361426  0.42343216  0.19317829  1
  O  O10  1  0.04928596  0.67919153  0.91775222  1
  O  O11  1  0.04853855  0.91949953  0.67786937  1
  O  O12  1  0.25000000  0.58763716  0.58763716  1
  O  O13  1  0.24830247  0.34172737  0.73286032  1
  O  O14  1  0.25169753  0.73286032  0.34172736  1
  O  O15  1  0.45146145  0.67786937  0.91949953  1
  O  O16  1  0.45071404  0.91775222  0.67919153  1
  O  O17  1  0.54853855  0.08050047  0.32213063  1
  O  O18  1  0.54928596  0.32080847  0.08224778  1
  O  O19  1  0.75169753  0.26713968  0.65827264  1
  O  O20  1  0.75000000  0.41236284  0.41236284  1
  O  O21  1  0.74830247  0.65827263  0.26713968  1
  O  O22  1  0.95071404  0.08224778  0.32080847  1
  O  O23  1  0.95146145  0.32213063  0.08050047  1
