# generated using pymatgen
data_Na3La9B8O27
_symmetry_space_group_name_H-M   'P 1'
_cell_length_a   8.94996812
_cell_length_b   8.94996812
_cell_length_c   8.74446134
_cell_angle_alpha   90.00000000
_cell_angle_beta   90.00000000
_cell_angle_gamma   120.00000002
_symmetry_Int_Tables_number   1
_chemical_formula_structural   Na3La9B8O27
_chemical_formula_sum   'Na3 La9 B8 O27'
_cell_volume   606.60595602
_cell_formula_units_Z   1
loop_
 _symmetry_equiv_pos_site_id
 _symmetry_equiv_pos_as_xyz
  1  'x, y, z'
loop_
 _atom_site_type_symbol
 _atom_site_label
 _atom_site_symmetry_multiplicity
 _atom_site_fract_x
 _atom_site_fract_y
 _atom_site_fract_z
 _atom_site_occupancy
  B  B0  1  0.66666667  0.33333333  0.67618000  1
  B  B1  1  0.33333333  0.66666667  0.32382000  1
  B  B2  1  0.33333333  0.66666667  0.67618000  1
  B  B3  1  0.66666667  0.33333333  0.32382000  1
  B  B4  1  0.33333333  0.66666667  0.00000000  1
  B  B5  1  0.66666667  0.33333333  0.00000000  1
  B  B6  1  0.00000000  0.00000000  0.79011916  1
  B  B7  1  0.00000000  0.00000000  0.20988084  1
  O  O8  1  0.48671335  0.82110119  0.68184717  1
  O  O9  1  0.17889881  0.66561216  0.68184717  1
  O  O10  1  0.82110119  0.48671335  0.31815283  1
  O  O11  1  0.66561216  0.17889881  0.31815283  1
  O  O12  1  0.33438784  0.51328665  0.68184717  1
  O  O13  1  0.51328665  0.33438784  0.68184717  1
  O  O14  1  0.33438784  0.51328665  0.31815283  1
  O  O15  1  0.17889881  0.66561216  0.31815283  1
  O  O16  1  0.48671335  0.82110119  0.31815283  1
  O  O17  1  0.00000000  0.25706011  0.50000000  1
  O  O18  1  0.25706011  0.00000000  0.50000000  1
  O  O19  1  0.74293989  0.74293989  0.50000000  1
  O  O20  1  0.15540723  0.15540723  0.21217478  1
  O  O21  1  0.00000000  0.84459277  0.78782522  1
  O  O22  1  0.84459277  0.00000000  0.78782522  1
  O  O23  1  0.84459277  0.00000000  0.21217478  1
  O  O24  1  0.00000000  0.84459277  0.21217478  1
  O  O25  1  0.15540723  0.15540723  0.78782522  1
  O  O26  1  0.50470173  0.18275143  0.00000000  1
  O  O27  1  0.67804970  0.49529827  0.00000000  1
  O  O28  1  0.81724857  0.32195030  0.00000000  1
  O  O29  1  0.32195030  0.81724857  0.00000000  1
  O  O30  1  0.49529827  0.67804970  0.00000000  1
  O  O31  1  0.18275143  0.50470173  0.00000000  1
  O  O32  1  0.51328665  0.33438784  0.31815283  1
  O  O33  1  0.82110119  0.48671335  0.68184717  1
  O  O34  1  0.66561216  0.17889881  0.68184717  1
  Na  Na35  1  0.66797135  0.00000000  0.00000000  1
  Na  Na36  1  0.00000000  0.66797135  0.00000000  1
  Na  Na37  1  0.33202865  0.33202865  0.00000000  1
  La  La38  1  0.34881306  0.00000000  0.76593891  1
  La  La39  1  0.65118694  0.65118694  0.23406109  1
  La  La40  1  0.00000000  0.34881306  0.23406109  1
  La  La41  1  0.00000000  0.34881306  0.76593891  1
  La  La42  1  0.65118694  0.65118694  0.76593891  1
  La  La43  1  0.34881306  0.00000000  0.23406109  1
  La  La44  1  0.71743305  0.00000000  0.50000000  1
  La  La45  1  0.00000000  0.71743305  0.50000000  1
  La  La46  1  0.28256695  0.28256695  0.50000000  1
