# generated using pymatgen
data_Y3U2O10
_symmetry_space_group_name_H-M   'P 1'
_cell_length_a   18.98122775
_cell_length_b   10.10718239
_cell_length_c   6.67528459
_cell_angle_alpha   29.10746389
_cell_angle_beta   30.00630769
_cell_angle_gamma   18.66052414
_symmetry_Int_Tables_number   1
_chemical_formula_structural   Y3U2O10
_chemical_formula_sum   'Y3 U2 O10'
_cell_volume   193.22941607
_cell_formula_units_Z   1
loop_
 _symmetry_equiv_pos_site_id
 _symmetry_equiv_pos_as_xyz
  1  'x, y, z'
loop_
 _atom_site_type_symbol
 _atom_site_label
 _atom_site_symmetry_multiplicity
 _atom_site_fract_x
 _atom_site_fract_y
 _atom_site_fract_z
 _atom_site_occupancy
  Y  Y0  1  0.00158251  0.99931555  0.99284080  1
  Y  Y1  1  0.20088557  0.99801776  0.99943289  1
  Y  Y2  1  0.40064359  0.99711261  0.00381550  1
  U  U3  1  0.60184717  -0.00034457  0.99037038  1
  U  U4  1  0.79996126  0.99629047  0.00919901  1
  O  O5  1  0.08297498  0.28715776  0.23801136  1
  O  O6  1  0.31967985  0.22326038  0.24692348  1
  O  O7  1  0.08312409  0.77125660  0.75282615  1
  O  O8  1  0.51803257  0.21912713  0.25081529  1
  O  O9  1  0.31935616  0.70783216  0.76253044  1
  O  O10  1  0.70109384  0.23209822  0.26436614  1
  O  O11  1  0.51823321  0.71529047  0.75470470  1
  O  O12  1  0.88361441  0.27893529  0.24593141  1
  O  O13  1  0.70028951  0.76580284  0.73239849  1
  O  O14  1  0.88388029  0.77528933  0.74944896  1
