# generated using pymatgen
data_Ti6Co16Si7
_symmetry_space_group_name_H-M   'P 1'
_cell_length_a   7.85227454
_cell_length_b   7.85270245
_cell_length_c   7.85204083
_cell_angle_alpha   59.99099100
_cell_angle_beta   59.99615290
_cell_angle_gamma   59.99579153
_symmetry_Int_Tables_number   1
_chemical_formula_structural   Ti6Co16Si7
_chemical_formula_sum   'Ti6 Co16 Si7'
_cell_volume   342.31517476
_cell_formula_units_Z   1
loop_
 _symmetry_equiv_pos_site_id
 _symmetry_equiv_pos_as_xyz
  1  'x, y, z'
loop_
 _atom_site_type_symbol
 _atom_site_label
 _atom_site_symmetry_multiplicity
 _atom_site_fract_x
 _atom_site_fract_y
 _atom_site_fract_z
 _atom_site_occupancy
  Ti  Ti0  1  0.80150868  0.80147067  0.19849386  1
  Ti  Ti1  1  0.80148415  0.19847612  0.80151621  1
  Ti  Ti2  1  0.19851466  0.19848470  0.80153627  1
  Ti  Ti3  1  0.19849694  0.80151112  0.19848156  1
  Ti  Ti4  1  0.19851537  0.80144123  0.80151118  1
  Ti  Ti5  1  0.80150628  0.19850489  0.19852268  1
  Co  Co6  1  0.61871320  0.14387052  0.61870196  1
  Co  Co7  1  0.50010218  0.16661788  0.16663212  1
  Co  Co8  1  0.38127253  0.38133152  0.85610457  1
  Co  Co9  1  0.83339432  0.83337569  0.49985419  1
  Co  Co10  1  0.16664350  0.16661176  0.50009218  1
  Co  Co11  1  0.83336666  0.49990752  0.83338570  1
  Co  Co12  1  0.16661980  0.50014162  0.16660212  1
  Co  Co13  1  0.61869729  0.61870972  0.14391263  1
  Co  Co14  1  0.16664377  0.16663049  0.16663668  1
  Co  Co15  1  0.38130513  0.85608756  0.38130059  1
  Co  Co16  1  0.61867944  0.61873219  0.61869302  1
  Co  Co17  1  0.85610634  0.38132453  0.38126078  1
  Co  Co18  1  0.38129650  0.38131450  0.38126916  1
  Co  Co19  1  0.83338845  0.83335076  0.83339704  1
  Co  Co20  1  0.14390534  0.61872358  0.61870035  1
  Co  Co21  1  0.49986625  0.83336159  0.83339976  1
  Si  Si22  1  -0.00003630  0.50004558  0.49997521  1
  Si  Si23  1  0.50002905  0.99994117  0.50002312  1
  Si  Si24  1  0.50001189  0.50001948  0.50001329  1
  Si  Si25  1  -0.00000654  0.50002577  0.00000652  1
  Si  Si26  1  0.50000859  0.99997130  -0.00000200  1
  Si  Si27  1  0.49997644  0.50004082  -0.00002794  1
  Si  Si28  1  -0.00000992  0.99997573  0.50000721  1
