# generated using pymatgen
data_Ce3Si2S8Br
_symmetry_space_group_name_H-M   'P 1'
_cell_length_a   7.78009092
_cell_length_b   8.81677361
_cell_length_c   10.99693016
_cell_angle_alpha   96.69356541
_cell_angle_beta   90.00000000
_cell_angle_gamma   116.18108605
_symmetry_Int_Tables_number   1
_chemical_formula_structural   Ce3Si2S8Br
_chemical_formula_sum   'Ce6 Si4 S16 Br2'
_cell_volume   671.21139336
_cell_formula_units_Z   2
loop_
 _symmetry_equiv_pos_site_id
 _symmetry_equiv_pos_as_xyz
  1  'x, y, z'
loop_
 _atom_site_type_symbol
 _atom_site_label
 _atom_site_symmetry_multiplicity
 _atom_site_fract_x
 _atom_site_fract_y
 _atom_site_fract_z
 _atom_site_occupancy
  Ce  Ce0  1  0.39171671  0.00000000  0.75000000  1
  Ce  Ce1  1  0.31489030  0.39036487  0.18390806  1
  Ce  Ce2  1  0.68510970  0.60963513  0.81609194  1
  Ce  Ce3  1  0.07547457  0.39036487  0.68390806  1
  Ce  Ce4  1  0.92452543  0.60963513  0.31609194  1
  Ce  Ce5  1  0.60828329  0.00000000  0.25000000  1
  Si  Si6  1  0.37243639  0.68017251  0.47021814  1
  Si  Si7  1  0.69226388  0.31982749  0.02978186  1
  Si  Si8  1  0.30773612  0.68017251  0.97021814  1
  Si  Si9  1  0.62756361  0.31982749  0.52978186  1
  S  S10  1  0.44567753  0.70207705  0.66054749  1
  S  S11  1  0.89200957  0.28910447  0.14391210  1
  S  S12  1  0.14307403  0.43225152  0.41435191  1
  S  S13  1  0.60290510  0.71089553  0.35608790  1
  S  S14  1  0.85692597  0.56774848  0.58564809  1
  S  S15  1  0.74360048  0.29792295  0.83945251  1
  S  S16  1  0.28917748  0.43225152  0.91435191  1
  S  S17  1  0.39709490  0.28910447  0.64391210  1
  S  S18  1  0.55432247  0.29792295  0.33945251  1
  S  S19  1  0.71082252  0.56774848  0.08564809  1
  S  S20  1  0.59204041  0.86808789  0.95251137  1
  S  S21  1  0.27604748  0.86808789  0.45251137  1
  S  S22  1  0.72395252  0.13191211  0.54748863  1
  S  S23  1  0.25639952  0.70207705  0.16054749  1
  S  S24  1  0.10799043  0.71089553  0.85608790  1
  S  S25  1  0.40795959  0.13191211  0.04748863  1
  Br  Br26  1  0.00758956  0.00000000  0.25000000  1
  Br  Br27  1  0.99241044  0.00000000  0.75000000  1
