# generated using pymatgen
data_ZrAsPd
_symmetry_space_group_name_H-M   'P 1'
_cell_length_a   3.96142076
_cell_length_b   6.77649277
_cell_length_c   19.68646732
_cell_angle_alpha   89.99070572
_cell_angle_beta   89.99996779
_cell_angle_gamma   89.99990198
_symmetry_Int_Tables_number   1
_chemical_formula_structural   ZrAsPd
_chemical_formula_sum   'Zr10 As10 Pd10'
_cell_volume   528.47413557
_cell_formula_units_Z   10
loop_
 _symmetry_equiv_pos_site_id
 _symmetry_equiv_pos_as_xyz
  1  'x, y, z'
loop_
 _atom_site_type_symbol
 _atom_site_label
 _atom_site_symmetry_multiplicity
 _atom_site_fract_x
 _atom_site_fract_y
 _atom_site_fract_z
 _atom_site_occupancy
  Zr  Zr0  1  0.74999962  0.03134723  0.93068367  1
  Zr  Zr1  1  0.24999961  0.84496066  0.25003273  1
  Zr  Zr2  1  0.24999946  0.45549520  0.12782782  1
  Zr  Zr3  1  0.74999919  0.54469983  0.62788450  1
  Zr  Zr4  1  0.75000057  0.54459565  0.87210239  1
  Zr  Zr5  1  0.24999979  0.45534815  0.37218816  1
  Zr  Zr6  1  0.24999848  0.96874925  0.43082794  1
  Zr  Zr7  1  0.74999986  0.15500507  0.74996947  1
  Zr  Zr8  1  0.25000098  0.96865168  0.06925077  1
  Zr  Zr9  1  0.75000032  0.03125620  0.56923754  1
  As  As10  1  0.24999999  0.24629824  0.65101520  1
  As  As11  1  0.75000036  0.74713388  0.74997992  1
  As  As12  1  0.74999897  0.75367635  0.34902331  1
  As  As13  1  0.24999983  0.74433622  0.55228165  1
  As  As14  1  0.74999923  0.25561661  0.44777683  1
  As  As15  1  0.75000011  0.25555763  0.05220965  1
  As  As16  1  0.74999985  0.75366801  0.15102054  1
  As  As17  1  0.25000080  0.25289672  0.25002480  1
  As  As18  1  0.25000007  0.74438235  0.94772356  1
  As  As19  1  0.24999927  0.24633037  0.84894036  1
  Pd  Pd20  1  0.24999991  0.88087892  0.67408281  1
  Pd  Pd21  1  0.75000137  0.64612724  0.47276760  1
  Pd  Pd22  1  0.75000103  0.51127492  0.25005341  1
  Pd  Pd23  1  0.75000239  0.64610146  0.02722382  1
  Pd  Pd24  1  0.24999925  0.35387851  0.52730067  1
  Pd  Pd25  1  0.24999855  0.35390951  0.97269581  1
  Pd  Pd26  1  0.75000256  0.11913256  0.32595579  1
  Pd  Pd27  1  0.74999960  0.11916666  0.17410022  1
  Pd  Pd28  1  0.24999888  0.88083471  0.82586511  1
  Pd  Pd29  1  0.25000009  0.48869020  0.74995395  1
