# generated using pymatgen
data_Eu5Si(Cl3O2)2
_symmetry_space_group_name_H-M   'P 1'
_cell_length_a   8.35147531
_cell_length_b   8.35085212
_cell_length_c   11.15858520
_cell_angle_alpha   97.19724342
_cell_angle_beta   97.24275845
_cell_angle_gamma   114.66446351
_symmetry_Int_Tables_number   1
_chemical_formula_structural   Eu5Si(Cl3O2)2
_chemical_formula_sum   'Eu10 Si2 Cl12 O8'
_cell_volume   687.78388802
_cell_formula_units_Z   2
loop_
 _symmetry_equiv_pos_site_id
 _symmetry_equiv_pos_as_xyz
  1  'x, y, z'
loop_
 _atom_site_type_symbol
 _atom_site_label
 _atom_site_symmetry_multiplicity
 _atom_site_fract_x
 _atom_site_fract_y
 _atom_site_fract_z
 _atom_site_occupancy
  Eu  Eu0  1  0.57329834  0.73269015  0.13213162  1
  Eu  Eu1  1  0.42657653  0.26730804  0.86782071  1
  Eu  Eu2  1  0.26723587  0.42662090  0.36778378  1
  Eu  Eu3  1  0.73328225  0.57392067  0.63245124  1
  Eu  Eu4  1  0.69978963  0.30021907  0.24994842  1
  Eu  Eu5  1  0.92697813  0.18461131  0.98094910  1
  Eu  Eu6  1  0.81551372  0.07311568  0.51903160  1
  Eu  Eu7  1  0.18455704  0.92689859  0.48092251  1
  Eu  Eu8  1  0.07310350  0.81543404  0.01913045  1
  Eu  Eu9  1  0.30044633  0.69959437  0.74999700  1
  Si  Si10  1  0.92108589  0.07883387  0.24997578  1
  Si  Si11  1  0.07887940  0.92111455  0.75005151  1
  Cl  Cl12  1  0.77868134  0.48044398  0.04733780  1
  Cl  Cl13  1  0.22131441  0.51953078  0.95270099  1
  Cl  Cl14  1  0.74544314  0.25483814  0.74988727  1
  Cl  Cl15  1  0.35481794  0.29451809  0.13972978  1
  Cl  Cl16  1  0.25452526  0.74551385  0.25003858  1
  Cl  Cl17  1  0.29476850  0.35485496  0.63962724  1
  Cl  Cl18  1  0.51977958  0.22169769  0.45283554  1
  Cl  Cl19  1  0.48060432  0.77858924  0.54732056  1
  Cl  Cl20  1  0.99974269  0.49999721  0.50005733  1
  Cl  Cl21  1  0.70551746  0.64513769  0.36050248  1
  Cl  Cl22  1  0.64536216  0.70533085  0.86010449  1
  Cl  Cl23  1  0.50009467  0.00006523  0.00003869  1
  O  O24  1  0.89755947  0.93770201  0.12495142  1
  O  O25  1  0.93718793  0.89695646  0.62489063  1
  O  O26  1  0.72155688  0.02015994  0.28744793  1
  O  O27  1  0.06236546  0.10244119  0.37510308  1
  O  O28  1  0.27835433  0.97997445  0.71251878  1
  O  O29  1  0.97981905  0.27847337  0.21255153  1
  O  O30  1  0.01934862  0.72119284  0.78714550  1
  O  O31  1  0.10241017  0.06222078  0.87501667  1
