# generated using pymatgen
data_SrIn6Cu7
_symmetry_space_group_name_H-M   'P 1'
_cell_length_a   12.74960390
_cell_length_b   12.77591330
_cell_length_c   12.78380209
_cell_angle_alpha   90.00000000
_cell_angle_beta   90.00000000
_cell_angle_gamma   90.00000000
_symmetry_Int_Tables_number   1
_chemical_formula_structural   SrIn6Cu7
_chemical_formula_sum   'Sr8 In48 Cu56'
_cell_volume   2082.32583318
_cell_formula_units_Z   8
loop_
 _symmetry_equiv_pos_site_id
 _symmetry_equiv_pos_as_xyz
  1  'x, y, z'
loop_
 _atom_site_type_symbol
 _atom_site_label
 _atom_site_symmetry_multiplicity
 _atom_site_fract_x
 _atom_site_fract_y
 _atom_site_fract_z
 _atom_site_occupancy
  Sr  Sr0  1  0.50000000  0.00000000  0.75176212  1
  Sr  Sr1  1  0.50000000  0.00000000  0.24823788  1
  Sr  Sr2  1  0.00000000  0.50000000  0.74823788  1
  Sr  Sr3  1  0.00000000  0.50000000  0.25176212  1
  Sr  Sr4  1  0.00000000  0.00000000  0.24763949  1
  Sr  Sr5  1  0.50000000  0.50000000  0.25236051  1
  Sr  Sr6  1  0.00000000  0.00000000  0.75236051  1
  Sr  Sr7  1  0.50000000  0.50000000  0.74763949  1
  In  In8  1  0.56280481  0.25134841  0.63769760  1
  In  In9  1  0.56280481  0.25134841  0.36230240  1
  In  In10  1  0.93719519  0.75134841  0.86230240  1
  In  In11  1  0.56752800  0.38763518  0.00000000  1
  In  In12  1  0.74966802  0.08232662  0.86477560  1
  In  In13  1  0.06280481  0.24865159  0.13769760  1
  In  In14  1  0.56569673  0.75078464  0.86321835  1
  In  In15  1  0.25001067  0.04618830  0.63949320  1
  In  In16  1  0.56861848  0.88629182  0.50000000  1
  In  In17  1  0.43719519  0.74865159  0.36230240  1
  In  In18  1  0.06569673  0.74921536  0.63678165  1
  In  In19  1  0.75001067  0.45381170  0.13949320  1
  In  In20  1  0.93138152  0.38629182  0.00000000  1
  In  In21  1  0.11659699  0.56219967  0.50000000  1
  In  In22  1  0.61659699  0.93780033  0.00000000  1
  In  In23  1  0.93719519  0.75134841  0.13769760  1
  In  In24  1  0.06569673  0.74921536  0.36321835  1
  In  In25  1  0.25033198  0.91767338  0.86477560  1
  In  In26  1  0.06861848  0.61370818  0.00000000  1
  In  In27  1  0.75033198  0.58232662  0.63522440  1
  In  In28  1  0.25033198  0.91767338  0.13522440  1
  In  In29  1  0.61408819  0.43882971  0.50000000  1
  In  In30  1  0.43138152  0.11370818  0.50000000  1
  In  In31  1  0.25001067  0.04618830  0.36050680  1
  In  In32  1  0.06752800  0.11236482  0.50000000  1
  In  In33  1  0.06280481  0.24865159  0.86230240  1
  In  In34  1  0.38591181  0.56117029  0.50000000  1
  In  In35  1  0.88591181  0.93882971  0.00000000  1
  In  In36  1  0.43430327  0.24921536  0.13678165  1
  In  In37  1  0.43719519  0.74865159  0.63769760  1
  In  In38  1  0.75001067  0.45381170  0.86050680  1
  In  In39  1  0.43430327  0.24921536  0.86321835  1
  In  In40  1  0.74966802  0.08232662  0.13522440  1
  In  In41  1  0.24966802  0.41767338  0.63522440  1
  In  In42  1  0.24998933  0.54618830  0.13949320  1
  In  In43  1  0.24966802  0.41767338  0.36477560  1
  In  In44  1  0.93430327  0.25078464  0.63678165  1
  In  In45  1  0.75033198  0.58232662  0.36477560  1
  In  In46  1  0.88340301  0.43780033  0.50000000  1
  In  In47  1  0.56569673  0.75078464  0.13678165  1
  In  In48  1  0.93430327  0.25078464  0.36321835  1
  In  In49  1  0.93247200  0.88763518  0.50000000  1
  In  In50  1  0.74998933  0.95381170  0.36050680  1
  In  In51  1  0.43247200  0.61236482  0.00000000  1
  In  In52  1  0.38340301  0.06219967  0.00000000  1
  In  In53  1  0.11408819  0.06117029  0.00000000  1
  In  In54  1  0.74998933  0.95381170  0.63949320  1
  In  In55  1  0.24998933  0.54618830  0.86050680  1
  Cu  Cu56  1  0.14408320  0.41189529  0.00000000  1
  Cu  Cu57  1  0.24846321  0.13268508  0.17090484  1
  Cu  Cu58  1  0.64767595  0.76510642  0.67184066  1
  Cu  Cu59  1  0.25182063  0.73903321  0.50000000  1
  Cu  Cu60  1  0.85568775  0.76517000  0.67102131  1
  Cu  Cu61  1  0.75189587  0.75957332  0.50000000  1
  Cu  Cu62  1  0.91767307  0.15112777  0.00000000  1
  Cu  Cu63  1  0.64408320  0.08810471  0.50000000  1
  Cu  Cu64  1  0.14693847  0.91088442  0.50000000  1
  Cu  Cu65  1  0.85232405  0.26510642  0.17184066  1
  Cu  Cu66  1  0.57991734  0.14693495  0.00000000  1
  Cu  Cu67  1  0.75186705  0.65924228  0.82854931  1
  Cu  Cu68  1  0.25186705  0.84075772  0.67145069  1
  Cu  Cu69  1  0.35568775  0.73483000  0.17102131  1
  Cu  Cu70  1  0.64431225  0.26517000  0.82897869  1
  Cu  Cu71  1  0.25153679  0.63268508  0.32909516  1
  Cu  Cu72  1  0.74846321  0.36731492  0.67090484  1
  Cu  Cu73  1  0.85568775  0.76517000  0.32897869  1
  Cu  Cu74  1  0.35232405  0.23489358  0.32815934  1
  Cu  Cu75  1  0.74817937  0.26096679  0.50000000  1
  Cu  Cu76  1  0.25153679  0.63268508  0.67090484  1
  Cu  Cu77  1  0.14767595  0.73489358  0.17184066  1
  Cu  Cu78  1  0.25186705  0.84075772  0.32854931  1
  Cu  Cu79  1  0.24813295  0.34075772  0.82854931  1
  Cu  Cu80  1  0.24817937  0.23903321  0.00000000  1
  Cu  Cu81  1  0.14431225  0.23483000  0.32897869  1
  Cu  Cu82  1  0.75153679  0.86731492  0.82909516  1
  Cu  Cu83  1  0.85306153  0.08911558  0.50000000  1
  Cu  Cu84  1  0.35232405  0.23489358  0.67184066  1
  Cu  Cu85  1  0.74810413  0.25957332  0.00000000  1
  Cu  Cu86  1  0.74813295  0.15924228  0.67145069  1
  Cu  Cu87  1  0.75186705  0.65924228  0.17145069  1
  Cu  Cu88  1  0.74846321  0.36731492  0.32909516  1
  Cu  Cu89  1  0.35568775  0.73483000  0.82897869  1
  Cu  Cu90  1  0.64431225  0.26517000  0.17102131  1
  Cu  Cu91  1  0.24846321  0.13268508  0.82909516  1
  Cu  Cu92  1  0.85232405  0.26510642  0.82815934  1
  Cu  Cu93  1  0.75153679  0.86731492  0.17090484  1
  Cu  Cu94  1  0.24813295  0.34075772  0.17145069  1
  Cu  Cu95  1  0.35306153  0.41088442  0.00000000  1
  Cu  Cu96  1  0.07991734  0.35306505  0.50000000  1
  Cu  Cu97  1  0.08232693  0.84887223  0.00000000  1
  Cu  Cu98  1  0.41767307  0.34887223  0.50000000  1
  Cu  Cu99  1  0.58232693  0.65112777  0.50000000  1
  Cu  Cu100  1  0.75182063  0.76096679  0.00000000  1
  Cu  Cu101  1  0.42008266  0.85306505  0.00000000  1
  Cu  Cu102  1  0.25189587  0.74042668  0.00000000  1
  Cu  Cu103  1  0.74813295  0.15924228  0.32854931  1
  Cu  Cu104  1  0.24810413  0.24042668  0.50000000  1
  Cu  Cu105  1  0.64767595  0.76510642  0.32815934  1
  Cu  Cu106  1  0.14431225  0.23483000  0.67102131  1
  Cu  Cu107  1  0.35591680  0.91189529  0.50000000  1
  Cu  Cu108  1  0.92008266  0.64693495  0.50000000  1
  Cu  Cu109  1  0.14767595  0.73489358  0.82815934  1
  Cu  Cu110  1  0.85591680  0.58810471  0.00000000  1
  Cu  Cu111  1  0.64693847  0.58911558  0.00000000  1
