# generated using pymatgen
data_KLiB4O7
_symmetry_space_group_name_H-M   'P 1'
_cell_length_a   8.59424383
_cell_length_b   11.38175370
_cell_length_c   12.79573841
_cell_angle_alpha   90.00000000
_cell_angle_beta   90.00000000
_cell_angle_gamma   90.00000000
_symmetry_Int_Tables_number   1
_chemical_formula_structural   KLiB4O7
_chemical_formula_sum   'K8 Li8 B32 O56'
_cell_volume   1251.64799298
_cell_formula_units_Z   8
loop_
 _symmetry_equiv_pos_site_id
 _symmetry_equiv_pos_as_xyz
  1  'x, y, z'
loop_
 _atom_site_type_symbol
 _atom_site_label
 _atom_site_symmetry_multiplicity
 _atom_site_fract_x
 _atom_site_fract_y
 _atom_site_fract_z
 _atom_site_occupancy
  Li  Li0  1  0.74190760  0.67245662  0.79774281  1
  Li  Li1  1  0.24190760  0.82754338  0.20225719  1
  Li  Li2  1  0.25809240  0.17245662  0.70225719  1
  Li  Li3  1  0.75809240  0.32754338  0.29774281  1
  Li  Li4  1  0.07036386  0.64621213  0.88035611  1
  Li  Li5  1  0.57036386  0.85378787  0.11964389  1
  Li  Li6  1  0.92963614  0.14621213  0.61964389  1
  Li  Li7  1  0.42963614  0.35378787  0.38035611  1
  B  B8  1  0.34218394  0.72964212  0.99517694  1
  B  B9  1  0.84218394  0.77035788  0.00482306  1
  B  B10  1  0.65781606  0.22964212  0.50482306  1
  B  B11  1  0.15781606  0.27035788  0.49517694  1
  B  B12  1  0.41153550  0.60453574  0.84172519  1
  B  B13  1  0.91153550  0.89546426  0.15827481  1
  B  B14  1  0.58846450  0.10453574  0.65827481  1
  B  B15  1  0.08846450  0.39546426  0.34172519  1
  B  B16  1  0.21844503  0.43028203  0.83573296  1
  B  B17  1  0.71844503  0.06971797  0.16426704  1
  B  B18  1  0.78155497  0.93028203  0.66426704  1
  B  B19  1  0.28155497  0.56971797  0.33573296  1
  B  B20  1  0.05741007  0.25252260  0.81001797  1
  B  B21  1  0.55741007  0.24747740  0.18998203  1
  B  B22  1  0.94258993  0.75252260  0.68998203  1
  B  B23  1  0.44258993  0.74747740  0.31001797  1
  B  B24  1  0.00175746  0.38662602  0.96319719  1
  B  B25  1  0.50175746  0.11337398  0.03680281  1
  B  B26  1  0.99824254  0.88662602  0.53680281  1
  B  B27  1  0.49824254  0.61337398  0.46319719  1
  B  B28  1  0.98365736  0.36786720  0.15812504  1
  B  B29  1  0.48365736  0.13213280  0.84187496  1
  B  B30  1  0.01634264  0.86786720  0.34187496  1
  B  B31  1  0.51634264  0.63213280  0.65812504  1
  B  B32  1  0.78909119  0.48535248  0.06656532  1
  B  B33  1  0.28909119  0.01464752  0.93343468  1
  B  B34  1  0.21090881  0.98535248  0.43343468  1
  B  B35  1  0.71090881  0.51464752  0.56656532  1
  B  B36  1  0.60622612  0.63458491  0.98942563  1
  B  B37  1  0.10622612  0.86541509  0.01057437  1
  B  B38  1  0.39377388  0.13458491  0.51057437  1
  B  B39  1  0.89377388  0.36541509  0.48942563  1
  O  O40  1  0.29944564  0.67890812  0.90159660  1
  O  O41  1  0.79944564  0.82109188  0.09840340  1
  O  O42  1  0.70055436  0.17890812  0.59840340  1
  O  O43  1  0.20055436  0.32109188  0.40159660  1
  O  O44  1  0.46524862  0.67810902  0.75084688  1
  O  O45  1  0.96524862  0.82189098  0.24915312  1
  O  O46  1  0.53475138  0.17810902  0.74915312  1
  O  O47  1  0.03475138  0.32189098  0.25084688  1
  O  O48  1  0.33192103  0.50047209  0.79531002  1
  O  O49  1  0.83192103  0.99952791  0.20468998  1
  O  O50  1  0.66807897  0.00047209  0.70468998  1
  O  O51  1  0.16807897  0.49952791  0.29531002  1
  O  O52  1  0.19191319  0.32289795  0.78611806  1
  O  O53  1  0.69191319  0.17710205  0.21388194  1
  O  O54  1  0.80808681  0.82289795  0.71388194  1
  O  O55  1  0.30808681  0.67710205  0.28611806  1
  O  O56  1  0.03189605  0.15763657  0.75187074  1
  O  O57  1  0.53189605  0.34236343  0.24812926  1
  O  O58  1  0.96810395  0.65763657  0.74812926  1
  O  O59  1  0.46810395  0.84236343  0.25187074  1
  O  O60  1  0.96582239  0.28725638  0.89393713  1
  O  O61  1  0.46582239  0.21274362  0.10606287  1
  O  O62  1  0.03417761  0.78725638  0.60606287  1
  O  O63  1  0.53417761  0.71274362  0.39393713  1
  O  O64  1  0.12642456  0.46395629  0.91888022  1
  O  O65  1  0.62642456  0.03604371  0.08111978  1
  O  O66  1  0.87357544  0.96395629  0.58111978  1
  O  O67  1  0.37357544  0.53604371  0.41888022  1
  O  O68  1  0.86030472  0.45888948  0.97424260  1
  O  O69  1  0.36030472  0.04111052  0.02575740  1
  O  O70  1  0.13969528  0.95888948  0.52575740  1
  O  O71  1  0.63969528  0.54111052  0.47424260  1
  O  O72  1  0.05729453  0.34274625  0.06646231  1
  O  O73  1  0.55729453  0.15725375  0.93353769  1
  O  O74  1  0.94270547  0.84274625  0.43353769  1
  O  O75  1  0.44270547  0.65725375  0.56646231  1
  O  O76  1  0.84818759  0.43717380  0.16069918  1
  O  O77  1  0.34818759  0.06282620  0.83930082  1
  O  O78  1  0.15181241  0.93717380  0.33930082  1
  O  O79  1  0.65181241  0.56282620  0.66069918  1
  O  O80  1  0.66450731  0.55813205  0.07589507  1
  O  O81  1  0.16450731  0.94186795  0.92410493  1
  O  O82  1  0.33549269  0.05813205  0.42410493  1
  O  O83  1  0.83549269  0.44186795  0.57589507  1
  O  O84  1  0.53970823  0.56418933  0.90607032  1
  O  O85  1  0.03970823  0.93581067  0.09392968  1
  O  O86  1  0.46029177  0.06418933  0.59392968  1
  O  O87  1  0.96029177  0.43581067  0.40607032  1
  O  O88  1  0.73830568  0.70522042  0.94713184  1
  O  O89  1  0.23830568  0.79477958  0.05286816  1
  O  O90  1  0.26169432  0.20522042  0.55286816  1
  O  O91  1  0.76169432  0.29477958  0.44713184  1
  O  O92  1  0.48873942  0.71491265  0.03678208  1
  O  O93  1  0.98873942  0.78508735  0.96321792  1
  O  O94  1  0.51126058  0.21491265  0.46321792  1
  O  O95  1  0.01126058  0.28508735  0.53678208  1
  K  K96  1  0.36118841  0.45312932  0.09841824  1
  K  K97  1  0.86118841  0.04687068  0.90158176  1
  K  K98  1  0.63881159  0.95312932  0.40158176  1
  K  K99  1  0.13881159  0.54687068  0.59841824  1
  K  K100  1  0.68548244  0.37624249  0.80526175  1
  K  K101  1  0.18548244  0.12375751  0.19473825  1
  K  K102  1  0.31451756  0.87624249  0.69473825  1
  K  K103  1  0.81451756  0.62375751  0.30526175  1
