# generated using pymatgen
data_Sr2HoRuO6
_symmetry_space_group_name_H-M   'P 1'
_cell_length_a   5.80520931
_cell_length_b   5.86291124
_cell_length_c   8.23254745
_cell_angle_alpha   90.00000000
_cell_angle_beta   90.36636235
_cell_angle_gamma   90.00000000
_symmetry_Int_Tables_number   1
_chemical_formula_structural   Sr2HoRuO6
_chemical_formula_sum   'Sr4 Ho2 Ru2 O12'
_cell_volume   280.19253929
_cell_formula_units_Z   2
loop_
 _symmetry_equiv_pos_site_id
 _symmetry_equiv_pos_as_xyz
  1  'x, y, z'
loop_
 _atom_site_type_symbol
 _atom_site_label
 _atom_site_symmetry_multiplicity
 _atom_site_fract_x
 _atom_site_fract_y
 _atom_site_fract_z
 _atom_site_occupancy
  O  O0  1  0.42618847  0.01886491  0.73479165  1
  O  O1  1  0.07381153  0.51886491  0.76520835  1
  O  O2  1  0.57381153  0.98113509  0.26520835  1
  O  O3  1  0.92618847  0.48113509  0.23479165  1
  O  O4  1  0.69807135  0.72819156  0.54022811  1
  O  O5  1  0.80192865  0.22819156  0.95977189  1
  O  O6  1  0.30192865  0.27180844  0.45977189  1
  O  O7  1  0.19807135  0.77180844  0.04022811  1
  O  O8  1  0.27044248  0.29920162  0.03822328  1
  O  O9  1  0.22955752  0.79920162  0.46177672  1
  O  O10  1  0.72955752  0.70079838  0.96177672  1
  O  O11  1  0.77044248  0.20079838  0.53822328  1
  Sr  Sr12  1  0.00823719  0.03573786  0.24935043  1
  Sr  Sr13  1  0.49176281  0.53573786  0.25064957  1
  Sr  Sr14  1  0.50823719  0.46426214  0.74935043  1
  Sr  Sr15  1  0.99176281  0.96426214  0.75064957  1
  Ru  Ru16  1  0.50000000  0.00000000  0.50000000  1
  Ru  Ru17  1  0.00000000  0.50000000  0.00000000  1
  Ho  Ho18  1  0.00000000  0.50000000  0.50000000  1
  Ho  Ho19  1  0.50000000  0.00000000  0.00000000  1
