# generated using pymatgen
data_Ho2Si4CN6
_symmetry_space_group_name_H-M   'P 1'
_cell_length_a   5.93784917
_cell_length_b   9.98531374
_cell_length_c   10.35626559
_cell_angle_alpha   90.00000000
_cell_angle_beta   90.26342429
_cell_angle_gamma   90.00000000
_symmetry_Int_Tables_number   1
_chemical_formula_structural   Ho2Si4CN6
_chemical_formula_sum   'Ho8 Si16 C4 N24'
_cell_volume   614.02982467
_cell_formula_units_Z   4
loop_
 _symmetry_equiv_pos_site_id
 _symmetry_equiv_pos_as_xyz
  1  'x, y, z'
loop_
 _atom_site_type_symbol
 _atom_site_label
 _atom_site_symmetry_multiplicity
 _atom_site_fract_x
 _atom_site_fract_y
 _atom_site_fract_z
 _atom_site_occupancy
  C  C0  1  0.27099123  0.79132744  0.24699695  1
  C  C1  1  0.22900877  0.29132744  0.25300305  1
  C  C2  1  0.72900877  0.20867256  0.75300305  1
  C  C3  1  0.77099123  0.70867256  0.74699695  1
  N  N4  1  0.06644085  0.55303848  0.36408478  1
  N  N5  1  0.43355915  0.05303848  0.13591522  1
  N  N6  1  0.93355915  0.44696152  0.63591522  1
  N  N7  1  0.56644085  0.94696152  0.86408478  1
  N  N8  1  0.77388373  0.76165169  0.25378463  1
  N  N9  1  0.72611627  0.26165169  0.24621537  1
  N  N10  1  0.22611627  0.23834831  0.74621537  1
  N  N11  1  0.27388373  0.73834831  0.75378463  1
  N  N12  1  0.00425487  0.78888339  0.49917337  1
  N  N13  1  0.49574513  0.28888339  0.00082663  1
  N  N14  1  0.99574513  0.21111661  0.50082663  1
  N  N15  1  0.50425487  0.71111661  0.99917337  1
  N  N16  1  0.52185994  0.53533216  0.27726985  1
  N  N17  1  0.97814006  0.03533216  0.22273015  1
  N  N18  1  0.47814006  0.46466784  0.72273015  1
  N  N19  1  0.02185994  0.96466784  0.77726985  1
  N  N20  1  0.16063163  0.54420591  0.10062299  1
  N  N21  1  0.33936837  0.04420591  0.39937701  1
  N  N22  1  0.83936837  0.45579409  0.89937701  1
  N  N23  1  0.66063163  0.95579409  0.60062299  1
  N  N24  1  0.02722414  0.78559476  0.99081750  1
  N  N25  1  0.47277586  0.28559476  0.50918250  1
  N  N26  1  0.97277586  0.21440524  0.00918250  1
  N  N27  1  0.52722414  0.71440524  0.49081750  1
  Si  Si28  1  0.01941982  0.72644173  0.34121935  1
  Si  Si29  1  0.48058018  0.22644173  0.15878065  1
  Si  Si30  1  0.98058018  0.27355827  0.65878065  1
  Si  Si31  1  0.51941982  0.77355827  0.84121935  1
  Si  Si32  1  0.52483610  0.70516636  0.32376044  1
  Si  Si33  1  0.97516390  0.20516636  0.17623956  1
  Si  Si34  1  0.47516390  0.29483364  0.67623956  1
  Si  Si35  1  0.02483610  0.79483364  0.82376044  1
  Si  Si36  1  0.24330882  0.71217259  0.07938996  1
  Si  Si37  1  0.25669118  0.21217259  0.42061004  1
  Si  Si38  1  0.75669118  0.28782741  0.92061004  1
  Si  Si39  1  0.74330882  0.78782741  0.57938996  1
  Si  Si40  1  0.25362928  0.97920980  0.25009547  1
  Si  Si41  1  0.24637072  0.47920980  0.24990453  1
  Si  Si42  1  0.74637072  0.02079020  0.74990453  1
  Si  Si43  1  0.75362928  0.52079020  0.75009547  1
  Ho  Ho44  1  0.73707027  0.91198773  0.08317446  1
  Ho  Ho45  1  0.76292973  0.41198773  0.41682554  1
  Ho  Ho46  1  0.26292973  0.08801227  0.91682554  1
  Ho  Ho47  1  0.23707027  0.58801227  0.58317446  1
  Ho  Ho48  1  0.73438342  0.06880775  0.40631936  1
  Ho  Ho49  1  0.76561658  0.56880775  0.09368064  1
  Ho  Ho50  1  0.26561658  0.93119225  0.59368064  1
  Ho  Ho51  1  0.23438342  0.43119225  0.90631936  1
