# generated using pymatgen
data_CsK5Ru2O9
_symmetry_space_group_name_H-M   'P 1'
_cell_length_a   8.36327782
_cell_length_b   9.17014681
_cell_length_c   17.21324864
_cell_angle_alpha   90.00000000
_cell_angle_beta   90.00000000
_cell_angle_gamma   90.00000000
_symmetry_Int_Tables_number   1
_chemical_formula_structural   CsK5Ru2O9
_chemical_formula_sum   'Cs4 K20 Ru8 O36'
_cell_volume   1320.12682039
_cell_formula_units_Z   4
loop_
 _symmetry_equiv_pos_site_id
 _symmetry_equiv_pos_as_xyz
  1  'x, y, z'
loop_
 _atom_site_type_symbol
 _atom_site_label
 _atom_site_symmetry_multiplicity
 _atom_site_fract_x
 _atom_site_fract_y
 _atom_site_fract_z
 _atom_site_occupancy
  Cs  Cs0  1  0.25000000  0.75316813  0.27226382  1
  Cs  Cs1  1  0.25000000  0.74683187  0.77226382  1
  Cs  Cs2  1  0.75000000  0.24683187  0.72773618  1
  Cs  Cs3  1  0.75000000  0.25316813  0.22773618  1
  K  K4  1  0.98948705  0.02239023  0.39647939  1
  K  K5  1  0.98948705  0.47760977  0.89647939  1
  K  K6  1  0.51051295  0.47760977  0.89647939  1
  K  K7  1  0.99614436  0.96524207  0.10231764  1
  K  K8  1  0.48948705  0.97760977  0.60352061  1
  K  K9  1  0.75000000  0.74752814  0.97702575  1
  K  K10  1  0.25000000  0.24752814  0.52297425  1
  K  K11  1  0.48948705  0.52239023  0.10352061  1
  K  K12  1  0.00385564  0.46524207  0.39768236  1
  K  K13  1  0.50385564  0.53475793  0.60231764  1
  K  K14  1  0.51051295  0.02239023  0.39647939  1
  K  K15  1  0.99614436  0.53475793  0.60231764  1
  K  K16  1  0.01051295  0.97760977  0.60352061  1
  K  K17  1  0.25000000  0.25247186  0.02297425  1
  K  K18  1  0.49614436  0.03475793  0.89768236  1
  K  K19  1  0.00385564  0.03475793  0.89768236  1
  K  K20  1  0.49614436  0.46524207  0.39768236  1
  K  K21  1  0.75000000  0.75247186  0.47702575  1
  K  K22  1  0.01051295  0.52239023  0.10352061  1
  K  K23  1  0.50385564  0.96524207  0.10231764  1
  Ru  Ru24  1  0.75000000  0.24880161  0.00569683  1
  Ru  Ru25  1  0.75000000  0.25119839  0.50569683  1
  Ru  Ru26  1  0.25000000  0.29514483  0.75521434  1
  Ru  Ru27  1  0.75000000  0.79514483  0.74478566  1
  Ru  Ru28  1  0.25000000  0.20485517  0.25521434  1
  Ru  Ru29  1  0.25000000  0.75119839  0.99430317  1
  Ru  Ru30  1  0.75000000  0.70485517  0.24478566  1
  Ru  Ru31  1  0.25000000  0.74880161  0.49430317  1
  O  O32  1  0.43985296  0.75382134  0.94204169  1
  O  O33  1  0.25000000  0.53811377  0.99137085  1
  O  O34  1  0.93985296  0.25382134  0.55795831  1
  O  O35  1  0.25000000  0.23474963  0.85623108  1
  O  O36  1  0.42222726  0.08546282  0.24375024  1
  O  O37  1  0.56014704  0.24617866  0.05795831  1
  O  O38  1  0.75000000  0.03529282  0.00219622  1
  O  O39  1  0.25000000  0.26525037  0.35623108  1
  O  O40  1  0.06014704  0.75382134  0.94204169  1
  O  O41  1  0.75000000  0.25376032  0.89913502  1
  O  O42  1  0.25000000  0.53529282  0.49780378  1
  O  O43  1  0.25000000  0.96470718  0.99780378  1
  O  O44  1  0.93985296  0.24617866  0.05795831  1
  O  O45  1  0.07777274  0.41453718  0.74375024  1
  O  O46  1  0.92222726  0.58546282  0.25624976  1
  O  O47  1  0.75000000  0.64623969  0.81232520  1
  O  O48  1  0.75000000  0.46470718  0.50219622  1
  O  O49  1  0.25000000  0.96188623  0.49137085  1
  O  O50  1  0.75000000  0.03811377  0.50862915  1
  O  O51  1  0.43985296  0.74617866  0.44204169  1
  O  O52  1  0.75000000  0.73474963  0.64376892  1
  O  O53  1  0.57777274  0.58546282  0.25624976  1
  O  O54  1  0.75000000  0.24623968  0.39913502  1
  O  O55  1  0.75000000  0.76525037  0.14376892  1
  O  O56  1  0.57777274  0.91453718  0.75624976  1
  O  O57  1  0.75000000  0.46188623  0.00862915  1
  O  O58  1  0.25000000  0.35376031  0.18767480  1
  O  O59  1  0.07777274  0.08546282  0.24375024  1
  O  O60  1  0.92222726  0.91453718  0.75624976  1
  O  O61  1  0.25000000  0.75376032  0.60086498  1
  O  O62  1  0.25000000  0.74623968  0.10086498  1
  O  O63  1  0.25000000  0.14623969  0.68767480  1
  O  O64  1  0.56014704  0.25382134  0.55795831  1
  O  O65  1  0.06014704  0.74617866  0.44204169  1
  O  O66  1  0.75000000  0.85376031  0.31232520  1
  O  O67  1  0.42222726  0.41453718  0.74375024  1
