# generated using pymatgen
data_Cs2GeTe4
_symmetry_space_group_name_H-M   'P 1'
_cell_length_a   7.73777633
_cell_length_b   11.82321774
_cell_length_c   12.87657027
_cell_angle_alpha   90.00000000
_cell_angle_beta   90.00000000
_cell_angle_gamma   90.00000000
_symmetry_Int_Tables_number   1
_chemical_formula_structural   Cs2GeTe4
_chemical_formula_sum   'Cs8 Ge4 Te16'
_cell_volume   1178.01836685
_cell_formula_units_Z   4
loop_
 _symmetry_equiv_pos_site_id
 _symmetry_equiv_pos_as_xyz
  1  'x, y, z'
loop_
 _atom_site_type_symbol
 _atom_site_label
 _atom_site_symmetry_multiplicity
 _atom_site_fract_x
 _atom_site_fract_y
 _atom_site_fract_z
 _atom_site_occupancy
  Cs  Cs0  1  0.09817341  0.55566968  0.85430908  1
  Cs  Cs1  1  0.59817341  0.44433032  0.64569092  1
  Cs  Cs2  1  0.40182659  0.94433032  0.35430908  1
  Cs  Cs3  1  0.40182659  0.55566968  0.35430908  1
  Cs  Cs4  1  0.59817341  0.05566968  0.64569092  1
  Cs  Cs5  1  0.09817341  0.94433032  0.85430908  1
  Cs  Cs6  1  0.90182659  0.44433032  0.14569092  1
  Cs  Cs7  1  0.90182659  0.05566968  0.14569092  1
  Ge  Ge8  1  0.50708460  0.75000000  0.06319334  1
  Ge  Ge9  1  0.00708460  0.25000000  0.43680666  1
  Ge  Ge10  1  0.49291540  0.25000000  0.93680666  1
  Ge  Ge11  1  0.99291540  0.75000000  0.56319334  1
  Te  Te12  1  0.75710250  0.75000000  0.71108620  1
  Te  Te13  1  0.08595099  0.07736900  0.56712769  1
  Te  Te14  1  0.68293567  0.25000000  0.38188984  1
  Te  Te15  1  0.81706433  0.25000000  0.88188984  1
  Te  Te16  1  0.74289750  0.75000000  0.21108620  1
  Te  Te17  1  0.58595099  0.92263100  0.93287231  1
  Te  Te18  1  0.91404901  0.57736900  0.43287231  1
  Te  Te19  1  0.24289750  0.25000000  0.28891380  1
  Te  Te20  1  0.25710250  0.25000000  0.78891380  1
  Te  Te21  1  0.31706433  0.75000000  0.61811016  1
  Te  Te22  1  0.08595099  0.42263100  0.56712769  1
  Te  Te23  1  0.91404901  0.92263100  0.43287231  1
  Te  Te24  1  0.41404901  0.42263100  0.06712769  1
  Te  Te25  1  0.41404901  0.07736900  0.06712769  1
  Te  Te26  1  0.18293567  0.75000000  0.11811016  1
  Te  Te27  1  0.58595099  0.57736900  0.93287231  1
