# generated using pymatgen
data_La4B2CI5
_symmetry_space_group_name_H-M   'P 1'
_cell_length_a   4.31023811
_cell_length_b   12.10194641
_cell_length_c   15.69946293
_cell_angle_alpha   86.25155266
_cell_angle_beta   82.23207947
_cell_angle_gamma   79.92369075
_symmetry_Int_Tables_number   1
_chemical_formula_structural   La4B2CI5
_chemical_formula_sum   'La8 B4 C2 I10'
_cell_volume   798.15834215
_cell_formula_units_Z   2
loop_
 _symmetry_equiv_pos_site_id
 _symmetry_equiv_pos_as_xyz
  1  'x, y, z'
loop_
 _atom_site_type_symbol
 _atom_site_label
 _atom_site_symmetry_multiplicity
 _atom_site_fract_x
 _atom_site_fract_y
 _atom_site_fract_z
 _atom_site_occupancy
  La  La0  1  0.48852796  0.14773662  0.87706073  1
  La  La1  1  0.86773244  0.15443560  0.10329052  1
  La  La2  1  0.15371707  0.29284077  0.39657368  1
  La  La3  1  0.13087058  0.84325387  0.89803140  1
  La  La4  1  0.51260795  0.85083417  0.12377673  1
  La  La5  1  0.84710020  0.70605257  0.60368041  1
  La  La6  1  0.50038510  0.58251648  0.40830934  1
  La  La7  1  0.49291691  0.41684655  0.59155503  1
  B  B8  1  0.99690178  0.05465883  0.95268683  1
  B  B9  1  0.31489198  0.99980505  0.00076182  1
  B  B10  1  0.68604873  0.99861736  0.99993215  1
  B  B11  1  0.00453193  0.94366939  0.04811842  1
  C  C12  1  0.96173380  0.54751955  0.52374215  1
  C  C13  1  0.03281969  0.45188647  0.47584209  1
  I  I14  1  0.98531455  0.29578111  0.74007746  1
  I  I15  1  0.33803868  0.06686402  0.25570208  1
  I  I16  1  0.66258421  0.15864444  0.51658780  1
  I  I17  1  0.01663473  0.70216333  0.25957279  1
  I  I18  1  0.34229714  0.83970504  0.48281797  1
  I  I19  1  0.32459160  0.60715559  0.74656696  1
  I  I20  1  0.31605548  0.33940420  0.02334849  1
  I  I21  1  0.67403037  0.38976424  0.25340344  1
  I  I22  1  0.66364731  0.93138976  0.74538826  1
  I  I23  1  0.67805680  0.65789999  0.97847347  1
