# generated using pymatgen
data_Ca3La3(BO3)5
_symmetry_space_group_name_H-M   'P 1'
_cell_length_a   10.60468434
_cell_length_b   10.60468433
_cell_length_c   6.44457557
_cell_angle_alpha   90.00000000
_cell_angle_beta   90.00000000
_cell_angle_gamma   120.00000002
_symmetry_Int_Tables_number   1
_chemical_formula_structural   Ca3La3(BO3)5
_chemical_formula_sum   'Ca6 La6 B10 O30'
_cell_volume   627.65420621
_cell_formula_units_Z   2
loop_
 _symmetry_equiv_pos_site_id
 _symmetry_equiv_pos_as_xyz
  1  'x, y, z'
loop_
 _atom_site_type_symbol
 _atom_site_label
 _atom_site_symmetry_multiplicity
 _atom_site_fract_x
 _atom_site_fract_y
 _atom_site_fract_z
 _atom_site_occupancy
  B  B0  1  0.00000000  0.00000000  0.74616353  1
  B  B1  1  0.33333333  0.66666667  0.09817560  1
  B  B2  1  0.66666667  0.33333333  0.59817560  1
  B  B3  1  0.00000000  0.00000000  0.24616353  1
  B  B4  1  0.80206241  0.19793759  0.04781584  1
  B  B5  1  0.60412482  0.80206241  0.54781584  1
  B  B6  1  0.19793759  0.39587518  0.54781584  1
  B  B7  1  0.80206241  0.60412482  0.04781584  1
  B  B8  1  0.39587518  0.19793759  0.04781584  1
  B  B9  1  0.19793759  0.80206241  0.54781584  1
  O  O10  1  0.18085346  0.59042673  0.09750526  1
  O  O11  1  0.59042673  0.40957327  0.59750526  1
  O  O12  1  0.40957327  0.81914654  0.09750526  1
  O  O13  1  0.59042673  0.18085346  0.59750526  1
  O  O14  1  0.81914654  0.40957327  0.59750526  1
  O  O15  1  0.40957327  0.59042673  0.09750526  1
  O  O16  1  0.22593344  0.77406656  0.74503069  1
  O  O17  1  0.45186688  0.22593344  0.24503069  1
  O  O18  1  0.77406656  0.54813312  0.24503069  1
  O  O19  1  0.77406656  0.22593344  0.24503069  1
  O  O20  1  0.22593344  0.45186688  0.74503069  1
  O  O21  1  0.54813312  0.77406656  0.74503069  1
  O  O22  1  0.62819585  0.92842194  0.44633993  1
  O  O23  1  0.69977391  0.62819585  0.94633993  1
  O  O24  1  0.92842194  0.30022609  0.94633993  1
  O  O25  1  0.07157806  0.69977391  0.44633993  1
  O  O26  1  0.30022609  0.37180415  0.44633993  1
  O  O27  1  0.37180415  0.07157806  0.94633993  1
  O  O28  1  0.30022609  0.92842194  0.44633993  1
  O  O29  1  0.62819585  0.69977391  0.44633993  1
  O  O30  1  0.07157806  0.37180415  0.44633993  1
  O  O31  1  0.92842194  0.62819585  0.94633993  1
  O  O32  1  0.69977391  0.07157806  0.94633993  1
  O  O33  1  0.37180415  0.30022609  0.94633993  1
  O  O34  1  0.07529355  0.92470645  0.73952780  1
  O  O35  1  0.15058710  0.07529355  0.23952780  1
  O  O36  1  0.92470645  0.84941290  0.23952780  1
  O  O37  1  0.07529355  0.15058710  0.73952780  1
  O  O38  1  0.84941290  0.92470645  0.73952780  1
  O  O39  1  0.92470645  0.07529355  0.23952780  1
  Ca  Ca40  1  0.47301340  0.52698660  0.76418173  1
  Ca  Ca41  1  0.94602681  0.47301340  0.26418173  1
  Ca  Ca42  1  0.52698660  0.05397319  0.26418173  1
  Ca  Ca43  1  0.47301340  0.94602681  0.76418173  1
  Ca  Ca44  1  0.05397319  0.52698660  0.76418173  1
  Ca  Ca45  1  0.52698660  0.47301340  0.26418173  1
  La  La46  1  0.15561521  0.84438479  0.07951245  1
  La  La47  1  0.31123043  0.15561521  0.57951245  1
  La  La48  1  0.84438479  0.68876957  0.57951245  1
  La  La49  1  0.15561521  0.31123043  0.07951245  1
  La  La50  1  0.68876957  0.84438479  0.07951245  1
  La  La51  1  0.84438479  0.15561521  0.57951245  1
