# generated using pymatgen
data_U2Zn17
_symmetry_space_group_name_H-M   'P 1'
_cell_length_a   8.99198932
_cell_length_b   8.99198899
_cell_length_c   26.34572359
_cell_angle_alpha   90.00000000
_cell_angle_beta   90.00000000
_cell_angle_gamma   120.00000122
_symmetry_Int_Tables_number   1
_chemical_formula_structural   U2Zn17
_chemical_formula_sum   'U12 Zn102'
_cell_volume   1844.81281277
_cell_formula_units_Z   6
loop_
 _symmetry_equiv_pos_site_id
 _symmetry_equiv_pos_as_xyz
  1  'x, y, z'
loop_
 _atom_site_type_symbol
 _atom_site_label
 _atom_site_symmetry_multiplicity
 _atom_site_fract_x
 _atom_site_fract_y
 _atom_site_fract_z
 _atom_site_occupancy
  U  U0  1  0.33333300  0.66666700  0.00000000  1
  U  U1  1  0.33333300  0.66666700  0.66479502  1
  U  U2  1  0.66666700  0.33333300  0.50000000  1
  U  U3  1  0.33333300  0.66666700  0.50000000  1
  U  U4  1  0.00000000  0.00000000  0.16862635  1
  U  U5  1  0.00000000  0.00000000  0.66874466  1
  U  U6  1  0.00000000  0.00000000  0.33125534  1
  U  U7  1  0.66666700  0.33333300  0.16478388  1
  U  U8  1  0.66666700  0.33333300  0.00000000  1
  U  U9  1  0.66666700  0.33333300  0.83521612  1
  U  U10  1  0.33333300  0.66666700  0.33520498  1
  U  U11  1  0.00000000  0.00000000  0.83137365  1
  Zn  Zn12  1  0.82907440  0.65814880  0.90933353  1
  Zn  Zn13  1  0.16231304  0.32462608  0.74266533  1
  Zn  Zn14  1  0.63148809  0.96498239  0.83348650  1
  Zn  Zn15  1  0.66615984  0.63161631  0.66674875  1
  Zn  Zn16  1  0.32484887  0.16242443  0.24251381  1
  Zn  Zn17  1  0.33333300  0.66666700  0.11690427  1
  Zn  Zn18  1  0.17114560  0.82885440  0.59070464  1
  Zn  Zn19  1  0.50475003  0.00950006  0.92417706  1
  Zn  Zn20  1  0.32484887  0.16242443  0.75748619  1
  Zn  Zn21  1  0.49513083  0.99026167  0.42408503  1
  Zn  Zn22  1  0.83337771  0.66675543  0.58319974  1
  Zn  Zn23  1  0.36838369  0.33384016  0.66674875  1
  Zn  Zn24  1  0.00000000  0.00000000  0.94945084  1
  Zn  Zn25  1  0.33349429  0.36851191  0.16651350  1
  Zn  Zn26  1  0.50012372  0.49987628  0.25008035  1
  Zn  Zn27  1  0.65770881  0.82885440  0.40929536  1
  Zn  Zn28  1  0.33349429  0.96498239  0.83348650  1
  Zn  Zn29  1  0.96545647  0.63161631  0.33325125  1
  Zn  Zn30  1  0.82907440  0.65814880  0.09066647  1
  Zn  Zn31  1  0.63148809  0.66650571  0.16651350  1
  Zn  Zn32  1  0.96545647  0.33384016  0.66674875  1
  Zn  Zn33  1  0.66615984  0.63161631  0.33325125  1
  Zn  Zn34  1  0.65770881  0.82885440  0.59070464  1
  Zn  Zn35  1  0.99049994  0.49524997  0.92417706  1
  Zn  Zn36  1  0.16231304  0.32462608  0.25733467  1
  Zn  Zn37  1  0.83757557  0.67515113  0.24251381  1
  Zn  Zn38  1  0.30017124  0.00412560  0.00000000  1
  Zn  Zn39  1  0.99587440  0.69982876  0.00000000  1
  Zn  Zn40  1  0.16231304  0.83768696  0.74266533  1
  Zn  Zn41  1  0.83337771  0.66675543  0.41680026  1
  Zn  Zn42  1  0.33324457  0.16662229  0.58319974  1
  Zn  Zn43  1  0.00000000  0.00000000  0.05054916  1
  Zn  Zn44  1  0.83757557  0.16242443  0.75748619  1
  Zn  Zn45  1  0.49513083  0.50486917  0.42408503  1
  Zn  Zn46  1  0.03501761  0.36851191  0.83348650  1
  Zn  Zn47  1  0.83757557  0.16242443  0.24251381  1
  Zn  Zn48  1  0.50475003  0.00950006  0.07582294  1
  Zn  Zn49  1  0.33333300  0.66666700  0.21757962  1
  Zn  Zn50  1  0.03501761  0.36851191  0.16651350  1
  Zn  Zn51  1  0.33349429  0.96498239  0.16651350  1
  Zn  Zn52  1  0.63148809  0.96498239  0.16651350  1
  Zn  Zn53  1  0.36838369  0.03454353  0.66674875  1
  Zn  Zn54  1  0.16672803  0.33345606  0.91690206  1
  Zn  Zn55  1  0.83757557  0.67515113  0.75748619  1
  Zn  Zn56  1  0.33333300  0.66666700  0.78242038  1
  Zn  Zn57  1  0.66654394  0.83327197  0.08309794  1
  Zn  Zn58  1  0.00000000  0.00000000  0.55065226  1
  Zn  Zn59  1  0.33349429  0.36851191  0.83348650  1
  Zn  Zn60  1  0.29613847  0.99600038  0.50000000  1
  Zn  Zn61  1  0.34185120  0.17092560  0.90933353  1
  Zn  Zn62  1  0.66666700  0.33333300  0.71756764  1
  Zn  Zn63  1  0.66666700  0.33333300  0.61718208  1
  Zn  Zn64  1  0.00399962  0.30013809  0.50000000  1
  Zn  Zn65  1  0.63148809  0.66650571  0.83348650  1
  Zn  Zn66  1  0.66615984  0.03454353  0.66674875  1
  Zn  Zn67  1  0.67537392  0.83768696  0.25733467  1
  Zn  Zn68  1  0.29613847  0.30013809  0.50000000  1
  Zn  Zn69  1  0.50012372  0.00024744  0.74991965  1
  Zn  Zn70  1  0.99587440  0.29604564  0.00000000  1
  Zn  Zn71  1  0.16231304  0.83768696  0.25733467  1
  Zn  Zn72  1  0.82907440  0.17092560  0.90933353  1
  Zn  Zn73  1  0.17114560  0.82885440  0.40929536  1
  Zn  Zn74  1  0.99975256  0.49987628  0.25008035  1
  Zn  Zn75  1  0.16672803  0.83327197  0.08309794  1
  Zn  Zn76  1  0.69986191  0.70386153  0.50000000  1
  Zn  Zn77  1  0.50475003  0.49524997  0.07582294  1
  Zn  Zn78  1  0.96545647  0.33384016  0.33325125  1
  Zn  Zn79  1  0.82907440  0.17092560  0.09066647  1
  Zn  Zn80  1  0.70395436  0.69982876  0.00000000  1
  Zn  Zn81  1  0.16672803  0.33345606  0.08309794  1
  Zn  Zn82  1  0.00000000  0.00000000  0.44934774  1
  Zn  Zn83  1  0.00973833  0.50486917  0.42408503  1
  Zn  Zn84  1  0.67537392  0.83768696  0.74266533  1
  Zn  Zn85  1  0.66615984  0.03454353  0.33325125  1
  Zn  Zn86  1  0.03501761  0.66650571  0.83348650  1
  Zn  Zn87  1  0.99975256  0.49987628  0.74991965  1
  Zn  Zn88  1  0.50012372  0.00024744  0.25008035  1
  Zn  Zn89  1  0.00973833  0.50486917  0.57591497  1
  Zn  Zn90  1  0.99049994  0.49524997  0.07582294  1
  Zn  Zn91  1  0.96545647  0.63161631  0.66674875  1
  Zn  Zn92  1  0.03501761  0.66650571  0.16651350  1
  Zn  Zn93  1  0.49513083  0.99026167  0.57591497  1
  Zn  Zn94  1  0.49513083  0.50486917  0.57591497  1
  Zn  Zn95  1  0.17114560  0.34229119  0.40929536  1
  Zn  Zn96  1  0.36838369  0.33384016  0.33325125  1
  Zn  Zn97  1  0.30017124  0.29604564  0.00000000  1
  Zn  Zn98  1  0.83337771  0.16662229  0.58319974  1
  Zn  Zn99  1  0.33324457  0.16662229  0.41680026  1
  Zn  Zn100  1  0.33333300  0.66666700  0.88309573  1
  Zn  Zn101  1  0.34185120  0.17092560  0.09066647  1
  Zn  Zn102  1  0.00399962  0.70386153  0.50000000  1
  Zn  Zn103  1  0.17114560  0.34229119  0.59070464  1
  Zn  Zn104  1  0.16672803  0.83327197  0.91690206  1
  Zn  Zn105  1  0.70395436  0.00412560  0.00000000  1
  Zn  Zn106  1  0.83337771  0.16662229  0.41680026  1
  Zn  Zn107  1  0.50012372  0.49987628  0.74991965  1
  Zn  Zn108  1  0.66654394  0.83327197  0.91690206  1
  Zn  Zn109  1  0.36838369  0.03454353  0.33325125  1
  Zn  Zn110  1  0.50475003  0.49524997  0.92417706  1
  Zn  Zn111  1  0.69986191  0.99600038  0.50000000  1
  Zn  Zn112  1  0.66666700  0.33333300  0.38281792  1
  Zn  Zn113  1  0.66666700  0.33333300  0.28243236  1
