# generated using pymatgen
data_Li3MnCoO5
_symmetry_space_group_name_H-M   'P 1'
_cell_length_a   2.93006527
_cell_length_b   7.87355736
_cell_length_c   8.19937410
_cell_angle_alpha   75.75974839
_cell_angle_beta   90.00000000
_cell_angle_gamma   100.72352080
_symmetry_Int_Tables_number   1
_chemical_formula_structural   Li3MnCoO5
_chemical_formula_sum   'Li6 Mn2 Co2 O10'
_cell_volume   179.93743693
_cell_formula_units_Z   2
loop_
 _symmetry_equiv_pos_site_id
 _symmetry_equiv_pos_as_xyz
  1  'x, y, z'
loop_
 _atom_site_type_symbol
 _atom_site_label
 _atom_site_symmetry_multiplicity
 _atom_site_fract_x
 _atom_site_fract_y
 _atom_site_fract_z
 _atom_site_occupancy
  Li  Li0  1  0.60848434  0.21696868  0.68573168  1
  Li  Li1  1  0.39126036  0.78252071  0.32169821  1
  Li  Li2  1  0.20369446  0.40738891  0.88310296  1
  Li  Li3  1  0.99754861  0.99509722  0.49760283  1
  Li  Li4  1  0.79230868  0.58461736  0.10921125  1
  Li  Li5  1  0.79998635  0.59997270  0.59485472  1
  Mn  Mn6  1  -0.00065197  -0.00130393  0.00472132  1
  Mn  Mn7  1  0.39767807  0.79535613  0.79062250  1
  Co  Co8  1  0.60470548  0.20941096  0.21264605  1
  Co  Co9  1  0.20754949  0.41509898  0.41442517  1
  O  O10  1  0.41253458  0.82506916  0.03636273  1
  O  O11  1  0.19682953  0.39365906  0.63991808  1
  O  O12  1  0.00494262  0.00988524  0.23071489  1
  O  O13  1  0.81358532  0.62717065  0.84712111  1
  O  O14  1  0.60133138  0.20266277  0.43713724  1
  O  O15  1  0.79595039  0.59190078  0.34772151  1
  O  O16  1  0.58625870  0.17251741  0.95869717  1
  O  O17  1  0.40259626  0.80519252  0.57019170  1
  O  O18  1  0.19486345  0.38972690  0.14842556  1
  O  O19  1  0.98854389  0.97708779  0.76909330  1
