# generated using pymatgen
data_Co3B7BrO13
_symmetry_space_group_name_H-M   'P 1'
_cell_length_a   8.65114806
_cell_length_b   8.64656168
_cell_length_c   12.24418730
_cell_angle_alpha   90.00000000
_cell_angle_beta   90.00000000
_cell_angle_gamma   90.00000000
_symmetry_Int_Tables_number   1
_chemical_formula_structural   Co3B7BrO13
_chemical_formula_sum   'Co12 B28 Br4 O52'
_cell_volume   915.89808940
_cell_formula_units_Z   4
loop_
 _symmetry_equiv_pos_site_id
 _symmetry_equiv_pos_as_xyz
  1  'x, y, z'
loop_
 _atom_site_type_symbol
 _atom_site_label
 _atom_site_symmetry_multiplicity
 _atom_site_fract_x
 _atom_site_fract_y
 _atom_site_fract_z
 _atom_site_occupancy
  Co  Co0  1  0.01400432  0.97002180  0.00295496  1
  Co  Co1  1  0.98599568  0.02997820  0.50295496  1
  Co  Co2  1  0.51400432  0.02997820  0.00295496  1
  Co  Co3  1  0.51550619  0.46863249  0.00066394  1
  Co  Co4  1  0.98449381  0.46863249  0.50066394  1
  Co  Co5  1  0.73983133  0.25321952  0.72616358  1
  Co  Co6  1  0.23983133  0.74678048  0.72616358  1
  Co  Co7  1  0.48449381  0.53136751  0.50066394  1
  Co  Co8  1  0.01550619  0.53136751  0.00066394  1
  Co  Co9  1  0.26016867  0.74678048  0.22616358  1
  Co  Co10  1  0.76016867  0.25321952  0.22616358  1
  Co  Co11  1  0.48599568  0.97002180  0.50295496  1
  B  B12  1  0.74638972  0.90403318  0.17032189  1
  B  B13  1  0.25673577  0.24657161  0.49776828  1
  B  B14  1  0.95713408  0.75055775  0.35241563  1
  B  B15  1  0.74326423  0.75342839  0.99776828  1
  B  B16  1  0.54286592  0.75055775  0.85241563  1
  B  B17  1  0.74644705  0.59749117  0.16986054  1
  B  B18  1  0.25361028  0.09596682  0.67032189  1
  B  B19  1  0.49800007  0.99655313  0.75047571  1
  B  B20  1  0.90577732  0.75039970  0.82264045  1
  B  B21  1  0.75355295  0.59749117  0.66986054  1
  B  B22  1  0.00199993  0.99655313  0.25047571  1
  B  B23  1  0.99800007  0.00344687  0.75047571  1
  B  B24  1  0.24638972  0.09596682  0.17032189  1
  B  B25  1  0.25355295  0.40250883  0.66986054  1
  B  B26  1  0.59422268  0.75039970  0.32264045  1
  B  B27  1  0.99786687  0.49637166  0.75026181  1
  B  B28  1  0.75361028  0.90403318  0.67032189  1
  B  B29  1  0.00213313  0.50362834  0.25026181  1
  B  B30  1  0.75673577  0.75342839  0.49776828  1
  B  B31  1  0.04286592  0.24944225  0.85241563  1
  B  B32  1  0.50199993  0.00344687  0.25047571  1
  B  B33  1  0.49786687  0.50362834  0.75026181  1
  B  B34  1  0.45713408  0.24944225  0.35241563  1
  B  B35  1  0.09422268  0.24960030  0.32264045  1
  B  B36  1  0.24644705  0.40250883  0.16986054  1
  B  B37  1  0.24326423  0.24657161  0.99776828  1
  B  B38  1  0.50213313  0.49637166  0.25026181  1
  B  B39  1  0.40577732  0.24960030  0.82264045  1
  Br  Br40  1  0.77140377  0.24833336  0.51128484  1
  Br  Br41  1  0.27140377  0.75166664  0.51128484  1
  Br  Br42  1  0.22859623  0.75166664  0.01128484  1
  Br  Br43  1  0.72859623  0.24833336  0.01128484  1
  O  O44  1  0.17913036  0.36358230  0.56645688  1
  O  O45  1  0.91041066  0.94166836  0.15641866  1
  O  O46  1  0.03643291  0.09001855  0.85403520  1
  O  O47  1  0.03304102  0.83875536  0.77232498  1
  O  O48  1  0.11661123  0.32822480  0.93572119  1
  O  O49  1  0.35793322  0.17557261  0.92456779  1
  O  O50  1  0.95725450  0.33055672  0.77633169  1
  O  O51  1  0.32086964  0.36358230  0.06645688  1
  O  O52  1  0.16708449  0.97359506  0.22872245  1
  O  O53  1  0.33291551  0.97359506  0.72872245  1
  O  O54  1  0.08920838  0.46097662  0.15193092  1
  O  O55  1  0.46695898  0.83875536  0.27232498  1
  O  O56  1  0.53643291  0.90998145  0.85403520  1
  O  O57  1  0.54274550  0.33055672  0.27633169  1
  O  O58  1  0.41079162  0.46097662  0.65193092  1
  O  O59  1  0.17270567  0.12518859  0.06489565  1
  O  O60  1  0.83291551  0.02640494  0.72872245  1
  O  O61  1  0.88338877  0.67177520  0.43572119  1
  O  O62  1  0.83630581  0.48312866  0.23033200  1
  O  O63  1  0.45113233  0.40853350  0.84404001  1
  O  O64  1  0.58920838  0.53902338  0.15193092  1
  O  O65  1  0.54886767  0.59146650  0.34404001  1
  O  O66  1  0.32729433  0.12518859  0.56489565  1
  O  O67  1  0.76995869  0.74983848  0.73851096  1
  O  O68  1  0.96695898  0.16124464  0.27232498  1
  O  O69  1  0.23004131  0.25016152  0.23851096  1
  O  O70  1  0.45725450  0.66944328  0.77633169  1
  O  O71  1  0.41041066  0.05833164  0.15641866  1
  O  O72  1  0.82086964  0.63641770  0.06645688  1
  O  O73  1  0.58958934  0.94166836  0.65641866  1
  O  O74  1  0.53304102  0.16124464  0.77232498  1
  O  O75  1  0.95113233  0.59146650  0.84404001  1
  O  O76  1  0.82729433  0.87481141  0.56489565  1
  O  O77  1  0.04886767  0.40853350  0.34404001  1
  O  O78  1  0.67913036  0.63641770  0.56645688  1
  O  O79  1  0.85793322  0.82442739  0.92456779  1
  O  O80  1  0.08958934  0.05833164  0.65641866  1
  O  O81  1  0.73004131  0.74983848  0.23851096  1
  O  O82  1  0.46356709  0.09001855  0.35403520  1
  O  O83  1  0.91079162  0.53902338  0.65193092  1
  O  O84  1  0.64206678  0.82442739  0.42456779  1
  O  O85  1  0.04274550  0.66944328  0.27633169  1
  O  O86  1  0.16369419  0.51687134  0.73033200  1
  O  O87  1  0.26995869  0.25016152  0.73851096  1
  O  O88  1  0.14206678  0.17557261  0.42456779  1
  O  O89  1  0.33630581  0.51687134  0.23033200  1
  O  O90  1  0.61661123  0.67177520  0.93572119  1
  O  O91  1  0.67270567  0.87481141  0.06489565  1
  O  O92  1  0.96356709  0.90998145  0.35403520  1
  O  O93  1  0.66708449  0.02640494  0.22872245  1
  O  O94  1  0.38338877  0.32822480  0.43572119  1
  O  O95  1  0.66369419  0.48312866  0.73033200  1
