# generated using pymatgen
data_CaBe2(PO4)2
_symmetry_space_group_name_H-M   'P 1'
_cell_length_a   7.87145241
_cell_length_b   8.42389171
_cell_length_c   8.87417501
_cell_angle_alpha   90.00000000
_cell_angle_beta   90.00000000
_cell_angle_gamma   90.45039906
_symmetry_Int_Tables_number   1
_chemical_formula_structural   CaBe2(PO4)2
_chemical_formula_sum   'Ca4 Be8 P8 O32'
_cell_volume   588.41294711
_cell_formula_units_Z   4
loop_
 _symmetry_equiv_pos_site_id
 _symmetry_equiv_pos_as_xyz
  1  'x, y, z'
loop_
 _atom_site_type_symbol
 _atom_site_label
 _atom_site_symmetry_multiplicity
 _atom_site_fract_x
 _atom_site_fract_y
 _atom_site_fract_z
 _atom_site_occupancy
  Be  Be0  1  0.42963187  0.94326005  0.80531106  1
  Be  Be1  1  0.93054801  0.23053948  0.92075959  1
  Be  Be2  1  0.06945199  0.26946052  0.42075959  1
  Be  Be3  1  0.06945199  0.76946052  0.07924041  1
  Be  Be4  1  0.93054801  0.73053948  0.57924041  1
  Be  Be5  1  0.57036813  0.55673995  0.30531106  1
  Be  Be6  1  0.57036813  0.05673995  0.19468894  1
  Be  Be7  1  0.42963187  0.44326005  0.69468894  1
  O  O8  1  0.74165069  0.31276239  0.92018469  1
  O  O9  1  0.74165069  0.81276239  0.57981531  1
  O  O10  1  0.25834931  0.68723761  0.07981531  1
  O  O11  1  0.25834931  0.18723761  0.42018469  1
  O  O12  1  0.23965371  0.49570778  0.65625125  1
  O  O13  1  0.76034629  0.00429222  0.15625125  1
  O  O14  1  0.76034629  0.50429222  0.34374875  1
  O  O15  1  0.23965371  0.99570778  0.84374875  1
  O  O16  1  0.93312029  0.07923004  0.80746996  1
  O  O17  1  0.06687971  0.42076996  0.30746996  1
  O  O18  1  0.06687971  0.92076996  0.19253004  1
  O  O19  1  0.93312029  0.57923004  0.69253004  1
  O  O20  1  0.50536533  0.81311990  0.92627135  1
  O  O21  1  0.49463467  0.68688010  0.42627135  1
  O  O22  1  0.49463467  0.18688010  0.07372865  1
  O  O23  1  0.50536533  0.31311990  0.57372865  1
  O  O24  1  0.99583244  0.80914424  0.91273857  1
  O  O25  1  0.00416756  0.69085576  0.41273857  1
  O  O26  1  0.00416756  0.19085576  0.08726143  1
  O  O27  1  0.99583244  0.30914424  0.58726143  1
  O  O28  1  0.43795400  0.87007777  0.63333203  1
  O  O29  1  0.56204600  0.62992223  0.13333203  1
  O  O30  1  0.56204600  0.12992223  0.36666797  1
  O  O31  1  0.43795400  0.37007777  0.86666797  1
  O  O32  1  0.05595462  0.87498412  0.63719231  1
  O  O33  1  0.94404538  0.62501588  0.13719231  1
  O  O34  1  0.94404538  0.12501588  0.36280769  1
  O  O35  1  0.05595462  0.37498412  0.86280769  1
  O  O36  1  0.56303106  0.59523936  0.69402783  1
  O  O37  1  0.43696894  0.90476064  0.19402783  1
  O  O38  1  0.43696894  0.40476064  0.30597217  1
  O  O39  1  0.56303106  0.09523936  0.80597217  1
  P  P40  1  0.06106984  0.43978665  0.69787659  1
  P  P41  1  0.93893016  0.06021335  0.19787659  1
  P  P42  1  0.93893016  0.56021335  0.30212341  1
  P  P43  1  0.06106984  0.93978665  0.80212341  1
  P  P44  1  0.56081641  0.23615076  0.91708076  1
  P  P45  1  0.43918359  0.26384924  0.41708076  1
  P  P46  1  0.43918359  0.76384924  0.08291924  1
  P  P47  1  0.56081641  0.73615076  0.58291924  1
  Ca  Ca48  1  0.75596759  0.11277228  0.58510448  1
  Ca  Ca49  1  0.24403241  0.38722772  0.08510448  1
  Ca  Ca50  1  0.24403241  0.88722772  0.41489552  1
  Ca  Ca51  1  0.75596759  0.61277228  0.91489552  1
