# generated using pymatgen
data_K2Cu(PO3)4
_symmetry_space_group_name_H-M   'P 1'
_cell_length_a   8.27783923
_cell_length_b   8.25876294
_cell_length_c   8.25876294
_cell_angle_alpha   97.04856332
_cell_angle_beta   95.93086703
_cell_angle_gamma   95.93086702
_symmetry_Int_Tables_number   1
_chemical_formula_structural   K2Cu(PO3)4
_chemical_formula_sum   'K4 Cu2 P8 O24'
_cell_volume   553.47947188
_cell_formula_units_Z   2
loop_
 _symmetry_equiv_pos_site_id
 _symmetry_equiv_pos_as_xyz
  1  'x, y, z'
loop_
 _atom_site_type_symbol
 _atom_site_label
 _atom_site_symmetry_multiplicity
 _atom_site_fract_x
 _atom_site_fract_y
 _atom_site_fract_z
 _atom_site_occupancy
  O  O0  1  0.66291271  0.12296904  0.02370023  1
  O  O1  1  0.16291271  0.02370023  0.12296904  1
  O  O2  1  0.53971789  0.98580145  0.25709184  1
  O  O3  1  0.03971789  0.25709184  0.98580145  1
  O  O4  1  0.22749675  0.08844764  0.83818819  1
  O  O5  1  0.72749675  0.83818819  0.08844764  1
  O  O6  1  0.33439872  0.82189969  0.91158667  1
  O  O7  1  0.83439872  0.91158667  0.82189969  1
  O  O8  1  0.44633043  0.97509473  0.68294100  1
  O  O9  1  0.94633043  0.68294100  0.97509473  1
  O  O10  1  0.15761169  0.81978572  0.64927019  1
  O  O11  1  0.65761169  0.64927019  0.81978572  1
  O  O12  1  0.92210627  0.73563884  0.42532017  1
  O  O13  1  0.42210627  0.42532017  0.73563884  1
  O  O14  1  0.49916168  0.48429903  0.31882949  1
  O  O15  1  -0.00083832  0.31882949  0.48429903  1
  O  O16  1  0.29015882  0.57438980  0.09741833  1
  O  O17  1  0.79015882  0.09741833  0.57438980  1
  O  O18  1  0.34281447  0.27688753  0.09618257  1
  O  O19  1  0.84281447  0.09618257  0.27688753  1
  O  O20  1  0.56821588  0.47939595  0.03325488  1
  O  O21  1  0.06821588  0.03325488  0.47939595  1
  O  O22  1  0.71923999  0.35644604  0.80665926  1
  O  O23  1  0.21923999  0.80665926  0.35644604  1
  P  P24  1  0.30752887  0.92546283  0.77452951  1
  P  P25  1  0.80752887  0.77452951  0.92546283  1
  P  P26  1  0.08360823  0.83755055  0.46259343  1
  P  P27  1  0.58360823  0.46259343  0.83755055  1
  P  P28  1  0.91906908  0.14646116  0.46661700  1
  P  P29  1  0.41906908  0.46661700  0.14646116  1
  P  P30  1  0.67856165  0.01539720  0.15902214  1
  P  P31  1  0.17856165  0.15902214  0.01539720  1
  K  K32  1  0.90042815  0.45959278  0.20205223  1
  K  K33  1  0.40042815  0.20205223  0.45959278  1
  K  K34  1  0.60993871  0.77356468  0.49873654  1
  K  K35  1  0.10993871  0.49873654  0.77356468  1
  Cu  Cu36  1  0.25360002  0.81270493  0.12521673  1
  Cu  Cu37  1  0.75360002  0.12521673  0.81270493  1
