# generated using pymatgen
data_Ba3SrRu2O9
_symmetry_space_group_name_H-M   'P 1'
_cell_length_a   6.03893306
_cell_length_b   6.03893306
_cell_length_c   15.34996001
_cell_angle_alpha   91.05910893
_cell_angle_beta   91.05910896
_cell_angle_gamma   119.50352029
_symmetry_Int_Tables_number   1
_chemical_formula_structural   Ba3SrRu2O9
_chemical_formula_sum   'Ba6 Sr2 Ru4 O18'
_cell_volume   486.87424618
_cell_formula_units_Z   2
loop_
 _symmetry_equiv_pos_site_id
 _symmetry_equiv_pos_as_xyz
  1  'x, y, z'
loop_
 _atom_site_type_symbol
 _atom_site_label
 _atom_site_symmetry_multiplicity
 _atom_site_fract_x
 _atom_site_fract_y
 _atom_site_fract_z
 _atom_site_occupancy
  O  O0  1  0.31312146  0.12363898  0.38949433  1
  O  O1  1  0.87636102  0.68687854  0.11050567  1
  O  O2  1  0.68687854  0.87636102  0.61050567  1
  O  O3  1  0.12363898  0.31312146  0.88949433  1
  O  O4  1  0.77126384  0.11484089  0.39837676  1
  O  O5  1  0.88515911  0.22873616  0.10162324  1
  O  O6  1  0.22873616  0.88515911  0.60162324  1
  O  O7  1  0.11484089  0.77126384  0.89837676  1
  O  O8  1  0.77059515  0.57768674  0.42671751  1
  O  O9  1  0.42231326  0.22940485  0.07328249  1
  O  O10  1  0.22940485  0.42231326  0.57328249  1
  O  O11  1  0.57768674  0.77059515  0.92671751  1
  O  O12  1  0.48400601  0.51599399  0.75000000  1
  O  O13  1  0.51599399  0.48400601  0.25000000  1
  O  O14  1  0.04120889  0.51863975  0.73470281  1
  O  O15  1  0.48136025  0.95879111  0.76529719  1
  O  O16  1  0.95879111  0.48136025  0.26529719  1
  O  O17  1  0.51863975  0.04120889  0.23470281  1
  Sr  Sr18  1  0.00000000  0.00000000  0.00000000  1
  Sr  Sr19  1  0.00000000  0.00000000  0.50000000  1
  Ru  Ru20  1  0.64350654  0.30758514  0.34054727  1
  Ru  Ru21  1  0.69241486  0.35649346  0.15945273  1
  Ru  Ru22  1  0.30758514  0.64350654  0.84054727  1
  Ru  Ru23  1  0.35649346  0.69241486  0.65945273  1
  Ba  Ba24  1  0.32552285  0.65298504  0.39450801  1
  Ba  Ba25  1  0.34701496  0.67447715  0.10549199  1
  Ba  Ba26  1  0.67447715  0.34701496  0.60549199  1
  Ba  Ba27  1  0.65298504  0.32552285  0.89450801  1
  Ba  Ba28  1  0.99307078  0.00692922  0.25000000  1
  Ba  Ba29  1  0.00692922  0.99307078  0.75000000  1
