# generated using pymatgen
data_RbTiPO5
_symmetry_space_group_name_H-M   'P 1'
_cell_length_a   6.59471863
_cell_length_b   10.67435188
_cell_length_c   13.13802406
_cell_angle_alpha   90.00000000
_cell_angle_beta   90.00000000
_cell_angle_gamma   90.00000000
_symmetry_Int_Tables_number   1
_chemical_formula_structural   RbTiPO5
_chemical_formula_sum   'Rb8 Ti8 P8 O40'
_cell_volume   924.84262728
_cell_formula_units_Z   8
loop_
 _symmetry_equiv_pos_site_id
 _symmetry_equiv_pos_as_xyz
  1  'x, y, z'
loop_
 _atom_site_type_symbol
 _atom_site_label
 _atom_site_symmetry_multiplicity
 _atom_site_fract_x
 _atom_site_fract_y
 _atom_site_fract_z
 _atom_site_occupancy
  O  O0  1  0.95930539  0.12879322  0.75059232  1
  O  O1  1  0.04069461  0.62879322  0.24940768  1
  O  O2  1  0.54069461  0.12879322  0.25059232  1
  O  O3  1  0.45930539  0.62879322  0.74940768  1
  O  O4  1  0.04382740  0.89964894  0.75009185  1
  O  O5  1  0.95617260  0.39964894  0.24990815  1
  O  O6  1  0.45617260  0.89964894  0.25009185  1
  O  O7  1  0.54382740  0.39964894  0.74990815  1
  O  O8  1  0.19230725  0.04406788  0.61379895  1
  O  O9  1  0.80769275  0.54406788  0.38620105  1
  O  O10  1  0.30769275  0.04406788  0.11379895  1
  O  O11  1  0.69230725  0.54406788  0.88620105  1
  O  O12  1  0.81415478  0.98514937  0.61384173  1
  O  O13  1  0.18584522  0.48514937  0.38615827  1
  O  O14  1  0.68584522  0.98514937  0.11384173  1
  O  O15  1  0.69881110  0.28945381  0.09541738  1
  O  O16  1  0.31415478  0.48514937  0.88615827  1
  O  O17  1  0.44894080  0.63780371  0.27706294  1
  O  O18  1  0.94894080  0.13780371  0.22293706  1
  O  O19  1  0.05105920  0.63780371  0.77706294  1
  O  O20  1  0.95729654  0.38539929  0.77945076  1
  O  O21  1  0.04270346  0.88539929  0.22054924  1
  O  O22  1  0.54270346  0.38539929  0.27945076  1
  O  O23  1  0.45729654  0.88539929  0.72054924  1
  O  O24  1  0.48079344  0.87890859  0.51426096  1
  O  O25  1  0.51920656  0.37890859  0.48573904  1
  O  O26  1  0.01920656  0.87890859  0.01426096  1
  O  O27  1  0.98079344  0.37890859  0.98573904  1
  O  O28  1  0.46249369  0.64493174  0.48505974  1
  O  O29  1  0.53750631  0.14493174  0.51494026  1
  O  O30  1  0.03750631  0.64493174  0.98505974  1
  O  O31  1  0.96249369  0.14493174  0.01494026  1
  O  O32  1  0.20362503  0.74571062  0.59677936  1
  O  O33  1  0.79637497  0.24571062  0.40322064  1
  O  O34  1  0.29637497  0.74571062  0.09677936  1
  O  O35  1  0.70362503  0.24571062  0.90322064  1
  O  O36  1  0.19881110  0.78945381  0.40458262  1
  O  O37  1  0.80118890  0.28945381  0.59541738  1
  O  O38  1  0.30118890  0.78945381  0.90458262  1
  O  O39  1  0.55105920  0.13780371  0.72293706  1
  P  P40  1  0.00280526  0.01519882  0.67963215  1
  P  P41  1  0.99719474  0.51519882  0.32036785  1
  P  P42  1  0.49719474  0.01519882  0.17963215  1
  P  P43  1  0.50280526  0.51519882  0.82036785  1
  P  P44  1  0.83586240  0.26733695  0.99986025  1
  P  P45  1  0.16413760  0.76733695  0.00013975  1
  P  P46  1  0.66413760  0.26733695  0.49986025  1
  P  P47  1  0.33586240  0.76733695  0.50013975  1
  Ti  Ti48  1  0.76278012  0.27234754  0.74689655  1
  Ti  Ti49  1  0.23721988  0.77234754  0.25310345  1
  Ti  Ti50  1  0.73721988  0.27234754  0.24689655  1
  Ti  Ti51  1  0.26278012  0.77234754  0.75310345  1
  Ti  Ti52  1  0.99842268  0.52341107  0.87130086  1
  Ti  Ti53  1  0.00157732  0.02341107  0.12869914  1
  Ti  Ti54  1  0.50157732  0.52341107  0.37130086  1
  Ti  Ti55  1  0.49842268  0.02341107  0.62869914  1
  Rb  Rb56  1  0.19275346  0.45255550  0.60637803  1
  Rb  Rb57  1  0.80724654  0.95255550  0.39362197  1
  Rb  Rb58  1  0.30724654  0.45255550  0.10637803  1
  Rb  Rb59  1  0.69275346  0.95255550  0.89362197  1
  Rb  Rb60  1  0.28276883  0.20270296  0.88310330  1
  Rb  Rb61  1  0.71723117  0.70270296  0.11689670  1
  Rb  Rb62  1  0.21723117  0.20270296  0.38310330  1
  Rb  Rb63  1  0.78276883  0.70270296  0.61689670  1
