# generated using pymatgen
data_LiLa2RuO6
_symmetry_space_group_name_H-M   'P 1'
_cell_length_a   5.56670488
_cell_length_b   5.79495511
_cell_length_c   7.88321053
_cell_angle_alpha   90.00000000
_cell_angle_beta   90.17593712
_cell_angle_gamma   90.00000000
_symmetry_Int_Tables_number   1
_chemical_formula_structural   LiLa2RuO6
_chemical_formula_sum   'Li2 La4 Ru2 O12'
_cell_volume   254.30175169
_cell_formula_units_Z   2
loop_
 _symmetry_equiv_pos_site_id
 _symmetry_equiv_pos_as_xyz
  1  'x, y, z'
loop_
 _atom_site_type_symbol
 _atom_site_label
 _atom_site_symmetry_multiplicity
 _atom_site_fract_x
 _atom_site_fract_y
 _atom_site_fract_z
 _atom_site_occupancy
  Li  Li0  1  0.50000000  0.00000000  0.00000000  1
  Li  Li1  1  0.00000000  0.50000000  0.50000000  1
  O  O2  1  0.58938284  0.02718095  0.74243618  1
  O  O3  1  0.91061716  0.52718095  0.75756382  1
  O  O4  1  0.41061716  0.97281905  0.25756382  1
  O  O5  1  0.08938284  0.47281905  0.24243618  1
  O  O6  1  0.68709559  0.28507715  0.45087734  1
  O  O7  1  0.81290441  0.78507715  0.04912266  1
  O  O8  1  0.28922789  0.68983238  0.95525855  1
  O  O9  1  0.21077211  0.18983238  0.54474145  1
  O  O10  1  0.71077211  0.31016762  0.04474145  1
  O  O11  1  0.78922789  0.81016762  0.45525855  1
  O  O12  1  0.18709559  0.21492285  0.95087734  1
  O  O13  1  0.31290441  0.71492285  0.54912266  1
  Ru  Ru14  1  0.00000000  0.50000000  0.00000000  1
  Ru  Ru15  1  0.50000000  0.00000000  0.50000000  1
  La  La16  1  0.51168101  0.55953922  0.24867023  1
  La  La17  1  0.98831899  0.05953922  0.25132977  1
  La  La18  1  0.48831899  0.44046078  0.75132977  1
  La  La19  1  0.01168101  0.94046078  0.74867023  1
