# generated using pymatgen
data_Sc2H14S4N2O21
_symmetry_space_group_name_H-M   'P 1'
_cell_length_a   5.23315427
_cell_length_b   9.11476223
_cell_length_c   10.12751151
_cell_angle_alpha   98.70326436
_cell_angle_beta   105.05803538
_cell_angle_gamma   90.24626690
_symmetry_Int_Tables_number   1
_chemical_formula_structural   Sc2H14S4N2O21
_chemical_formula_sum   'Sc2 H14 S4 N2 O21'
_cell_volume   460.63165227
_cell_formula_units_Z   1
loop_
 _symmetry_equiv_pos_site_id
 _symmetry_equiv_pos_as_xyz
  1  'x, y, z'
loop_
 _atom_site_type_symbol
 _atom_site_label
 _atom_site_symmetry_multiplicity
 _atom_site_fract_x
 _atom_site_fract_y
 _atom_site_fract_z
 _atom_site_occupancy
  Sc  Sc0  1  0.36222669  0.53951609  0.22596553  1
  Sc  Sc1  1  0.63788067  0.46115517  0.77504146  1
  H  H2  1  0.98969687  0.07617344  0.47608489  1
  H  H3  1  0.16611570  0.07361339  0.18900756  1
  H  H4  1  0.32542290  0.31347772  0.52232271  1
  H  H5  1  0.39130424  0.01320382  0.64595716  1
  H  H6  1  0.28493772  0.90303339  0.15690241  1
  H  H7  1  0.38758879  0.66432561  0.50263686  1
  H  H8  1  0.53524909  0.94027534  0.85164477  1
  H  H9  1  0.46368197  0.05765603  0.14989740  1
  H  H10  1  0.61389225  0.33347832  0.49830706  1
  H  H11  1  0.71950388  0.09634468  0.84835460  1
  H  H12  1  0.64406757  0.99166898  0.35984442  1
  H  H13  1  0.67276736  0.68935603  0.47682343  1
  H  H14  1  0.84148729  0.92433207  0.81999939  1
  H  H15  1  0.97746207  0.90061358  0.48999978  1
  S  S16  1  0.10397360  0.68800614  0.69405622  1
  S  S17  1  0.19908782  0.29047915  0.90927152  1
  S  S18  1  0.79948496  0.70750129  0.08925800  1
  S  S19  1  0.89806861  0.31631880  0.30796795  1
  N  N20  1  0.33819280  0.01326626  0.19923660  1
  N  N21  1  0.66868173  0.98531733  0.80697988  1
  O  O22  1  0.99642045  0.72018165  0.55097327  1
  O  O23  1  0.12989733  0.82245317  0.79808553  1
  O  O24  1  0.07319964  0.43564504  0.28514679  1
  O  O25  1  0.25934540  0.14522926  0.94910785  1
  O  O26  1  0.09131842  0.70404519  0.15564608  1
  O  O27  1  0.34489904  0.32052437  0.80573731  1
  O  O28  1  0.37116320  0.62477422  0.70116464  1
  O  O29  1  0.26997263  0.41392003  0.02869367  1
  O  O30  1  0.45320814  0.02695824  0.34293052  1
  O  O31  1  0.48032809  0.66568558  0.43046225  1
  O  O32  1  0.51877301  0.33555063  0.57006390  1
  O  O33  1  0.56649489  0.97067713  0.66101961  1
  O  O34  1  0.72750518  0.58222783  0.97028743  1
  O  O35  1  0.63042514  0.37959138  0.30152634  1
  O  O36  1  0.65293843  0.67770251  0.19189459  1
  O  O37  1  0.90657194  0.29317767  0.84128531  1
  O  O38  1  0.73809574  0.85103152  0.04594700  1
  O  O39  1  0.92919295  0.57103883  0.71957862  1
  O  O40  1  0.87359622  0.18538288  0.20165507  1
  O  O41  1  0.94069889  0.97459964  0.42695536  1
  O  O42  1  0.00518065  0.28409062  0.45127927  1
