# generated using pymatgen
data_RbNb2PS10
_symmetry_space_group_name_H-M   'P 1'
_cell_length_a   7.56875172
_cell_length_b   8.08099958
_cell_length_c   12.73669837
_cell_angle_alpha   90.00000000
_cell_angle_beta   104.19213831
_cell_angle_gamma   90.00000000
_symmetry_Int_Tables_number   1
_chemical_formula_structural   RbNb2PS10
_chemical_formula_sum   'Rb2 Nb4 P2 S20'
_cell_volume   755.23935698
_cell_formula_units_Z   2
loop_
 _symmetry_equiv_pos_site_id
 _symmetry_equiv_pos_as_xyz
  1  'x, y, z'
loop_
 _atom_site_type_symbol
 _atom_site_label
 _atom_site_symmetry_multiplicity
 _atom_site_fract_x
 _atom_site_fract_y
 _atom_site_fract_z
 _atom_site_occupancy
  P  P0  1  0.19166741  0.11970764  0.20021743  1
  P  P1  1  0.69166741  0.88029236  0.70021743  1
  S  S2  1  0.54419810  0.05973993  0.74282529  1
  S  S3  1  0.04419810  0.94026007  0.24282529  1
  S  S4  1  0.68210211  0.87817157  0.53632268  1
  S  S5  1  0.18210211  0.12182843  0.03632268  1
  S  S6  1  0.27479920  0.61922483  0.89531393  1
  S  S7  1  0.77479920  0.38077517  0.39531393  1
  S  S8  1  0.23198828  0.37885846  0.85095520  1
  S  S9  1  0.73198828  0.62114154  0.35095520  1
  S  S10  1  0.87676630  0.62110178  0.99797543  1
  S  S11  1  0.37676630  0.37889822  0.49797543  1
  S  S12  1  0.81760997  0.38502737  0.94275261  1
  S  S13  1  0.31760997  0.61497263  0.44275261  1
  S  S14  1  0.35021369  0.65379591  0.15886887  1
  S  S15  1  0.85021369  0.34620409  0.65886887  1
  S  S16  1  0.49746908  0.45693841  0.12363619  1
  S  S17  1  0.99746908  0.54306159  0.62363619  1
  S  S18  1  0.45674815  0.12584055  0.29256441  1
  S  S19  1  0.95674815  0.87415945  0.79256441  1
  S  S20  1  0.10414694  0.36253450  0.21988393  1
  S  S21  1  0.60414694  0.63746550  0.71988393  1
  Rb  Rb22  1  0.14107840  0.99330759  0.54160711  1
  Rb  Rb23  1  0.64107840  0.00669241  0.04160711  1
  Nb  Nb24  1  0.44683191  0.44331463  0.31550606  1
  Nb  Nb25  1  0.94683191  0.55668537  0.81550606  1
  Nb  Nb26  1  0.65544047  0.55743969  0.52677085  1
  Nb  Nb27  1  0.15544047  0.44256031  0.02677085  1
