# generated using pymatgen
data_Ba(GaO2)2
_symmetry_space_group_name_H-M   'P 1'
_cell_length_a   18.87482337
_cell_length_b   18.87482306
_cell_length_c   8.79855156
_cell_angle_alpha   90.00000000
_cell_angle_beta   90.00000000
_cell_angle_gamma   120.00000052
_symmetry_Int_Tables_number   1
_chemical_formula_structural   Ba(GaO2)2
_chemical_formula_sum   'Ba24 Ga48 O96'
_cell_volume   2714.61095989
_cell_formula_units_Z   24
loop_
 _symmetry_equiv_pos_site_id
 _symmetry_equiv_pos_as_xyz
  1  'x, y, z'
loop_
 _atom_site_type_symbol
 _atom_site_label
 _atom_site_symmetry_multiplicity
 _atom_site_fract_x
 _atom_site_fract_y
 _atom_site_fract_z
 _atom_site_occupancy
  Ba  Ba0  1  0.00000000  0.00000000  0.19851546  1
  Ba  Ba1  1  0.33333300  0.66666700  0.64634579  1
  Ba  Ba2  1  0.00000000  0.00000000  0.69851546  1
  Ba  Ba3  1  0.99970610  0.48521842  0.67765082  1
  Ba  Ba4  1  0.83792672  0.16963710  0.66881934  1
  Ba  Ba5  1  0.19165099  0.85795666  0.66698411  1
  Ba  Ba6  1  0.80834901  0.14204334  0.16698411  1
  Ba  Ba7  1  0.33171038  0.16207328  0.66881934  1
  Ba  Ba8  1  0.16207328  0.83036290  0.16881934  1
  Ba  Ba9  1  0.83036290  0.66828962  0.66881934  1
  Ba  Ba10  1  0.33333300  0.66666700  0.14691667  1
  Ba  Ba11  1  0.85795666  0.66630568  0.16698411  1
  Ba  Ba12  1  0.16963710  0.33171038  0.16881934  1
  Ba  Ba13  1  0.33369432  0.19165099  0.16698411  1
  Ba  Ba14  1  0.48551232  0.00029390  0.67765082  1
  Ba  Ba15  1  0.14204334  0.33369432  0.66698411  1
  Ba  Ba16  1  0.66828962  0.83792672  0.16881934  1
  Ba  Ba17  1  0.66666700  0.33333300  0.64691667  1
  Ba  Ba18  1  0.51478158  0.51448768  0.67765082  1
  Ba  Ba19  1  0.66630568  0.80834901  0.66698411  1
  Ba  Ba20  1  0.00029390  0.51478158  0.17765082  1
  Ba  Ba21  1  0.66666700  0.33333300  0.14634579  1
  Ba  Ba22  1  0.48521842  0.48551232  0.17765082  1
  Ba  Ba23  1  0.51448768  0.99970610  0.17765082  1
  Ga  Ga24  1  0.84551682  0.83467792  0.97620383  1
  Ga  Ga25  1  0.82764410  0.32794703  0.36736507  1
  Ga  Ga26  1  0.17336119  0.01169956  0.37055091  1
  Ga  Ga27  1  0.67205297  0.49969707  0.36736507  1
  Ga  Ga28  1  0.00019077  0.67174932  0.45731601  1
  Ga  Ga29  1  0.33830392  0.83479534  0.97022231  1
  Ga  Ga30  1  0.32187967  0.49361900  0.47338669  1
  Ga  Ga31  1  0.00001908  0.66222716  0.86767367  1
  Ga  Ga32  1  0.16532208  0.01083890  0.97620383  1
  Ga  Ga33  1  0.83447253  0.48926252  0.86682114  1
  Ga  Ga34  1  0.32825068  0.32844145  0.45731601  1
  Ga  Ga35  1  0.82663881  0.98830044  0.87055091  1
  Ga  Ga36  1  0.17173933  0.67812033  0.47338669  1
  Ga  Ga37  1  0.34521001  0.83447253  0.36682114  1
  Ga  Ga38  1  0.16166163  0.17336119  0.87055091  1
  Ga  Ga39  1  0.49969707  0.82764410  0.86736507  1
  Ga  Ga40  1  0.66220808  0.99998092  0.86767367  1
  Ga  Ga41  1  0.49361900  0.17173933  0.97338669  1
  Ga  Ga42  1  0.82826067  0.32187967  0.97338669  1
  Ga  Ga43  1  0.16520466  0.50350857  0.97022231  1
  Ga  Ga44  1  0.16552747  0.51073748  0.36682114  1
  Ga  Ga45  1  0.66169608  0.16520466  0.47022231  1
  Ga  Ga46  1  0.65478999  0.16552747  0.86682114  1
  Ga  Ga47  1  0.50638100  0.82826067  0.47338669  1
  Ga  Ga48  1  0.50350857  0.33830392  0.47022231  1
  Ga  Ga49  1  0.99998092  0.33777284  0.36767367  1
  Ga  Ga50  1  0.32844145  0.00019077  0.95731601  1
  Ga  Ga51  1  0.01169956  0.83833837  0.87055091  1
  Ga  Ga52  1  0.15448318  0.16532208  0.47620383  1
  Ga  Ga53  1  0.01083890  0.84551682  0.47620383  1
  Ga  Ga54  1  0.50030293  0.17235590  0.36736507  1
  Ga  Ga55  1  0.49649143  0.66169608  0.97022231  1
  Ga  Ga56  1  0.32794703  0.50030293  0.86736507  1
  Ga  Ga57  1  0.98916110  0.15448318  0.97620383  1
  Ga  Ga58  1  0.67812033  0.50638100  0.97338669  1
  Ga  Ga59  1  0.83833837  0.82663881  0.37055091  1
  Ga  Ga60  1  0.67174932  0.67155855  0.95731601  1
  Ga  Ga61  1  0.99980923  0.32825068  0.95731601  1
  Ga  Ga62  1  0.83479534  0.49649143  0.47022231  1
  Ga  Ga63  1  0.51073748  0.34521001  0.86682114  1
  Ga  Ga64  1  0.98830044  0.16166163  0.37055091  1
  Ga  Ga65  1  0.48926252  0.65478999  0.36682114  1
  Ga  Ga66  1  0.33779192  0.00001908  0.36767367  1
  Ga  Ga67  1  0.17235590  0.67205297  0.86736507  1
  Ga  Ga68  1  0.83467792  0.98916110  0.47620383  1
  Ga  Ga69  1  0.67155855  0.99980923  0.45731601  1
  Ga  Ga70  1  0.33777284  0.33779192  0.86767367  1
  Ga  Ga71  1  0.66222716  0.66220808  0.36767367  1
  O  O72  1  0.20949844  0.10804403  0.86684862  1
  O  O73  1  0.89467206  0.28678205  0.88026079  1
  O  O74  1  0.21833243  0.60469539  0.87299297  1
  O  O75  1  0.44421837  0.88006844  0.47514338  1
  O  O76  1  0.33374326  0.99005010  0.16155649  1
  O  O77  1  0.39210999  0.10532794  0.88026079  1
  O  O78  1  0.10532794  0.71321795  0.38026079  1
  O  O79  1  0.38636296  0.78166757  0.87299297  1
  O  O80  1  0.39530461  0.61363704  0.87299297  1
  O  O81  1  0.44888990  0.06060327  0.42051598  1
  O  O82  1  0.70836512  0.10963450  0.93044915  1
  O  O83  1  0.55332952  0.27518197  0.88456748  1
  O  O84  1  0.10145442  0.20949844  0.36684862  1
  O  O85  1  0.52391385  0.80602767  0.67235287  1
  O  O86  1  0.57091775  0.64128604  0.86449409  1
  O  O87  1  0.71788618  0.52391385  0.17235287  1
  O  O88  1  0.72185245  0.44667048  0.88456748  1
  O  O89  1  0.46811753  0.61698316  0.16593644  1
  O  O90  1  0.06060327  0.61171338  0.92051598  1
  O  O91  1  0.38301684  0.85113437  0.16593644  1
  O  O92  1  0.89195597  0.10145442  0.86684862  1
  O  O93  1  0.35871396  0.92963170  0.86449409  1
  O  O94  1  0.92963170  0.57091775  0.36449409  1
  O  O95  1  0.80602767  0.28211382  0.17235287  1
  O  O96  1  0.05291728  0.93980138  0.96497656  1
  O  O97  1  0.42908225  0.35871396  0.36449409  1
  O  O98  1  0.55111010  0.93939673  0.92051598  1
  O  O99  1  0.11311590  0.05291728  0.46497656  1
  O  O100  1  0.23451996  0.27511861  0.95775134  1
  O  O101  1  0.21723261  0.95418438  0.90958041  1
  O  O102  1  0.07036830  0.42908225  0.86449409  1
  O  O103  1  0.61171338  0.55111010  0.42051598  1
  O  O104  1  0.38828662  0.44888990  0.92051598  1
  O  O105  1  0.78166757  0.39530461  0.37299297  1
  O  O106  1  0.26304823  0.21723261  0.40958041  1
  O  O107  1  0.85113437  0.46811753  0.66593644  1
  O  O108  1  0.95418438  0.73695177  0.40958041  1
  O  O109  1  0.11993156  0.56414993  0.47514338  1
  O  O110  1  0.44667048  0.72481803  0.38456748  1
  O  O111  1  0.06019862  0.11311590  0.96497656  1
  O  O112  1  0.88688410  0.94708272  0.96497656  1
  O  O113  1  0.34369316  0.33374326  0.66155649  1
  O  O114  1  0.10963450  0.40126938  0.43044915  1
  O  O115  1  0.79050156  0.89195597  0.36684862  1
  O  O116  1  0.13420247  0.18671712  0.67355212  1
  O  O117  1  0.73695177  0.78276739  0.90958041  1
  O  O118  1  0.53188247  0.38301684  0.66593644  1
  O  O119  1  0.47608615  0.19397233  0.17235287  1
  O  O120  1  0.00994990  0.34369316  0.16155649  1
  O  O121  1  0.27511861  0.04059865  0.45775134  1
  O  O122  1  0.61698316  0.14886563  0.66593644  1
  O  O123  1  0.28211382  0.47608615  0.67235287  1
  O  O124  1  0.72481803  0.27814755  0.88456748  1
  O  O125  1  0.53844653  0.77415811  0.99076812  1
  O  O126  1  0.27518197  0.72185245  0.38456748  1
  O  O127  1  0.05251466  0.86579753  0.67355212  1
  O  O128  1  0.81328288  0.94748534  0.67355212  1
  O  O129  1  0.72488139  0.95940135  0.95775134  1
  O  O130  1  0.89854558  0.79050156  0.86684862  1
  O  O131  1  0.59873062  0.70836512  0.43044915  1
  O  O132  1  0.60469539  0.38636296  0.37299297  1
  O  O133  1  0.76428842  0.53844653  0.49076812  1
  O  O134  1  0.77415811  0.23571158  0.49076812  1
  O  O135  1  0.65630684  0.66625674  0.16155649  1
  O  O136  1  0.23571158  0.46155347  0.99076812  1
  O  O137  1  0.46155347  0.22584189  0.49076812  1
  O  O138  1  0.64128604  0.07036830  0.36449409  1
  O  O139  1  0.94748534  0.13420247  0.17355212  1
  O  O140  1  0.40126938  0.29163488  0.93044915  1
  O  O141  1  0.88006844  0.43585007  0.97514338  1
  O  O142  1  0.95940135  0.23451996  0.45775134  1
  O  O143  1  0.04059865  0.76548004  0.95775134  1
  O  O144  1  0.99005010  0.65630684  0.66155649  1
  O  O145  1  0.19397233  0.71788618  0.67235287  1
  O  O146  1  0.60789001  0.89467206  0.38026079  1
  O  O147  1  0.04581562  0.26304823  0.90958041  1
  O  O148  1  0.14886563  0.53188247  0.16593644  1
  O  O149  1  0.76548004  0.72488139  0.45775134  1
  O  O150  1  0.29163488  0.89036550  0.43044915  1
  O  O151  1  0.55578163  0.11993156  0.97514338  1
  O  O152  1  0.10804403  0.89854558  0.36684862  1
  O  O153  1  0.56414993  0.44421837  0.97514338  1
  O  O154  1  0.61363704  0.21833243  0.37299297  1
  O  O155  1  0.93980138  0.88688410  0.46497656  1
  O  O156  1  0.89036550  0.59873062  0.93044915  1
  O  O157  1  0.28678205  0.39210999  0.38026079  1
  O  O158  1  0.18671712  0.05251466  0.17355212  1
  O  O159  1  0.66625674  0.00994990  0.66155649  1
  O  O160  1  0.43585007  0.55578163  0.47514338  1
  O  O161  1  0.93939673  0.38828662  0.42051598  1
  O  O162  1  0.94708272  0.06019862  0.46497656  1
  O  O163  1  0.86579753  0.81328288  0.17355212  1
  O  O164  1  0.78276739  0.04581562  0.40958041  1
  O  O165  1  0.22584189  0.76428842  0.99076812  1
  O  O166  1  0.27814755  0.55332952  0.38456748  1
  O  O167  1  0.71321795  0.60789001  0.88026079  1
