# generated using pymatgen
data_Ca2Zr5Ti2O16
_symmetry_space_group_name_H-M   'P 1'
_cell_length_a   10.25199374
_cell_length_b   15.42120792
_cell_length_c   15.40930966
_cell_angle_alpha   90.00000000
_cell_angle_beta   90.00000000
_cell_angle_gamma   90.00000000
_symmetry_Int_Tables_number   1
_chemical_formula_structural   Ca2Zr5Ti2O16
_chemical_formula_sum   'Ca16 Zr40 Ti16 O128'
_cell_volume   2436.18299652
_cell_formula_units_Z   8
loop_
 _symmetry_equiv_pos_site_id
 _symmetry_equiv_pos_as_xyz
  1  'x, y, z'
loop_
 _atom_site_type_symbol
 _atom_site_label
 _atom_site_symmetry_multiplicity
 _atom_site_fract_x
 _atom_site_fract_y
 _atom_site_fract_z
 _atom_site_occupancy
  Ca  Ca0  1  0.12633989  0.33210768  0.58151129  1
  Ca  Ca1  1  0.62633989  0.16789232  0.41848871  1
  Ca  Ca2  1  0.87616407  0.16744208  0.58313384  1
  Ca  Ca3  1  0.87616407  0.33255792  0.08313384  1
  Ca  Ca4  1  0.62383593  0.66744208  0.58313384  1
  Ca  Ca5  1  0.62383593  0.83255792  0.08313384  1
  Ca  Ca6  1  0.37366011  0.83210768  0.58151129  1
  Ca  Ca7  1  0.12633989  0.16789232  0.08151129  1
  Ca  Ca8  1  0.12383593  0.66744208  0.91686616  1
  Ca  Ca9  1  0.37366011  0.66789232  0.08151129  1
  Ca  Ca10  1  0.62633989  0.33210768  0.91848871  1
  Ca  Ca11  1  0.37616407  0.33255792  0.41686616  1
  Ca  Ca12  1  0.37616407  0.16744208  0.91686616  1
  Ca  Ca13  1  0.87366011  0.66789232  0.41848871  1
  Ca  Ca14  1  0.87366011  0.83210768  0.91848871  1
  Ca  Ca15  1  0.12383593  0.83255792  0.41686616  1
  Zr  Zr16  1  0.39298568  0.98001184  0.41023833  1
  Zr  Zr17  1  0.38799834  0.48233471  0.58678904  1
  Zr  Zr18  1  0.35601631  0.83984033  0.23066321  1
  Zr  Zr19  1  0.60701432  0.01998816  0.58976167  1
  Zr  Zr20  1  0.63759035  0.66341133  0.23105913  1
  Zr  Zr21  1  0.12521692  0.48332401  0.76527660  1
  Zr  Zr22  1  0.62521692  0.48332401  0.73472340  1
  Zr  Zr23  1  0.10701432  0.01998816  0.91023833  1
  Zr  Zr24  1  0.87478308  0.51667599  0.23472340  1
  Zr  Zr25  1  0.35601631  0.66015967  0.73066321  1
  Zr  Zr26  1  0.61200166  0.51766529  0.41321096  1
  Zr  Zr27  1  0.88799834  0.48233471  0.91321096  1
  Zr  Zr28  1  0.14398369  0.16015967  0.73066321  1
  Zr  Zr29  1  0.38799834  0.01766529  0.08678904  1
  Zr  Zr30  1  0.37478308  0.51667599  0.26527660  1
  Zr  Zr31  1  0.85601631  0.66015967  0.76933679  1
  Zr  Zr32  1  0.88799834  0.01766529  0.41321096  1
  Zr  Zr33  1  0.87478308  0.98332401  0.73472340  1
  Zr  Zr34  1  0.61200166  0.98233471  0.91321096  1
  Zr  Zr35  1  0.13759035  0.83658867  0.76894087  1
  Zr  Zr36  1  0.11200166  0.98233471  0.58678904  1
  Zr  Zr37  1  0.10701432  0.48001184  0.41023833  1
  Zr  Zr38  1  0.89298568  0.98001184  0.08976167  1
  Zr  Zr39  1  0.39298568  0.51998816  0.91023833  1
  Zr  Zr40  1  0.13759035  0.66341133  0.26894087  1
  Zr  Zr41  1  0.86240965  0.33658867  0.73105913  1
  Zr  Zr42  1  0.37478308  0.98332401  0.76527660  1
  Zr  Zr43  1  0.36240965  0.16341133  0.26894087  1
  Zr  Zr44  1  0.36240965  0.33658867  0.76894087  1
  Zr  Zr45  1  0.63759035  0.83658867  0.73105913  1
  Zr  Zr46  1  0.64398369  0.33984033  0.26933679  1
  Zr  Zr47  1  0.12521692  0.01667599  0.26527660  1
  Zr  Zr48  1  0.60701432  0.48001184  0.08976167  1
  Zr  Zr49  1  0.86240965  0.16341133  0.23105913  1
  Zr  Zr50  1  0.14398369  0.33984033  0.23066321  1
  Zr  Zr51  1  0.64398369  0.16015967  0.76933679  1
  Zr  Zr52  1  0.62521692  0.01667599  0.23472340  1
  Zr  Zr53  1  0.89298568  0.51998816  0.58976167  1
  Zr  Zr54  1  0.85601631  0.83984033  0.26933679  1
  Zr  Zr55  1  0.11200166  0.51766529  0.08678904  1
  Ti  Ti56  1  0.87679802  0.16370802  0.91445311  1
  Ti  Ti57  1  0.12320198  0.66370802  0.58554689  1
  Ti  Ti58  1  0.37679802  0.16370802  0.58554689  1
  Ti  Ti59  1  0.62650276  0.17298080  0.07744087  1
  Ti  Ti60  1  0.62650276  0.32701920  0.57744087  1
  Ti  Ti61  1  0.12650276  0.17298080  0.42255913  1
  Ti  Ti62  1  0.37679802  0.33629198  0.08554689  1
  Ti  Ti63  1  0.37349724  0.82701920  0.92255913  1
  Ti  Ti64  1  0.87679802  0.33629198  0.41445311  1
  Ti  Ti65  1  0.12650276  0.32701920  0.92255913  1
  Ti  Ti66  1  0.87349724  0.82701920  0.57744087  1
  Ti  Ti67  1  0.62320198  0.83629198  0.41445311  1
  Ti  Ti68  1  0.62320198  0.66370802  0.91445311  1
  Ti  Ti69  1  0.12320198  0.83629198  0.08554689  1
  Ti  Ti70  1  0.87349724  0.67298080  0.07744087  1
  Ti  Ti71  1  0.37349724  0.67298080  0.42255913  1
  O  O72  1  0.04358372  0.92190494  0.00584648  1
  O  O73  1  0.24966351  0.07058491  0.99860104  1
  O  O74  1  0.49309841  0.61707789  0.83511309  1
  O  O75  1  0.29711229  0.25708949  0.17197252  1
  O  O76  1  0.75210482  0.21279547  0.00044818  1
  O  O77  1  0.50726302  0.43368154  0.32948197  1
  O  O78  1  0.74666333  0.07845509  0.68455609  1
  O  O79  1  0.25033649  0.92941509  0.49860104  1
  O  O80  1  0.75014686  0.91796339  0.64020786  1
  O  O81  1  0.24666333  0.07845509  0.81544391  1
  O  O82  1  0.45641628  0.07809506  0.50584648  1
  O  O83  1  0.74720199  0.41580310  0.36760919  1
  O  O84  1  0.50422764  0.93301616  0.66992976  1
  O  O85  1  0.74180489  0.91862506  0.81747129  1
  O  O86  1  0.49929390  0.75052373  0.96276885  1
  O  O87  1  0.29711229  0.24291051  0.67197252  1
  O  O88  1  0.24985314  0.41796339  0.85979214  1
  O  O89  1  0.25014686  0.91796339  0.85979214  1
  O  O90  1  0.20288771  0.74291051  0.67197252  1
  O  O91  1  0.00422764  0.93301616  0.83007024  1
  O  O92  1  0.50690159  0.11707789  0.66488691  1
  O  O93  1  0.75210482  0.28720453  0.50044818  1
  O  O94  1  0.74966351  0.07058491  0.50139896  1
  O  O95  1  0.99273698  0.56631846  0.82948197  1
  O  O96  1  0.24966351  0.42941509  0.49860104  1
  O  O97  1  0.25279801  0.91580310  0.13239081  1
  O  O98  1  0.50726302  0.06631846  0.82948197  1
  O  O99  1  0.00422764  0.56698384  0.33007024  1
  O  O100  1  0.99929390  0.74947627  0.03723115  1
  O  O101  1  0.49577236  0.06698384  0.33007024  1
  O  O102  1  0.50286433  0.24968644  0.82062682  1
  O  O103  1  0.25819511  0.41862506  0.68252871  1
  O  O104  1  0.00690159  0.38292211  0.33511309  1
  O  O105  1  0.00070610  0.24947627  0.46276885  1
  O  O106  1  0.00286433  0.25031356  0.17937318  1
  O  O107  1  0.25333667  0.92154491  0.31544391  1
  O  O108  1  0.04499465  0.07802157  0.49252544  1
  O  O109  1  0.75819511  0.08137494  0.31747129  1
  O  O110  1  0.00690159  0.11707789  0.83511309  1
  O  O111  1  0.00286433  0.24968644  0.67937318  1
  O  O112  1  0.74180489  0.58137494  0.31747129  1
  O  O113  1  0.49713567  0.75031356  0.17937318  1
  O  O114  1  0.70877315  0.24346902  0.17166196  1
  O  O115  1  0.25210482  0.28720453  0.99955182  1
  O  O116  1  0.49644726  0.88932359  0.83149715  1
  O  O117  1  0.25210482  0.21279547  0.49955182  1
  O  O118  1  0.74966351  0.42941509  0.00139896  1
  O  O119  1  0.00355274  0.38932359  0.83149715  1
  O  O120  1  0.99273698  0.93368154  0.32948197  1
  O  O121  1  0.45641628  0.42190494  0.00584648  1
  O  O122  1  0.49713567  0.74968644  0.67937318  1
  O  O123  1  0.49309841  0.88292211  0.33511309  1
  O  O124  1  0.04358372  0.57809506  0.50584648  1
  O  O125  1  0.00070610  0.25052373  0.96276885  1
  O  O126  1  0.24180489  0.91862506  0.68252871  1
  O  O127  1  0.50070610  0.24947627  0.03723115  1
  O  O128  1  0.00726302  0.06631846  0.67051803  1
  O  O129  1  0.54358372  0.57809506  0.99415352  1
  O  O130  1  0.50690159  0.38292211  0.16488691  1
  O  O131  1  0.99713567  0.75031356  0.32062682  1
  O  O132  1  0.75279801  0.91580310  0.36760919  1
  O  O133  1  0.79122685  0.75653098  0.67166196  1
  O  O134  1  0.20288771  0.75708949  0.17197252  1
  O  O135  1  0.49273698  0.56631846  0.67051803  1
  O  O136  1  0.75333667  0.92154491  0.18455609  1
  O  O137  1  0.99577236  0.43301616  0.66992976  1
  O  O138  1  0.75819511  0.41862506  0.81747129  1
  O  O139  1  0.25033649  0.57058491  0.99860104  1
  O  O140  1  0.24720199  0.08419690  0.63239081  1
  O  O141  1  0.50422764  0.56698384  0.16992976  1
  O  O142  1  0.74789518  0.71279547  0.00044818  1
  O  O143  1  0.50355274  0.38932359  0.66850285  1
  O  O144  1  0.74720199  0.08419690  0.86760919  1
  O  O145  1  0.75333667  0.57845509  0.68455609  1
  O  O146  1  0.74666333  0.42154491  0.18455609  1
  O  O147  1  0.29122685  0.75653098  0.82833804  1
  O  O148  1  0.79711229  0.24291051  0.82802748  1
  O  O149  1  0.70877315  0.25653098  0.67166196  1
  O  O150  1  0.20877315  0.25653098  0.82833804  1
  O  O151  1  0.95641628  0.07809506  0.99415352  1
  O  O152  1  0.25014686  0.58203661  0.35979214  1
  O  O153  1  0.49577236  0.43301616  0.83007024  1
  O  O154  1  0.95500535  0.57802157  0.00747456  1
  O  O155  1  0.49644726  0.61067641  0.33149715  1
  O  O156  1  0.45500535  0.92197843  0.99252544  1
  O  O157  1  0.24180489  0.58137494  0.18252871  1
  O  O158  1  0.50070610  0.25052373  0.53723115  1
  O  O159  1  0.24666333  0.42154491  0.31544391  1
  O  O160  1  0.24720199  0.41580310  0.13239081  1
  O  O161  1  0.04499465  0.42197843  0.99252544  1
  O  O162  1  0.54499465  0.07802157  0.00747456  1
  O  O163  1  0.25333667  0.57845509  0.81544391  1
  O  O164  1  0.25819511  0.08137494  0.18252871  1
  O  O165  1  0.29122685  0.74346902  0.32833804  1
  O  O166  1  0.70288771  0.75708949  0.32802748  1
  O  O167  1  0.50286433  0.25031356  0.32062682  1
  O  O168  1  0.99644726  0.61067641  0.16850285  1
  O  O169  1  0.24789518  0.78720453  0.99955182  1
  O  O170  1  0.45500535  0.57802157  0.49252544  1
  O  O171  1  0.79711229  0.25708949  0.32802748  1
  O  O172  1  0.99713567  0.74968644  0.82062682  1
  O  O173  1  0.24789518  0.71279547  0.49955182  1
  O  O174  1  0.95641628  0.42190494  0.49415352  1
  O  O175  1  0.49929390  0.74947627  0.46276885  1
  O  O176  1  0.49273698  0.93368154  0.17051803  1
  O  O177  1  0.95500535  0.92197843  0.50747456  1
  O  O178  1  0.20877315  0.24346902  0.32833804  1
  O  O179  1  0.24985314  0.08203661  0.35979214  1
  O  O180  1  0.75279801  0.58419690  0.86760919  1
  O  O181  1  0.74985314  0.41796339  0.64020786  1
  O  O182  1  0.74789518  0.78720453  0.50044818  1
  O  O183  1  0.75033649  0.92941509  0.00139896  1
  O  O184  1  0.54499465  0.42197843  0.50747456  1
  O  O185  1  0.75033649  0.57058491  0.50139896  1
  O  O186  1  0.74985314  0.08203661  0.14020786  1
  O  O187  1  0.70288771  0.74291051  0.82802748  1
  O  O188  1  0.79122685  0.74346902  0.17166196  1
  O  O189  1  0.25279801  0.58419690  0.63239081  1
  O  O190  1  0.50355274  0.11067641  0.16850285  1
  O  O191  1  0.99309841  0.61707789  0.66488691  1
  O  O192  1  0.99577236  0.06698384  0.16992976  1
  O  O193  1  0.99929390  0.75052373  0.53723115  1
  O  O194  1  0.00726302  0.43368154  0.17051803  1
  O  O195  1  0.54358372  0.92190494  0.49415352  1
  O  O196  1  0.99309841  0.88292211  0.16488691  1
  O  O197  1  0.00355274  0.11067641  0.33149715  1
  O  O198  1  0.75014686  0.58203661  0.14020786  1
  O  O199  1  0.99644726  0.88932359  0.66850285  1
