# generated using pymatgen
data_Gd3RuO7
_symmetry_space_group_name_H-M   'P 1'
_cell_length_a   7.44049956
_cell_length_b   10.66609733
_cell_length_c   14.78366011
_cell_angle_alpha   90.00000000
_cell_angle_beta   90.00000000
_cell_angle_gamma   90.00000000
_symmetry_Int_Tables_number   1
_chemical_formula_structural   Gd3RuO7
_chemical_formula_sum   'Gd24 Ru8 O56'
_cell_volume   1173.24741734
_cell_formula_units_Z   8
loop_
 _symmetry_equiv_pos_site_id
 _symmetry_equiv_pos_as_xyz
  1  'x, y, z'
loop_
 _atom_site_type_symbol
 _atom_site_label
 _atom_site_symmetry_multiplicity
 _atom_site_fract_x
 _atom_site_fract_y
 _atom_site_fract_z
 _atom_site_occupancy
  Gd  Gd0  1  0.25000234  0.72943486  0.47194665  1
  Gd  Gd1  1  0.74310912  0.71736566  0.27283257  1
  Gd  Gd2  1  0.24999766  0.72943486  0.97194665  1
  Gd  Gd3  1  0.24310912  0.21736566  0.22716743  1
  Gd  Gd4  1  0.25689088  0.21736566  0.72716743  1
  Gd  Gd5  1  0.75000234  0.22943486  0.02805335  1
  Gd  Gd6  1  0.75530802  0.26950625  0.77745947  1
  Gd  Gd7  1  0.75689088  0.71736566  0.77283257  1
  Gd  Gd8  1  0.76359567  0.77984075  0.02155479  1
  Gd  Gd9  1  0.00362539  0.00724337  0.38864962  1
  Gd  Gd10  1  0.25530802  0.76950625  0.72254053  1
  Gd  Gd11  1  0.50362539  0.50724337  0.11135038  1
  Gd  Gd12  1  0.00415095  0.49068328  0.13836798  1
  Gd  Gd13  1  0.24469198  0.76950625  0.22254053  1
  Gd  Gd14  1  0.50415095  0.99068328  0.36163202  1
  Gd  Gd15  1  0.99637461  0.50724337  0.61135038  1
  Gd  Gd16  1  0.26359567  0.27984075  0.47844521  1
  Gd  Gd17  1  0.74469198  0.26950625  0.27745947  1
  Gd  Gd18  1  0.73640433  0.77984075  0.52155479  1
  Gd  Gd19  1  0.99584905  0.99068328  0.86163202  1
  Gd  Gd20  1  0.49584905  0.49068328  0.63836798  1
  Gd  Gd21  1  0.74999766  0.22943486  0.52805335  1
  Gd  Gd22  1  0.23640433  0.27984075  0.97844521  1
  Gd  Gd23  1  0.49637461  0.00724337  0.88864962  1
  Ru  Ru24  1  0.49748282  0.49975678  0.37302411  1
  Ru  Ru25  1  0.99748282  0.99975678  0.12697589  1
  Ru  Ru26  1  0.99844862  0.49816648  0.37558849  1
  Ru  Ru27  1  0.00251718  0.49975678  0.87302411  1
  Ru  Ru28  1  0.49844862  0.99816648  0.12441151  1
  Ru  Ru29  1  0.00155138  0.99816648  0.62441151  1
  Ru  Ru30  1  0.50251718  0.99975678  0.62697589  1
  Ru  Ru31  1  0.50155138  0.49816648  0.87558849  1
  O  O32  1  0.95731959  0.62674351  0.46893143  1
  O  O33  1  0.26653891  0.63384198  0.60573980  1
  O  O34  1  0.73346109  0.13384198  0.39426020  1
  O  O35  1  0.26504208  0.36859002  0.11873270  1
  O  O36  1  0.23346109  0.63384198  0.10573980  1
  O  O37  1  0.03714891  0.36806206  0.27985885  1
  O  O38  1  0.95892417  0.10564511  0.23728935  1
  O  O39  1  0.54268041  0.62674351  0.96893143  1
  O  O40  1  0.04268041  0.12674351  0.53106857  1
  O  O41  1  0.54107583  0.10564511  0.73728935  1
  O  O42  1  0.46583818  0.87127329  0.02950595  1
  O  O43  1  0.23495792  0.36859002  0.61873270  1
  O  O44  1  0.45892417  0.60564511  0.26271065  1
  O  O45  1  0.46285109  0.36806206  0.77985885  1
  O  O46  1  0.53714891  0.86806206  0.22014115  1
  O  O47  1  0.95988603  0.39627461  0.98465538  1
  O  O48  1  0.96468385  0.12388988  0.71985409  1
  O  O49  1  0.74134184  0.63007263  0.63138432  1
  O  O50  1  0.03416182  0.87127329  0.52950595  1
  O  O51  1  0.45731959  0.12674351  0.03106857  1
  O  O52  1  0.24134184  0.13007263  0.86861568  1
  O  O53  1  0.95594997  0.65610370  0.93810152  1
  O  O54  1  0.75099446  0.49095761  0.83070277  1
  O  O55  1  0.25099446  0.99095761  0.66929723  1
  O  O56  1  0.76242076  0.36603550  0.64388971  1
  O  O57  1  0.95089537  0.84862700  0.19418845  1
  O  O58  1  0.04107583  0.60564511  0.76271065  1
  O  O59  1  0.53416182  0.37127329  0.97049405  1
  O  O60  1  0.54011397  0.39627461  0.48465538  1
  O  O61  1  0.25114851  0.50737569  0.91898436  1
  O  O62  1  0.96583818  0.37127329  0.47049405  1
  O  O63  1  0.74885149  0.00737569  0.08101564  1
  O  O64  1  0.04910463  0.34862700  0.80581155  1
  O  O65  1  0.24900554  0.99095761  0.16929723  1
  O  O66  1  0.03531615  0.62388988  0.28014591  1
  O  O67  1  0.54405003  0.65610370  0.43810152  1
  O  O68  1  0.75865816  0.63007263  0.13138432  1
  O  O69  1  0.73495792  0.86859002  0.88126730  1
  O  O70  1  0.45988603  0.89627461  0.51534462  1
  O  O71  1  0.26242076  0.86603550  0.85611029  1
  O  O72  1  0.04405003  0.15610370  0.06189848  1
  O  O73  1  0.45594997  0.15610370  0.56189848  1
  O  O74  1  0.25865816  0.13007263  0.36861568  1
  O  O75  1  0.74900554  0.49095761  0.33070277  1
  O  O76  1  0.96285109  0.86806206  0.72014115  1
  O  O77  1  0.24885149  0.50737569  0.41898436  1
  O  O78  1  0.53531615  0.12388988  0.21985409  1
  O  O79  1  0.54910463  0.84862700  0.69418845  1
  O  O80  1  0.04011397  0.89627461  0.01534462  1
  O  O81  1  0.76653891  0.13384198  0.89426020  1
  O  O82  1  0.23757924  0.86603550  0.35611029  1
  O  O83  1  0.46468385  0.62388988  0.78014591  1
  O  O84  1  0.73757924  0.36603550  0.14388971  1
  O  O85  1  0.75114851  0.00737569  0.58101564  1
  O  O86  1  0.45089537  0.34862700  0.30581155  1
  O  O87  1  0.76504208  0.86859002  0.38126730  1
