# generated using pymatgen
data_NaTi2(PO4)3
_symmetry_space_group_name_H-M   'P 1'
_cell_length_a   8.86750966
_cell_length_b   8.86750966
_cell_length_c   8.86750967
_cell_angle_alpha   58.13793144
_cell_angle_beta   58.13793144
_cell_angle_gamma   58.13793144
_symmetry_Int_Tables_number   1
_chemical_formula_structural   NaTi2(PO4)3
_chemical_formula_sum   'Na2 Ti4 P6 O24'
_cell_volume   472.00470284
_cell_formula_units_Z   2
loop_
 _symmetry_equiv_pos_site_id
 _symmetry_equiv_pos_as_xyz
  1  'x, y, z'
loop_
 _atom_site_type_symbol
 _atom_site_label
 _atom_site_symmetry_multiplicity
 _atom_site_fract_x
 _atom_site_fract_y
 _atom_site_fract_z
 _atom_site_occupancy
  O  O0  1  0.77995060  0.42299194  0.56033236  1
  O  O1  1  0.42299194  0.56033236  0.77995060  1
  O  O2  1  0.56033236  0.77995060  0.42299194  1
  O  O3  1  0.93966764  0.07700806  0.72004940  1
  O  O4  1  0.07700806  0.72004940  0.93966764  1
  O  O5  1  0.72004940  0.93966764  0.07700806  1
  O  O6  1  0.22004940  0.57700806  0.43966764  1
  O  O7  1  0.57700806  0.43966764  0.22004940  1
  O  O8  1  0.43966764  0.22004940  0.57700806  1
  O  O9  1  0.06033236  0.92299194  0.27995060  1
  O  O10  1  0.92299194  0.27995060  0.06033236  1
  O  O11  1  0.27995060  0.06033236  0.92299194  1
  O  O12  1  0.36764151  0.99702961  0.21351944  1
  O  O13  1  0.21351944  0.36764151  0.99702961  1
  O  O14  1  0.99702961  0.21351944  0.36764151  1
  O  O15  1  0.50297039  0.13235849  0.28648056  1
  O  O16  1  0.28648056  0.50297039  0.13235849  1
  O  O17  1  0.13235849  0.28648056  0.50297039  1
  O  O18  1  0.63235849  0.00297039  0.78648056  1
  O  O19  1  0.78648056  0.63235849  0.00297039  1
  O  O20  1  0.00297039  0.78648056  0.63235849  1
  O  O21  1  0.49702961  0.86764151  0.71351944  1
  O  O22  1  0.71351944  0.49702961  0.86764151  1
  O  O23  1  0.86764151  0.71351944  0.49702961  1
  Na  Na24  1  0.00000000  0.00000000  0.00000000  1
  Na  Na25  1  0.50000000  0.50000000  0.50000000  1
  P  P26  1  0.75000000  0.46279026  0.03720974  1
  P  P27  1  0.46279026  0.03720974  0.75000000  1
  P  P28  1  0.25000000  0.53720974  0.96279026  1
  P  P29  1  0.53720974  0.96279026  0.25000000  1
  P  P30  1  0.03720974  0.75000000  0.46279026  1
  P  P31  1  0.96279026  0.25000000  0.53720974  1
  Ti  Ti32  1  0.35540791  0.35540791  0.35540791  1
  Ti  Ti33  1  0.14459209  0.14459209  0.14459209  1
  Ti  Ti34  1  0.85540791  0.85540791  0.85540791  1
  Ti  Ti35  1  0.64459209  0.64459209  0.64459209  1
