# generated using pymatgen
data_Ca3UN4
_symmetry_space_group_name_H-M   'P 1'
_cell_length_a   6.92183800
_cell_length_b   9.21330816
_cell_length_c   6.08064926
_cell_angle_alpha   29.08252039
_cell_angle_beta   55.27427273
_cell_angle_gamma   41.29296831
_symmetry_Int_Tables_number   1
_chemical_formula_structural   Ca3UN4
_chemical_formula_sum   'Ca3 U1 N4'
_cell_volume   119.72625028
_cell_formula_units_Z   1
loop_
 _symmetry_equiv_pos_site_id
 _symmetry_equiv_pos_as_xyz
  1  'x, y, z'
loop_
 _atom_site_type_symbol
 _atom_site_label
 _atom_site_symmetry_multiplicity
 _atom_site_fract_x
 _atom_site_fract_y
 _atom_site_fract_z
 _atom_site_occupancy
  Ca  Ca0  1  0.24864899  0.50275737  0.99640221  1
  Ca  Ca1  1  0.74849194  0.50273390  0.99670523  1
  Ca  Ca2  1  0.49720094  0.00314269  0.99765559  1
  U  U3  1  0.99525545  0.00482131  0.99456997  1
  N  N4  1  0.51147253  0.48967062  0.50966673  1
  N  N5  1  0.20102127  0.00247879  0.59251380  1
  N  N6  1  0.99809666  0.50907918  0.49024593  1
  N  N7  1  0.79694821  0.00227315  0.40126353  1
