# generated using pymatgen
data_La5Ga3
_symmetry_space_group_name_H-M   'P 1'
_cell_length_a   8.09044227
_cell_length_b   8.09044227
_cell_length_c   14.80862022
_cell_angle_alpha   90.00000000
_cell_angle_beta   90.00000000
_cell_angle_gamma   90.00000000
_symmetry_Int_Tables_number   1
_chemical_formula_structural   La5Ga3
_chemical_formula_sum   'La20 Ga12'
_cell_volume   969.30202935
_cell_formula_units_Z   4
loop_
 _symmetry_equiv_pos_site_id
 _symmetry_equiv_pos_as_xyz
  1  'x, y, z'
loop_
 _atom_site_type_symbol
 _atom_site_label
 _atom_site_symmetry_multiplicity
 _atom_site_fract_x
 _atom_site_fract_y
 _atom_site_fract_z
 _atom_site_occupancy
  La  La0  1  0.25000000  0.25000000  0.78066509  1
  La  La1  1  0.08891644  0.56564874  0.10183759  1
  La  La2  1  0.58891644  0.06564874  0.89816241  1
  La  La3  1  0.75000000  0.75000000  0.21933491  1
  La  La4  1  0.58891644  0.43435126  0.39816241  1
  La  La5  1  0.91108356  0.43435126  0.89816241  1
  La  La6  1  0.41108356  0.93435126  0.10183759  1
  La  La7  1  0.75000000  0.75000000  0.71933491  1
  La  La8  1  0.56564874  0.08891644  0.60183759  1
  La  La9  1  0.06564874  0.58891644  0.39816241  1
  La  La10  1  0.93435126  0.08891644  0.10183759  1
  La  La11  1  0.93435126  0.41108356  0.60183759  1
  La  La12  1  0.56564874  0.41108356  0.10183759  1
  La  La13  1  0.08891644  0.93435126  0.60183759  1
  La  La14  1  0.25000000  0.25000000  0.28066509  1
  La  La15  1  0.43435126  0.58891644  0.89816241  1
  La  La16  1  0.41108356  0.56564874  0.60183759  1
  La  La17  1  0.06564874  0.91108356  0.89816241  1
  La  La18  1  0.91108356  0.06564874  0.39816241  1
  La  La19  1  0.43435126  0.91108356  0.39816241  1
  Ga  Ga20  1  0.36711345  0.63288655  0.25000000  1
  Ga  Ga21  1  0.63288655  0.36711345  0.75000000  1
  Ga  Ga22  1  0.25000000  0.25000000  0.49546426  1
  Ga  Ga23  1  0.63288655  0.13288655  0.25000000  1
  Ga  Ga24  1  0.75000000  0.75000000  0.00453574  1
  Ga  Ga25  1  0.86711345  0.13288655  0.75000000  1
  Ga  Ga26  1  0.13288655  0.63288655  0.75000000  1
  Ga  Ga27  1  0.86711345  0.36711345  0.25000000  1
  Ga  Ga28  1  0.13288655  0.86711345  0.25000000  1
  Ga  Ga29  1  0.36711345  0.86711345  0.75000000  1
  Ga  Ga30  1  0.25000000  0.25000000  0.99546426  1
  Ga  Ga31  1  0.75000000  0.75000000  0.50453574  1
