# generated using pymatgen
data_Sm4Si2S3O7
_symmetry_space_group_name_H-M   'P 1'
_cell_length_a   10.96802996
_cell_length_b   10.96802996
_cell_length_c   10.96802996
_cell_angle_alpha   100.47501067
_cell_angle_beta   114.14810147
_cell_angle_gamma   114.14810150
_symmetry_Int_Tables_number   1
_chemical_formula_structural   Sm4Si2S3O7
_chemical_formula_sum   'Sm16 Si8 S12 O28'
_cell_volume   997.34471364
_cell_formula_units_Z   4
loop_
 _symmetry_equiv_pos_site_id
 _symmetry_equiv_pos_as_xyz
  1  'x, y, z'
loop_
 _atom_site_type_symbol
 _atom_site_label
 _atom_site_symmetry_multiplicity
 _atom_site_fract_x
 _atom_site_fract_y
 _atom_site_fract_z
 _atom_site_occupancy
  O  O0  1  0.25000000  0.39763637  0.14763637  1
  O  O1  1  0.75000000  0.14763637  0.39763637  1
  O  O2  1  0.75000000  0.60236363  0.85236363  1
  O  O3  1  0.25000000  0.85236363  0.60236363  1
  O  O4  1  0.02063379  0.82547530  0.34610909  1
  O  O5  1  0.47936621  0.82547530  0.80484150  1
  O  O6  1  0.47936621  0.65389091  0.17452470  1
  O  O7  1  0.97936621  0.80484150  0.82547530  1
  O  O8  1  0.52063379  0.34610909  0.82547530  1
  O  O9  1  0.52063379  0.17452470  0.19515850  1
  O  O10  1  0.97936621  0.17452470  0.65389091  1
  O  O11  1  0.02063379  0.19515850  0.17452470  1
  O  O12  1  0.77008258  0.92205474  0.43377087  1
  O  O13  1  0.72991742  0.16368829  0.15197217  1
  O  O14  1  0.72991742  0.56622913  0.07794526  1
  O  O15  1  0.98828388  0.15197217  0.92205474  1
  O  O16  1  0.51171612  0.43377087  0.16368829  1
  O  O17  1  0.51171612  0.07794526  0.84802783  1
  O  O18  1  0.98828388  0.83631171  0.56622913  1
  O  O19  1  0.77008258  0.84802783  0.83631171  1
  O  O20  1  0.22991742  0.07794526  0.56622913  1
  O  O21  1  0.27008258  0.83631171  0.84802783  1
  O  O22  1  0.27008258  0.43377087  0.92205474  1
  O  O23  1  0.01171612  0.84802783  0.07794526  1
  O  O24  1  0.48828388  0.56622913  0.83631171  1
  O  O25  1  0.48828388  0.92205474  0.15197217  1
  O  O26  1  0.01171612  0.16368829  0.43377087  1
  O  O27  1  0.22991742  0.15197217  0.16368829  1
  Si  Si28  1  0.37456686  0.90289617  0.77746304  1
  Si  Si29  1  0.12543314  0.90289617  0.52832931  1
  Si  Si30  1  0.12543314  0.22253696  0.09710383  1
  Si  Si31  1  0.62543314  0.52832931  0.90289617  1
  Si  Si32  1  0.87456686  0.77746304  0.90289617  1
  Si  Si33  1  0.87456686  0.09710383  0.47167069  1
  Si  Si34  1  0.62543314  0.09710383  0.22253696  1
  Si  Si35  1  0.37456686  0.47167069  0.09710383  1
  S  S36  1  0.25000000  0.12500000  0.87500000  1
  S  S37  1  0.75000000  0.87500000  0.12500000  1
  S  S38  1  0.75000000  0.37500000  0.62500000  1
  S  S39  1  0.25000000  0.62500000  0.37500000  1
  S  S40  1  0.85222720  0.50000000  0.35222720  1
  S  S41  1  0.85222720  0.35222720  0.00000000  1
  S  S42  1  0.64777280  0.64777280  0.50000000  1
  S  S43  1  0.64777280  0.00000000  0.64777280  1
  S  S44  1  0.14777280  0.50000000  0.64777280  1
  S  S45  1  0.14777280  0.64777280  0.00000000  1
  S  S46  1  0.35222720  0.35222720  0.50000000  1
  S  S47  1  0.35222720  0.00000000  0.35222720  1
  Sm  Sm48  1  0.09345467  0.04672734  0.29672734  1
  Sm  Sm49  1  0.25000000  0.29672734  0.70327266  1
  Sm  Sm50  1  0.25000000  0.95327266  0.04672734  1
  Sm  Sm51  1  0.40654533  0.70327266  0.95327266  1
  Sm  Sm52  1  0.90654533  0.95327266  0.70327266  1
  Sm  Sm53  1  0.75000000  0.70327266  0.29672734  1
  Sm  Sm54  1  0.75000000  0.04672734  0.95327266  1
  Sm  Sm55  1  0.59345467  0.29672734  0.04672734  1
  Sm  Sm56  1  0.01360792  0.65736985  0.17097777  1
  Sm  Sm57  1  0.48639208  0.65736985  0.64376192  1
  Sm  Sm58  1  0.48639208  0.82902223  0.34263015  1
  Sm  Sm59  1  0.98639208  0.64376192  0.65736985  1
  Sm  Sm60  1  0.51360792  0.17097777  0.65736985  1
  Sm  Sm61  1  0.51360792  0.34263015  0.35623808  1
  Sm  Sm62  1  0.98639208  0.34263015  0.82902223  1
  Sm  Sm63  1  0.01360792  0.35623808  0.34263015  1
