# generated using pymatgen
data_Ce6S4BrN3
_symmetry_space_group_name_H-M   'P 1'
_cell_length_a   3.98287566
_cell_length_b   11.39943119
_cell_length_c   27.14546977
_cell_angle_alpha   90.00000000
_cell_angle_beta   90.00000000
_cell_angle_gamma   90.00000000
_symmetry_Int_Tables_number   1
_chemical_formula_structural   Ce6S4BrN3
_chemical_formula_sum   'Ce24 S16 Br4 N12'
_cell_volume   1232.47265337
_cell_formula_units_Z   4
loop_
 _symmetry_equiv_pos_site_id
 _symmetry_equiv_pos_as_xyz
  1  'x, y, z'
loop_
 _atom_site_type_symbol
 _atom_site_label
 _atom_site_symmetry_multiplicity
 _atom_site_fract_x
 _atom_site_fract_y
 _atom_site_fract_z
 _atom_site_occupancy
  Ce  Ce0  1  0.75000000  0.25394500  0.82744151  1
  Ce  Ce1  1  0.75000000  0.75544947  0.93540846  1
  Ce  Ce2  1  0.75000000  0.10223573  0.96403666  1
  Ce  Ce3  1  0.25000000  0.87305823  0.78256561  1
  Ce  Ce4  1  0.75000000  0.55861263  0.80864901  1
  Ce  Ce5  1  0.75000000  0.05861263  0.69135099  1
  Ce  Ce6  1  0.25000000  0.94138737  0.30864901  1
  Ce  Ce7  1  0.25000000  0.24455053  0.06459154  1
  Ce  Ce8  1  0.75000000  0.05673573  0.42251210  1
  Ce  Ce9  1  0.25000000  0.94326427  0.57748790  1
  Ce  Ce10  1  0.75000000  0.55673573  0.07748790  1
  Ce  Ce11  1  0.25000000  0.39776427  0.46403666  1
  Ce  Ce12  1  0.25000000  0.89776427  0.03596334  1
  Ce  Ce13  1  0.25000000  0.44326427  0.92251210  1
  Ce  Ce14  1  0.25000000  0.44138737  0.19135099  1
  Ce  Ce15  1  0.75000000  0.12694177  0.21743439  1
  Ce  Ce16  1  0.75000000  0.75394500  0.67255849  1
  Ce  Ce17  1  0.25000000  0.74605500  0.17255849  1
  Ce  Ce18  1  0.25000000  0.74455053  0.43540846  1
  Ce  Ce19  1  0.75000000  0.60223573  0.53596334  1
  Ce  Ce20  1  0.75000000  0.62694177  0.28256561  1
  Ce  Ce21  1  0.25000000  0.37305823  0.71743439  1
  Ce  Ce22  1  0.75000000  0.25544947  0.56459154  1
  Ce  Ce23  1  0.25000000  0.24605500  0.32744151  1
  S  S24  1  0.75000000  0.31407979  0.13622679  1
  S  S25  1  0.75000000  0.29517070  0.39851652  1
  S  S26  1  0.25000000  0.13655316  0.76421883  1
  S  S27  1  0.75000000  0.85412760  0.49660718  1
  S  S28  1  0.25000000  0.20482930  0.89851652  1
  S  S29  1  0.25000000  0.64587240  0.99660718  1
  S  S30  1  0.25000000  0.68592021  0.86377321  1
  S  S31  1  0.25000000  0.70482930  0.60148348  1
  S  S32  1  0.75000000  0.86344684  0.23578117  1
  S  S33  1  0.75000000  0.35412760  0.00339282  1
  S  S34  1  0.25000000  0.14587240  0.50339282  1
  S  S35  1  0.25000000  0.18592021  0.63622679  1
  S  S36  1  0.25000000  0.63655316  0.73578117  1
  S  S37  1  0.75000000  0.81407979  0.36377321  1
  S  S38  1  0.75000000  0.79517070  0.10148348  1
  S  S39  1  0.75000000  0.36344684  0.26421883  1
  Br  Br40  1  0.25000000  0.03715978  0.13741925  1
  Br  Br41  1  0.25000000  0.53715978  0.36258075  1
  Br  Br42  1  0.75000000  0.46284022  0.63741925  1
  Br  Br43  1  0.75000000  0.96284022  0.86258075  1
  N  N44  1  0.75000000  0.93461020  0.62578795  1
  N  N45  1  0.25000000  0.06538980  0.37421205  1
  N  N46  1  0.25000000  0.56538980  0.12578795  1
  N  N47  1  0.75000000  0.40526589  0.51315637  1
  N  N48  1  0.25000000  0.61288576  0.23724080  1
  N  N49  1  0.75000000  0.43461020  0.87421205  1
  N  N50  1  0.75000000  0.38711424  0.76275920  1
  N  N51  1  0.75000000  0.90526589  0.98684363  1
  N  N52  1  0.25000000  0.59473411  0.48684363  1
  N  N53  1  0.25000000  0.11288576  0.26275920  1
  N  N54  1  0.25000000  0.09473411  0.01315637  1
  N  N55  1  0.75000000  0.88711424  0.73724080  1
