# generated using pymatgen
data_GdP5
_symmetry_space_group_name_H-M   'P 1'
_cell_length_a   4.93033728
_cell_length_b   5.40232437
_cell_length_c   9.51641931
_cell_angle_alpha   90.00000000
_cell_angle_beta   90.00000000
_cell_angle_gamma   102.51052463
_symmetry_Int_Tables_number   1
_chemical_formula_structural   GdP5
_chemical_formula_sum   'Gd2 P10'
_cell_volume   247.45411269
_cell_formula_units_Z   2
loop_
 _symmetry_equiv_pos_site_id
 _symmetry_equiv_pos_as_xyz
  1  'x, y, z'
loop_
 _atom_site_type_symbol
 _atom_site_label
 _atom_site_symmetry_multiplicity
 _atom_site_fract_x
 _atom_site_fract_y
 _atom_site_fract_z
 _atom_site_occupancy
  Gd  Gd0  1  0.01146430  0.35187572  0.25000000  1
  Gd  Gd1  1  0.98853570  0.64812428  0.75000000  1
  P  P2  1  0.61816438  0.95643779  0.40829277  1
  P  P3  1  0.28494102  0.40361586  0.53110622  1
  P  P4  1  0.72284369  0.09995382  0.75000000  1
  P  P5  1  0.61816438  0.95643779  0.09170723  1
  P  P6  1  0.71505898  0.59638414  0.46889378  1
  P  P7  1  0.27715631  0.90004618  0.25000000  1
  P  P8  1  0.38183562  0.04356221  0.59170723  1
  P  P9  1  0.28494102  0.40361586  0.96889378  1
  P  P10  1  0.38183562  0.04356221  0.90829277  1
  P  P11  1  0.71505898  0.59638414  0.03110622  1
