# generated using pymatgen
data_Cs3Tm2I9
_symmetry_space_group_name_H-M   'P 1'
_cell_length_a   8.60227822
_cell_length_b   8.60225292
_cell_length_c   21.64075807
_cell_angle_alpha   90.00003772
_cell_angle_beta   89.99995992
_cell_angle_gamma   120.00020011
_symmetry_Int_Tables_number   1
_chemical_formula_structural   Cs3Tm2I9
_chemical_formula_sum   'Cs6 Tm4 I18'
_cell_volume   1386.84497676
_cell_formula_units_Z   2
loop_
 _symmetry_equiv_pos_site_id
 _symmetry_equiv_pos_as_xyz
  1  'x, y, z'
loop_
 _atom_site_type_symbol
 _atom_site_label
 _atom_site_symmetry_multiplicity
 _atom_site_fract_x
 _atom_site_fract_y
 _atom_site_fract_z
 _atom_site_occupancy
  Cs  Cs0  1  0.66666759  0.33333305  0.57022004  1
  Cs  Cs1  1  0.99999887  0.00000013  0.25000013  1
  Cs  Cs2  1  0.33333013  0.66666553  0.07021771  1
  Cs  Cs3  1  0.33333110  0.66666655  0.42977994  1
  Cs  Cs4  1  0.99999816  0.99999845  0.74999995  1
  Cs  Cs5  1  0.66666751  0.33333342  0.92978269  1
  Tm  Tm6  1  0.66666832  0.33333368  0.34388337  1
  Tm  Tm7  1  0.33333393  0.66666739  0.84388324  1
  Tm  Tm8  1  0.33333446  0.66666618  0.65611713  1
  Tm  Tm9  1  0.66666625  0.33333446  0.15611643  1
  I  I10  1  0.50762077  0.49237857  0.24999993  1
  I  I11  1  0.83351545  0.66703228  0.08611060  1
  I  I12  1  0.33296605  0.16648302  0.41388965  1
  I  I13  1  0.16648424  0.83351528  0.91388884  1
  I  I14  1  0.16648378  0.33296748  0.58611055  1
  I  I15  1  0.33296759  0.16648376  0.08611015  1
  I  I16  1  0.16648314  0.83351658  0.58611199  1
  I  I17  1  0.66703513  0.83351686  0.58610995  1
  I  I18  1  0.98475808  0.49237941  0.24999980  1
  I  I19  1  0.01524407  0.50762116  0.74999989  1
  I  I20  1  0.50762052  0.01524273  0.24999946  1
  I  I21  1  0.66703449  0.83351736  0.91388929  1
  I  I22  1  0.83351531  0.16648549  0.08611102  1
  I  I23  1  0.49237952  0.98475748  0.75000014  1
  I  I24  1  0.83351639  0.16648121  0.41388928  1
  I  I25  1  0.16648323  0.33296663  0.91388927  1
  I  I26  1  0.83351731  0.66703437  0.41388949  1
  I  I27  1  0.49237863  0.50762154  0.75000007  1
