# generated using pymatgen
data_Yb5Cu11Sn8
_symmetry_space_group_name_H-M   'P 1'
_cell_length_a   4.42950395
_cell_length_b   9.28474060
_cell_length_c   22.80765172
_cell_angle_alpha   90.00000000
_cell_angle_beta   90.00000000
_cell_angle_gamma   90.00000000
_symmetry_Int_Tables_number   1
_chemical_formula_structural   Yb5Cu11Sn8
_chemical_formula_sum   'Yb10 Cu22 Sn16'
_cell_volume   938.00562042
_cell_formula_units_Z   2
loop_
 _symmetry_equiv_pos_site_id
 _symmetry_equiv_pos_as_xyz
  1  'x, y, z'
loop_
 _atom_site_type_symbol
 _atom_site_label
 _atom_site_symmetry_multiplicity
 _atom_site_fract_x
 _atom_site_fract_y
 _atom_site_fract_z
 _atom_site_occupancy
  Yb  Yb0  1  0.75000000  0.23633575  0.75000000  1
  Yb  Yb1  1  0.25000000  0.74118336  0.03878869  1
  Yb  Yb2  1  0.75000000  0.25881664  0.96121131  1
  Yb  Yb3  1  0.75000000  0.29225070  0.15546934  1
  Yb  Yb4  1  0.25000000  0.70774930  0.84453066  1
  Yb  Yb5  1  0.25000000  0.74118336  0.46121131  1
  Yb  Yb6  1  0.25000000  0.70774930  0.65546934  1
  Yb  Yb7  1  0.75000000  0.29225070  0.34453066  1
  Yb  Yb8  1  0.25000000  0.76366425  0.25000000  1
  Yb  Yb9  1  0.75000000  0.25881664  0.53878869  1
  Cu  Cu10  1  0.75000000  0.46485791  0.64379145  1
  Cu  Cu11  1  0.75000000  0.51278263  0.05767658  1
  Cu  Cu12  1  0.25000000  0.53514209  0.14379145  1
  Cu  Cu13  1  0.75000000  0.54588430  0.25000000  1
  Cu  Cu14  1  0.25000000  0.02530240  0.69584452  1
  Cu  Cu15  1  0.75000000  0.97469760  0.30415548  1
  Cu  Cu16  1  0.75000000  0.91857630  0.96890794  1
  Cu  Cu17  1  0.75000000  0.97420761  0.86027063  1
  Cu  Cu18  1  0.25000000  0.02579239  0.13972937  1
  Cu  Cu19  1  0.25000000  0.48721737  0.55767658  1
  Cu  Cu20  1  0.25000000  0.48721737  0.94232342  1
  Cu  Cu21  1  0.25000000  0.08142370  0.46890794  1
  Cu  Cu22  1  0.25000000  0.08142370  0.03109206  1
  Cu  Cu23  1  0.75000000  0.97469760  0.19584452  1
  Cu  Cu24  1  0.25000000  0.45411570  0.75000000  1
  Cu  Cu25  1  0.75000000  0.46485791  0.85620855  1
  Cu  Cu26  1  0.75000000  0.97420761  0.63972937  1
  Cu  Cu27  1  0.75000000  0.51278263  0.44232342  1
  Cu  Cu28  1  0.75000000  0.91857630  0.53109206  1
  Cu  Cu29  1  0.25000000  0.53514209  0.35620855  1
  Cu  Cu30  1  0.25000000  0.02530240  0.80415548  1
  Cu  Cu31  1  0.25000000  0.02579239  0.36027063  1
  Sn  Sn32  1  0.75000000  0.63784895  0.94839295  1
  Sn  Sn33  1  0.25000000  0.36215105  0.05160705  1
  Sn  Sn34  1  0.75000000  0.69795266  0.35220830  1
  Sn  Sn35  1  0.75000000  0.98394858  0.41966628  1
  Sn  Sn36  1  0.75000000  0.90261217  0.75000000  1
  Sn  Sn37  1  0.25000000  0.36215105  0.44839295  1
  Sn  Sn38  1  0.25000000  0.01605142  0.58033372  1
  Sn  Sn39  1  0.25000000  0.30204734  0.85220830  1
  Sn  Sn40  1  0.25000000  0.01605142  0.91966628  1
  Sn  Sn41  1  0.25000000  0.40721664  0.25000000  1
  Sn  Sn42  1  0.25000000  0.30204734  0.64779170  1
  Sn  Sn43  1  0.25000000  0.09738783  0.25000000  1
  Sn  Sn44  1  0.75000000  0.69795266  0.14779170  1
  Sn  Sn45  1  0.75000000  0.98394858  0.08033372  1
  Sn  Sn46  1  0.75000000  0.59278336  0.75000000  1
  Sn  Sn47  1  0.75000000  0.63784895  0.55160705  1
