# generated using pymatgen
data_Li7VAs4
_symmetry_space_group_name_H-M   'P 1'
_cell_length_a   17.02814558
_cell_length_b   11.26555994
_cell_length_c   7.33466553
_cell_angle_alpha   29.27189358
_cell_angle_beta   54.49868261
_cell_angle_gamma   40.60478247
_symmetry_Int_Tables_number   1
_chemical_formula_structural   Li7VAs4
_chemical_formula_sum   'Li14 V2 As8'
_cell_volume   432.80442896
_cell_formula_units_Z   2
loop_
 _symmetry_equiv_pos_site_id
 _symmetry_equiv_pos_as_xyz
  1  'x, y, z'
loop_
 _atom_site_type_symbol
 _atom_site_label
 _atom_site_symmetry_multiplicity
 _atom_site_fract_x
 _atom_site_fract_y
 _atom_site_fract_z
 _atom_site_occupancy
  Li  Li0  1  0.06118703  0.48835919  0.76107316  1
  Li  Li1  1  0.18749923  0.49516934  0.25482986  1
  Li  Li2  1  0.05988635  0.98071518  0.28741568  1
  Li  Li3  1  0.31381561  0.48252079  0.76804900  1
  Li  Li4  1  0.44452016  0.48488394  0.26594815  1
  Li  Li5  1  0.31511279  0.98839695  0.24348445  1
  Li  Li6  1  0.55989074  0.51159598  0.75653616  1
  Li  Li7  1  0.43048314  0.01510416  0.73407842  1
  Li  Li8  1  0.56117932  0.01748629  0.23194620  1
  Li  Li9  1  0.93048161  0.51378627  0.23538929  1
  Li  Li10  1  0.81511141  0.51927837  0.71259008  1
  Li  Li11  1  0.81382326  0.01163389  0.23894496  1
  Li  Li12  1  0.68749705  0.00482388  0.74517639  1
  Li  Li13  1  0.94451689  0.98621328  0.76460512  1
  V  V14  1  0.18749853  0.99419725  0.75580516  1
  V  V15  1  0.68749820  0.50578812  0.24421786  1
  As  As16  1  0.01420205  0.00097315  0.98235733  1
  As  As17  1  0.24389333  0.98833384  0.99575515  1
  As  As18  1  0.13112697  0.44786264  0.06805494  1
  As  As19  1  0.51423551  0.95894906  0.02430522  1
  As  As20  1  0.36075642  0.54116568  0.97557987  1
  As  As21  1  0.74384802  0.05205966  0.93210151  1
  As  As22  1  0.63113439  0.51167188  0.00413349  1
  As  As23  1  0.86080199  0.49903119  0.01762256  1
