# generated using pymatgen
data_In11(SbO8)3
_symmetry_space_group_name_H-M   'P 1'
_cell_length_a   12.62803023
_cell_length_b   8.17444641
_cell_length_c   8.24287962
_cell_angle_alpha   71.94763271
_cell_angle_beta   49.70819862
_cell_angle_gamma   49.50867352
_symmetry_Int_Tables_number   1
_chemical_formula_structural   In11(SbO8)3
_chemical_formula_sum   'In11 Sb3 O24'
_cell_volume   484.62644806
_cell_formula_units_Z   1
loop_
 _symmetry_equiv_pos_site_id
 _symmetry_equiv_pos_as_xyz
  1  'x, y, z'
loop_
 _atom_site_type_symbol
 _atom_site_label
 _atom_site_symmetry_multiplicity
 _atom_site_fract_x
 _atom_site_fract_y
 _atom_site_fract_z
 _atom_site_occupancy
  In  In0  1  0.08172847  0.30880101  0.13831675  1
  In  In1  1  0.10931610  0.60437327  0.31621880  1
  In  In2  1  0.28078946  0.14266135  0.61059057  1
  In  In3  1  0.21041184  0.86214382  0.39656858  1
  In  In4  1  0.57767293  0.30990927  0.13479742  1
  In  In5  1  0.38849018  0.39316150  0.69072577  1
  In  In6  1  0.42091727  0.68847956  0.86776197  1
  In  In7  1  0.78778338  0.13846002  0.60289643  1
  In  In8  1  0.71607316  0.87022857  0.39192724  1
  In  In9  1  0.89106770  0.39646581  0.67795494  1
  In  In10  1  0.92220896  0.68695590  0.85946002  1
  Sb  Sb11  1  0.00183727  0.99914151  0.00068999  1
  Sb  Sb12  1  0.50433695  0.99573459  0.99558615  1
  Sb  Sb13  1  0.60541124  0.60576418  0.32348401  1
  O  O14  1  0.07758207  0.05175692  0.70151180  1
  O  O15  1  0.28100299  0.30169662  0.09444344  1
  O  O16  1  0.08429992  0.41774902  0.58683841  1
  O  O17  1  0.13561053  0.08621356  0.95180782  1
  O  O18  1  0.00288893  0.82277277  0.58035222  1
  O  O19  1  0.32727596  0.58921355  0.18167617  1
  O  O20  1  0.16535583  0.41653248  0.83290656  1
  O  O21  1  0.49138170  0.18418078  0.42498346  1
  O  O22  1  0.36790058  0.91193467  0.04743883  1
  O  O23  1  0.42149618  0.59156443  0.40882437  1
  O  O24  1  0.58395902  0.05084150  0.69331081  1
  O  O25  1  0.22751243  0.68921403  0.90670360  1
  O  O26  1  0.76761215  0.32145111  0.10869264  1
  O  O27  1  0.43431802  0.92923702  0.30098850  1
  O  O28  1  0.59525729  0.42069022  0.56216512  1
  O  O29  1  0.63453568  0.08577380  0.94952837  1
  O  O30  1  0.50371089  0.81179760  0.57051734  1
  O  O31  1  0.81245377  0.59019654  0.18233362  1
  O  O32  1  0.67208104  0.40907551  0.82188485  1
  O  O33  1  0.99738050  0.17728696  0.41902377  1
  O  O34  1  0.86376461  0.91704956  0.04932783  1
  O  O35  1  0.91627330  0.58154210  0.40207434  1
  O  O36  1  0.72224801  0.68757623  0.91155348  1
  O  O37  1  0.91605370  0.95237270  0.30413402  1
