# generated using pymatgen
data_KCe2CuSe6
_symmetry_space_group_name_H-M   'P 1'
_cell_length_a   7.10960758
_cell_length_b   7.10960747
_cell_length_c   22.60704594
_cell_angle_alpha   96.09872192
_cell_angle_beta   96.09872181
_cell_angle_gamma   108.92601038
_symmetry_Int_Tables_number   1
_chemical_formula_structural   KCe2CuSe6
_chemical_formula_sum   'K4 Ce8 Cu4 Se24'
_cell_volume   1062.71943158
_cell_formula_units_Z   4
loop_
 _symmetry_equiv_pos_site_id
 _symmetry_equiv_pos_as_xyz
  1  'x, y, z'
loop_
 _atom_site_type_symbol
 _atom_site_label
 _atom_site_symmetry_multiplicity
 _atom_site_fract_x
 _atom_site_fract_y
 _atom_site_fract_z
 _atom_site_occupancy
  K  K0  1  0.87742076  0.62742076  0.75000000  1
  K  K1  1  0.62742076  0.87742076  0.25000000  1
  K  K2  1  0.12257924  0.37257924  0.25000000  1
  K  K3  1  0.37257924  0.12257924  0.75000000  1
  Ce  Ce4  1  0.03713850  0.28713850  0.57427700  1
  Ce  Ce5  1  0.21255924  0.46255924  0.92511849  1
  Ce  Ce6  1  0.46255924  0.21255924  0.42511849  1
  Ce  Ce7  1  0.78744076  0.53744076  0.07488151  1
  Ce  Ce8  1  0.28713850  0.03713850  0.07427700  1
  Ce  Ce9  1  0.53744076  0.78744076  0.57488151  1
  Ce  Ce10  1  0.71286150  0.96286150  0.92572300  1
  Ce  Ce11  1  0.96286150  0.71286150  0.42572300  1
  Cu  Cu12  1  0.53839868  0.28839868  0.57679737  1
  Cu  Cu13  1  0.46160132  0.71160132  0.42320263  1
  Cu  Cu14  1  0.28839868  0.53839868  0.07679737  1
  Cu  Cu15  1  0.71160132  0.46160132  0.92320263  1
  Se  Se16  1  0.23893946  0.49240896  0.47855682  1
  Se  Se17  1  0.03996358  0.06805401  0.35888150  1
  Se  Se18  1  0.81990465  0.27589162  0.84791744  1
  Se  Se19  1  0.42797418  0.47198720  0.65208256  1
  Se  Se20  1  0.18009535  0.72410838  0.15208256  1
  Se  Se21  1  0.50759104  0.76106054  0.02144318  1
  Se  Se22  1  0.29082749  0.81891792  0.85888150  1
  Se  Se23  1  0.57202582  0.52801280  0.34791744  1
  Se  Se24  1  0.98614786  0.73961736  0.97855682  1
  Se  Se25  1  0.70917251  0.18108208  0.14111850  1
  Se  Se26  1  0.96003642  0.93194599  0.64111850  1
  Se  Se27  1  0.52801280  0.57202582  0.84791744  1
  Se  Se28  1  0.06805401  0.03996358  0.85888150  1
  Se  Se29  1  0.26038264  0.01385214  0.52144318  1
  Se  Se30  1  0.73961736  0.98614786  0.47855682  1
  Se  Se31  1  0.27589162  0.81990465  0.34791744  1
  Se  Se32  1  0.18108208  0.70917251  0.64111850  1
  Se  Se33  1  0.81891792  0.29082749  0.35888150  1
  Se  Se34  1  0.01385214  0.26038264  0.02144318  1
  Se  Se35  1  0.49240896  0.23893946  0.97855682  1
  Se  Se36  1  0.76106054  0.50759104  0.52144318  1
  Se  Se37  1  0.47198720  0.42797418  0.15208256  1
  Se  Se38  1  0.72410838  0.18009535  0.65208256  1
  Se  Se39  1  0.93194599  0.96003642  0.14111850  1
