# generated using pymatgen
data_Li4MnCo3O8
_symmetry_space_group_name_H-M   'P 1'
_cell_length_a   2.91203821
_cell_length_b   19.69831292
_cell_length_c   2.98019928
_cell_angle_alpha   82.53355352
_cell_angle_beta   119.24626469
_cell_angle_gamma   90.00000076
_symmetry_Int_Tables_number   1
_chemical_formula_structural   Li4MnCo3O8
_chemical_formula_sum   'Li4 Mn1 Co3 O8'
_cell_volume   147.49596410
_cell_formula_units_Z   1
loop_
 _symmetry_equiv_pos_site_id
 _symmetry_equiv_pos_as_xyz
  1  'x, y, z'
loop_
 _atom_site_type_symbol
 _atom_site_label
 _atom_site_symmetry_multiplicity
 _atom_site_fract_x
 _atom_site_fract_y
 _atom_site_fract_z
 _atom_site_occupancy
  Li  Li0  1  0.24854796  0.12587950  0.49709592  1
  Li  Li1  1  0.75145204  0.37412050  0.50290408  1
  Li  Li2  1  0.25194489  0.62267213  0.50388978  1
  Li  Li3  1  0.74805511  0.87732787  0.49611022  1
  Mn  Mn4  1  0.50000000  0.75000000  -0.00000000  1
  Co  Co5  1  -0.00014177  0.00072273  -0.00028353  1
  Co  Co6  1  0.50000000  0.25000000  -0.00000000  1
  Co  Co7  1  0.00014177  0.49927727  0.00028353  1
  O  O8  1  0.62759411  0.05659694  0.25518821  1
  O  O9  1  0.13015722  0.30767374  0.26031444  1
  O  O10  1  0.62782491  0.55667958  0.25564982  1
  O  O11  1  0.10222926  0.80838775  0.20445853  1
  O  O12  1  0.86984278  0.19232626  0.73968556  1
  O  O13  1  0.37240589  0.44340306  0.74481179  1
  O  O14  1  0.89777074  0.69161225  0.79554147  1
  O  O15  1  0.37217509  0.94332042  0.74435018  1
