# generated using pymatgen
data_Tb5(RuO6)2
_symmetry_space_group_name_H-M   'P 1'
_cell_length_a   5.77934188
_cell_length_b   6.92945816
_cell_length_c   7.32143350
_cell_angle_alpha   105.36186914
_cell_angle_beta   89.99755366
_cell_angle_gamma   114.62486119
_symmetry_Int_Tables_number   1
_chemical_formula_structural   Tb5(RuO6)2
_chemical_formula_sum   'Tb5 Ru2 O12'
_cell_volume   254.97371787
_cell_formula_units_Z   1
loop_
 _symmetry_equiv_pos_site_id
 _symmetry_equiv_pos_as_xyz
  1  'x, y, z'
loop_
 _atom_site_type_symbol
 _atom_site_label
 _atom_site_symmetry_multiplicity
 _atom_site_fract_x
 _atom_site_fract_y
 _atom_site_fract_z
 _atom_site_occupancy
  Tb  Tb0  1  0.69611442  0.39189670  0.83383649  1
  Tb  Tb1  1  0.70020325  0.40059050  0.36152844  1
  Tb  Tb2  1  0.00000000  0.00000000  0.50000000  1
  Tb  Tb3  1  0.29979675  0.59940950  0.63847156  1
  Tb  Tb4  1  0.30388558  0.60810330  0.16616351  1
  Ru  Ru5  1  0.26899733  0.00005953  0.00007385  1
  Ru  Ru6  1  0.73100267  0.99994047  0.99992615  1
  O  O7  1  0.40006230  0.30424199  0.57336186  1
  O  O8  1  0.56404754  0.66895992  0.91540325  1
  O  O9  1  0.89465504  0.33100704  0.08451064  1
  O  O10  1  0.09556667  0.69546602  0.42646380  1
  O  O11  1  0.99966872  0.99921625  0.17067620  1
  O  O12  1  0.50062206  0.00138526  0.79313099  1
  O  O13  1  0.90443333  0.30453398  0.57353620  1
  O  O14  1  0.10534496  0.66899296  0.91548936  1
  O  O15  1  0.43595246  0.33104008  0.08459675  1
  O  O16  1  0.59993770  0.69575801  0.42663814  1
  O  O17  1  0.49937794  0.99861474  0.20686901  1
  O  O18  1  0.00033128  0.00078375  0.82932380  1
