# generated using pymatgen
data_CsLiSO4
_symmetry_space_group_name_H-M   'P 1'
_cell_length_a   5.49866167
_cell_length_b   9.16010151
_cell_length_c   9.49127691
_cell_angle_alpha   90.00000000
_cell_angle_beta   90.25737082
_cell_angle_gamma   90.00000000
_symmetry_Int_Tables_number   1
_chemical_formula_structural   CsLiSO4
_chemical_formula_sum   'Cs4 Li4 S4 O16'
_cell_volume   478.05465105
_cell_formula_units_Z   4
loop_
 _symmetry_equiv_pos_site_id
 _symmetry_equiv_pos_as_xyz
  1  'x, y, z'
loop_
 _atom_site_type_symbol
 _atom_site_label
 _atom_site_symmetry_multiplicity
 _atom_site_fract_x
 _atom_site_fract_y
 _atom_site_fract_z
 _atom_site_occupancy
  Li  Li0  1  0.74621823  0.82530344  0.08586642  1
  Li  Li1  1  0.75378177  0.32530344  0.41413358  1
  Li  Li2  1  0.25378177  0.17469656  0.91413358  1
  Li  Li3  1  0.24621823  0.67469656  0.58586642  1
  O  O4  1  0.99304907  0.75455498  0.45803159  1
  O  O5  1  0.50695093  0.25455498  0.04196841  1
  O  O6  1  0.00695093  0.24544502  0.54196841  1
  O  O7  1  0.49304907  0.74544502  0.95803159  1
  O  O8  1  0.25077328  0.96179566  0.90557311  1
  O  O9  1  0.24922672  0.46179566  0.59442689  1
  O  O10  1  0.74922672  0.03820434  0.09442689  1
  O  O11  1  0.75077328  0.53820434  0.40557311  1
  O  O12  1  0.06718856  0.75424697  0.02688417  1
  O  O13  1  0.43281144  0.25424697  0.47311583  1
  O  O14  1  0.93281144  0.24575303  0.97311583  1
  O  O15  1  0.56718856  0.74575303  0.52688417  1
  O  O16  1  0.17307966  0.73584875  0.77913147  1
  O  O17  1  0.32692034  0.23584875  0.72086853  1
  O  O18  1  0.82692034  0.26415125  0.22086853  1
  O  O19  1  0.67307966  0.76415125  0.27913147  1
  S  S20  1  0.74622736  0.69989601  0.41718764  1
  S  S21  1  0.75377264  0.19989601  0.08281236  1
  S  S22  1  0.25377264  0.30010399  0.58281236  1
  S  S23  1  0.24622736  0.80010399  0.91718764  1
  Cs  Cs24  1  0.25751895  0.50047213  0.21548962  1
  Cs  Cs25  1  0.24248105  0.00047213  0.28451038  1
  Cs  Cs26  1  0.74248105  0.49952787  0.78451038  1
  Cs  Cs27  1  0.75751895  0.99952787  0.71548962  1
