# generated using pymatgen
data_Li3Co2O5
_symmetry_space_group_name_H-M   'P 1'
_cell_length_a   2.95947843
_cell_length_b   5.04774239
_cell_length_c   12.10247994
_cell_angle_alpha   84.40053887
_cell_angle_beta   82.97702338
_cell_angle_gamma   89.99999934
_symmetry_Int_Tables_number   1
_chemical_formula_structural   Li3Co2O5
_chemical_formula_sum   'Li6 Co4 O10'
_cell_volume   178.56941226
_cell_formula_units_Z   2
loop_
 _symmetry_equiv_pos_site_id
 _symmetry_equiv_pos_as_xyz
  1  'x, y, z'
loop_
 _atom_site_type_symbol
 _atom_site_label
 _atom_site_symmetry_multiplicity
 _atom_site_fract_x
 _atom_site_fract_y
 _atom_site_fract_z
 _atom_site_occupancy
  Li  Li0  1  0.90000000  0.30000000  0.20000000  1
  Li  Li1  1  0.30052844  0.09728710  0.39894312  1
  Li  Li2  1  0.70040529  0.89905996  0.59918942  1
  Li  Li3  1  0.09959471  0.70094004  0.80081058  1
  Li  Li4  1  0.49947156  0.50271290  0.00105688  1
  Li  Li5  1  0.40000000  0.80000000  0.20000000  1
  Co  Co6  1  0.99536227  0.98900496  0.00927545  1
  Co  Co7  1  0.80463773  0.61099504  0.39072455  1
  Co  Co8  1  0.20064081  0.40803036  0.59871838  1
  Co  Co9  1  0.59935919  0.19196964  0.80128162  1
  O  O10  1  0.84475738  0.91490486  0.31048525  1
  O  O11  1  0.25227866  0.73711517  0.49544269  1
  O  O12  1  0.65181211  0.53278304  0.69637579  1
  O  O13  1  0.04968410  0.30901328  0.90063181  1
  O  O14  1  0.45382927  0.14478421  0.09234145  1
  O  O15  1  0.95524262  0.68509514  0.08951475  1
  O  O16  1  0.34617073  0.45521579  0.30765855  1
  O  O17  1  0.75031590  0.29098672  0.49936819  1
  O  O18  1  0.14818789  0.06721696  0.70362421  1
  O  O19  1  0.54772134  0.86288483  0.90455731  1
