# generated using pymatgen
data_Li3MnCoO5
_symmetry_space_group_name_H-M   'P 1'
_cell_length_a   2.91688813
_cell_length_b   5.08889504
_cell_length_c   12.13007859
_cell_angle_alpha   85.35001519
_cell_angle_beta   83.09441365
_cell_angle_gamma   90.00000573
_symmetry_Int_Tables_number   1
_chemical_formula_structural   Li3MnCoO5
_chemical_formula_sum   'Li6 Mn2 Co2 O10'
_cell_volume   178.15251849
_cell_formula_units_Z   2
loop_
 _symmetry_equiv_pos_site_id
 _symmetry_equiv_pos_as_xyz
  1  'x, y, z'
loop_
 _atom_site_type_symbol
 _atom_site_label
 _atom_site_symmetry_multiplicity
 _atom_site_fract_x
 _atom_site_fract_y
 _atom_site_fract_z
 _atom_site_occupancy
  Li  Li0  1  0.90000000  0.30000000  0.20000000  1
  Li  Li1  1  0.30257263  0.09539902  0.39485474  1
  Li  Li2  1  0.69957873  0.90520937  0.60084254  1
  Li  Li3  1  0.10042127  0.69479063  0.79915746  1
  Li  Li4  1  0.49742737  0.50460098  0.00514526  1
  Li  Li5  1  0.40000000  0.80000000  0.20000000  1
  Mn  Mn6  1  0.99707501  0.98758928  0.00584999  1
  Mn  Mn7  1  0.80292499  0.61241072  0.39415001  1
  Co  Co8  1  0.20006717  0.39691540  0.59986566  1
  Co  Co9  1  0.59993283  0.20308460  0.80013434  1
  O  O10  1  0.84480123  0.92526216  0.31039753  1
  O  O11  1  0.25406010  0.72693620  0.49187979  1
  O  O12  1  0.65137738  0.53723192  0.69724524  1
  O  O13  1  0.05181269  0.32301550  0.89637463  1
  O  O14  1  0.45645936  0.13360525  0.08708129  1
  O  O15  1  0.95519877  0.67473784  0.08960247  1
  O  O16  1  0.34354064  0.46639475  0.31291871  1
  O  O17  1  0.74818731  0.27698450  0.50362537  1
  O  O18  1  0.14862262  0.06276808  0.70275476  1
  O  O19  1  0.54593990  0.87306380  0.90812021  1
