# generated using pymatgen
data_Cu9Se5
_symmetry_space_group_name_H-M   'P 1'
_cell_length_a   20.55502076
_cell_length_b   10.95009211
_cell_length_c   7.15912362
_cell_angle_alpha   29.22264247
_cell_angle_beta   30.37786128
_cell_angle_gamma   19.03876613
_symmetry_Int_Tables_number   1
_chemical_formula_structural   Cu9Se5
_chemical_formula_sum   'Cu9 Se5'
_cell_volume   249.31889808
_cell_formula_units_Z   1
loop_
 _symmetry_equiv_pos_site_id
 _symmetry_equiv_pos_as_xyz
  1  'x, y, z'
loop_
 _atom_site_type_symbol
 _atom_site_label
 _atom_site_symmetry_multiplicity
 _atom_site_fract_x
 _atom_site_fract_y
 _atom_site_fract_z
 _atom_site_occupancy
  Cu  Cu0  1  0.10773406  0.25667318  0.21894859  1
  Cu  Cu1  1  0.29226594  0.27096526  0.25341297  1
  Cu  Cu2  1  0.49727032  0.27121995  0.21931785  1
  Cu  Cu3  1  0.19999640  0.66239996  0.66354847  1
  Cu  Cu4  1  0.20000360  0.98833037  0.68572120  1
  Cu  Cu5  1  0.70000000  0.24036918  0.25963082  1
  Cu  Cu6  1  0.90272968  0.24810935  0.26135284  1
  Cu  Cu7  1  0.59702607  0.67266098  0.66401364  1
  Cu  Cu8  1  0.80297393  0.99446596  0.66885941  1
  Se  Se9  1  0.99597839  0.00229904  0.99875459  1
  Se  Se10  1  0.20000000  0.01477862  0.98522138  1
  Se  Se11  1  0.40402161  0.98324458  0.01570179  1
  Se  Se12  1  0.60033019  0.99370425  0.99371985  1
  Se  Se13  1  0.79966981  0.98277930  0.02979659  1
