# generated using pymatgen
data_BaCuAs2O7
_symmetry_space_group_name_H-M   'P 1'
_cell_length_a   6.01172420
_cell_length_b   8.52500233
_cell_length_c   13.22687401
_cell_angle_alpha   90.00000000
_cell_angle_beta   92.03841165
_cell_angle_gamma   90.00000000
_symmetry_Int_Tables_number   1
_chemical_formula_structural   BaCuAs2O7
_chemical_formula_sum   'Ba4 Cu4 As8 O28'
_cell_volume   677.44784426
_cell_formula_units_Z   4
loop_
 _symmetry_equiv_pos_site_id
 _symmetry_equiv_pos_as_xyz
  1  'x, y, z'
loop_
 _atom_site_type_symbol
 _atom_site_label
 _atom_site_symmetry_multiplicity
 _atom_site_fract_x
 _atom_site_fract_y
 _atom_site_fract_z
 _atom_site_occupancy
  O  O0  1  0.69348953  0.58809796  0.89359626  1
  O  O1  1  0.80651047  0.08809796  0.60640374  1
  O  O2  1  0.30651047  0.41190204  0.10640374  1
  O  O3  1  0.19348953  0.91190204  0.39359626  1
  O  O4  1  0.11431025  0.64941814  0.98696605  1
  O  O5  1  0.38568975  0.14941814  0.51303395  1
  O  O6  1  0.88568975  0.35058186  0.01303395  1
  O  O7  1  0.61431025  0.85058186  0.48696605  1
  O  O8  1  0.71488130  0.65820060  0.10777931  1
  O  O9  1  0.78511870  0.15820060  0.39222069  1
  O  O10  1  0.28511870  0.34179940  0.89222069  1
  O  O11  1  0.21488130  0.84179940  0.60777931  1
  O  O12  1  0.79382373  0.88658750  0.96676484  1
  O  O13  1  0.70617627  0.38658750  0.53323516  1
  O  O14  1  0.20617627  0.11341250  0.03323516  1
  O  O15  1  0.29382373  0.61341250  0.46676484  1
  O  O16  1  0.42449836  0.62730965  0.26108670  1
  O  O17  1  0.07550164  0.12730965  0.23891330  1
  O  O18  1  0.57550164  0.37269035  0.73891330  1
  O  O19  1  0.92449836  0.87269035  0.76108670  1
  O  O20  1  0.02331793  0.44350582  0.68997329  1
  O  O21  1  0.47668207  0.94350582  0.81002671  1
  O  O22  1  0.97668207  0.55649418  0.31002671  1
  O  O23  1  0.52331793  0.05649418  0.18997329  1
  O  O24  1  0.34730936  0.34631585  0.34880793  1
  O  O25  1  0.15269064  0.84631585  0.15119207  1
  O  O26  1  0.65269064  0.65368415  0.65119207  1
  O  O27  1  0.84730936  0.15368415  0.84880793  1
  Cu  Cu28  1  0.72593362  0.35875144  0.87892140  1
  Cu  Cu29  1  0.22593362  0.14124856  0.37892140  1
  Cu  Cu30  1  0.27406638  0.64124856  0.12107860  1
  Cu  Cu31  1  0.77406638  0.85875144  0.62107860  1
  As  As32  1  0.75168449  0.46581425  0.65712570  1
  As  As33  1  0.82991464  0.68056838  0.99450572  1
  As  As34  1  0.25168449  0.03418575  0.15712570  1
  As  As35  1  0.24831551  0.53418575  0.34287430  1
  As  As36  1  0.17008536  0.31943162  0.00549428  1
  As  As37  1  0.32991464  0.81943162  0.49450572  1
  As  As38  1  0.67008536  0.18056838  0.50549428  1
  As  As39  1  0.74831551  0.96581425  0.84287430  1
  Ba  Ba40  1  0.71084232  0.34900095  0.21279671  1
  Ba  Ba41  1  0.78915768  0.84900095  0.28720329  1
  Ba  Ba42  1  0.28915768  0.65099905  0.78720329  1
  Ba  Ba43  1  0.21084232  0.15099905  0.71279671  1
