# generated using pymatgen
data_Sr2CeIrO6
_symmetry_space_group_name_H-M   'P 1'
_cell_length_a   5.87005586
_cell_length_b   5.92729114
_cell_length_c   8.32099226
_cell_angle_alpha   90.00000000
_cell_angle_beta   90.51799318
_cell_angle_gamma   90.00000000
_symmetry_Int_Tables_number   1
_chemical_formula_structural   Sr2CeIrO6
_chemical_formula_sum   'Sr4 Ce2 Ir2 O12'
_cell_volume   289.50486278
_cell_formula_units_Z   2
loop_
 _symmetry_equiv_pos_site_id
 _symmetry_equiv_pos_as_xyz
  1  'x, y, z'
loop_
 _atom_site_type_symbol
 _atom_site_label
 _atom_site_symmetry_multiplicity
 _atom_site_fract_x
 _atom_site_fract_y
 _atom_site_fract_z
 _atom_site_occupancy
  O  O0  1  0.07482124  0.51824929  0.76362105  1
  O  O1  1  0.42517876  0.01824929  0.73637895  1
  O  O2  1  0.92517876  0.48175071  0.23637895  1
  O  O3  1  0.57482124  0.98175071  0.26362105  1
  O  O4  1  0.69903245  0.72612290  0.53997907  1
  O  O5  1  0.80096755  0.22612290  0.96002093  1
  O  O6  1  0.30096755  0.27387710  0.46002093  1
  O  O7  1  0.19903245  0.77387710  0.03997907  1
  O  O8  1  0.27280866  0.29754832  0.03975264  1
  O  O9  1  0.22719134  0.79754832  0.46024736  1
  O  O10  1  0.72719134  0.70245168  0.96024736  1
  O  O11  1  0.77280866  0.20245168  0.53975264  1
  Sr  Sr12  1  0.49029232  0.53733157  0.25144808  1
  Sr  Sr13  1  0.00970768  0.03733157  0.24855192  1
  Sr  Sr14  1  0.99029232  0.96266843  0.75144808  1
  Sr  Sr15  1  0.50970768  0.46266843  0.74855192  1
  Ce  Ce16  1  0.00000000  0.50000000  0.50000000  1
  Ce  Ce17  1  0.50000000  0.00000000  0.00000000  1
  Ir  Ir18  1  0.50000000  0.00000000  0.50000000  1
  Ir  Ir19  1  0.00000000  0.50000000  0.00000000  1
