# generated using pymatgen
data_Ti7S12
_symmetry_space_group_name_H-M   'P 1'
_cell_length_a   11.83663513
_cell_length_b   35.51325650
_cell_length_c   35.18094935
_cell_angle_alpha   11.12830083
_cell_angle_beta   14.61591788
_cell_angle_gamma   16.53777288
_symmetry_Int_Tables_number   1
_chemical_formula_structural   Ti7S12
_chemical_formula_sum   'Ti14 S24'
_cell_volume   707.31625601
_cell_formula_units_Z   2
loop_
 _symmetry_equiv_pos_site_id
 _symmetry_equiv_pos_as_xyz
  1  'x, y, z'
loop_
 _atom_site_type_symbol
 _atom_site_label
 _atom_site_symmetry_multiplicity
 _atom_site_fract_x
 _atom_site_fract_y
 _atom_site_fract_z
 _atom_site_occupancy
  Ti  Ti0  1  0.98681806  0.00022850  0.00309653  1
  Ti  Ti1  1  0.10070611  0.01234967  0.04229415  1
  Ti  Ti2  1  0.49027031  0.08080421  0.25505926  1
  Ti  Ti3  1  -0.00001780  0.33334835  0.00000092  1
  Ti  Ti4  1  0.49826872  0.41225391  0.25440216  1
  Ti  Ti5  1  0.03768949  0.16288766  0.49154971  1
  Ti  Ti6  1  0.01328585  0.66641819  0.99691121  1
  Ti  Ti7  1  0.50830137  0.75306986  0.24370504  1
  Ti  Ti8  1  0.50184917  0.25441757  0.74552327  1
  Ti  Ti9  1  0.96241240  0.50377687  0.50843672  1
  Ti  Ti10  1  0.50972278  0.58588295  0.74490601  1
  Ti  Ti11  1  -0.00001498  0.83332606  0.50002159  1
  Ti  Ti12  1  0.49165730  0.91355821  0.75632629  1
  Ti  Ti13  1  0.89924939  0.65431815  0.95770873  1
  S  S14  1  0.20837177  0.03436201  0.10186578  1
  S  S15  1  0.38124320  0.06184952  0.18665403  1
  S  S16  1  0.21858137  0.36440155  0.10490413  1
  S  S17  1  0.63025017  0.10383818  0.31212056  1
  S  S18  1  0.37655371  0.39489424  0.18706864  1
  S  S19  1  0.79134542  0.13351661  0.39553217  1
  S  S20  1  0.20666287  0.20271218  0.60245768  1
  S  S21  1  0.18880746  0.70215928  0.11127899  1
  S  S22  1  0.62511858  0.44168036  0.30889685  1
  S  S23  1  0.37478241  0.22496425  0.69115908  1
  S  S24  1  0.37090634  0.73162070  0.18708428  1
  S  S25  1  0.79319035  0.46396479  0.39759617  1
  S  S26  1  0.20886059  0.53310265  0.60445965  1
  S  S27  1  0.62593087  0.77084172  0.31299327  1
  S  S28  1  0.62349004  0.27174135  0.81294013  1
  S  S29  1  0.36976326  0.56283678  0.68785989  1
  S  S30  1  0.78037101  0.79468181  0.40266001  1
  S  S31  1  0.78154428  0.30225877  0.89505825  1
  S  S32  1  0.21953299  0.87200255  0.59734581  1
  S  S33  1  0.61881954  0.60481902  0.81332463  1
  S  S34  1  0.37409821  0.89584034  0.68697750  1
  S  S35  1  0.79160771  0.63232182  0.89813991  1
  S  S36  1  0.62899064  0.93508952  0.81291273  1
  S  S37  1  0.81097904  0.96452584  0.88876827  1
