# generated using pymatgen
data_LiTiPO5
_symmetry_space_group_name_H-M   'P 1'
_cell_length_a   6.44231566
_cell_length_b   7.34000555
_cell_length_c   7.49596793
_cell_angle_alpha   90.00000000
_cell_angle_beta   90.00000000
_cell_angle_gamma   90.00000000
_symmetry_Int_Tables_number   1
_chemical_formula_structural   LiTiPO5
_chemical_formula_sum   'Li4 Ti4 P4 O20'
_cell_volume   354.45908223
_cell_formula_units_Z   4
loop_
 _symmetry_equiv_pos_site_id
 _symmetry_equiv_pos_as_xyz
  1  'x, y, z'
loop_
 _atom_site_type_symbol
 _atom_site_label
 _atom_site_symmetry_multiplicity
 _atom_site_fract_x
 _atom_site_fract_y
 _atom_site_fract_z
 _atom_site_occupancy
  Li  Li0  1  0.00000000  0.00000000  0.00000000  1
  Li  Li1  1  0.50000000  0.50000000  0.50000000  1
  Li  Li2  1  0.00000000  0.50000000  0.50000000  1
  Li  Li3  1  0.50000000  0.00000000  0.00000000  1
  O  O4  1  0.94338680  0.74981696  0.62855240  1
  O  O5  1  0.55661320  0.75018304  0.12855240  1
  O  O6  1  0.05661320  0.24981696  0.87144760  1
  O  O7  1  0.44338680  0.25018304  0.37144760  1
  O  O8  1  0.05661320  0.25018304  0.37144760  1
  O  O9  1  0.55661320  0.74981696  0.62855240  1
  O  O10  1  0.94338680  0.75018304  0.12855240  1
  O  O11  1  0.44338680  0.24981696  0.87144760  1
  O  O12  1  0.75000000  0.15233015  0.11192045  1
  O  O13  1  0.25000000  0.84766985  0.88807955  1
  O  O14  1  0.25000000  0.65233015  0.38807955  1
  O  O15  1  0.75000000  0.34766985  0.61192045  1
  O  O16  1  0.75000000  0.00128674  0.79306145  1
  O  O17  1  0.25000000  0.99871326  0.20693855  1
  O  O18  1  0.25000000  0.50128674  0.70693855  1
  O  O19  1  0.75000000  0.49871326  0.29306145  1
  O  O20  1  0.25000000  0.48794803  0.04749210  1
  O  O21  1  0.75000000  0.51205197  0.95250790  1
  O  O22  1  0.75000000  0.98794803  0.45250790  1
  O  O23  1  0.25000000  0.01205197  0.54749210  1
  P  P24  1  0.25000000  0.37448242  0.87379303  1
  P  P25  1  0.75000000  0.62551758  0.12620697  1
  P  P26  1  0.75000000  0.87448242  0.62620697  1
  P  P27  1  0.25000000  0.12551758  0.37379303  1
  Ti  Ti28  1  0.75000000  0.28083705  0.83319431  1
  Ti  Ti29  1  0.25000000  0.71916295  0.16680569  1
  Ti  Ti30  1  0.25000000  0.78083705  0.66680569  1
  Ti  Ti31  1  0.75000000  0.21916295  0.33319431  1
