# generated using pymatgen
data_Li3MnCoO5
_symmetry_space_group_name_H-M   'P 1'
_cell_length_a   2.91045574
_cell_length_b   5.90781510
_cell_length_c   10.53510270
_cell_angle_alpha   81.96398954
_cell_angle_beta   82.06027333
_cell_angle_gamma   90.00000530
_symmetry_Int_Tables_number   1
_chemical_formula_structural   Li3MnCoO5
_chemical_formula_sum   'Li6 Mn2 Co2 O10'
_cell_volume   177.61249925
_cell_formula_units_Z   2
loop_
 _symmetry_equiv_pos_site_id
 _symmetry_equiv_pos_as_xyz
  1  'x, y, z'
loop_
 _atom_site_type_symbol
 _atom_site_label
 _atom_site_symmetry_multiplicity
 _atom_site_fract_x
 _atom_site_fract_y
 _atom_site_fract_z
 _atom_site_occupancy
  Li  Li0  1  0.80693757  0.90962907  0.38612486  1
  Li  Li1  1  0.60029788  0.29927298  0.79940424  1
  Li  Li2  1  0.40000000  0.70000000  0.20000000  1
  Li  Li3  1  0.19970212  0.10072702  0.60059576  1
  Li  Li4  1  0.99306243  0.49037093  0.01387514  1
  Li  Li5  1  0.40000000  0.20000000  0.20000000  1
  Mn  Mn6  1  0.99531609  0.00271476  0.00936783  1
  Mn  Mn7  1  0.80468391  0.39728524  0.39063217  1
  Co  Co8  1  0.60020717  0.80150129  0.79958566  1
  Co  Co9  1  0.19979283  0.59849871  0.60041434  1
  O  O10  1  0.70468794  0.36857572  0.59062411  1
  O  O11  1  0.50167042  0.77926569  0.99665916  1
  O  O12  1  0.29906730  0.17820967  0.40186540  1
  O  O13  1  0.10135954  0.56584316  0.79728092  1
  O  O14  1  0.90779445  0.95307223  0.18441111  1
  O  O15  1  0.89220555  0.44692777  0.21558889  1
  O  O16  1  0.69864046  0.83415684  0.60271908  1
  O  O17  1  0.50093270  0.22179033  0.99813460  1
  O  O18  1  0.29832958  0.62073431  0.40334084  1
  O  O19  1  0.09531206  0.03142428  0.80937589  1
