# generated using pymatgen
data_PPdS
_symmetry_space_group_name_H-M   'P 1'
_cell_length_a   5.70915043
_cell_length_b   5.73819714
_cell_length_c   14.87993073
_cell_angle_alpha   90.00000000
_cell_angle_beta   90.00000000
_cell_angle_gamma   90.00000000
_symmetry_Int_Tables_number   1
_chemical_formula_structural   PPdS
_chemical_formula_sum   'P8 Pd8 S8'
_cell_volume   487.46996306
_cell_formula_units_Z   8
loop_
 _symmetry_equiv_pos_site_id
 _symmetry_equiv_pos_as_xyz
  1  'x, y, z'
loop_
 _atom_site_type_symbol
 _atom_site_label
 _atom_site_symmetry_multiplicity
 _atom_site_fract_x
 _atom_site_fract_y
 _atom_site_fract_z
 _atom_site_occupancy
  P  P0  1  0.86868950  0.71947724  0.57425737  1
  P  P1  1  0.86868950  0.78052276  0.42574263  1
  P  P2  1  0.63131050  0.28052276  0.07425737  1
  P  P3  1  0.36868950  0.71947724  0.92574263  1
  P  P4  1  0.36868950  0.78052276  0.07425737  1
  P  P5  1  0.13131050  0.21947724  0.57425737  1
  P  P6  1  0.13131050  0.28052276  0.42574263  1
  P  P7  1  0.63131050  0.21947724  0.92574263  1
  S  S8  1  0.36245205  0.45379260  0.64046849  1
  S  S9  1  0.13754795  0.54620740  0.14046849  1
  S  S10  1  0.13754795  0.95379260  0.85953151  1
  S  S11  1  0.63754795  0.95379260  0.64046849  1
  S  S12  1  0.86245205  0.04620740  0.14046849  1
  S  S13  1  0.86245205  0.45379260  0.85953151  1
  S  S14  1  0.36245205  0.04620740  0.35953151  1
  S  S15  1  0.63754795  0.54620740  0.35953151  1
  Pd  Pd16  1  0.75074689  0.15971715  0.39808718  1
  Pd  Pd17  1  0.75074689  0.34028285  0.60191282  1
  Pd  Pd18  1  0.74925311  0.65971715  0.10191282  1
  Pd  Pd19  1  0.74925311  0.84028285  0.89808718  1
  Pd  Pd20  1  0.24925311  0.84028285  0.60191282  1
  Pd  Pd21  1  0.24925311  0.65971715  0.39808718  1
  Pd  Pd22  1  0.25074689  0.34028285  0.89808718  1
  Pd  Pd23  1  0.25074689  0.15971715  0.10191282  1
