# generated using pymatgen
data_Fe2O3
_symmetry_space_group_name_H-M   'P 1'
_cell_length_a   8.23585373
_cell_length_b   8.23241675
_cell_length_c   8.22394996
_cell_angle_alpha   71.06873740
_cell_angle_beta   109.56382666
_cell_angle_gamma   70.17116454
_symmetry_Int_Tables_number   1
_chemical_formula_structural   Fe2O3
_chemical_formula_sum   'Fe16 O24'
_cell_volume   429.68827402
_cell_formula_units_Z   8
loop_
 _symmetry_equiv_pos_site_id
 _symmetry_equiv_pos_as_xyz
  1  'x, y, z'
loop_
 _atom_site_type_symbol
 _atom_site_label
 _atom_site_symmetry_multiplicity
 _atom_site_fract_x
 _atom_site_fract_y
 _atom_site_fract_z
 _atom_site_occupancy
  Fe  Fe0  1  0.78606970  0.96821943  0.24959654  1
  Fe  Fe1  1  0.46286565  0.75124285  0.21307813  1
  Fe  Fe2  1  0.21296323  0.03770199  0.75071099  1
  Fe  Fe3  1  0.24781235  0.78401017  0.46511712  1
  Fe  Fe4  1  0.29159211  0.46019110  0.25146687  1
  Fe  Fe5  1  0.75188697  0.21662834  0.53939193  1
  Fe  Fe6  1  0.24333460  0.28880562  0.96101462  1
  Fe  Fe7  1  0.74766198  0.71762464  0.03388246  1
  Fe  Fe8  1  0.71250436  0.53787629  0.74976709  1
  Fe  Fe9  1  0.04014925  0.24904742  0.28893761  1
  Fe  Fe10  1  0.96132846  0.74913904  0.71298963  1
  Fe  Fe11  1  0.53580606  0.25212979  0.78564115  1
  Fe  Fe12  1  0.99918332  0.50128433  0.49585953  1
  Fe  Fe13  1  0.00009137  0.99660511  0.00081975  1
  Fe  Fe14  1  0.50169682  0.49956533  0.00103663  1
  Fe  Fe15  1  0.50005252  0.99844749  0.49823314  1
  O  O16  1  0.99253940  0.04612298  0.23140420  1
  O  O17  1  0.22448629  0.72754762  0.22976762  1
  O  O18  1  0.73095250  0.77522001  0.77376193  1
  O  O19  1  0.72429827  0.00149860  0.45221743  1
  O  O20  1  0.22563716  0.04274233  0.00468252  1
  O  O21  1  0.95254536  0.27545681  0.49450256  1
  O  O22  1  0.54958272  0.45740811  0.27290868  1
  O  O23  1  0.45477368  0.77332041  0.95220594  1
  O  O24  1  0.76695608  0.95973686  0.99213937  1
  O  O25  1  0.05056740  0.49956333  0.27470750  1
  O  O26  1  0.22388588  0.54491513  0.96023269  1
  O  O27  1  0.49489571  0.23582319  0.53943350  1
  O  O28  1  0.27492322  0.99546808  0.54727164  1
  O  O29  1  0.50714044  0.76347803  0.45927398  1
  O  O30  1  0.77370192  0.27443846  0.76732267  1
  O  O31  1  0.45143320  0.54344652  0.72412012  1
  O  O32  1  0.54584615  0.23003653  0.04604625  1
  O  O33  1  0.95788545  0.49235317  0.73287343  1
  O  O34  1  0.77605608  0.45842725  0.04205653  1
  O  O35  1  0.27729252  0.26206239  0.73261863  1
  O  O36  1  0.04836808  0.72363504  0.50851370  1
  O  O37  1  0.72739064  0.73218609  0.27063049  1
  O  O38  1  0.00428846  0.95422124  0.76809071  1
  O  O39  1  0.26955462  0.22237288  0.22567470  1
