# generated using pymatgen
data_ZrCuH8(O2F3)2
_symmetry_space_group_name_H-M   'P 1'
_cell_length_a   5.80205927
_cell_length_b   10.03206149
_cell_length_c   7.63414142
_cell_angle_alpha   90.00000000
_cell_angle_beta   102.10361521
_cell_angle_gamma   90.00000000
_symmetry_Int_Tables_number   1
_chemical_formula_structural   ZrCuH8(O2F3)2
_chemical_formula_sum   'Zr2 Cu2 H16 O8 F12'
_cell_volume   434.47946900
_cell_formula_units_Z   2
loop_
 _symmetry_equiv_pos_site_id
 _symmetry_equiv_pos_as_xyz
  1  'x, y, z'
loop_
 _atom_site_type_symbol
 _atom_site_label
 _atom_site_symmetry_multiplicity
 _atom_site_fract_x
 _atom_site_fract_y
 _atom_site_fract_z
 _atom_site_occupancy
  Zr  Zr0  1  0.50000000  0.00000000  0.50000000  1
  Zr  Zr1  1  0.50000000  0.50000000  0.00000000  1
  Cu  Cu2  1  0.00000000  0.00000000  0.00000000  1
  Cu  Cu3  1  0.00000000  0.50000000  0.50000000  1
  H  H4  1  0.21600012  0.85584971  0.79301514  1
  H  H5  1  0.78399988  0.35584971  0.70698486  1
  H  H6  1  0.78399988  0.14415029  0.20698486  1
  H  H7  1  0.21600012  0.64415029  0.29301514  1
  H  H8  1  0.21427916  0.77910040  0.97359566  1
  H  H9  1  0.78572084  0.27910040  0.52640434  1
  H  H10  1  0.78572084  0.22089960  0.02640434  1
  H  H11  1  0.21427916  0.72089960  0.47359566  1
  H  H12  1  0.24211975  0.13648012  0.81490231  1
  H  H13  1  0.75788025  0.63648012  0.68509769  1
  H  H14  1  0.75788025  0.86351988  0.18509769  1
  H  H15  1  0.24211975  0.36351988  0.31490231  1
  H  H16  1  0.24189250  0.20990412  0.00081638  1
  H  H17  1  0.75810750  0.70990412  0.49918362  1
  H  H18  1  0.75810750  0.79009588  0.99918362  1
  H  H19  1  0.24189250  0.29009588  0.50081638  1
  O  O20  1  0.24298755  0.12125228  0.94279462  1
  O  O21  1  0.75701245  0.62125228  0.55720538  1
  O  O22  1  0.75701245  0.87874772  0.05720538  1
  O  O23  1  0.24298755  0.37874772  0.44279462  1
  O  O24  1  0.12458800  0.84334621  0.88770681  1
  O  O25  1  0.87541200  0.34334621  0.61229319  1
  O  O26  1  0.87541200  0.15665379  0.11229319  1
  O  O27  1  0.12458800  0.65665379  0.38770681  1
  F  F28  1  0.24988115  0.53509806  0.77931128  1
  F  F29  1  0.75011885  0.03509806  0.72068872  1
  F  F30  1  0.75011885  0.46490194  0.22068872  1
  F  F31  1  0.24988115  0.96490194  0.27931128  1
  F  F32  1  0.28842254  0.13615826  0.59262160  1
  F  F33  1  0.71157746  0.63615826  0.90737840  1
  F  F34  1  0.71157746  0.86384174  0.40737840  1
  F  F35  1  0.28842254  0.36384174  0.09262160  1
  F  F36  1  0.35399808  0.84898778  0.62220282  1
  F  F37  1  0.64600192  0.34898778  0.87779718  1
  F  F38  1  0.64600192  0.15101222  0.37779718  1
  F  F39  1  0.35399808  0.65101222  0.12220282  1
