# generated using pymatgen
data_Sr9LaTi10O30
_symmetry_space_group_name_H-M   'P 1'
_cell_length_a   11.16485054
_cell_length_b   27.91758899
_cell_length_c   12.49695832
_cell_angle_alpha   26.54078192
_cell_angle_beta   132.21668446
_cell_angle_gamma   120.08510036
_symmetry_Int_Tables_number   1
_chemical_formula_structural   Sr9LaTi10O30
_chemical_formula_sum   'Sr18 La2 Ti20 O60'
_cell_volume   1228.98989744
_cell_formula_units_Z   2
loop_
 _symmetry_equiv_pos_site_id
 _symmetry_equiv_pos_as_xyz
  1  'x, y, z'
loop_
 _atom_site_type_symbol
 _atom_site_label
 _atom_site_symmetry_multiplicity
 _atom_site_fract_x
 _atom_site_fract_y
 _atom_site_fract_z
 _atom_site_occupancy
  Sr  Sr0  1  0.24994219  0.95021599  0.74935118  1
  Sr  Sr1  1  0.24984204  0.75011277  0.74921031  1
  Sr  Sr2  1  0.25015796  0.84988723  0.25078969  1
  Sr  Sr3  1  0.25030431  0.55000501  0.75001355  1
  Sr  Sr4  1  0.75000266  0.95008591  0.75010118  1
  Sr  Sr5  1  0.24982462  0.35000203  0.75022634  1
  Sr  Sr6  1  0.25005781  0.64978401  0.25064882  1
  Sr  Sr7  1  0.74993793  0.74983248  0.75064564  1
  Sr  Sr8  1  0.25007912  0.14974217  0.75077042  1
  Sr  Sr9  1  0.24992088  0.45025783  0.24922958  1
  Sr  Sr10  1  0.75006207  0.85016752  0.24935436  1
  Sr  Sr11  1  0.25017538  0.24999797  0.24977366  1
  Sr  Sr12  1  0.75006154  0.35031361  0.74916272  1
  Sr  Sr13  1  0.74999734  0.64991409  0.24989882  1
  Sr  Sr14  1  0.24969569  0.04999499  0.24998645  1
  Sr  Sr15  1  0.75000982  0.45032448  0.24952258  1
  Sr  Sr16  1  0.74999018  0.14967552  0.75047742  1
  Sr  Sr17  1  0.74993846  0.24968639  0.25083728  1
  La  La18  1  0.74999209  0.55002112  0.74997377  1
  La  La19  1  0.75000791  0.04997888  0.25002623  1
  Ti  Ti20  1  0.00138370  0.70079189  0.49925607  1
  Ti  Ti21  1  0.00004394  0.79886550  0.00220370  1
  Ti  Ti22  1  0.49861630  0.89920811  0.50074393  1
  Ti  Ti23  1  0.00099228  0.59973940  0.00207750  1
  Ti  Ti24  1  0.49896140  0.70022982  0.49983040  1
  Ti  Ti25  1  0.00033671  0.39973490  -0.00023028  1
  Ti  Ti26  1  0.49976517  0.49992100  0.49902714  1
  Ti  Ti27  1  0.49995606  0.80113450  0.99779630  1
  Ti  Ti28  1  0.00103860  0.89977018  0.50016960  1
  Ti  Ti29  1  0.00174307  0.20040210  0.00015454  1
  Ti  Ti30  1  0.50077795  0.59967148  0.00109410  1
  Ti  Ti31  1  0.49929265  0.30084610  0.49782499  1
  Ti  Ti32  1  0.99922205  0.00032852  0.99890590  1
  Ti  Ti33  1  0.50099389  0.09986118  0.50088550  1
  Ti  Ti34  1  0.49825693  0.39959790  -0.00015454  1
  Ti  Ti35  1  0.99900611  0.50013882  0.49911450  1
  Ti  Ti36  1  0.49966329  0.20026510  0.00023028  1
  Ti  Ti37  1  0.00070735  0.29915390  0.50217501  1
  Ti  Ti38  1  0.49900772  0.00026060  0.99792250  1
  Ti  Ti39  1  0.00023483  0.10007900  0.50097286  1
  O  O40  1  0.99555013  0.85349791  0.74119506  1
  O  O41  1  0.99559618  0.64826941  0.74993761  1
  O  O42  1  0.25005372  0.84153628  0.76454098  1
  O  O43  1  0.48657772  0.95237042  0.73727186  1
  O  O44  1  0.01349915  0.84701726  0.26424745  1
  O  O45  1  0.00014847  0.45020228  0.75006470  1
  O  O46  1  0.25049488  0.95827912  0.23644440  1
  O  O47  1  0.24950512  0.64172088  0.76355560  1
  O  O48  1  0.50014244  0.84992431  0.75024545  1
  O  O49  1  0.48650085  0.75298274  0.73575255  1
  O  O50  1  0.01342228  0.64762958  0.26272814  1
  O  O51  1  0.99922163  0.25017991  0.74916452  1
  O  O52  1  0.24994628  0.75846372  0.23545902  1
  O  O53  1  0.25037495  0.44204605  0.76333202  1
  O  O54  1  0.50019495  0.64992768  0.74994531  1
  O  O55  1  0.50440382  0.95173059  0.25006239  1
  O  O56  1  0.75000482  0.84474241  0.75635453  1
  O  O57  1  0.48980705  0.55277960  0.73627232  1
  O  O58  1  0.98110613  0.95484098  0.72588047  1
  O  O59  1  0.01034974  0.44866128  0.25681434  1
  O  O60  1  0.51428541  0.84716792  0.26428084  1
  O  O61  1  0.99558681  0.35349475  0.24118473  1
  O  O62  1  -0.00008178  0.04972862  0.75012967  1
  O  O63  1  0.25008610  0.55824409  0.23623496  1
  O  O64  1  0.25011722  0.24194015  0.76318103  1
  O  O65  1  0.50444987  0.74650209  0.25880494  1
  O  O66  1  0.50431830  0.45173597  0.74994458  1
  O  O67  1  0.74999885  0.96034492  0.23632036  1
  O  O68  1  0.75000115  0.63965508  0.76367964  1
  O  O69  1  0.48684939  0.35264475  0.73687167  1
  O  O70  1  0.98571459  0.75283208  0.73571916  1
  O  O71  1  0.01315061  0.24735525  0.26312833  1
  O  O72  1  0.51889387  0.64515902  0.27411953  1
  O  O73  1  0.24988278  0.35805985  0.23681897  1
  O  O74  1  0.24991390  0.04175591  0.76376504  1
  O  O75  1  0.50441319  0.24650525  0.75881527  1
  O  O76  1  0.50008178  0.55027138  0.24987033  1
  O  O77  1  0.74999518  0.75525759  0.24364547  1
  O  O78  1  0.74998824  0.44320267  0.76374057  1
  O  O79  1  -0.00019495  0.95007232  0.25005469  1
  O  O80  1  0.48965026  0.15133872  0.74318566  1
  O  O81  1  0.98095641  0.55276149  0.73612661  1
  O  O82  1  0.01019295  0.04722040  0.26372768  1
  O  O83  1  0.51371949  0.44686948  0.26460545  1
  O  O84  1  0.24962505  0.15795395  0.23666798  1
  O  O85  1  0.50077837  0.34982009  0.25083548  1
  O  O86  1  0.50036173  0.04998578  0.75054746  1
  O  O87  1  0.74998865  0.55803889  0.23658472  1
  O  O88  1  0.74997742  0.23747105  0.77444880  1
  O  O89  1  -0.00014244  0.75007569  0.24975455  1
  O  O90  1  0.98633822  0.35236466  0.73721979  1
  O  O91  1  0.51366178  0.24763534  0.26278021  1
  O  O92  1  0.49985153  0.14979772  0.24993530  1
  O  O93  1  0.75002258  0.36252895  0.22555120  1
  O  O94  1  0.75001135  0.04196111  0.76341528  1
  O  O95  1  0.99963827  0.55001422  0.24945254  1
  O  O96  1  0.98628051  0.15313052  0.73539455  1
  O  O97  1  0.51904359  0.04723851  0.26387339  1
  O  O98  1  0.75001176  0.15679733  0.23625943  1
  O  O99  1  0.99568170  0.14826403  0.25005542  1
