# generated using pymatgen
data_U11Se20
_symmetry_space_group_name_H-M   'P 1'
_cell_length_a   6.71347041
_cell_length_b   21.40469550
_cell_length_c   15.13585176
_cell_angle_alpha   44.96471215
_cell_angle_beta   89.95798885
_cell_angle_gamma   89.99771680
_symmetry_Int_Tables_number   1
_chemical_formula_structural   U11Se20
_chemical_formula_sum   'U22 Se40'
_cell_volume   1537.02220852
_cell_formula_units_Z   2
loop_
 _symmetry_equiv_pos_site_id
 _symmetry_equiv_pos_as_xyz
  1  'x, y, z'
loop_
 _atom_site_type_symbol
 _atom_site_label
 _atom_site_symmetry_multiplicity
 _atom_site_fract_x
 _atom_site_fract_y
 _atom_site_fract_z
 _atom_site_occupancy
  U  U0  1  0.14490358  0.00007570  0.75041156  1
  U  U1  1  0.25103352  0.40625252  0.08786714  1
  U  U2  1  0.25032916  0.90353345  0.09385484  1
  U  U3  1  0.25183430  0.24571369  0.59913750  1
  U  U4  1  0.25113226  0.74342494  0.60069799  1
  U  U5  1  0.24936952  0.09631235  0.40750243  1
  U  U6  1  0.25178832  0.59354081  0.41084106  1
  U  U7  1  0.24988367  0.25465321  0.90096375  1
  U  U8  1  0.25223473  0.75376866  0.89916756  1
  U  U9  1  0.35480463  0.50054295  0.24970100  1
  U  U10  1  0.35188861  0.00042609  0.24929398  1
  U  U11  1  0.64294531  0.49987430  0.75016566  1
  U  U12  1  0.74917601  0.25343124  0.09315571  1
  U  U13  1  0.75212959  0.75454926  0.09035363  1
  U  U14  1  0.75295552  0.24404415  0.41119825  1
  U  U15  1  0.75051142  0.09435618  0.90141088  1
  U  U16  1  0.75114885  0.40320516  0.60008313  1
  U  U17  1  0.74910103  0.74540024  0.40962115  1
  U  U18  1  0.75118217  0.90625502  0.60052141  1
  U  U19  1  0.74984347  0.59590955  0.89943154  1
  U  U20  1  0.85477062  0.50059340  0.24954016  1
  U  U21  1  0.85126429  0.00021167  0.24912698  1
  Se  Se22  1  0.00284835  0.74851804  0.25171091  1
  Se  Se23  1  0.00327652  0.24902964  0.75146831  1
  Se  Se24  1  0.00189926  0.75108662  0.74771099  1
  Se  Se25  1  0.11127091  0.05986829  0.04206075  1
  Se  Se26  1  0.11208579  0.14894484  0.16096443  1
  Se  Se27  1  0.11454013  0.56094841  0.03999220  1
  Se  Se28  1  0.11441947  0.35233403  0.33801844  1
  Se  Se29  1  0.11413256  0.64818994  0.16156750  1
  Se  Se30  1  0.11593219  0.43940548  0.45905644  1
  Se  Se31  1  0.11153439  0.85111590  0.33913650  1
  Se  Se32  1  0.11076786  0.94126172  0.45697660  1
  Se  Se33  1  0.38445985  0.14846104  0.54152371  1
  Se  Se34  1  0.38991582  0.43871889  0.66280074  1
  Se  Se35  1  0.38834129  0.64779780  0.54164499  1
  Se  Se36  1  0.38474606  0.94056513  0.66156428  1
  Se  Se37  1  0.38844286  0.35184776  0.95876136  1
  Se  Se38  1  0.38242097  0.85116048  0.95911217  1
  Se  Se39  1  0.38232048  0.05963875  0.83929093  1
  Se  Se40  1  0.38894433  0.56094267  0.83735801  1
  Se  Se41  1  0.50145101  0.25134336  0.24993405  1
  Se  Se42  1  0.50263797  0.74917855  0.25054498  1
  Se  Se43  1  0.50232342  0.24911848  0.75122654  1
  Se  Se44  1  0.50271842  0.75135150  0.74705075  1
  Se  Se45  1  0.61354044  0.44130321  0.16029765  1
  Se  Se46  1  0.61392201  0.94006231  0.16140502  1
  Se  Se47  1  0.61089932  0.14808796  0.04239762  1
  Se  Se48  1  0.61279607  0.06039951  0.33858638  1
  Se  Se49  1  0.61468509  0.35142508  0.45845562  1
  Se  Se50  1  0.61558098  0.64918190  0.04061888  1
  Se  Se51  1  0.61102813  0.85206265  0.45678248  1
  Se  Se52  1  0.61414021  0.55985140  0.33830882  1
  Se  Se53  1  0.88985154  0.06078621  0.54112762  1
  Se  Se54  1  0.88298259  0.55888581  0.54330283  1
  Se  Se55  1  0.89046004  0.14865253  0.66192914  1
  Se  Se56  1  0.87968035  0.35046902  0.83946777  1
  Se  Se57  1  0.88477768  0.44072043  0.95653787  1
  Se  Se58  1  0.89190355  0.85161107  0.83808192  1
  Se  Se59  1  0.88277054  0.64858149  0.66111310  1
  Se  Se60  1  0.89030378  0.93937771  0.95958931  1
  Se  Se61  1  0.00201718  0.25164181  0.24847111  1
