# generated using pymatgen
data_CaFe3Si2HO9
_symmetry_space_group_name_H-M   'P 1'
_cell_length_a   5.97948510
_cell_length_b   8.89644692
_cell_length_c   13.10407834
_cell_angle_alpha   90.00000000
_cell_angle_beta   90.40122481
_cell_angle_gamma   90.00000000
_symmetry_Int_Tables_number   1
_chemical_formula_structural   CaFe3Si2HO9
_chemical_formula_sum   'Ca4 Fe12 Si8 H4 O36'
_cell_volume   697.06971109
_cell_formula_units_Z   4
loop_
 _symmetry_equiv_pos_site_id
 _symmetry_equiv_pos_as_xyz
  1  'x, y, z'
loop_
 _atom_site_type_symbol
 _atom_site_label
 _atom_site_symmetry_multiplicity
 _atom_site_fract_x
 _atom_site_fract_y
 _atom_site_fract_z
 _atom_site_occupancy
  Ca  Ca0  1  0.75352441  0.63140625  0.81195848  1
  Ca  Ca1  1  0.24647559  0.13140625  0.68804152  1
  Ca  Ca2  1  0.24647559  0.36859375  0.18804152  1
  Ca  Ca3  1  0.75352441  0.86859375  0.31195848  1
  Fe  Fe4  1  0.00331973  0.95137430  0.88948381  1
  Fe  Fe5  1  0.99668027  0.45137430  0.61051619  1
  Fe  Fe6  1  0.99668027  0.04862570  0.11051619  1
  Fe  Fe7  1  0.00331973  0.54862570  0.38948381  1
  Fe  Fe8  1  0.49739384  0.94818000  0.88936918  1
  Fe  Fe9  1  0.50260616  0.44818000  0.61063082  1
  Fe  Fe10  1  0.50260616  0.05182000  0.11063082  1
  Fe  Fe11  1  0.49739384  0.55182000  0.38936918  1
  Fe  Fe12  1  0.75049964  0.75935574  0.55836437  1
  Fe  Fe13  1  0.24950036  0.25935574  0.94163563  1
  Fe  Fe14  1  0.24950036  0.24064426  0.44163563  1
  Fe  Fe15  1  0.75049964  0.74064426  0.05836437  1
  Si  Si16  1  0.24825453  0.63125854  0.95837115  1
  Si  Si17  1  0.75174547  0.13125854  0.54162885  1
  Si  Si18  1  0.75174547  0.36874146  0.04162885  1
  Si  Si19  1  0.24825453  0.86874146  0.45837115  1
  Si  Si20  1  0.25257240  0.77428424  0.67925517  1
  Si  Si21  1  0.74742760  0.27428424  0.82074483  1
  Si  Si22  1  0.74742760  0.22571576  0.32074483  1
  Si  Si23  1  0.25257240  0.72571576  0.17925517  1
  O  O24  1  0.72811338  0.53109887  0.51072695  1
  O  O25  1  0.27188662  0.03109887  0.98927305  1
  O  O26  1  0.27188662  0.46890113  0.48927305  1
  O  O27  1  0.72811338  0.96890113  0.01072695  1
  O  O28  1  0.01601871  0.72622247  0.93608753  1
  O  O29  1  0.98398129  0.22622247  0.56391247  1
  O  O30  1  0.98398129  0.27377753  0.06391247  1
  O  O31  1  0.01601871  0.77377753  0.43608753  1
  O  O32  1  0.47983378  0.72724212  0.93379139  1
  O  O33  1  0.52016622  0.22724212  0.56620861  1
  O  O34  1  0.52016622  0.27275788  0.06620861  1
  O  O35  1  0.47983378  0.77275788  0.43379139  1
  O  O36  1  0.26102220  0.89339893  0.77723000  1
  O  O37  1  0.73897780  0.39339893  0.72277000  1
  O  O38  1  0.73897780  0.10660107  0.22277000  1
  O  O39  1  0.26102220  0.60660107  0.27723000  1
  O  O40  1  0.02061616  0.67482965  0.67166060  1
  O  O41  1  0.97938384  0.17482965  0.82833940  1
  O  O42  1  0.97938384  0.32517035  0.32833940  1
  O  O43  1  0.02061616  0.82517035  0.17166060  1
  O  O44  1  0.47930559  0.66848322  0.67004970  1
  O  O45  1  0.52069441  0.16848322  0.82995030  1
  O  O46  1  0.52069441  0.33151678  0.32995030  1
  O  O47  1  0.47930559  0.83151678  0.17004970  1
  O  O48  1  0.25379694  0.90047141  0.58422650  1
  O  O49  1  0.74620306  0.40047141  0.91577350  1
  O  O50  1  0.74620306  0.09952859  0.41577350  1
  O  O51  1  0.25379694  0.59952859  0.08422650  1
  O  O52  1  0.75098299  0.97351201  0.60277430  1
  O  O53  1  0.24901701  0.47351201  0.89722570  1
  O  O54  1  0.24901701  0.02648799  0.39722570  1
  O  O55  1  0.75098299  0.52648799  0.10277430  1
  O  O56  1  0.73901505  0.89077862  0.79624656  1
  O  O57  1  0.26098495  0.39077862  0.70375344  1
  O  O58  1  0.26098495  0.10922138  0.20375344  1
  O  O59  1  0.73901505  0.60922138  0.29624656  1
  H  H60  1  0.74054736  0.93462108  0.72565011  1
  H  H61  1  0.25945264  0.43462108  0.77434989  1
  H  H62  1  0.25945264  0.06537892  0.27434989  1
  H  H63  1  0.74054736  0.56537892  0.22565011  1
