# generated using pymatgen
data_Li4Co3O7
_symmetry_space_group_name_H-M   'P 1'
_cell_length_a   2.96304270
_cell_length_b   11.28123342
_cell_length_c   7.77480016
_cell_angle_alpha   99.78603623
_cell_angle_beta   98.95761006
_cell_angle_gamma   82.98823560
_symmetry_Int_Tables_number   1
_chemical_formula_structural   Li4Co3O7
_chemical_formula_sum   'Li8 Co6 O14'
_cell_volume   251.75830158
_cell_formula_units_Z   2
loop_
 _symmetry_equiv_pos_site_id
 _symmetry_equiv_pos_as_xyz
  1  'x, y, z'
loop_
 _atom_site_type_symbol
 _atom_site_label
 _atom_site_symmetry_multiplicity
 _atom_site_fract_x
 _atom_site_fract_y
 _atom_site_fract_z
 _atom_site_occupancy
  Li  Li0  1  0.78568900  0.07623232  0.64316333  1
  Li  Li1  1  0.93192339  0.35116410  0.21501324  1
  Li  Li2  1  0.07142900  0.64285700  0.78571400  1
  Li  Li3  1  0.21093361  0.93454990  0.35641576  1
  Li  Li4  1  0.35716800  0.20948268  0.92826467  1
  Li  Li5  1  0.50098636  0.49670679  0.50087795  1
  Li  Li6  1  0.64187064  0.78900721  0.07055105  1
  Li  Li7  1  0.57142900  0.14285700  0.28571400  1
  Co  Co8  1  0.00060080  0.00472828  0.01335796  1
  Co  Co9  1  0.14225620  0.28098572  0.55807104  1
  Co  Co10  1  0.28239724  0.56707210  0.14221939  1
  Co  Co11  1  0.42420996  0.86433021  0.71547172  1
  Co  Co12  1  0.71864704  0.42138379  0.85595728  1
  Co  Co13  1  0.86045976  0.71864290  0.42920861  1
  O  O14  1  0.36106102  0.02761296  0.82976314  1
  O  O15  1  0.51238635  0.31880370  0.40395492  1
  O  O16  1  0.66223495  0.59672963  0.96676318  1
  O  O17  1  0.83260114  0.89288984  0.54368483  1
  O  O18  1  0.96251022  0.15911497  0.09238868  1
  O  O19  1  0.11968064  0.44886718  0.67700463  1
  O  O20  1  0.25110195  0.74432983  0.26172411  1
  O  O21  1  0.18034678  0.12659903  0.47904032  1
  O  O22  1  0.31025586  0.39282516  0.02774317  1
  O  O23  1  0.48062205  0.68898437  0.60466582  1
  O  O24  1  0.63047165  0.96691030  0.16747308  1
  O  O25  1  0.78179598  0.25810104  0.74166586  1
  O  O26  1  0.89175505  0.54138517  0.30970389  1
  O  O27  1  0.02317636  0.83684682  0.89442437  1
