# generated using pymatgen
data_KBePO4
_symmetry_space_group_name_H-M   'P 1'
_cell_length_a   4.98884877
_cell_length_b   8.45681948
_cell_length_c   8.62499804
_cell_angle_alpha   90.00000000
_cell_angle_beta   90.00000000
_cell_angle_gamma   90.00000000
_symmetry_Int_Tables_number   1
_chemical_formula_structural   KBePO4
_chemical_formula_sum   'K4 Be4 P4 O16'
_cell_volume   363.88688591
_cell_formula_units_Z   4
loop_
 _symmetry_equiv_pos_site_id
 _symmetry_equiv_pos_as_xyz
  1  'x, y, z'
loop_
 _atom_site_type_symbol
 _atom_site_label
 _atom_site_symmetry_multiplicity
 _atom_site_fract_x
 _atom_site_fract_y
 _atom_site_fract_z
 _atom_site_occupancy
  Be  Be0  1  0.74086225  0.81848707  0.41043797  1
  Be  Be1  1  0.24086225  0.18151293  0.58956203  1
  Be  Be2  1  0.24086225  0.68151293  0.91043797  1
  Be  Be3  1  0.74086225  0.31848707  0.08956203  1
  O  O4  1  0.64842015  0.76047810  0.23804080  1
  O  O5  1  0.14842015  0.23952190  0.76195920  1
  O  O6  1  0.14842015  0.73952190  0.73804080  1
  O  O7  1  0.64842015  0.26047810  0.26195920  1
  O  O8  1  0.02449647  0.25078064  0.46055619  1
  O  O9  1  0.52449647  0.74921936  0.53944381  1
  O  O10  1  0.52449647  0.24921936  0.96055619  1
  O  O11  1  0.02449647  0.75078064  0.03944381  1
  O  O12  1  0.04093378  0.75335635  0.45347952  1
  O  O13  1  0.54093378  0.24664365  0.54652048  1
  O  O14  1  0.54093378  0.74664365  0.95347952  1
  O  O15  1  0.04093378  0.25335635  0.04652048  1
  O  O16  1  0.73836895  0.00953374  0.40551114  1
  O  O17  1  0.23836895  0.99046626  0.59448886  1
  O  O18  1  0.23836895  0.49046626  0.90551114  1
  O  O19  1  0.73836895  0.50953374  0.09448886  1
  P  P20  1  0.73944941  0.69016854  0.08150760  1
  P  P21  1  0.23944941  0.30983146  0.91849240  1
  P  P22  1  0.23944941  0.80983146  0.58150760  1
  P  P23  1  0.73944941  0.19016854  0.41849240  1
  K  K24  1  0.25256898  0.49731837  0.29214489  1
  K  K25  1  0.75256898  0.50268163  0.70785511  1
  K  K26  1  0.75256898  0.00268163  0.79214489  1
  K  K27  1  0.25256898  0.99731837  0.20785511  1
