# generated using pymatgen
data_K4SnO4
_symmetry_space_group_name_H-M   'P 1'
_cell_length_a   6.60885514
_cell_length_b   6.60067759
_cell_length_c   9.91430424
_cell_angle_alpha   71.67501167
_cell_angle_beta   80.24692453
_cell_angle_gamma   67.32549349
_symmetry_Int_Tables_number   1
_chemical_formula_structural   K4SnO4
_chemical_formula_sum   'K8 Sn2 O8'
_cell_volume   378.25244016
_cell_formula_units_Z   2
loop_
 _symmetry_equiv_pos_site_id
 _symmetry_equiv_pos_as_xyz
  1  'x, y, z'
loop_
 _atom_site_type_symbol
 _atom_site_label
 _atom_site_symmetry_multiplicity
 _atom_site_fract_x
 _atom_site_fract_y
 _atom_site_fract_z
 _atom_site_occupancy
  O  O0  1  0.53199831  0.29634682  0.37606595  1
  O  O1  1  0.46800169  0.70365318  0.62393405  1
  O  O2  1  0.96306907  0.84280163  0.35527225  1
  O  O3  1  0.03693093  0.15719837  0.64472775  1
  O  O4  1  0.96506090  0.34889314  0.19323917  1
  O  O5  1  0.03493910  0.65110686  0.80676083  1
  O  O6  1  0.63893216  0.15534576  0.08249823  1
  O  O7  1  0.36106784  0.84465424  0.91750177  1
  K  K8  1  0.76100032  0.40395701  0.82908458  1
  K  K9  1  0.23899968  0.59604299  0.17091542  1
  K  K10  1  0.23044430  0.48435626  0.56173280  1
  K  K11  1  0.76955570  0.51564374  0.43826720  1
  K  K12  1  0.74327840  0.76191109  0.02063526  1
  K  K13  1  0.25672160  0.23808891  0.97936474  1
  K  K14  1  0.27079780  0.04336611  0.38877022  1
  K  K15  1  0.72920220  0.95663389  0.61122978  1
  Sn  Sn16  1  0.77722622  0.15550667  0.24564398  1
  Sn  Sn17  1  0.22277378  0.84449333  0.75435602  1
