# generated using pymatgen
data_TiP2H4O9
_symmetry_space_group_name_H-M   'P 1'
_cell_length_a   8.75582435
_cell_length_b   5.05859151
_cell_length_c   15.78521456
_cell_angle_alpha   90.00000000
_cell_angle_beta   101.61775305
_cell_angle_gamma   90.00000000
_symmetry_Int_Tables_number   1
_chemical_formula_structural   TiP2H4O9
_chemical_formula_sum   'Ti4 P8 H16 O36'
_cell_volume   684.83713245
_cell_formula_units_Z   4
loop_
 _symmetry_equiv_pos_site_id
 _symmetry_equiv_pos_as_xyz
  1  'x, y, z'
loop_
 _atom_site_type_symbol
 _atom_site_label
 _atom_site_symmetry_multiplicity
 _atom_site_fract_x
 _atom_site_fract_y
 _atom_site_fract_z
 _atom_site_occupancy
  Ti  Ti0  1  0.25267271  0.75213828  0.01130770  1
  Ti  Ti1  1  0.75267271  0.74786172  0.51130770  1
  Ti  Ti2  1  0.74732729  0.24786172  0.98869230  1
  Ti  Ti3  1  0.24732729  0.25213828  0.48869230  1
  P  P4  1  0.11199732  0.25246050  0.10750200  1
  P  P5  1  0.61199732  0.24753950  0.60750200  1
  P  P6  1  0.88800268  0.74753950  0.89249800  1
  P  P7  1  0.38800268  0.75246050  0.39249800  1
  P  P8  1  0.63063934  0.74432938  0.09859818  1
  P  P9  1  0.13063934  0.75567062  0.59859818  1
  P  P10  1  0.36936066  0.25567062  0.90140182  1
  P  P11  1  0.86936066  0.24432938  0.40140182  1
  H  H12  1  0.07783608  0.42441824  0.22975328  1
  H  H13  1  0.57783608  0.07558176  0.72975328  1
  H  H14  1  0.92216392  0.57558176  0.77024672  1
  H  H15  1  0.42216392  0.92441824  0.27024672  1
  H  H16  1  0.80167207  0.73440339  0.22263702  1
  H  H17  1  0.30167207  0.76559661  0.72263702  1
  H  H18  1  0.19832793  0.26559661  0.77736298  1
  H  H19  1  0.69832793  0.23440339  0.27736298  1
  H  H20  1  0.44688336  0.38126956  0.25022346  1
  H  H21  1  0.94688336  0.11873044  0.75022346  1
  H  H22  1  0.55311664  0.61873044  0.74977654  1
  H  H23  1  0.05311664  0.88126956  0.24977654  1
  H  H24  1  0.47590080  0.19549350  0.17524093  1
  H  H25  1  0.97590080  0.30450650  0.67524093  1
  H  H26  1  0.52409920  0.80450650  0.82475907  1
  H  H27  1  0.02409920  0.69549350  0.32475907  1
  O  O28  1  0.94699639  0.33163773  0.06097786  1
  O  O29  1  0.44699639  0.16836227  0.56097786  1
  O  O30  1  0.05300361  0.66836227  0.93902214  1
  O  O31  1  0.55300361  0.83163773  0.43902214  1
  O  O32  1  0.15306505  0.96673186  0.08899129  1
  O  O33  1  0.65306505  0.53326814  0.58899129  1
  O  O34  1  0.84693495  0.03326814  0.91100871  1
  O  O35  1  0.34693495  0.46673186  0.41100871  1
  O  O36  1  0.23436194  0.44752659  0.08653798  1
  O  O37  1  0.73436194  0.05247341  0.58653798  1
  O  O38  1  0.76563806  0.55247341  0.91346202  1
  O  O39  1  0.26563806  0.94752659  0.41346202  1
  O  O40  1  0.11740036  0.25462069  0.20856307  1
  O  O41  1  0.61740036  0.24537931  0.70856307  1
  O  O42  1  0.88259964  0.74537931  0.79143693  1
  O  O43  1  0.38259964  0.75462069  0.29143693  1
  O  O44  1  0.73199067  0.93754004  0.05866720  1
  O  O45  1  0.23199067  0.56245996  0.55866720  1
  O  O46  1  0.26800933  0.06245996  0.94133280  1
  O  O47  1  0.76800933  0.43754004  0.44133280  1
  O  O48  1  0.64364730  0.46264603  0.06363912  1
  O  O49  1  0.14364730  0.03735397  0.56363912  1
  O  O50  1  0.35635270  0.53735397  0.93636088  1
  O  O51  1  0.85635270  0.96264603  0.43636088  1
  O  O52  1  0.45964596  0.83542311  0.08430890  1
  O  O53  1  0.95964596  0.66457689  0.58430890  1
  O  O54  1  0.54035404  0.16457689  0.91569110  1
  O  O55  1  0.04035404  0.33542311  0.41569110  1
  O  O56  1  0.68629463  0.74629367  0.19983142  1
  O  O57  1  0.18629463  0.75370633  0.69983142  1
  O  O58  1  0.31370537  0.25370633  0.80016858  1
  O  O59  1  0.81370537  0.24629367  0.30016858  1
  O  O60  1  0.49713941  0.21505438  0.23848064  1
  O  O61  1  0.99713941  0.28494562  0.73848064  1
  O  O62  1  0.50286059  0.78494562  0.76151936  1
  O  O63  1  0.00286059  0.71505438  0.26151936  1
