# generated using pymatgen
data_Li4MnCo2O7
_symmetry_space_group_name_H-M   'P 1'
_cell_length_a   2.89318551
_cell_length_b   9.94304039
_cell_length_c   9.81381595
_cell_angle_alpha   113.79290069
_cell_angle_beta   90.00000000
_cell_angle_gamma   98.36553740
_symmetry_Int_Tables_number   1
_chemical_formula_structural   Li4MnCo2O7
_chemical_formula_sum   'Li8 Mn2 Co4 O14'
_cell_volume   255.03435042
_cell_formula_units_Z   2
loop_
 _symmetry_equiv_pos_site_id
 _symmetry_equiv_pos_as_xyz
  1  'x, y, z'
loop_
 _atom_site_type_symbol
 _atom_site_label
 _atom_site_symmetry_multiplicity
 _atom_site_fract_x
 _atom_site_fract_y
 _atom_site_fract_z
 _atom_site_occupancy
  Li  Li0  1  0.64285700  0.28571400  0.07142900  1
  Li  Li1  1  0.93137155  0.86274409  0.22424619  1
  Li  Li2  1  0.21494117  0.42988135  0.36573918  1
  Li  Li3  1  0.51092320  0.02184640  0.51286501  1
  Li  Li4  1  0.77479080  0.54958260  0.62999199  1
  Li  Li5  1  0.07077383  0.14154665  0.77711782  1
  Li  Li6  1  0.35434245  0.70868491  0.91861081  1
  Li  Li7  1  0.14285700  0.28571400  0.57142900  1
  Mn  Mn8  1  0.00004683  0.00009367  0.00396031  1
  Mn  Mn9  1  0.28566717  0.57133533  0.13889669  1
  Co  Co10  1  0.58024421  0.16048742  0.30979333  1
  Co  Co11  1  0.85841978  0.71683956  0.43286952  1
  Co  Co12  1  0.42729422  0.85458944  0.70998748  1
  Co  Co13  1  0.70547079  0.41094058  0.83306367  1
  O  O14  1  0.53078611  0.06157321  0.90454265  1
  O  O15  1  0.81860144  0.63720187  0.04969006  1
  O  O16  1  0.09512891  0.19025781  0.17063850  1
  O  O17  1  0.38222945  0.76445889  0.31195256  1
  O  O18  1  0.67355157  0.34710415  0.44992681  1
  O  O19  1  0.96025420  0.92050741  0.60621482  1
  O  O20  1  0.24925243  0.49850485  0.75922004  1
  O  O21  1  0.75492789  0.50985579  0.23831435  1
  O  O22  1  0.03646157  0.07292415  0.38363696  1
  O  O23  1  0.32546080  0.65092059  0.53664218  1
  O  O24  1  0.61216243  0.22432485  0.69293019  1
  O  O25  1  0.90348455  0.80696911  0.83090544  1
  O  O26  1  0.19058509  0.38117119  0.97221850  1
  O  O27  1  0.46711356  0.93422613  0.09316694  1
