# generated using pymatgen
data_Dy2Se3
_symmetry_space_group_name_H-M   'P 1'
_cell_length_a   4.02904700
_cell_length_b   11.00081356
_cell_length_c   11.16208974
_cell_angle_alpha   90.00000000
_cell_angle_beta   90.00000000
_cell_angle_gamma   90.00000000
_symmetry_Int_Tables_number   1
_chemical_formula_structural   Dy2Se3
_chemical_formula_sum   'Dy8 Se12'
_cell_volume   494.73501388
_cell_formula_units_Z   4
loop_
 _symmetry_equiv_pos_site_id
 _symmetry_equiv_pos_as_xyz
  1  'x, y, z'
loop_
 _atom_site_type_symbol
 _atom_site_label
 _atom_site_symmetry_multiplicity
 _atom_site_fract_x
 _atom_site_fract_y
 _atom_site_fract_z
 _atom_site_occupancy
  Se  Se0  1  0.25000000  0.30475951  0.72632984  1
  Se  Se1  1  0.75000000  0.69524049  0.27367016  1
  Se  Se2  1  0.75000000  0.80475951  0.77367016  1
  Se  Se3  1  0.25000000  0.19524049  0.22632984  1
  Se  Se4  1  0.25000000  0.94409501  0.38122378  1
  Se  Se5  1  0.75000000  0.05590499  0.61877622  1
  Se  Se6  1  0.75000000  0.44409501  0.11877622  1
  Se  Se7  1  0.25000000  0.55590499  0.88122378  1
  Se  Se8  1  0.25000000  0.87457063  0.04445558  1
  Se  Se9  1  0.75000000  0.12542937  0.95554442  1
  Se  Se10  1  0.75000000  0.37457063  0.45554442  1
  Se  Se11  1  0.25000000  0.62542937  0.54445558  1
  Dy  Dy12  1  0.25000000  0.99870737  0.80627717  1
  Dy  Dy13  1  0.75000000  0.00129263  0.19372283  1
  Dy  Dy14  1  0.75000000  0.49870737  0.69372283  1
  Dy  Dy15  1  0.25000000  0.50129263  0.30627717  1
  Dy  Dy16  1  0.25000000  0.18746506  0.48715268  1
  Dy  Dy17  1  0.75000000  0.81253494  0.51284732  1
  Dy  Dy18  1  0.75000000  0.68746506  0.01284732  1
  Dy  Dy19  1  0.25000000  0.31253494  0.98715268  1
