# generated using pymatgen
data_ZrP2(HO4)2
_symmetry_space_group_name_H-M   'P 1'
_cell_length_a   9.79414579
_cell_length_b   9.79414579
_cell_length_c   9.79414579
_cell_angle_alpha   108.07204904
_cell_angle_beta   108.07204904
_cell_angle_gamma   112.30733531
_symmetry_Int_Tables_number   1
_chemical_formula_structural   ZrP2(HO4)2
_chemical_formula_sum   'Zr4 P8 H8 O32'
_cell_volume   721.89605615
_cell_formula_units_Z   4
loop_
 _symmetry_equiv_pos_site_id
 _symmetry_equiv_pos_as_xyz
  1  'x, y, z'
loop_
 _atom_site_type_symbol
 _atom_site_label
 _atom_site_symmetry_multiplicity
 _atom_site_fract_x
 _atom_site_fract_y
 _atom_site_fract_z
 _atom_site_occupancy
  Zr  Zr0  1  0.25500323  0.75500323  0.50000000  1
  Zr  Zr1  1  0.75500323  0.25500323  0.50000000  1
  Zr  Zr2  1  0.50500323  0.50500323  0.00000000  1
  Zr  Zr3  1  0.00500323  0.00500323  0.00000000  1
  P  P4  1  0.80710214  0.46503559  0.26711847  1
  P  P5  1  0.69791712  0.96503559  0.65793345  1
  P  P6  1  0.21503559  0.44791712  0.15793345  1
  P  P7  1  0.71503559  0.55710214  0.76711847  1
  P  P8  1  0.19791712  0.53998367  0.73288153  1
  P  P9  1  0.30710214  0.03998367  0.34206655  1
  P  P10  1  0.28998367  0.05710214  0.84206655  1
  P  P11  1  0.78998367  0.94791712  0.23288153  1
  H  H12  1  0.68000893  0.21837975  0.05209060  1
  H  H13  1  0.66628915  0.71837975  0.53837082  1
  H  H14  1  0.96837975  0.41628915  0.03837082  1
  H  H15  1  0.46837975  0.43000893  0.55209060  1
  H  H16  1  0.16628915  0.62791833  0.94790940  1
  H  H17  1  0.18000893  0.12791833  0.46162918  1
  H  H18  1  0.37791833  0.93000893  0.96162918  1
  H  H19  1  0.87791833  0.91628915  0.44790940  1
  O  O20  1  0.79267604  0.32223453  0.11697358  1
  O  O21  1  0.70526095  0.82223453  0.52955849  1
  O  O22  1  0.07223453  0.45526095  0.02955849  1
  O  O23  1  0.57223453  0.54267604  0.61697358  1
  O  O24  1  0.20526095  0.67570246  0.88302642  1
  O  O25  1  0.29267604  0.17570246  0.47044151  1
  O  O26  1  0.42570246  0.04267604  0.97044151  1
  O  O27  1  0.92570246  0.95526095  0.38302642  1
  O  O28  1  0.99162329  0.60680542  0.35749167  1
  O  O29  1  0.74931375  0.10680542  0.61518212  1
  O  O30  1  0.35680542  0.49931375  0.11518212  1
  O  O31  1  0.85680542  0.74162329  0.85749167  1
  O  O32  1  0.24931375  0.63413162  0.64250833  1
  O  O33  1  0.49162329  0.13413162  0.38481788  1
  O  O34  1  0.38413162  0.24162329  0.88481788  1
  O  O35  1  0.88413162  0.99931375  0.14250833  1
  O  O36  1  0.27001846  0.57318040  0.33249650  1
  O  O37  1  0.74068390  0.07318040  0.30316194  1
  O  O38  1  0.32318040  0.49068390  0.80316194  1
  O  O39  1  0.82318040  0.02001846  0.83249650  1
  O  O40  1  0.24068390  0.93752197  0.66750350  1
  O  O41  1  0.77001846  0.43752197  0.69683806  1
  O  O42  1  0.68752197  0.52001846  0.19683806  1
  O  O43  1  0.18752197  0.99068390  0.16750350  1
  O  O44  1  0.51880095  0.89389859  0.63419651  1
  O  O45  1  0.75970208  0.39389859  0.37509765  1
  O  O46  1  0.64389859  0.50970208  0.87509765  1
  O  O47  1  0.14389859  0.26880095  0.13419651  1
  O  O48  1  0.25970208  0.88460444  0.36580349  1
  O  O49  1  0.01880095  0.38460444  0.62490235  1
  O  O50  1  0.63460444  0.76880095  0.12490235  1
  O  O51  1  0.13460444  0.00970208  0.86580349  1
