# generated using pymatgen
data_KSb(PSe3)2
_symmetry_space_group_name_H-M   'P 1'
_cell_length_a   7.04294958
_cell_length_b   8.20808140
_cell_length_c   10.35529974
_cell_angle_alpha   90.00000000
_cell_angle_beta   91.66751249
_cell_angle_gamma   90.00000000
_symmetry_Int_Tables_number   1
_chemical_formula_structural   KSb(PSe3)2
_chemical_formula_sum   'K2 Sb2 P4 Se12'
_cell_volume   598.37708573
_cell_formula_units_Z   2
loop_
 _symmetry_equiv_pos_site_id
 _symmetry_equiv_pos_as_xyz
  1  'x, y, z'
loop_
 _atom_site_type_symbol
 _atom_site_label
 _atom_site_symmetry_multiplicity
 _atom_site_fract_x
 _atom_site_fract_y
 _atom_site_fract_z
 _atom_site_occupancy
  P  P0  1  0.70830784  0.84762043  0.79827431  1
  P  P1  1  0.29169216  0.34762043  0.20172569  1
  P  P2  1  0.19270375  0.13912494  0.32953594  1
  P  P3  1  0.80729625  0.63912494  0.67046406  1
  K  K4  1  0.80722905  0.33703684  0.99171327  1
  K  K5  1  0.19277095  0.83703684  0.00828673  1
  Se  Se6  1  0.41508855  0.94462960  0.32847644  1
  Se  Se7  1  0.91859392  0.04058112  0.76629423  1
  Se  Se8  1  0.58491145  0.44462960  0.67152356  1
  Se  Se9  1  0.67639804  0.75942437  0.99154033  1
  Se  Se10  1  0.55632671  0.42253316  0.31216306  1
  Se  Se11  1  0.44367329  0.92253316  0.68783694  1
  Se  Se12  1  0.15944059  0.25759542  0.52620215  1
  Se  Se13  1  0.84055941  0.75759542  0.47379785  1
  Se  Se14  1  0.07787497  0.54680187  0.74960631  1
  Se  Se15  1  0.92212503  0.04680187  0.25039369  1
  Se  Se16  1  0.32360196  0.25942437  0.00845967  1
  Se  Se17  1  0.08140608  0.54058112  0.23370577  1
  Sb  Sb18  1  0.68644568  0.05285225  0.51437289  1
  Sb  Sb19  1  0.31355432  0.55285225  0.48562711  1
