# generated using pymatgen
data_NaCeH2S2O9
_symmetry_space_group_name_H-M   'P 1'
_cell_length_a   7.13253042
_cell_length_b   7.13253055
_cell_length_c   12.88837129
_cell_angle_alpha   90.00000000
_cell_angle_beta   90.00000000
_cell_angle_gamma   119.99999937
_symmetry_Int_Tables_number   1
_chemical_formula_structural   NaCeH2S2O9
_chemical_formula_sum   'Na3 Ce3 H6 S6 O27'
_cell_volume   567.82687864
_cell_formula_units_Z   3
loop_
 _symmetry_equiv_pos_site_id
 _symmetry_equiv_pos_as_xyz
  1  'x, y, z'
loop_
 _atom_site_type_symbol
 _atom_site_label
 _atom_site_symmetry_multiplicity
 _atom_site_fract_x
 _atom_site_fract_y
 _atom_site_fract_z
 _atom_site_occupancy
  Na  Na0  1  0.99905271  0.47048108  0.83411873  1
  Na  Na1  1  0.52951892  0.52857163  0.50078573  1
  Na  Na2  1  0.47142837  0.00094729  0.16745273  1
  Ce  Ce3  1  0.99986243  0.43755129  0.33478542  1
  Ce  Ce4  1  0.56244871  0.56231115  0.00145242  1
  Ce  Ce5  1  0.43768885  0.00013757  0.66811942  1
  H  H6  1  0.04268878  0.92798753  0.96492125  1
  H  H7  1  0.07201247  0.11470125  0.63158825  1
  H  H8  1  0.09547994  0.04869562  0.36636730  1
  H  H9  1  0.88529875  0.95731122  0.29825525  1
  H  H10  1  0.95321568  0.90452006  0.69970030  1
  H  H11  1  0.95130438  0.04678432  0.03303430  1
  S  S12  1  0.00765406  0.44769391  0.08599460  1
  S  S13  1  0.44004085  0.99234594  0.41932760  1
  S  S14  1  0.55230609  0.55995915  0.75266160  1
  S  S15  1  0.55709251  0.54979587  0.25059564  1
  S  S16  1  0.45020413  0.00729663  0.91726264  1
  S  S17  1  0.99270337  0.44290749  0.58392964  1
  O  O18  1  0.12611296  0.62433375  0.65586866  1
  O  O19  1  0.13023910  0.63193444  0.15913195  1
  O  O20  1  0.25323151  0.86914788  0.85342246  1
  O  O21  1  0.24779463  0.84445700  0.35541084  1
  O  O22  1  0.13085212  0.38408363  0.52008946  1
  O  O23  1  0.15554300  0.40333762  0.02207784  1
  O  O24  1  0.49822079  0.87388704  0.98920166  1
  O  O25  1  0.50169534  0.86976090  0.49246495  1
  O  O26  1  0.09413392  0.01116990  0.67159558  1
  O  O27  1  0.36806556  0.49830466  0.82579895  1
  O  O28  1  0.37566625  0.50177921  0.32253466  1
  O  O29  1  0.59666238  0.75220537  0.68874484  1
  O  O30  1  0.61591637  0.74676849  0.18675546  1
  O  O31  1  0.50746874  0.38157730  0.67946240  1
  O  O32  1  0.49512099  0.36898103  0.17516235  1
  O  O33  1  0.38635093  0.13068056  0.48623983  1
  O  O34  1  0.41294665  0.15853444  0.98191898  1
  O  O35  1  0.74432964  0.61364907  0.81957383  1
  O  O36  1  0.74558778  0.58705335  0.31525198  1
  O  O37  1  0.91703598  0.90586608  0.00492958  1
  O  O38  1  0.61842270  0.12589145  0.34612840  1
  O  O39  1  0.63101897  0.12613996  0.84182935  1
  O  O40  1  0.87386004  0.50487901  0.50849635  1
  O  O41  1  0.87410855  0.49253126  0.01279540  1
  O  O42  1  0.84146556  0.25441222  0.64858598  1
  O  O43  1  0.86931944  0.25567036  0.15290683  1
  O  O44  1  0.98883010  0.08296402  0.33826258  1
