# generated using pymatgen
data_Na3SbO4
_symmetry_space_group_name_H-M   'P 1'
_cell_length_a   5.51568625
_cell_length_b   5.87887512
_cell_length_c   6.67728984
_cell_angle_alpha   90.00000000
_cell_angle_beta   90.00000000
_cell_angle_gamma   109.56722376
_symmetry_Int_Tables_number   1
_chemical_formula_structural   Na3SbO4
_chemical_formula_sum   'Na6 Sb2 O8'
_cell_volume   204.01391577
_cell_formula_units_Z   2
loop_
 _symmetry_equiv_pos_site_id
 _symmetry_equiv_pos_as_xyz
  1  'x, y, z'
loop_
 _atom_site_type_symbol
 _atom_site_label
 _atom_site_symmetry_multiplicity
 _atom_site_fract_x
 _atom_site_fract_y
 _atom_site_fract_z
 _atom_site_occupancy
  O  O0  1  0.95717067  0.22805357  0.66791835  1
  O  O1  1  0.54282933  0.77194643  0.66791835  1
  O  O2  1  0.04282933  0.77194643  0.33208165  1
  O  O3  1  0.45717067  0.22805357  0.33208165  1
  O  O4  1  0.49988877  0.19565168  0.90350348  1
  O  O5  1  0.00011123  0.80434832  0.90350348  1
  O  O6  1  0.99988877  0.19565168  0.09649652  1
  O  O7  1  0.50011123  0.80434832  0.09649652  1
  Na  Na8  1  0.75000000  0.00000000  0.38543866  1
  Na  Na9  1  0.25000000  0.50000000  0.39429013  1
  Na  Na10  1  0.75000000  0.50000000  0.12524145  1
  Na  Na11  1  0.25000000  0.50000000  0.87475855  1
  Na  Na12  1  0.25000000  0.00000000  0.61456134  1
  Na  Na13  1  0.75000000  0.50000000  0.60570987  1
  Sb  Sb14  1  0.75000000  0.00000000  0.86938380  1
  Sb  Sb15  1  0.25000000  0.00000000  0.13061620  1
