# generated using pymatgen
data_NaGdRe4(H2O5)4
_symmetry_space_group_name_H-M   'P 1'
_cell_length_a   12.72371071
_cell_length_b   12.72371071
_cell_length_c   5.75980366
_cell_angle_alpha   90.00000000
_cell_angle_beta   90.00000000
_cell_angle_gamma   90.00000000
_symmetry_Int_Tables_number   1
_chemical_formula_structural   NaGdRe4(H2O5)4
_chemical_formula_sum   'Na2 Gd2 Re8 H16 O40'
_cell_volume   932.47082394
_cell_formula_units_Z   2
loop_
 _symmetry_equiv_pos_site_id
 _symmetry_equiv_pos_as_xyz
  1  'x, y, z'
loop_
 _atom_site_type_symbol
 _atom_site_label
 _atom_site_symmetry_multiplicity
 _atom_site_fract_x
 _atom_site_fract_y
 _atom_site_fract_z
 _atom_site_occupancy
  Na  Na0  1  0.50000000  0.50000000  0.00000000  1
  Na  Na1  1  0.00000000  0.00000000  0.50000000  1
  Gd  Gd2  1  0.00000000  0.50000000  0.25000000  1
  Gd  Gd3  1  0.50000000  0.00000000  0.75000000  1
  Re  Re4  1  0.71482030  0.40774051  0.46559433  1
  Re  Re5  1  0.78517970  0.90774051  0.96559433  1
  Re  Re6  1  0.59225949  0.71482030  0.53440567  1
  Re  Re7  1  0.90774051  0.21482030  0.03440567  1
  Re  Re8  1  0.28517970  0.59225949  0.46559433  1
  Re  Re9  1  0.21482030  0.09225949  0.96559433  1
  Re  Re10  1  0.40774051  0.28517970  0.53440567  1
  Re  Re11  1  0.09225949  0.78517970  0.03440567  1
  H  H12  1  0.13538460  0.33592176  0.49186314  1
  H  H13  1  0.36461540  0.83592176  0.99186314  1
  H  H14  1  0.66407824  0.13538460  0.50813686  1
  H  H15  1  0.83592176  0.63538460  0.00813686  1
  H  H16  1  0.86461540  0.66407824  0.49186314  1
  H  H17  1  0.63538460  0.16407824  0.99186314  1
  H  H18  1  0.33592176  0.86461540  0.50813686  1
  H  H19  1  0.16407824  0.36461540  0.00813686  1
  H  H20  1  0.02290134  0.28530860  0.46391721  1
  H  H21  1  0.47709866  0.78530860  0.96391721  1
  H  H22  1  0.71469140  0.02290134  0.53608279  1
  H  H23  1  0.78530860  0.52290134  0.03608279  1
  H  H24  1  0.97709866  0.71469140  0.46391721  1
  H  H25  1  0.52290134  0.21469140  0.96391721  1
  H  H26  1  0.28530860  0.97709866  0.53608279  1
  H  H27  1  0.21469140  0.47709866  0.03608279  1
  O  O28  1  0.85100304  0.43503567  0.49165135  1
  O  O29  1  0.64899696  0.93503567  0.99165135  1
  O  O30  1  0.56496433  0.85100304  0.50834865  1
  O  O31  1  0.93503567  0.35100304  0.00834865  1
  O  O32  1  0.14899696  0.56496433  0.49165135  1
  O  O33  1  0.35100304  0.06496433  0.99165135  1
  O  O34  1  0.43503567  0.14899696  0.50834865  1
  O  O35  1  0.06496433  0.64899696  0.00834865  1
  O  O36  1  0.69231452  0.27290640  0.49817596  1
  O  O37  1  0.80768548  0.77290640  -0.00182404  1
  O  O38  1  0.72709360  0.69231452  0.50182404  1
  O  O39  1  0.77290640  0.19231452  0.00182404  1
  O  O40  1  0.30768548  0.72709360  0.49817596  1
  O  O41  1  0.19231452  0.22709360  -0.00182404  1
  O  O42  1  0.27290640  0.30768548  0.50182404  1
  O  O43  1  0.22709360  0.80768548  0.00182404  1
  O  O44  1  0.64484583  0.47585263  0.67855872  1
  O  O45  1  0.85515417  0.97585263  0.17855872  1
  O  O46  1  0.52414737  0.64484583  0.32144128  1
  O  O47  1  0.97585263  0.14484583  0.82144128  1
  O  O48  1  0.35515417  0.52414737  0.67855872  1
  O  O49  1  0.14484583  0.02414737  0.17855872  1
  O  O50  1  0.47585263  0.35515417  0.32144128  1
  O  O51  1  0.02414737  0.85515417  0.82144128  1
  O  O52  1  0.67482432  0.45015685  0.19004484  1
  O  O53  1  0.82517568  0.95015685  0.69004484  1
  O  O54  1  0.54984315  0.67482432  0.80995516  1
  O  O55  1  0.95015685  0.17482432  0.30995516  1
  O  O56  1  0.32517568  0.54984315  0.19004484  1
  O  O57  1  0.17482432  0.04984315  0.69004484  1
  O  O58  1  0.45015685  0.32517568  0.80995516  1
  O  O59  1  0.04984315  0.82517568  0.30995516  1
  O  O60  1  0.05969686  0.35308175  0.48042412  1
  O  O61  1  0.44030314  0.85308175  0.98042412  1
  O  O62  1  0.64691825  0.05969686  0.51957588  1
  O  O63  1  0.85308175  0.55969686  0.01957588  1
  O  O64  1  0.94030314  0.64691825  0.48042412  1
  O  O65  1  0.55969686  0.14691825  0.98042412  1
  O  O66  1  0.35308175  0.94030314  0.51957588  1
  O  O67  1  0.14691825  0.44030314  0.01957588  1
