# generated using pymatgen
data_Hf5Ge4
_symmetry_space_group_name_H-M   'P 1'
_cell_length_a   7.06518822
_cell_length_b   7.14488528
_cell_length_c   13.47967076
_cell_angle_alpha   90.00000000
_cell_angle_beta   90.00000000
_cell_angle_gamma   90.00000000
_symmetry_Int_Tables_number   1
_chemical_formula_structural   Hf5Ge4
_chemical_formula_sum   'Hf20 Ge16'
_cell_volume   680.45323152
_cell_formula_units_Z   4
loop_
 _symmetry_equiv_pos_site_id
 _symmetry_equiv_pos_as_xyz
  1  'x, y, z'
loop_
 _atom_site_type_symbol
 _atom_site_label
 _atom_site_symmetry_multiplicity
 _atom_site_fract_x
 _atom_site_fract_y
 _atom_site_fract_z
 _atom_site_occupancy
  Ge  Ge0  1  0.69936114  0.53508972  0.04096082  1
  Ge  Ge1  1  0.19936114  0.96491028  0.45903918  1
  Ge  Ge2  1  0.80063886  0.03508972  0.95903918  1
  Ge  Ge3  1  0.30063886  0.46491028  0.54096082  1
  Ge  Ge4  1  0.30063886  0.46491028  0.95903918  1
  Ge  Ge5  1  0.80063886  0.03508972  0.54096082  1
  Ge  Ge6  1  0.19936114  0.96491028  0.04096082  1
  Ge  Ge7  1  0.69936114  0.53508972  0.45903918  1
  Ge  Ge8  1  0.32340154  0.35294383  0.25000000  1
  Ge  Ge9  1  0.82340154  0.14705617  0.25000000  1
  Ge  Ge10  1  0.17659846  0.85294383  0.75000000  1
  Ge  Ge11  1  0.67659846  0.64705617  0.75000000  1
  Ge  Ge12  1  0.05508293  0.61182483  0.25000000  1
  Ge  Ge13  1  0.55508293  0.88817517  0.25000000  1
  Ge  Ge14  1  0.44491707  0.11182483  0.75000000  1
  Ge  Ge15  1  0.94491707  0.38817517  0.75000000  1
  Hf  Hf16  1  0.01602779  0.32383026  0.09485459  1
  Hf  Hf17  1  0.51602779  0.17616974  0.40514541  1
  Hf  Hf18  1  0.48397221  0.82383026  0.90514541  1
  Hf  Hf19  1  0.98397221  0.67616974  0.59485459  1
  Hf  Hf20  1  0.01602779  0.32383026  0.40514541  1
  Hf  Hf21  1  0.51602779  0.17616974  0.09485459  1
  Hf  Hf22  1  0.48397221  0.82383026  0.59485459  1
  Hf  Hf23  1  0.98397221  0.67616974  0.90514541  1
  Hf  Hf24  1  0.85718088  0.83436101  0.12374723  1
  Hf  Hf25  1  0.35718088  0.66563899  0.37625277  1
  Hf  Hf26  1  0.64281912  0.33436101  0.87625277  1
  Hf  Hf27  1  0.14281912  0.16563899  0.62374723  1
  Hf  Hf28  1  0.14281912  0.16563899  0.87625277  1
  Hf  Hf29  1  0.64281912  0.33436101  0.62374723  1
  Hf  Hf30  1  0.35718088  0.66563899  0.12374723  1
  Hf  Hf31  1  0.85718088  0.83436101  0.37625277  1
  Hf  Hf32  1  0.18325835  0.00233426  0.25000000  1
  Hf  Hf33  1  0.68325835  0.49766574  0.25000000  1
  Hf  Hf34  1  0.31674165  0.50233426  0.75000000  1
  Hf  Hf35  1  0.81674165  0.99766574  0.75000000  1
