# generated using pymatgen
data_NdZnAsO
_symmetry_space_group_name_H-M   'P 1'
_cell_length_a   4.06612124
_cell_length_b   4.06612124
_cell_length_c   9.10985718
_cell_angle_alpha   90.00000000
_cell_angle_beta   90.00000000
_cell_angle_gamma   90.00000000
_symmetry_Int_Tables_number   1
_chemical_formula_structural   NdZnAsO
_chemical_formula_sum   'Nd2 Zn2 As2 O2'
_cell_volume   150.61638377
_cell_formula_units_Z   2
loop_
 _symmetry_equiv_pos_site_id
 _symmetry_equiv_pos_as_xyz
  1  'x, y, z'
loop_
 _atom_site_type_symbol
 _atom_site_label
 _atom_site_symmetry_multiplicity
 _atom_site_fract_x
 _atom_site_fract_y
 _atom_site_fract_z
 _atom_site_occupancy
  O  O0  1  0.25000000  0.75000000  0.00000000  1
  O  O1  1  0.75000000  0.25000000  0.00000000  1
  Zn  Zn2  1  0.75000000  0.25000000  0.50000000  1
  Zn  Zn3  1  0.25000000  0.75000000  0.50000000  1
  As  As4  1  0.25000000  0.25000000  0.67522904  1
  As  As5  1  0.75000000  0.75000000  0.32477096  1
  Nd  Nd6  1  0.75000000  0.75000000  0.87048856  1
  Nd  Nd7  1  0.25000000  0.25000000  0.12951144  1
