# generated using pymatgen
data_CsUCuSe3
_symmetry_space_group_name_H-M   'P 1'
_cell_length_a   4.14654443
_cell_length_b   8.34407790
_cell_length_c   10.72699609
_cell_angle_alpha   90.00000000
_cell_angle_beta   90.00000000
_cell_angle_gamma   104.38712906
_symmetry_Int_Tables_number   1
_chemical_formula_structural   CsUCuSe3
_chemical_formula_sum   'Cs2 U2 Cu2 Se6'
_cell_volume   359.50484471
_cell_formula_units_Z   2
loop_
 _symmetry_equiv_pos_site_id
 _symmetry_equiv_pos_as_xyz
  1  'x, y, z'
loop_
 _atom_site_type_symbol
 _atom_site_label
 _atom_site_symmetry_multiplicity
 _atom_site_fract_x
 _atom_site_fract_y
 _atom_site_fract_z
 _atom_site_occupancy
  Cu  Cu0  1  0.46881252  0.93762505  0.75000000  1
  Cu  Cu1  1  0.53118748  0.06237495  0.25000000  1
  Se  Se2  1  0.38540044  0.77080089  0.55937194  1
  Se  Se3  1  0.61459956  0.22919911  0.44062806  1
  Se  Se4  1  0.94304493  0.88608986  0.25000000  1
  Se  Se5  1  0.05695507  0.11391014  0.75000000  1
  Se  Se6  1  0.38540044  0.77080089  0.94062806  1
  Se  Se7  1  0.61459956  0.22919911  0.05937194  1
  Cs  Cs8  1  0.74314788  0.48629576  0.75000000  1
  Cs  Cs9  1  0.25685212  0.51370424  0.25000000  1
  U  U10  1  0.00000000  0.00000000  0.00000000  1
  U  U11  1  0.00000000  0.00000000  0.50000000  1
