# generated using pymatgen
data_Zr10C9
_symmetry_space_group_name_H-M   'P 1'
_cell_length_a   6.70097524
_cell_length_b   35.27263778
_cell_length_c   14.20803350
_cell_angle_alpha   15.82407834
_cell_angle_beta   44.97224238
_cell_angle_gamma   55.25467271
_symmetry_Int_Tables_number   1
_chemical_formula_structural   Zr10C9
_chemical_formula_sum   'Zr20 C18'
_cell_volume   529.76793814
_cell_formula_units_Z   2
loop_
 _symmetry_equiv_pos_site_id
 _symmetry_equiv_pos_as_xyz
  1  'x, y, z'
loop_
 _atom_site_type_symbol
 _atom_site_label
 _atom_site_symmetry_multiplicity
 _atom_site_fract_x
 _atom_site_fract_y
 _atom_site_fract_z
 _atom_site_occupancy
  Zr  Zr0  1  0.99917099  0.00044266  0.00123619  1
  Zr  Zr1  1  0.51562123  0.00539391  0.97735912  1
  Zr  Zr2  1  0.46489050  0.10604043  0.98351851  1
  Zr  Zr3  1  0.38510950  0.19395957  0.01648149  1
  Zr  Zr4  1  0.33437877  0.29460609  0.02264088  1
  Zr  Zr5  1  0.94741189  0.10864724  0.97867562  1
  Zr  Zr6  1  0.30500299  0.40354838  0.98906260  1
  Zr  Zr7  1  0.90258811  0.19135276  0.02132438  1
  Zr  Zr8  1  0.26993796  0.50539391  0.97735912  1
  Zr  Zr9  1  0.85082901  0.29955734  0.99876381  1
  Zr  Zr10  1  0.79348107  0.39645162  0.01093740  1
  Zr  Zr11  1  0.21467781  0.60864724  0.97867562  1
  Zr  Zr12  1  0.74446450  0.50044266  0.00123619  1
  Zr  Zr13  1  0.15168863  0.69395957  0.01648149  1
  Zr  Zr14  1  0.10553550  0.79955734  0.99876381  1
  Zr  Zr15  1  0.69831137  0.60604043  0.98351851  1
  Zr  Zr16  1  0.05651893  0.90354838  0.98906260  1
  Zr  Zr17  1  0.63532219  0.69135276  0.02132438  1
  Zr  Zr18  1  0.58006204  0.79460609  0.02264088  1
  Zr  Zr19  1  0.54499701  0.89645162  0.01093740  1
  C  C20  1  0.45186386  0.10277688  0.49154087  1
  C  C21  1  0.39813614  0.19722312  0.50845913  1
  C  C22  1  0.94712890  0.09966199  0.50330851  1
  C  C23  1  0.34687877  0.29863558  0.50412947  1
  C  C24  1  0.90287110  0.20033801  0.49669149  1
  C  C25  1  0.30164433  0.40000000  0.50000000  1
  C  C26  1  0.84597739  0.29502490  0.51366448  1
  C  C27  1  0.25712027  0.50497510  0.48633552  1
  C  C28  1  0.20685223  0.60277688  0.49154087  1
  C  C29  1  0.15502638  0.70033801  0.49669149  1
  C  C30  1  0.75108067  0.50136442  0.49587053  1
  C  C31  1  0.69497362  0.59966199  0.50330851  1
  C  C32  1  0.09891933  0.79863558  0.50412947  1
  C  C33  1  0.64314777  0.69722312  0.50845913  1
  C  C34  1  0.00402261  0.00497510  0.48633552  1
  C  C35  1  0.59287973  0.79502490  0.51366448  1
  C  C36  1  0.54835567  0.90000000  0.50000000  1
  C  C37  1  0.50312123  0.00136442  0.49587053  1
