# generated using pymatgen
data_Na6U5V2O23
_symmetry_space_group_name_H-M   'P 1'
_cell_length_a   7.10854179
_cell_length_b   12.79931180
_cell_length_c   24.57190668
_cell_angle_alpha   90.00000000
_cell_angle_beta   90.00000000
_cell_angle_gamma   100.57323665
_symmetry_Int_Tables_number   1
_chemical_formula_structural   Na6U5V2O23
_chemical_formula_sum   'Na24 U20 V8 O92'
_cell_volume   2197.70231918
_cell_formula_units_Z   4
loop_
 _symmetry_equiv_pos_site_id
 _symmetry_equiv_pos_as_xyz
  1  'x, y, z'
loop_
 _atom_site_type_symbol
 _atom_site_label
 _atom_site_symmetry_multiplicity
 _atom_site_fract_x
 _atom_site_fract_y
 _atom_site_fract_z
 _atom_site_occupancy
  Na  Na0  1  0.27166307  0.02243757  0.46157581  1
  Na  Na1  1  0.73784558  0.47551138  0.53407175  1
  Na  Na2  1  0.76992358  0.11401585  0.20552737  1
  Na  Na3  1  0.75079187  0.37696487  0.69058246  1
  Na  Na4  1  0.78507199  0.07669187  0.37754771  1
  Na  Na5  1  0.25079187  0.37696487  0.80941754  1
  Na  Na6  1  0.23007642  0.88598415  0.79447263  1
  Na  Na7  1  0.26992358  0.11401585  0.29447263  1
  Na  Na8  1  0.21492801  0.92330813  0.62245229  1
  Na  Na9  1  0.22833693  0.97756243  0.96157581  1
  Na  Na10  1  0.23784558  0.47551138  0.96592825  1
  Na  Na11  1  0.76215442  0.52448862  0.03407175  1
  Na  Na12  1  0.73007642  0.88598415  0.70552737  1
  Na  Na13  1  0.25810355  0.57390683  0.10004078  1
  Na  Na14  1  0.28507199  0.07669187  0.12245229  1
  Na  Na15  1  0.24189645  0.42609317  0.60004078  1
  Na  Na16  1  0.74920813  0.62303513  0.19058246  1
  Na  Na17  1  0.74189645  0.42609317  0.89995922  1
  Na  Na18  1  0.72833693  0.97756243  0.53842419  1
  Na  Na19  1  0.26215442  0.52448862  0.46592825  1
  Na  Na20  1  0.24920813  0.62303513  0.30941754  1
  Na  Na21  1  0.71492801  0.92330813  0.87754771  1
  Na  Na22  1  0.75810355  0.57390683  0.39995922  1
  Na  Na23  1  0.77166307  0.02243757  0.03842419  1
  U  U24  1  0.02271615  0.81314380  0.07343563  1
  U  U25  1  0.52733916  0.34639726  0.14747391  1
  U  U26  1  0.48771118  0.70809706  0.58781092  1
  U  U27  1  0.47728385  0.18685620  0.57343563  1
  U  U28  1  0.53771075  0.83423498  0.14035688  1
  U  U29  1  0.97266084  0.65360274  0.64747391  1
  U  U30  1  0.52271615  0.81314380  0.42656437  1
  U  U31  1  0.47266084  0.65360274  0.85252609  1
  U  U32  1  0.97728385  0.18685620  0.92656437  1
  U  U33  1  0.48943805  0.76276193  0.99272267  1
  U  U34  1  0.01056195  0.23723807  0.49272267  1
  U  U35  1  0.98943805  0.76276193  0.50727733  1
  U  U36  1  0.03771075  0.83423498  0.35964312  1
  U  U37  1  0.02733916  0.34639726  0.35252609  1
  U  U38  1  0.51056195  0.23723807  0.00727733  1
  U  U39  1  0.98771118  0.70809706  0.91218908  1
  U  U40  1  0.46228925  0.16576502  0.85964312  1
  U  U41  1  0.96228925  0.16576502  0.64035688  1
  U  U42  1  0.01228882  0.29190294  0.08781092  1
  U  U43  1  0.51228882  0.29190294  0.41218908  1
  V  V44  1  0.45180600  0.10878900  0.70509512  1
  V  V45  1  0.04819400  0.89121100  0.20509512  1
  V  V46  1  0.95040350  0.56099071  0.79934590  1
  V  V47  1  0.54819400  0.89121100  0.29490488  1
  V  V48  1  0.54959650  0.43900929  0.29934590  1
  V  V49  1  0.04959650  0.43900929  0.20065410  1
  V  V50  1  0.95180600  0.10878900  0.79490488  1
  V  V51  1  0.45040350  0.56099071  0.70065410  1
  O  O52  1  0.92995729  0.03883261  0.93658619  1
  O  O53  1  0.19482150  0.28986235  0.42081039  1
  O  O54  1  0.91292864  0.51942477  0.61571426  1
  O  O55  1  0.97497647  0.09674216  0.46793846  1
  O  O56  1  0.45068191  0.61957908  0.01581499  1
  O  O57  1  0.43829514  0.20474558  0.48700358  1
  O  O58  1  0.92402396  0.56845948  0.72907594  1
  O  O59  1  0.98883898  0.68763630  0.35042206  1
  O  O60  1  0.80517850  0.71013765  0.57918961  1
  O  O61  1  0.83644794  0.80181716  0.43203618  1
  O  O62  1  0.52907756  0.78733604  0.81926913  1
  O  O63  1  0.57597604  0.43154052  0.22907594  1
  O  O64  1  0.01116102  0.31236370  0.64957794  1
  O  O65  1  0.55271514  0.02110179  0.28202075  1
  O  O66  1  0.14863117  0.64681462  0.82788194  1
  O  O67  1  0.07004271  0.96116739  0.06341381  1
  O  O68  1  0.20938043  0.81725084  0.44155494  1
  O  O69  1  0.64863117  0.64681462  0.67211806  1
  O  O70  1  0.54931809  0.38042092  0.98418501  1
  O  O71  1  0.14249687  0.17104101  0.83890231  1
  O  O72  1  0.42402396  0.56845948  0.77092406  1
  O  O73  1  0.94144264  0.57482100  0.94812992  1
  O  O74  1  0.69482150  0.28986235  0.07918961  1
  O  O75  1  0.70938043  0.81725084  0.05844506  1
  O  O76  1  0.72640895  0.39312513  0.33962153  1
  O  O77  1  0.95507551  0.43381744  0.81427288  1
  O  O78  1  0.26222665  0.12436941  0.66146059  1
  O  O79  1  0.76222665  0.12436941  0.83853941  1
  O  O80  1  0.05254146  0.82391192  0.26566747  1
  O  O81  1  0.64249687  0.17104101  0.66109769  1
  O  O82  1  0.82088971  0.27364009  0.42400955  1
  O  O83  1  0.52502353  0.90325784  0.96793846  1
  O  O84  1  0.51116102  0.31236370  0.85042206  1
  O  O85  1  0.77359105  0.60687487  0.83962153  1
  O  O86  1  0.67911029  0.72635991  0.92400955  1
  O  O87  1  0.16355206  0.19818284  0.56796382  1
  O  O88  1  0.08707136  0.48057523  0.38428574  1
  O  O89  1  0.41292864  0.51942477  0.88428574  1
  O  O90  1  0.22640895  0.39312513  0.16037847  1
  O  O91  1  0.66355206  0.19818284  0.93203618  1
  O  O92  1  0.60522646  0.98141641  0.13410320  1
  O  O93  1  0.30517850  0.71013765  0.92081039  1
  O  O94  1  0.53145544  0.33421283  0.58354848  1
  O  O95  1  0.94745854  0.17608808  0.73433253  1
  O  O96  1  0.85750313  0.82895899  0.16109769  1
  O  O97  1  0.02502353  0.90325784  0.53206154  1
  O  O98  1  0.05271514  0.02110179  0.21797925  1
  O  O99  1  0.55254146  0.82391192  0.23433253  1
  O  O100  1  0.44144264  0.57482100  0.55187008  1
  O  O101  1  0.89477354  0.01858359  0.63410320  1
  O  O102  1  0.54492449  0.56618256  0.31427288  1
  O  O103  1  0.02500518  0.83533300  0.87346800  1
  O  O104  1  0.46854456  0.66578717  0.41645152  1
  O  O105  1  0.93829514  0.20474558  0.01299642  1
  O  O106  1  0.35750313  0.82895899  0.33890231  1
  O  O107  1  0.29061957  0.18274916  0.94155494  1
  O  O108  1  0.95068191  0.61957908  0.48418501  1
  O  O109  1  0.47092244  0.21266396  0.18073087  1
  O  O110  1  0.57004271  0.96116739  0.43658619  1
  O  O111  1  0.97499482  0.16466700  0.12653200  1
  O  O112  1  0.42995729  0.03883261  0.56341381  1
  O  O113  1  0.79061957  0.18274916  0.55844506  1
  O  O114  1  0.06170486  0.79525442  0.98700358  1
  O  O115  1  0.73777335  0.87563059  0.33853941  1
  O  O116  1  0.23777335  0.87563059  0.16146059  1
  O  O117  1  0.47499482  0.16466700  0.37346800  1
  O  O118  1  0.04492449  0.56618256  0.18572712  1
  O  O119  1  0.52500518  0.83533300  0.62653200  1
  O  O120  1  0.04931809  0.38042092  0.51581499  1
  O  O121  1  0.44728486  0.97889821  0.71797925  1
  O  O122  1  0.47497647  0.09674216  0.03206154  1
  O  O123  1  0.27359105  0.60687487  0.66037847  1
  O  O124  1  0.35136883  0.35318538  0.32788194  1
  O  O125  1  0.44745854  0.17608808  0.76566747  1
  O  O126  1  0.05855736  0.42517900  0.05187008  1
  O  O127  1  0.03145544  0.33421283  0.91645152  1
  O  O128  1  0.96854456  0.66578717  0.08354848  1
  O  O129  1  0.10522646  0.98141641  0.36589680  1
  O  O130  1  0.58707136  0.48057523  0.11571426  1
  O  O131  1  0.85136883  0.35318538  0.17211806  1
  O  O132  1  0.17911029  0.72635991  0.57599045  1
  O  O133  1  0.33644794  0.80181716  0.06796382  1
  O  O134  1  0.32088971  0.27364009  0.07599045  1
  O  O135  1  0.97092244  0.21266396  0.31926913  1
  O  O136  1  0.48883898  0.68763630  0.14957794  1
  O  O137  1  0.56170486  0.79525442  0.51299642  1
  O  O138  1  0.02907756  0.78733604  0.68073087  1
  O  O139  1  0.94728486  0.97889821  0.78202075  1
  O  O140  1  0.39477354  0.01858359  0.86589680  1
  O  O141  1  0.07597604  0.43154052  0.27092406  1
  O  O142  1  0.45507551  0.43381744  0.68572712  1
  O  O143  1  0.55855736  0.42517900  0.44812992  1
