# generated using pymatgen
data_K2FeH8(SO6)2
_symmetry_space_group_name_H-M   'P 1'
_cell_length_a   9.64904287
_cell_length_b   10.11180028
_cell_length_c   11.89938622
_cell_angle_alpha   95.11916998
_cell_angle_beta   90.00000000
_cell_angle_gamma   90.00000000
_symmetry_Int_Tables_number   1
_chemical_formula_structural   K2FeH8(SO6)2
_chemical_formula_sum   'K8 Fe4 H32 S8 O48'
_cell_volume   1156.38255539
_cell_formula_units_Z   4
loop_
 _symmetry_equiv_pos_site_id
 _symmetry_equiv_pos_as_xyz
  1  'x, y, z'
loop_
 _atom_site_type_symbol
 _atom_site_label
 _atom_site_symmetry_multiplicity
 _atom_site_fract_x
 _atom_site_fract_y
 _atom_site_fract_z
 _atom_site_occupancy
  K  K0  1  0.27078572  0.24014789  0.16853542  1
  K  K1  1  0.77078572  0.75985211  0.33146458  1
  K  K2  1  0.72921428  0.75985211  0.83146458  1
  K  K3  1  0.22921428  0.24014789  0.66853542  1
  K  K4  1  0.74129289  0.26054474  0.16793736  1
  K  K5  1  0.24129289  0.73945526  0.33206264  1
  K  K6  1  0.25870711  0.73945526  0.83206264  1
  K  K7  1  0.75870711  0.26054474  0.66793736  1
  Fe  Fe8  1  0.00000000  0.00000000  0.00000000  1
  Fe  Fe9  1  0.50000000  0.00000000  0.50000000  1
  Fe  Fe10  1  0.50000000  0.50000000  0.00000000  1
  Fe  Fe11  1  0.00000000  0.50000000  0.50000000  1
  S  S12  1  0.50629342  0.95074803  0.20262912  1
  S  S13  1  0.00629342  0.04925197  0.29737088  1
  S  S14  1  0.49370658  0.04925197  0.79737088  1
  S  S15  1  0.99370658  0.95074803  0.70262912  1
  S  S16  1  0.99345838  0.52112777  0.20895005  1
  S  S17  1  0.49345838  0.47887223  0.29104995  1
  S  S18  1  0.00654162  0.47887223  0.79104995  1
  S  S19  1  0.50654162  0.52112777  0.70895005  1
  O  O20  1  0.37256558  0.11712581  0.85850344  1
  O  O21  1  0.87256558  0.88287419  0.64149656  1
  O  O22  1  0.62743442  0.88287419  0.14149656  1
  O  O23  1  0.12743442  0.11712581  0.35850344  1
  O  O24  1  0.37395508  0.88574047  0.15841081  1
  O  O25  1  0.87395508  0.11425953  0.34158919  1
  O  O26  1  0.62604492  0.11425953  0.84158919  1
  O  O27  1  0.12604492  0.88574047  0.65841081  1
  O  O28  1  0.08747453  0.60621208  0.14534742  1
  O  O29  1  0.58747453  0.39378792  0.35465258  1
  O  O30  1  0.91252547  0.39378792  0.85465258  1
  O  O31  1  0.41252547  0.60621208  0.64534742  1
  O  O32  1  0.84636509  0.54557216  0.17965170  1
  O  O33  1  0.34636509  0.45442784  0.32034830  1
  O  O34  1  0.15363491  0.45442784  0.82034830  1
  O  O35  1  0.65363491  0.54557216  0.67965170  1
  O  O36  1  0.01978583  0.07181283  0.17585314  1
  O  O37  1  0.51978583  0.92818717  0.32414686  1
  O  O38  1  0.98021417  0.92818717  0.82414686  1
  O  O39  1  0.48021417  0.07181283  0.67585314  1
  O  O40  1  0.50562289  0.09277541  0.18458165  1
  O  O41  1  0.00562289  0.90722459  0.31541835  1
  O  O42  1  0.49437711  0.90722459  0.81541835  1
  O  O43  1  0.99437711  0.09277541  0.68458165  1
  O  O44  1  0.51370294  0.43710956  0.16763068  1
  O  O45  1  0.01370294  0.56289044  0.33236932  1
  O  O46  1  0.48629706  0.56289044  0.83236932  1
  O  O47  1  0.98629706  0.43710956  0.66763068  1
  O  O48  1  0.02672448  0.37835080  0.18380103  1
  O  O49  1  0.52672448  0.62164920  0.31619897  1
  O  O50  1  0.97327552  0.62164920  0.81619897  1
  O  O51  1  0.47327552  0.37835080  0.68380103  1
  O  O52  1  0.33581528  0.35896215  0.96389464  1
  O  O53  1  0.83581528  0.64103785  0.53610536  1
  O  O54  1  0.66418472  0.64103785  0.03610536  1
  O  O55  1  0.16418472  0.35896215  0.46389464  1
  O  O56  1  0.33827348  0.64333042  0.04755720  1
  O  O57  1  0.83827348  0.35666958  0.45244280  1
  O  O58  1  0.66172652  0.35666958  0.95244280  1
  O  O59  1  0.16172652  0.64333042  0.54755720  1
  O  O60  1  0.22000387  0.97640795  0.99033666  1
  O  O61  1  0.72000387  0.02359205  0.50966334  1
  O  O62  1  0.77999613  0.02359205  0.00966334  1
  O  O63  1  0.27999613  0.97640795  0.49033666  1
  O  O64  1  0.98092219  0.78884344  0.01645101  1
  O  O65  1  0.48092219  0.21115656  0.48354899  1
  O  O66  1  0.01907781  0.21115656  0.98354899  1
  O  O67  1  0.51907781  0.78884344  0.51645101  1
  H  H68  1  0.26009689  0.39634861  0.91942348  1
  H  H69  1  0.76009689  0.60365139  0.58057652  1
  H  H70  1  0.73990311  0.60365139  0.08057652  1
  H  H71  1  0.23990311  0.39634861  0.41942348  1
  H  H72  1  0.36045896  0.27283793  0.92096876  1
  H  H73  1  0.86045896  0.72716207  0.57903124  1
  H  H74  1  0.63954104  0.72716207  0.07903124  1
  H  H75  1  0.13954104  0.27283793  0.42096876  1
  H  H76  1  0.25167854  0.61227967  0.08190299  1
  H  H77  1  0.75167854  0.38772033  0.41809701  1
  H  H78  1  0.74832146  0.38772033  0.91809701  1
  H  H79  1  0.24832146  0.61227967  0.58190299  1
  H  H80  1  0.36263541  0.72926408  0.09076888  1
  H  H81  1  0.86263541  0.27073592  0.40923112  1
  H  H82  1  0.63736459  0.27073592  0.90923112  1
  H  H83  1  0.13736459  0.72926408  0.59076888  1
  H  H84  1  0.27933403  0.02928350  0.94140432  1
  H  H85  1  0.77933403  0.97071650  0.55859568  1
  H  H86  1  0.72066597  0.97071650  0.05859568  1
  H  H87  1  0.22066597  0.02928350  0.44140432  1
  H  H88  1  0.27809863  0.94843677  0.05343062  1
  H  H89  1  0.77809863  0.05156323  0.44656938  1
  H  H90  1  0.72190137  0.05156323  0.94656938  1
  H  H91  1  0.22190137  0.94843677  0.55343062  1
  H  H92  1  0.01339829  0.73396438  0.07659574  1
  H  H93  1  0.51339829  0.26603562  0.42340426  1
  H  H94  1  0.98660171  0.26603562  0.92340426  1
  H  H95  1  0.48660171  0.73396438  0.57659574  1
  H  H96  1  0.98179607  0.72723264  0.94690187  1
  H  H97  1  0.48179607  0.27276736  0.55309813  1
  H  H98  1  0.01820393  0.27276736  0.05309813  1
  H  H99  1  0.51820393  0.72723264  0.44690187  1
