# generated using pymatgen
data_RbCr5S8
_symmetry_space_group_name_H-M   'P 1'
_cell_length_a   3.51056732
_cell_length_b   8.78669538
_cell_length_c   9.20749955
_cell_angle_alpha   105.20673778
_cell_angle_beta   100.98992033
_cell_angle_gamma   90.00000001
_symmetry_Int_Tables_number   1
_chemical_formula_structural   RbCr5S8
_chemical_formula_sum   'Rb1 Cr5 S8'
_cell_volume   268.67109464
_cell_formula_units_Z   1
loop_
 _symmetry_equiv_pos_site_id
 _symmetry_equiv_pos_as_xyz
  1  'x, y, z'
loop_
 _atom_site_type_symbol
 _atom_site_label
 _atom_site_symmetry_multiplicity
 _atom_site_fract_x
 _atom_site_fract_y
 _atom_site_fract_z
 _atom_site_occupancy
  S  S0  1  0.23837266  0.15598190  0.47674531  1
  S  S1  1  0.76162734  0.84401810  0.52325469  1
  S  S2  1  0.17245365  0.48459937  0.34490730  1
  S  S3  1  0.82754635  0.51540063  0.65509270  1
  S  S4  1  0.08573010  0.83170382  0.17146021  1
  S  S5  1  0.91426990  0.16829618  0.82853979  1
  S  S6  1  0.42276602  0.85314144  0.84553204  1
  S  S7  1  0.57723398  0.14685856  0.15446796  1
  Cr  Cr8  1  0.29553422  0.66601695  0.59106845  1
  Cr  Cr9  1  0.70446578  0.33398305  0.40893155  1
  Cr  Cr10  1  0.34112156  0.02557870  0.68224312  1
  Cr  Cr11  1  0.65887844  0.97442130  0.31775688  1
  Cr  Cr12  1  0.00000000  0.00000000  0.00000000  1
  Rb  Rb13  1  0.50000000  0.50000000  0.00000000  1
