# generated using pymatgen
data_Cs10(Mo2N5)3
_symmetry_space_group_name_H-M   'P 1'
_cell_length_a   13.32309344
_cell_length_b   13.32309344
_cell_length_c   28.82930269
_cell_angle_alpha   90.00000000
_cell_angle_beta   90.00000000
_cell_angle_gamma   119.99999890
_symmetry_Int_Tables_number   1
_chemical_formula_structural   Cs10(Mo2N5)3
_chemical_formula_sum   'Cs60 Mo36 N90'
_cell_volume   4431.74661790
_cell_formula_units_Z   6
loop_
 _symmetry_equiv_pos_site_id
 _symmetry_equiv_pos_as_xyz
  1  'x, y, z'
loop_
 _atom_site_type_symbol
 _atom_site_label
 _atom_site_symmetry_multiplicity
 _atom_site_fract_x
 _atom_site_fract_y
 _atom_site_fract_z
 _atom_site_occupancy
  Cs  Cs0  1  0.49856639  0.88378436  0.05828968  1
  Cs  Cs1  1  0.38521797  0.50143361  0.05828968  1
  Cs  Cs2  1  0.11621564  0.61478203  0.05828968  1
  Cs  Cs3  1  0.50616100  0.83949500  0.91666700  1
  Cs  Cs4  1  0.33333300  0.49383900  0.91666700  1
  Cs  Cs5  1  0.16050500  0.66666700  0.91666700  1
  Cs  Cs6  1  0.21711736  0.16523339  0.10837732  1
  Cs  Cs7  1  0.94811503  0.78288264  0.10837732  1
  Cs  Cs8  1  0.83476661  0.05188497  0.10837732  1
  Cs  Cs9  1  -0.00000000  0.00000000  -0.00000000  1
  Cs  Cs10  1  0.83189939  0.28144903  0.22495668  1
  Cs  Cs11  1  0.71855097  0.55045136  0.22495668  1
  Cs  Cs12  1  0.44954864  0.16810061  0.22495668  1
  Cs  Cs13  1  0.50616100  0.66666700  0.41666700  1
  Cs  Cs14  1  0.33333300  0.83949500  0.41666700  1
  Cs  Cs15  1  0.16050500  0.49383900  0.41666700  1
  Cs  Cs16  1  0.55045136  0.71855097  0.27504332  1
  Cs  Cs17  1  0.28144903  0.83189939  0.27504332  1
  Cs  Cs18  1  0.16810061  0.44954864  0.27504332  1
  Cs  Cs19  1  0.33333300  0.66666700  0.16666700  1
  Cs  Cs20  1  0.16523339  0.21711736  0.39162268  1
  Cs  Cs21  1  0.05188497  0.83476661  0.39162268  1
  Cs  Cs22  1  0.78288264  0.94811503  0.39162268  1
  Cs  Cs23  1  0.17282800  0.17282800  0.25000000  1
  Cs  Cs24  1  -0.00000000  0.82717200  0.25000000  1
  Cs  Cs25  1  0.82717200  -0.00000000  0.25000000  1
  Cs  Cs26  1  0.88378436  0.49856639  0.44171032  1
  Cs  Cs27  1  0.61478203  0.11621564  0.44171032  1
  Cs  Cs28  1  0.50143361  0.38521797  0.44171032  1
  Cs  Cs29  1  0.66666700  0.33333300  0.33333300  1
  Cs  Cs30  1  0.49856639  0.61478203  0.55828968  1
  Cs  Cs31  1  0.38521797  0.88378436  0.55828968  1
  Cs  Cs32  1  0.11621564  0.50143361  0.55828968  1
  Cs  Cs33  1  0.17282800  0.00000000  0.75000000  1
  Cs  Cs34  1  0.00000000  0.17282800  0.75000000  1
  Cs  Cs35  1  0.82717200  0.82717200  0.75000000  1
  Cs  Cs36  1  0.21711736  0.05188497  0.60837732  1
  Cs  Cs37  1  0.94811503  0.16523339  0.60837732  1
  Cs  Cs38  1  0.83476661  0.78288264  0.60837732  1
  Cs  Cs39  1  -0.00000000  0.00000000  0.50000000  1
  Cs  Cs40  1  0.83189939  0.55045136  0.72495668  1
  Cs  Cs41  1  0.71855097  0.16810061  0.72495668  1
  Cs  Cs42  1  0.44954864  0.28144903  0.72495668  1
  Cs  Cs43  1  0.83949500  0.50616100  0.58333300  1
  Cs  Cs44  1  0.66666700  0.16050500  0.58333300  1
  Cs  Cs45  1  0.49383900  0.33333300  0.58333300  1
  Cs  Cs46  1  0.55045136  0.83189939  0.77504332  1
  Cs  Cs47  1  0.28144903  0.44954864  0.77504332  1
  Cs  Cs48  1  0.16810061  0.71855097  0.77504332  1
  Cs  Cs49  1  0.33333300  0.66666700  0.66666700  1
  Cs  Cs50  1  0.16523339  0.94811503  0.89162268  1
  Cs  Cs51  1  0.05188497  0.21711736  0.89162268  1
  Cs  Cs52  1  0.78288264  0.83476661  0.89162268  1
  Cs  Cs53  1  0.83949500  0.33333300  0.08333300  1
  Cs  Cs54  1  0.66666700  0.50616100  0.08333300  1
  Cs  Cs55  1  0.49383900  0.16050500  0.08333300  1
  Cs  Cs56  1  0.88378436  0.38521797  0.94171032  1
  Cs  Cs57  1  0.61478203  0.49856639  0.94171032  1
  Cs  Cs58  1  0.50143361  0.11621564  0.94171032  1
  Cs  Cs59  1  0.66666700  0.33333300  0.83333300  1
  Mo  Mo60  1  0.64428825  0.74835346  0.14929911  1
  Mo  Mo61  1  0.25164654  0.89593379  0.14929911  1
  Mo  Mo62  1  0.10406621  0.35571175  0.14929911  1
  Mo  Mo63  1  0.22926779  0.91831254  0.01736689  1
  Mo  Mo64  1  0.97762125  0.56260079  0.31596611  1
  Mo  Mo65  1  0.08168746  0.31095425  0.01736689  1
  Mo  Mo66  1  0.58497954  0.02237875  0.31596611  1
  Mo  Mo67  1  0.68904575  0.77073221  0.01736689  1
  Mo  Mo68  1  0.43739921  0.41502046  0.31596611  1
  Mo  Mo69  1  0.56260079  0.97762125  0.18403389  1
  Mo  Mo70  1  0.41502046  0.43739921  0.18403389  1
  Mo  Mo71  1  0.02237875  0.58497954  0.18403389  1
  Mo  Mo72  1  0.31095425  0.08168746  0.48263311  1
  Mo  Mo73  1  0.91831254  0.22926779  0.48263311  1
  Mo  Mo74  1  0.77073221  0.68904575  0.48263311  1
  Mo  Mo75  1  0.89593379  0.25164654  0.35070089  1
  Mo  Mo76  1  0.64428825  0.89593379  0.64929911  1
  Mo  Mo77  1  0.74835346  0.64428825  0.35070089  1
  Mo  Mo78  1  0.25164654  0.35571175  0.64929911  1
  Mo  Mo79  1  0.35571175  0.10406621  0.35070089  1
  Mo  Mo80  1  0.10406621  0.74835346  0.64929911  1
  Mo  Mo81  1  0.22926779  0.31095425  0.51736689  1
  Mo  Mo82  1  0.08168746  0.77073221  0.51736689  1
  Mo  Mo83  1  0.68904575  0.91831254  0.51736689  1
  Mo  Mo84  1  0.97762125  0.41502046  0.81596611  1
  Mo  Mo85  1  0.58497954  0.56260079  0.81596611  1
  Mo  Mo86  1  0.43739921  0.02237875  0.81596611  1
  Mo  Mo87  1  0.56260079  0.58497954  0.68403389  1
  Mo  Mo88  1  0.31095425  0.22926779  0.98263311  1
  Mo  Mo89  1  0.41502046  0.97762125  0.68403389  1
  Mo  Mo90  1  0.91831254  0.68904575  0.98263311  1
  Mo  Mo91  1  0.02237875  0.43739921  0.68403389  1
  Mo  Mo92  1  0.77073221  0.08168746  0.98263311  1
  Mo  Mo93  1  0.89593379  0.64428825  0.85070089  1
  Mo  Mo94  1  0.74835346  0.10406621  0.85070089  1
  Mo  Mo95  1  0.35571175  0.25164654  0.85070089  1
  N  N96  1  0.59841070  0.86002939  0.16578374  1
  N  N97  1  0.26161969  0.40158930  0.16578374  1
  N  N98  1  0.13997061  0.73838031  0.16578374  1
  N  N99  1  0.55741802  0.67611398  0.98818131  1
  N  N100  1  0.41800903  0.41800903  0.25000000  1
  N  N101  1  0.32388602  0.88130304  0.98818131  1
  N  N102  1  0.21463704  0.99055202  0.17848469  1
  N  N103  1  -0.00000000  0.58199097  0.25000000  1
  N  N104  1  0.11869696  0.44258198  0.98818131  1
  N  N105  1  0.00944798  0.22408402  0.17848469  1
  N  N106  1  0.58199097  -0.00000000  0.25000000  1
  N  N107  1  0.77591598  0.78536296  0.17848469  1
  N  N108  1  0.93174370  0.40504731  0.33245074  1
  N  N109  1  0.19336339  0.26507670  0.00088226  1
  N  N110  1  0.07171431  0.80663661  0.00088226  1
  N  N111  1  0.59495269  0.52669639  0.33245074  1
  N  N112  1  0.47330361  0.06825630  0.33245074  1
  N  N113  1  0.73492330  0.92828569  0.00088226  1
  N  N114  1  0.89075102  0.54797004  0.15484831  1
  N  N115  1  0.08467603  0.33333300  0.08333300  1
  N  N116  1  0.65721902  0.10924898  0.15484831  1
  N  N117  1  0.54797004  0.89075102  0.34515169  1
  N  N118  1  0.66666700  0.75134203  0.08333300  1
  N  N119  1  0.45202996  0.34278098  0.15484831  1
  N  N120  1  0.34278098  0.45202996  0.34515169  1
  N  N121  1  0.24865797  0.91532397  0.08333300  1
  N  N122  1  0.10924898  0.65721902  0.34515169  1
  N  N123  1  0.52669639  0.59495269  0.16754926  1
  N  N124  1  0.40504731  0.93174370  0.16754926  1
  N  N125  1  0.06825630  0.47330361  0.16754926  1
  N  N126  1  0.26507670  0.19336339  0.49911774  1
  N  N127  1  0.92828569  0.73492330  0.49911774  1
  N  N128  1  0.80663661  0.07171431  0.49911774  1
  N  N129  1  0.22408402  0.00944798  0.32151531  1
  N  N130  1  0.08467603  0.75134203  0.58333300  1
  N  N131  1  0.99055202  0.21463704  0.32151531  1
  N  N132  1  0.88130304  0.32388602  0.51181869  1
  N  N133  1  0.66666700  0.91532397  0.58333300  1
  N  N134  1  0.78536296  0.77591598  0.32151531  1
  N  N135  1  0.67611398  0.55741802  0.51181869  1
  N  N136  1  0.24865797  0.33333300  0.58333300  1
  N  N137  1  0.44258198  0.11869696  0.51181869  1
  N  N138  1  0.59841070  0.73838031  0.66578374  1
  N  N139  1  0.86002939  0.59841070  0.33421626  1
  N  N140  1  0.73838031  0.13997061  0.33421626  1
  N  N141  1  0.26161969  0.86002939  0.66578374  1
  N  N142  1  0.13997061  0.40158930  0.66578374  1
  N  N143  1  0.40158930  0.26161969  0.33421626  1
  N  N144  1  0.55741802  0.88130304  0.48818131  1
  N  N145  1  0.75134203  0.66666700  0.41666700  1
  N  N146  1  0.32388602  0.44258198  0.48818131  1
  N  N147  1  0.21463704  0.22408402  0.67848469  1
  N  N148  1  0.33333300  0.08467603  0.41666700  1
  N  N149  1  0.11869696  0.67611398  0.48818131  1
  N  N150  1  0.00944798  0.78536296  0.67848469  1
  N  N151  1  0.91532397  0.24865797  0.41666700  1
  N  N152  1  0.77591598  0.99055202  0.67848469  1
  N  N153  1  0.19336339  0.92828569  0.50088226  1
  N  N154  1  0.07171431  0.26507670  0.50088226  1
  N  N155  1  0.73492330  0.80663661  0.50088226  1
  N  N156  1  0.93174370  0.52669639  0.83245074  1
  N  N157  1  0.59495269  0.06825630  0.83245074  1
  N  N158  1  0.47330361  0.40504731  0.83245074  1
  N  N159  1  0.89075102  0.34278098  0.65484831  1
  N  N160  1  0.75134203  0.08467603  0.91666700  1
  N  N161  1  0.65721902  0.54797004  0.65484831  1
  N  N162  1  0.54797004  0.65721902  0.84515169  1
  N  N163  1  0.33333300  0.24865797  0.91666700  1
  N  N164  1  0.45202996  0.10924898  0.65484831  1
  N  N165  1  0.34278098  0.89075102  0.84515169  1
  N  N166  1  0.91532397  0.66666700  0.91666700  1
  N  N167  1  0.10924898  0.45202996  0.84515169  1
  N  N168  1  0.26507670  0.07171431  0.99911774  1
  N  N169  1  0.52669639  0.93174370  0.66754926  1
  N  N170  1  0.40504731  0.47330361  0.66754926  1
  N  N171  1  0.92828569  0.19336339  0.99911774  1
  N  N172  1  0.80663661  0.73492330  0.99911774  1
  N  N173  1  0.06825630  0.59495269  0.66754926  1
  N  N174  1  0.22408402  0.21463704  0.82151531  1
  N  N175  1  0.41800903  0.00000000  0.75000000  1
  N  N176  1  0.99055202  0.77591598  0.82151531  1
  N  N177  1  0.88130304  0.55741802  0.01181869  1
  N  N178  1  0.00000000  0.41800903  0.75000000  1
  N  N179  1  0.78536296  0.00944798  0.82151531  1
  N  N180  1  0.67611398  0.11869696  0.01181869  1
  N  N181  1  0.58199097  0.58199097  0.75000000  1
  N  N182  1  0.44258198  0.32388602  0.01181869  1
  N  N183  1  0.86002939  0.26161969  0.83421626  1
  N  N184  1  0.73838031  0.59841070  0.83421626  1
  N  N185  1  0.40158930  0.13997061  0.83421626  1
