# generated using pymatgen
data_TlCdSb
_symmetry_space_group_name_H-M   'P 1'
_cell_length_a   4.98525374
_cell_length_b   8.52163515
_cell_length_c   8.53761056
_cell_angle_alpha   90.00000000
_cell_angle_beta   90.00000000
_cell_angle_gamma   90.00000000
_symmetry_Int_Tables_number   1
_chemical_formula_structural   TlCdSb
_chemical_formula_sum   'Tl4 Cd4 Sb4'
_cell_volume   362.69915589
_cell_formula_units_Z   4
loop_
 _symmetry_equiv_pos_site_id
 _symmetry_equiv_pos_as_xyz
  1  'x, y, z'
loop_
 _atom_site_type_symbol
 _atom_site_label
 _atom_site_symmetry_multiplicity
 _atom_site_fract_x
 _atom_site_fract_y
 _atom_site_fract_z
 _atom_site_occupancy
  Cd  Cd0  1  0.25000000  0.65776492  0.91150548  1
  Cd  Cd1  1  0.75000000  0.84223508  0.41150548  1
  Cd  Cd2  1  0.25000000  0.15776492  0.58849452  1
  Cd  Cd3  1  0.75000000  0.34223508  0.08849452  1
  Sb  Sb4  1  0.75000000  0.70116067  0.09582469  1
  Sb  Sb5  1  0.25000000  0.79883933  0.59582469  1
  Sb  Sb6  1  0.75000000  0.20116067  0.40417531  1
  Sb  Sb7  1  0.25000000  0.29883933  0.90417531  1
  Tl  Tl8  1  0.75000000  0.99491352  0.82223674  1
  Tl  Tl9  1  0.25000000  0.00508648  0.17776326  1
  Tl  Tl10  1  0.75000000  0.49491352  0.67776326  1
  Tl  Tl11  1  0.25000000  0.50508648  0.32223674  1
