# generated using pymatgen
data_K2Ag4S3
_symmetry_space_group_name_H-M   'P 1'
_cell_length_a   4.30273931
_cell_length_b   9.17620831
_cell_length_c   11.74111843
_cell_angle_alpha   107.90375335
_cell_angle_beta   90.00000000
_cell_angle_gamma   103.55925334
_symmetry_Int_Tables_number   1
_chemical_formula_structural   K2Ag4S3
_chemical_formula_sum   'K4 Ag8 S6'
_cell_volume   427.52514695
_cell_formula_units_Z   2
loop_
 _symmetry_equiv_pos_site_id
 _symmetry_equiv_pos_as_xyz
  1  'x, y, z'
loop_
 _atom_site_type_symbol
 _atom_site_label
 _atom_site_symmetry_multiplicity
 _atom_site_fract_x
 _atom_site_fract_y
 _atom_site_fract_z
 _atom_site_occupancy
  S  S0  1  0.53250306  0.06500612  0.27405280  1
  S  S1  1  0.14576656  0.29153312  0.04197120  1
  S  S2  1  0.85423344  0.70846688  0.95802880  1
  S  S3  1  0.16047417  0.32094833  0.61219430  1
  S  S4  1  0.46749694  0.93499388  0.72594720  1
  S  S5  1  0.83952583  0.67905167  0.38780570  1
  K  K6  1  0.81419375  0.62838750  0.65855171  1
  K  K7  1  0.18580625  0.37161250  0.34144829  1
  K  K8  1  0.66784715  0.33569429  0.84056674  1
  K  K9  1  0.33215285  0.66430571  0.15943326  1
  Ag  Ag10  1  0.59293725  0.18587449  0.50962390  1
  Ag  Ag11  1  0.40706275  0.81412551  0.49037610  1
  Ag  Ag12  1  0.58992853  0.17985707  0.08627761  1
  Ag  Ag13  1  0.97735582  0.95471164  0.36696519  1
  Ag  Ag14  1  0.02264418  0.04528836  0.63303481  1
  Ag  Ag15  1  0.98546970  0.97093941  0.12161789  1
  Ag  Ag16  1  0.01453030  0.02906059  0.87838211  1
  Ag  Ag17  1  0.41007147  0.82014293  0.91372239  1
