# generated using pymatgen
data_K3LiMn4(MoO4)6
_symmetry_space_group_name_H-M   'P 1'
_cell_length_a   10.88054964
_cell_length_b   10.88054944
_cell_length_c   10.88054930
_cell_angle_alpha   85.72036372
_cell_angle_beta   85.72036380
_cell_angle_gamma   85.72035990
_symmetry_Int_Tables_number   1
_chemical_formula_structural   K3LiMn4(MoO4)6
_chemical_formula_sum   'K6 Li2 Mn8 Mo12 O48'
_cell_volume   1277.84318797
_cell_formula_units_Z   2
loop_
 _symmetry_equiv_pos_site_id
 _symmetry_equiv_pos_as_xyz
  1  'x, y, z'
loop_
 _atom_site_type_symbol
 _atom_site_label
 _atom_site_symmetry_multiplicity
 _atom_site_fract_x
 _atom_site_fract_y
 _atom_site_fract_z
 _atom_site_occupancy
  K  K0  1  0.20067791  0.69882038  0.43491025  1
  K  K1  1  0.19882038  0.70067791  0.93491025  1
  K  K2  1  0.43491025  0.20067791  0.69882038  1
  K  K3  1  0.69882038  0.43491025  0.20067791  1
  K  K4  1  0.70067791  0.93491025  0.19882038  1
  K  K5  1  0.93491025  0.19882038  0.70067791  1
  Li  Li6  1  0.24913860  0.24913860  0.24913860  1
  Li  Li7  1  0.74913860  0.74913860  0.74913860  1
  Mn  Mn8  1  0.00311813  0.00311813  0.00311813  1
  Mn  Mn9  1  0.03517556  0.46291773  0.25007242  1
  Mn  Mn10  1  0.25007242  0.03517556  0.46291773  1
  Mn  Mn11  1  0.46291773  0.25007242  0.03517556  1
  Mn  Mn12  1  0.50311813  0.50311813  0.50311813  1
  Mn  Mn13  1  0.53517556  0.75007242  0.96291773  1
  Mn  Mn14  1  0.75007242  0.96291773  0.53517556  1
  Mn  Mn15  1  0.96291773  0.53517556  0.75007242  1
  Mo  Mo16  1  0.03798182  0.85113697  0.68750934  1
  Mo  Mo17  1  0.14935483  0.31243298  0.95999619  1
  Mo  Mo18  1  0.18750934  0.35113697  0.53798182  1
  Mo  Mo19  1  0.31243298  0.95999619  0.14935483  1
  Mo  Mo20  1  0.35113697  0.53798182  0.18750934  1
  Mo  Mo21  1  0.45999619  0.81243298  0.64935483  1
  Mo  Mo22  1  0.53798182  0.18750934  0.35113697  1
  Mo  Mo23  1  0.64935483  0.45999619  0.81243298  1
  Mo  Mo24  1  0.68750934  0.03798182  0.85113697  1
  Mo  Mo25  1  0.81243298  0.64935483  0.45999619  1
  Mo  Mo26  1  0.85113697  0.68750934  0.03798182  1
  Mo  Mo27  1  0.95999619  0.14935483  0.31243298  1
  O  O28  1  0.05051242  0.41589454  0.61844285  1
  O  O29  1  0.12411344  0.33055884  0.12358417  1
  O  O30  1  0.12358417  0.12411344  0.33055884  1
  O  O31  1  0.07703738  0.17725829  0.92252212  1
  O  O32  1  0.08449467  0.45061862  0.88156722  1
  O  O33  1  0.08633933  0.68838105  0.69616501  1
  O  O34  1  0.07395404  0.91990495  0.82466592  1
  O  O35  1  0.17056815  0.37970044  0.37472027  1
  O  O36  1  0.11844285  0.91589454  0.55051242  1
  O  O37  1  0.18838105  0.58633933  0.19616501  1
  O  O38  1  0.19616501  0.18838105  0.58633933  1
  O  O39  1  0.17725829  0.92252212  0.07703738  1
  O  O40  1  0.33055884  0.12358417  0.12411344  1
  O  O41  1  0.32466592  0.41990495  0.57395404  1
  O  O42  1  0.30155309  0.91393858  0.31256151  1
  O  O43  1  0.31256151  0.30155309  0.91393858  1
  O  O44  1  0.37472027  0.17056815  0.37970044  1
  O  O45  1  0.37970044  0.37472027  0.17056815  1
  O  O46  1  0.41589454  0.61844285  0.05051242  1
  O  O47  1  0.41990495  0.57395404  0.32466592  1
  O  O48  1  0.38156722  0.95061862  0.58449467  1
  O  O49  1  0.42252212  0.67725829  0.57703738  1
  O  O50  1  0.45061862  0.88156722  0.08449467  1
  O  O51  1  0.41393858  0.80155309  0.81256151  1
  O  O52  1  0.58633933  0.19616501  0.18838105  1
  O  O53  1  0.55051242  0.11844285  0.91589454  1
  O  O54  1  0.57395404  0.32466592  0.41990495  1
  O  O55  1  0.61844285  0.05051242  0.41589454  1
  O  O56  1  0.57703738  0.42252212  0.67725829  1
  O  O57  1  0.58449467  0.38156722  0.95061862  1
  O  O58  1  0.62411344  0.62358417  0.83055884  1
  O  O59  1  0.62358417  0.83055884  0.62411344  1
  O  O60  1  0.68838105  0.69616501  0.08633933  1
  O  O61  1  0.69616501  0.08633933  0.68838105  1
  O  O62  1  0.67725829  0.57703738  0.42252212  1
  O  O63  1  0.67056815  0.87472027  0.87970044  1
  O  O64  1  0.82466592  0.07395404  0.91990495  1
  O  O65  1  0.80155309  0.81256151  0.41393858  1
  O  O66  1  0.81256151  0.41393858  0.80155309  1
  O  O67  1  0.88156722  0.08449467  0.45061862  1
  O  O68  1  0.83055884  0.62411344  0.62358417  1
  O  O69  1  0.92252212  0.07703738  0.17725829  1
  O  O70  1  0.91393858  0.31256151  0.30155309  1
  O  O71  1  0.91589454  0.55051242  0.11844285  1
  O  O72  1  0.91990495  0.82466592  0.07395404  1
  O  O73  1  0.87472027  0.87970044  0.67056815  1
  O  O74  1  0.87970044  0.67056815  0.87472027  1
  O  O75  1  0.95061862  0.58449467  0.38156722  1
