# generated using pymatgen
data_Li7Mn2(CoO4)3
_symmetry_space_group_name_H-M   'P 1'
_cell_length_a   2.89875743
_cell_length_b   5.12909345
_cell_length_c   15.47369047
_cell_angle_alpha   99.27598439
_cell_angle_beta   90.00000000
_cell_angle_gamma   106.41424168
_symmetry_Int_Tables_number   1
_chemical_formula_structural   Li7Mn2(CoO4)3
_chemical_formula_sum   'Li7 Mn2 Co3 O12'
_cell_volume   217.54822702
_cell_formula_units_Z   1
loop_
 _symmetry_equiv_pos_site_id
 _symmetry_equiv_pos_as_xyz
  1  'x, y, z'
loop_
 _atom_site_type_symbol
 _atom_site_label
 _atom_site_symmetry_multiplicity
 _atom_site_fract_x
 _atom_site_fract_y
 _atom_site_fract_z
 _atom_site_occupancy
  Li  Li0  1  0.74851745  0.49703490  0.08308424  1
  Li  Li1  1  0.25148255  0.50296510  0.25024876  1
  Li  Li2  1  0.75196857  0.50393715  0.42378804  1
  Li  Li3  1  0.25957923  0.51915846  0.59132437  1
  Li  Li4  1  0.74042077  0.48084154  0.74200863  1
  Li  Li5  1  0.24803143  0.49606285  0.90954596  1
  Li  Li6  1  -0.00000000  -0.00000000  0.66666700  1
  Mn  Mn7  1  0.00014954  0.00029908  0.99806179  1
  Mn  Mn8  1  -0.00014954  -0.00029908  0.33527121  1
  Co  Co9  1  0.50000000  -0.00000000  0.16666700  1
  Co  Co10  1  0.50967803  0.01935605  0.51529422  1
  Co  Co11  1  0.49032197  0.98064395  0.81803878  1
  O  O12  1  0.61058814  0.22117628  0.96468756  1
  O  O13  1  0.11172187  0.22344374  0.11809316  1
  O  O14  1  0.61357725  0.22715450  0.29922447  1
  O  O15  1  0.10635419  0.21270837  0.45105495  1
  O  O16  1  0.62370276  0.24740553  0.61783330  1
  O  O17  1  0.11340583  0.22681165  0.79757937  1
  O  O18  1  0.88827813  0.77655626  0.21523984  1
  O  O19  1  0.38941186  0.77882372  0.36864544  1
  O  O20  1  0.88659417  0.77318835  0.53575463  1
  O  O21  1  0.37629724  0.75259447  0.71549970  1
  O  O22  1  0.89364581  0.78729163  0.88227805  1
  O  O23  1  0.38642275  0.77284550  0.03410953  1
