# generated using pymatgen
data_Ca2V3Ni2AgO12
_symmetry_space_group_name_H-M   'P 1'
_cell_length_a   10.88681769
_cell_length_b   10.88681700
_cell_length_c   10.88681715
_cell_angle_alpha   109.39029096
_cell_angle_beta   109.39028964
_cell_angle_gamma   109.63319973
_symmetry_Int_Tables_number   1
_chemical_formula_structural   Ca2V3Ni2AgO12
_chemical_formula_sum   'Ca8 V12 Ni8 Ag4 O48'
_cell_volume   993.29516890
_cell_formula_units_Z   4
loop_
 _symmetry_equiv_pos_site_id
 _symmetry_equiv_pos_as_xyz
  1  'x, y, z'
loop_
 _atom_site_type_symbol
 _atom_site_label
 _atom_site_symmetry_multiplicity
 _atom_site_fract_x
 _atom_site_fract_y
 _atom_site_fract_z
 _atom_site_occupancy
  Ca  Ca0  1  0.25000000  0.87299877  0.62299877  1
  Ca  Ca1  1  0.12700123  0.25000000  0.37700123  1
  Ca  Ca2  1  0.37299877  0.75000000  0.12299877  1
  Ca  Ca3  1  0.25000000  0.37299877  0.12299877  1
  Ca  Ca4  1  0.75000000  0.62700123  0.87700123  1
  Ca  Ca5  1  0.62700123  0.25000000  0.87700123  1
  Ca  Ca6  1  0.87299877  0.75000000  0.62299877  1
  Ca  Ca7  1  0.75000000  0.12700123  0.37700123  1
  V  V8  1  0.12377151  0.75000000  0.87377151  1
  V  V9  1  0.12500000  0.87500000  0.25000000  1
  V  V10  1  0.37500000  0.62500000  0.75000000  1
  V  V11  1  0.25000000  0.12377151  0.87377151  1
  V  V12  1  0.25000000  0.62377151  0.37377151  1
  V  V13  1  0.37622849  0.25000000  0.62622849  1
  V  V14  1  0.62377151  0.75000000  0.37377151  1
  V  V15  1  0.75000000  0.37622849  0.62622849  1
  V  V16  1  0.62500000  0.37500000  0.25000000  1
  V  V17  1  0.75000000  0.87622849  0.12622849  1
  V  V18  1  0.87500000  0.12500000  0.75000000  1
  V  V19  1  0.87622849  0.25000000  0.12622849  1
  Ni  Ni20  1  0.50000000  0.00000000  0.50000000  1
  Ni  Ni21  1  0.00000000  0.00000000  0.00000000  1
  Ni  Ni22  1  0.50000000  0.50000000  0.50000000  1
  Ni  Ni23  1  0.50000000  0.50000000  0.00000000  1
  Ni  Ni24  1  0.00000000  0.00000000  0.50000000  1
  Ni  Ni25  1  0.50000000  0.00000000  0.00000000  1
  Ni  Ni26  1  0.00000000  0.50000000  0.50000000  1
  Ni  Ni27  1  0.00000000  0.50000000  0.00000000  1
  Ag  Ag28  1  0.12500000  0.37500000  0.75000000  1
  Ag  Ag29  1  0.62500000  0.87500000  0.75000000  1
  Ag  Ag30  1  0.37500000  0.12500000  0.25000000  1
  Ag  Ag31  1  0.87500000  0.62500000  0.25000000  1
  O  O32  1  0.10427071  0.98406539  0.68905465  1
  O  O33  1  0.11597381  0.60709414  0.91472505  1
  O  O34  1  0.01100382  0.30587279  0.90390482  1
  O  O35  1  0.08478393  0.70498926  0.68905465  1
  O  O36  1  0.09803203  0.89290100  0.40390482  1
  O  O37  1  0.10709414  0.61597381  0.41472505  1
  O  O38  1  0.19412721  0.48899618  0.59609518  1
  O  O39  1  0.40196797  0.80587279  0.79486897  1
  O  O40  1  0.29875124  0.30763090  0.91472505  1
  O  O41  1  0.39290100  0.59803203  0.90390482  1
  O  O42  1  0.30587279  0.90196797  0.29486897  1
  O  O43  1  0.01593461  0.20498926  0.12020533  1
  O  O44  1  0.19236910  0.20124876  0.58527495  1
  O  O45  1  0.20498926  0.58478393  0.18905465  1
  O  O46  1  0.39290586  0.80763090  0.50887967  1
  O  O47  1  0.30763090  0.89290586  0.00887967  1
  O  O48  1  0.29501074  0.48406539  0.37979467  1
  O  O49  1  0.10709900  0.01100382  0.20513103  1
  O  O50  1  0.51100382  0.60709900  0.70513103  1
  O  O51  1  0.39572929  0.08478393  0.87979467  1
  O  O52  1  0.51593461  0.39572929  0.81094535  1
  O  O53  1  0.38402619  0.29875124  0.49112033  1
  O  O54  1  0.58478393  0.89572929  0.37979467  1
  O  O55  1  0.20124876  0.11597381  0.00887967  1
  O  O56  1  0.79875124  0.88402619  0.99112033  1
  O  O57  1  0.41521607  0.10427071  0.62020533  1
  O  O58  1  0.61597381  0.70124876  0.50887967  1
  O  O59  1  0.48406539  0.60427071  0.18905465  1
  O  O60  1  0.60427071  0.91521607  0.12020533  1
  O  O61  1  0.48899618  0.39290100  0.29486897  1
  O  O62  1  0.89290100  0.98899618  0.79486897  1
  O  O63  1  0.70498926  0.51593461  0.62020533  1
  O  O64  1  0.69236910  0.10709414  0.99112033  1
  O  O65  1  0.60709414  0.19236910  0.49112033  1
  O  O66  1  0.79501074  0.41521607  0.81094535  1
  O  O67  1  0.80763090  0.79875124  0.41472505  1
  O  O68  1  0.98406539  0.79501074  0.87979467  1
  O  O69  1  0.69412721  0.09803203  0.70513103  1
  O  O70  1  0.60709900  0.40196797  0.09609518  1
  O  O71  1  0.70124876  0.69236910  0.08527495  1
  O  O72  1  0.59803203  0.19412721  0.20513103  1
  O  O73  1  0.80587279  0.51100382  0.40390482  1
  O  O74  1  0.89290586  0.38402619  0.58527495  1
  O  O75  1  0.90196797  0.10709900  0.59609518  1
  O  O76  1  0.91521607  0.29501074  0.31094535  1
  O  O77  1  0.88402619  0.39290586  0.08527495  1
  O  O78  1  0.98899618  0.69412721  0.09609518  1
  O  O79  1  0.89572929  0.01593461  0.31094535  1
