# generated using pymatgen
data_Li4MnCo2O7
_symmetry_space_group_name_H-M   'P 1'
_cell_length_a   5.13380103
_cell_length_b   6.49565717
_cell_length_c   7.73421544
_cell_angle_alpha   93.14137078
_cell_angle_beta   75.75282753
_cell_angle_gamma   96.01240963
_symmetry_Int_Tables_number   1
_chemical_formula_structural   Li4MnCo2O7
_chemical_formula_sum   'Li8 Mn2 Co4 O14'
_cell_volume   248.49554588
_cell_formula_units_Z   2
loop_
 _symmetry_equiv_pos_site_id
 _symmetry_equiv_pos_as_xyz
  1  'x, y, z'
loop_
 _atom_site_type_symbol
 _atom_site_label
 _atom_site_symmetry_multiplicity
 _atom_site_fract_x
 _atom_site_fract_y
 _atom_site_fract_z
 _atom_site_occupancy
  Li  Li0  1  0.08214936  0.15430481  0.36426736  1
  Li  Li1  1  0.35710712  0.70908163  0.77568959  1
  Li  Li2  1  0.49010039  0.99308029  0.50167746  1
  Li  Li3  1  0.78502320  0.56339702  0.92871919  1
  Li  Li4  1  0.93615624  0.85508579  0.63429002  1
  Li  Li5  1  0.21318877  0.42860536  0.07842448  1
  Li  Li6  1  0.63493121  0.29730837  0.22053989  1
  Li  Li7  1  0.28321396  0.56869198  0.42862627  1
  Mn  Mn8  1  -0.00049205  0.00353298  0.99854535  1
  Mn  Mn9  1  0.42828486  0.85459701  0.14646795  1
  Co  Co10  1  0.57199446  0.14329610  0.85674631  1
  Co  Co11  1  0.86643363  0.70882653  0.28856308  1
  Co  Co12  1  0.14446101  0.28928320  0.71205449  1
  Co  Co13  1  0.71381601  0.43767577  0.56376926  1
  O  O14  1  0.73241280  0.98541004  0.23288666  1
  O  O15  1  0.03535247  0.54461568  0.68422907  1
  O  O16  1  0.17853547  0.85729141  0.37455382  1
  O  O17  1  0.44778074  0.40133725  0.81075002  1
  O  O18  1  0.63567240  0.70690548  0.52457625  1
  O  O19  1  0.91770016  0.27617963  0.95069661  1
  O  O20  1  0.34773176  0.13315202  0.09688259  1
  O  O21  1  0.38547690  0.28509015  0.49078261  1
  O  O22  1  0.65095616  0.86796314  0.89978623  1
  O  O23  1  0.82953894  0.16385758  0.62858359  1
  O  O24  1  0.11530667  0.73459602  0.05412727  1
  O  O25  1  0.22701677  0.01239112  0.75605906  1
  O  O26  1  0.54193718  0.59507637  0.17595497  1
  O  O27  1  0.94821342  0.42936727  0.32175054  1
