# generated using pymatgen
data_ScH3(ClO5)2
_symmetry_space_group_name_H-M   'P 1'
_cell_length_a   9.60603357
_cell_length_b   7.48732516
_cell_length_c   11.75158978
_cell_angle_alpha   90.00000000
_cell_angle_beta   93.43159993
_cell_angle_gamma   90.00000000
_symmetry_Int_Tables_number   1
_chemical_formula_structural   ScH3(ClO5)2
_chemical_formula_sum   'Sc4 H12 Cl8 O40'
_cell_volume   843.69993193
_cell_formula_units_Z   4
loop_
 _symmetry_equiv_pos_site_id
 _symmetry_equiv_pos_as_xyz
  1  'x, y, z'
loop_
 _atom_site_type_symbol
 _atom_site_label
 _atom_site_symmetry_multiplicity
 _atom_site_fract_x
 _atom_site_fract_y
 _atom_site_fract_z
 _atom_site_occupancy
  Sc  Sc0  1  0.11802324  0.46693899  0.90993374  1
  Sc  Sc1  1  0.38197676  0.96693899  0.59006626  1
  Sc  Sc2  1  0.61802324  0.03306101  0.40993374  1
  Sc  Sc3  1  0.88197676  0.53306101  0.09006626  1
  H  H4  1  0.06682865  0.25400291  0.09711781  1
  H  H5  1  0.17256347  0.10436034  0.43500386  1
  H  H6  1  0.21924365  0.26722882  0.51692225  1
  H  H7  1  0.28075635  0.76722882  0.98307775  1
  H  H8  1  0.32743653  0.60436034  0.06499614  1
  H  H9  1  0.43317135  0.75400291  0.40288219  1
  H  H10  1  0.56682865  0.24599709  0.59711781  1
  H  H11  1  0.67256347  0.39563966  0.93500386  1
  H  H12  1  0.71924365  0.23277118  0.01692225  1
  H  H13  1  0.78075635  0.73277118  0.48307775  1
  H  H14  1  0.82743653  0.89563966  0.56499614  1
  H  H15  1  0.93317135  0.74599709  0.90288219  1
  Cl  Cl16  1  0.08665137  0.85423481  0.23111486  1
  Cl  Cl17  1  0.14257097  0.62860368  0.63848680  1
  Cl  Cl18  1  0.35742903  0.12860368  0.86151320  1
  Cl  Cl19  1  0.41334863  0.35423481  0.26888514  1
  Cl  Cl20  1  0.58665137  0.64576519  0.73111486  1
  Cl  Cl21  1  0.64257097  0.87139632  0.13848680  1
  Cl  Cl22  1  0.85742903  0.37139632  0.36151320  1
  Cl  Cl23  1  0.91334863  0.14576519  0.76888514  1
  O  O24  1  0.01944532  0.29586585  0.79065484  1
  O  O25  1  0.00411857  0.38157957  0.38741101  1
  O  O26  1  0.04699828  0.94243137  0.33379614  1
  O  O27  1  0.04444903  0.36492132  0.05611355  1
  O  O28  1  0.07510762  0.97164677  0.13335511  1
  O  O29  1  0.17289859  0.63357423  0.76458720  1
  O  O30  1  0.19473596  0.80023838  0.59483065  1
  O  O31  1  0.22042589  0.48474638  0.59199466  1
  O  O32  1  0.23126765  0.13933158  0.50282762  1
  O  O33  1  0.22210341  0.77266173  0.24600322  1
  O  O34  1  0.27957411  0.98474638  0.90800534  1
  O  O35  1  0.30526404  0.30023838  0.90516935  1
  O  O36  1  0.27789659  0.27266173  0.25399678  1
  O  O37  1  0.32710141  0.13357423  0.73541280  1
  O  O38  1  0.26873235  0.63933158  0.99717238  1
  O  O39  1  0.42489238  0.47164677  0.36664489  1
  O  O40  1  0.45555097  0.86492132  0.44388645  1
  O  O41  1  0.48055468  0.79586585  0.70934516  1
  O  O42  1  0.50411857  0.11842043  0.88741101  1
  O  O43  1  0.45300172  0.44243137  0.16620386  1
  O  O44  1  0.54699828  0.55756863  0.83379614  1
  O  O45  1  0.49588143  0.88157957  0.11258899  1
  O  O46  1  0.51944532  0.20413415  0.29065484  1
  O  O47  1  0.54444903  0.13507868  0.55611355  1
  O  O48  1  0.57510762  0.52835323  0.63335511  1
  O  O49  1  0.73126765  0.36066842  0.00282762  1
  O  O50  1  0.67289859  0.86642577  0.26458720  1
  O  O51  1  0.72210341  0.72733827  0.74600322  1
  O  O52  1  0.69473596  0.69976162  0.09483065  1
  O  O53  1  0.72042589  0.01525362  0.09199466  1
  O  O54  1  0.77789659  0.22733827  0.75399678  1
  O  O55  1  0.76873235  0.86066842  0.49717238  1
  O  O56  1  0.77957411  0.51525362  0.40800534  1
  O  O57  1  0.80526404  0.19976162  0.40516935  1
  O  O58  1  0.82710141  0.36642577  0.23541280  1
  O  O59  1  0.92489238  0.02835323  0.86664489  1
  O  O60  1  0.95555097  0.63507868  0.94388645  1
  O  O61  1  0.95300172  0.05756863  0.66620386  1
  O  O62  1  0.99588143  0.61842043  0.61258899  1
  O  O63  1  0.98055468  0.70413415  0.20934516  1
