# generated using pymatgen
data_K3Cu2P4HO14
_symmetry_space_group_name_H-M   'P 1'
_cell_length_a   5.32297321
_cell_length_b   5.60257076
_cell_length_c   12.90547053
_cell_angle_alpha   90.51447392
_cell_angle_beta   100.16010431
_cell_angle_gamma   116.87782378
_symmetry_Int_Tables_number   1
_chemical_formula_structural   K3Cu2P4HO14
_chemical_formula_sum   'K3 Cu2 P4 H1 O14'
_cell_volume   336.18136389
_cell_formula_units_Z   1
loop_
 _symmetry_equiv_pos_site_id
 _symmetry_equiv_pos_as_xyz
  1  'x, y, z'
loop_
 _atom_site_type_symbol
 _atom_site_label
 _atom_site_symmetry_multiplicity
 _atom_site_fract_x
 _atom_site_fract_y
 _atom_site_fract_z
 _atom_site_occupancy
  K  K0  1  0.00000000  0.00000000  0.50000000  1
  K  K1  1  0.79754022  0.15138331  0.93666960  1
  K  K2  1  0.20245978  0.84861669  0.06333040  1
  Cu  Cu3  1  0.02729275  0.77287788  0.77910548  1
  Cu  Cu4  1  0.97270725  0.22712212  0.22089452  1
  P  P5  1  0.41318214  0.47022870  0.83971780  1
  P  P6  1  0.58681786  0.52977130  0.16028220  1
  P  P7  1  0.44162101  0.70880372  0.64823858  1
  P  P8  1  0.55837899  0.29119628  0.35176142  1
  H  H9  1  0.50000000  0.50000000  0.50000000  1
  O  O10  1  0.34634131  0.43909576  0.71073026  1
  O  O11  1  0.65365869  0.56090424  0.28926974  1
  O  O12  1  0.74564031  0.62438294  0.87587174  1
  O  O13  1  0.25435969  0.37561706  0.12412826  1
  O  O14  1  0.26956672  0.63752855  0.87294947  1
  O  O15  1  0.73043328  0.36247145  0.12705053  1
  O  O16  1  0.28835331  0.18840528  0.87556351  1
  O  O17  1  0.71164669  0.81159472  0.12443649  1
  O  O18  1  0.76636745  0.88746812  0.68955211  1
  O  O19  1  0.23363255  0.11253188  0.31044789  1
  O  O20  1  0.25886247  0.84476622  0.66877400  1
  O  O21  1  0.74113753  0.15523378  0.33122600  1
  O  O22  1  0.36925213  0.60617596  0.53062972  1
  O  O23  1  0.63074787  0.39382404  0.46937028  1
