# generated using pymatgen
data_ZrH6NOF5
_symmetry_space_group_name_H-M   'P 1'
_cell_length_a   10.74547830
_cell_length_b   7.60824899
_cell_length_c   6.87155207
_cell_angle_alpha   90.00000000
_cell_angle_beta   77.73648146
_cell_angle_gamma   90.00000000
_symmetry_Int_Tables_number   1
_chemical_formula_structural   ZrH6NOF5
_chemical_formula_sum   'Zr4 H24 N4 O4 F20'
_cell_volume   548.95953457
_cell_formula_units_Z   4
loop_
 _symmetry_equiv_pos_site_id
 _symmetry_equiv_pos_as_xyz
  1  'x, y, z'
loop_
 _atom_site_type_symbol
 _atom_site_label
 _atom_site_symmetry_multiplicity
 _atom_site_fract_x
 _atom_site_fract_y
 _atom_site_fract_z
 _atom_site_occupancy
  Zr  Zr0  1  0.54372481  0.55813834  0.73492087  1
  Zr  Zr1  1  0.04372481  0.94186166  0.23492087  1
  Zr  Zr2  1  0.45627519  0.44186166  0.26507913  1
  Zr  Zr3  1  0.95627519  0.05813834  0.76507913  1
  H  H4  1  0.80710649  0.45359433  0.72964516  1
  H  H5  1  0.30710649  0.04640567  0.22964516  1
  H  H6  1  0.19289351  0.54640567  0.27035484  1
  H  H7  1  0.69289351  0.95359433  0.77035484  1
  H  H8  1  0.80764379  0.65782571  0.68987179  1
  H  H9  1  0.30764379  0.84217429  0.18987179  1
  H  H10  1  0.19235621  0.34217429  0.31012821  1
  H  H11  1  0.69235621  0.15782571  0.81012821  1
  H  H12  1  0.29517430  0.06587492  0.87104502  1
  H  H13  1  0.79517430  0.43412508  0.37104502  1
  H  H14  1  0.70482570  0.93412508  0.12895498  1
  H  H15  1  0.20482570  0.56587492  0.62895498  1
  H  H16  1  0.39404133  0.93599690  0.72191232  1
  H  H17  1  0.89404133  0.56400310  0.22191232  1
  H  H18  1  0.60595867  0.06400310  0.27808768  1
  H  H19  1  0.10595867  0.43599690  0.77808768  1
  H  H20  1  0.43444239  0.15197727  0.74233398  1
  H  H21  1  0.93444239  0.34802273  0.24233398  1
  H  H22  1  0.56555761  0.84802273  0.25766602  1
  H  H23  1  0.06555761  0.65197727  0.75766602  1
  H  H24  1  0.31844661  0.10184811  0.62449643  1
  H  H25  1  0.81844661  0.39815189  0.12449643  1
  H  H26  1  0.68155339  0.89815189  0.37550357  1
  H  H27  1  0.18155339  0.60184811  0.87550357  1
  N  N28  1  0.36135226  0.06477806  0.73825283  1
  N  N29  1  0.86135226  0.43522194  0.23825283  1
  N  N30  1  0.63864774  0.93522194  0.26174717  1
  N  N31  1  0.13864774  0.56477806  0.76174717  1
  O  O32  1  0.76532687  0.54689802  0.66332682  1
  O  O33  1  0.26532687  0.95310198  0.16332682  1
  O  O34  1  0.23467313  0.45310198  0.33667318  1
  O  O35  1  0.73467313  0.04689802  0.83667318  1
  F  F36  1  0.59669461  0.57110187  0.41464343  1
  F  F37  1  0.09669461  0.92889813  0.91464343  1
  F  F38  1  0.40330539  0.42889813  0.58535657  1
  F  F39  1  0.90330539  0.07110187  0.08535657  1
  F  F40  1  0.60067699  0.29738156  0.70740778  1
  F  F41  1  0.10067699  0.20261844  0.20740778  1
  F  F42  1  0.39932301  0.70261844  0.29259222  1
  F  F43  1  0.89932301  0.79738156  0.79259222  1
  F  F44  1  0.61125640  0.81689706  0.67532758  1
  F  F45  1  0.11125640  0.68310294  0.17532758  1
  F  F46  1  0.38874360  0.18310294  0.32467242  1
  F  F47  1  0.88874360  0.31689706  0.82467242  1
  F  F48  1  0.38366693  0.70823917  0.80841967  1
  F  F49  1  0.88366693  0.79176083  0.30841967  1
  F  F50  1  0.61633307  0.29176083  0.19158033  1
  F  F51  1  0.11633307  0.20823917  0.69158033  1
  F  F52  1  0.58772945  0.59824325  0.01591807  1
  F  F53  1  0.08772945  0.90175675  0.51591807  1
  F  F54  1  0.41227055  0.40175675  0.98408193  1
  F  F55  1  0.91227055  0.09824325  0.48408193  1
