# generated using pymatgen
data_Na2PdO3
_symmetry_space_group_name_H-M   'P 1'
_cell_length_a   5.47818592
_cell_length_b   5.47535480
_cell_length_c   43.25572817
_cell_angle_alpha   85.24218946
_cell_angle_beta   80.45575106
_cell_angle_gamma   59.98245952
_symmetry_Int_Tables_number   1
_chemical_formula_structural   Na2PdO3
_chemical_formula_sum   'Na32 Pd16 O48'
_cell_volume   1107.88054768
_cell_formula_units_Z   16
loop_
 _symmetry_equiv_pos_site_id
 _symmetry_equiv_pos_as_xyz
  1  'x, y, z'
loop_
 _atom_site_type_symbol
 _atom_site_label
 _atom_site_symmetry_multiplicity
 _atom_site_fract_x
 _atom_site_fract_y
 _atom_site_fract_z
 _atom_site_occupancy
  Na  Na0  1  0.16909885  0.16493659  0.00032775  1
  Na  Na1  1  0.99933259  0.50023947  0.37480587  1
  Na  Na2  1  0.07559244  0.84895318  0.06248913  1
  Na  Na3  1  0.41757127  0.16474694  0.06250010  1
  Na  Na4  1  0.26549747  0.49282832  0.18738915  1
  Na  Na5  1  0.00010913  0.50006340  0.62503128  1
  Na  Na6  1  0.09080532  0.81788861  0.31212645  1
  Na  Na7  1  0.40813134  0.18273274  0.31200134  1
  Na  Na8  1  0.24980189  0.50002681  0.43737054  1
  Na  Na9  1  0.66583248  0.16496635  0.12467290  1
  Na  Na10  1  0.99835621  0.50148977  0.87540482  1
  Na  Na11  1  0.09130378  0.81747277  0.56249111  1
  Na  Na12  1  0.40881417  0.18261720  0.56247830  1
  Na  Na13  1  0.50014854  0.50147444  0.24963483  1
  Na  Na14  1  0.25011566  0.50017454  0.68761370  1
  Na  Na15  1  0.09130199  0.81796198  0.81287868  1
  Na  Na16  1  0.40892389  0.18285937  0.81300956  1
  Na  Na17  1  0.75822554  0.48323770  0.06251637  1
  Na  Na18  1  0.49991645  0.50001159  0.49992618  1
  Na  Na19  1  0.24170299  0.49278908  0.93761775  1
  Na  Na20  1  0.58290238  0.83344638  0.18709188  1
  Na  Na21  1  0.90060945  0.17356944  0.18680628  1
  Na  Na22  1  0.74958985  0.50078831  0.31232032  1
  Na  Na23  1  0.50047402  0.50030632  0.75020392  1
  Na  Na24  1  0.59089885  0.81748876  0.43735510  1
  Na  Na25  1  0.90828506  0.18253676  0.43734728  1
  Na  Na26  1  0.75000999  0.50008639  0.56249298  1
  Na  Na27  1  0.59162941  0.81744310  0.68764324  1
  Na  Na28  1  0.90914794  0.18262728  0.68764690  1
  Na  Na29  1  0.74978786  0.50071308  0.81270071  1
  Na  Na30  1  0.58342155  0.83345580  0.93794401  1
  Na  Na31  1  0.92577954  0.17346927  0.93820460  1
  Pd  Pd32  1  0.00028803  0.49909929  0.12482415  1
  Pd  Pd33  1  0.16558409  0.16733732  0.24948570  1
  Pd  Pd34  1  0.16681228  0.16615138  0.49992914  1
  Pd  Pd35  1  0.50056065  0.49898122  0.00018714  1
  Pd  Pd36  1  0.16754885  0.16646394  0.75024887  1
  Pd  Pd37  1  0.33335571  0.83219361  0.12480719  1
  Pd  Pd38  1  0.66608772  0.16637562  0.37475098  1
  Pd  Pd39  1  0.33226905  0.83406983  0.37475125  1
  Pd  Pd40  1  0.66704461  0.16623170  0.62504722  1
  Pd  Pd41  1  0.33323725  0.83387627  0.62504594  1
  Pd  Pd42  1  0.66707342  0.16734852  0.87552239  1
  Pd  Pd43  1  0.33327146  0.83422726  0.87550445  1
  Pd  Pd44  1  0.83252714  0.83421451  0.24950471  1
  Pd  Pd45  1  0.83297259  0.83382425  0.49992695  1
  Pd  Pd46  1  0.83368935  0.83416228  0.75024908  1
  Pd  Pd47  1  0.83441234  0.83206149  0.00020625  1
  O  O48  1  0.06379829  0.16542049  0.09851193  1
  O  O49  1  0.03396265  0.13569687  0.34849047  1
  O  O50  1  0.13341166  0.52970151  0.02649919  1
  O  O51  1  0.03488773  0.13540916  0.59877810  1
  O  O52  1  0.26845558  0.16560165  0.15098744  1
  O  O53  1  0.10167291  0.50108364  0.27585003  1
  O  O54  1  0.03422619  0.13635276  0.84916070  1
  O  O55  1  0.32918462  0.13539675  0.40104626  1
  O  O56  1  0.10309576  0.49999376  0.52624613  1
  O  O57  1  0.33673393  0.52981248  0.09850583  1
  O  O58  1  0.16917880  0.86544330  0.22330241  1
  O  O59  1  0.53405820  0.13849161  0.22332847  1
  O  O60  1  0.32999350  0.13544233  0.65132413  1
  O  O61  1  0.10388222  0.50026267  0.77658100  1
  O  O62  1  0.39594199  0.50015087  0.34841953  1
  O  O63  1  0.17003833  0.86462348  0.47365880  1
  O  O64  1  0.53463511  0.13537970  0.47366172  1
  O  O65  1  0.49687879  0.80147607  0.02648348  1
  O  O66  1  0.77071411  0.16531069  0.02649297  1
  O  O67  1  0.63185976  0.52787781  0.15091609  1
  O  O68  1  0.32749134  0.13844573  0.90168785  1
  O  O69  1  0.39695934  0.50004204  0.59873300  1
  O  O70  1  0.17073132  0.86496349  0.72395725  1
  O  O71  1  0.53543840  0.13548562  0.72394383  1
  O  O72  1  0.46448152  0.86490292  0.27582638  1
  O  O73  1  0.82947881  0.13629949  0.27585582  1
  O  O74  1  0.60241884  0.50017874  0.40106995  1
  O  O75  1  0.70147197  0.80159595  0.09851448  1
  O  O76  1  0.39720904  0.50110285  0.84916603  1
  O  O77  1  0.20219443  0.80101329  0.97407234  1
  O  O78  1  0.56588023  0.16546292  0.97401931  1
  O  O79  1  0.46516273  0.86460913  0.52619831  1
  O  O80  1  0.82974157  0.13538514  0.52619566  1
  O  O81  1  0.60334209  0.50004635  0.65137359  1
  O  O82  1  0.89766477  0.50086673  0.22324242  1
  O  O83  1  0.66920336  0.86505564  0.34846216  1
  O  O84  1  0.46578048  0.86517900  0.77653607  1
  O  O85  1  0.83040344  0.13575083  0.77651064  1
  O  O86  1  0.60145112  0.50087109  0.90177306  1
  O  O87  1  0.89672192  0.49997677  0.47360464  1
  O  O88  1  0.67025419  0.86470081  0.59877807  1
  O  O89  1  0.99661997  0.80112089  0.15093887  1
  O  O90  1  0.89742385  0.50027446  0.72392197  1
  O  O91  1  0.67060493  0.86493183  0.84918033  1
  O  O92  1  0.96442467  0.86489354  0.40103781  1
  O  O93  1  0.84021895  0.52775312  0.97408797  1
  O  O94  1  0.96539230  0.86467475  0.65132514  1
  O  O95  1  0.96537182  0.86546506  0.90171092  1
