# generated using pymatgen
data_KFe3P8(H11O18)2
_symmetry_space_group_name_H-M   'P 1'
_cell_length_a   9.81384060
_cell_length_b   9.81384060
_cell_length_c   18.00399560
_cell_angle_alpha   88.29715181
_cell_angle_beta   91.70284819
_cell_angle_gamma   120.44750852
_symmetry_Int_Tables_number   1
_chemical_formula_structural   KFe3P8(H11O18)2
_chemical_formula_sum   'K2 Fe6 P16 H44 O72'
_cell_volume   1493.98672799
_cell_formula_units_Z   2
loop_
 _symmetry_equiv_pos_site_id
 _symmetry_equiv_pos_as_xyz
  1  'x, y, z'
loop_
 _atom_site_type_symbol
 _atom_site_label
 _atom_site_symmetry_multiplicity
 _atom_site_fract_x
 _atom_site_fract_y
 _atom_site_fract_z
 _atom_site_occupancy
  K  K0  1  0.76514688  0.76514688  0.75000000  1
  K  K1  1  0.23485312  0.23485312  0.25000000  1
  Fe  Fe2  1  0.76120684  0.18406219  0.74301933  1
  Fe  Fe3  1  0.18406219  0.76120684  0.75698067  1
  Fe  Fe4  1  0.23879316  0.81593781  0.25698067  1
  Fe  Fe5  1  0.81593781  0.23879316  0.24301933  1
  Fe  Fe6  1  0.34325099  0.34325099  0.75000000  1
  Fe  Fe7  1  0.65674901  0.65674901  0.25000000  1
  P  P8  1  0.12452962  0.00724226  0.85398040  1
  P  P9  1  0.00724226  0.12452962  0.64601960  1
  P  P10  1  0.87547038  0.99275774  0.14601960  1
  P  P11  1  0.99275774  0.87547038  0.35398040  1
  P  P12  1  0.88181128  0.52784430  0.64600879  1
  P  P13  1  0.52784430  0.88181128  0.85399121  1
  P  P14  1  0.11818872  0.47215570  0.35399121  1
  P  P15  1  0.47215570  0.11818872  0.14600879  1
  P  P16  1  0.64673701  0.39144467  0.85210824  1
  P  P17  1  0.39144467  0.64673701  0.64789176  1
  P  P18  1  0.35326299  0.60855533  0.14789176  1
  P  P19  1  0.60855533  0.35326299  0.35210824  1
  P  P20  1  0.42233055  0.10110726  0.65757929  1
  P  P21  1  0.10110726  0.42233055  0.84242071  1
  P  P22  1  0.57766945  0.89889274  0.34242071  1
  P  P23  1  0.89889274  0.57766945  0.15757929  1
  H  H24  1  0.00330376  0.34852305  0.95515157  1
  H  H25  1  0.34852305  0.00330376  0.54484843  1
  H  H26  1  0.99669624  0.65147695  0.04484843  1
  H  H27  1  0.65147695  0.99669624  0.45515157  1
  H  H28  1  0.61930036  0.42237447  0.65152395  1
  H  H29  1  0.42237447  0.61930036  0.84847605  1
  H  H30  1  0.38069964  0.57762553  0.34847605  1
  H  H31  1  0.57762553  0.38069964  0.15152395  1
  H  H32  1  0.06215264  0.65232354  0.55844124  1
  H  H33  1  0.65232354  0.06215264  0.94155876  1
  H  H34  1  0.93784736  0.34767646  0.44155876  1
  H  H35  1  0.34767646  0.93784736  0.05844124  1
  H  H36  1  0.11277040  0.96891905  0.66001542  1
  H  H37  1  0.96891905  0.11277040  0.83998458  1
  H  H38  1  0.88722960  0.03108095  0.33998458  1
  H  H39  1  0.03108095  0.88722960  0.16001542  1
  H  H40  1  0.09893747  0.22286999  0.53562214  1
  H  H41  1  0.22286999  0.09893747  0.96437786  1
  H  H42  1  0.90106253  0.77713001  0.46437786  1
  H  H43  1  0.77713001  0.90106253  0.03562214  1
  H  H44  1  0.90838194  0.55144113  0.85240115  1
  H  H45  1  0.55144113  0.90838194  0.64759885  1
  H  H46  1  0.09161806  0.44855887  0.14759885  1
  H  H47  1  0.44855887  0.09161806  0.35240115  1
  H  H48  1  0.48087491  0.31548807  0.94735184  1
  H  H49  1  0.31548807  0.48087491  0.55264816  1
  H  H50  1  0.51912509  0.68451193  0.05264816  1
  H  H51  1  0.68451193  0.51912509  0.44735184  1
  H  H52  1  0.24872584  0.71009515  0.00454801  1
  H  H53  1  0.71009515  0.24872584  0.49545199  1
  H  H54  1  0.75127416  0.28990485  0.99545199  1
  H  H55  1  0.28990485  0.75127416  0.50454801  1
  H  H56  1  0.18656274  0.82197867  0.97224590  1
  H  H57  1  0.82197867  0.18656274  0.52775410  1
  H  H58  1  0.81343726  0.17802133  0.02775410  1
  H  H59  1  0.17802133  0.81343726  0.47224590  1
  H  H60  1  0.30079857  0.34994305  0.45270518  1
  H  H61  1  0.34994305  0.30079857  0.04729482  1
  H  H62  1  0.69920143  0.65005695  0.54729482  1
  H  H63  1  0.65005695  0.69920143  0.95270518  1
  H  H64  1  0.34123541  0.25830377  0.51693419  1
  H  H65  1  0.25830377  0.34123541  0.98306581  1
  H  H66  1  0.65876459  0.74169623  0.48306581  1
  H  H67  1  0.74169623  0.65876459  0.01693419  1
  O  O68  1  0.15740099  0.25519753  0.68185988  1
  O  O69  1  0.25519753  0.15740099  0.81814012  1
  O  O70  1  0.84259901  0.74480247  0.31814012  1
  O  O71  1  0.74480247  0.84259901  0.18185988  1
  O  O72  1  0.85223764  0.08232169  0.68117127  1
  O  O73  1  0.08232169  0.85223764  0.81882873  1
  O  O74  1  0.14776236  0.91767831  0.31882873  1
  O  O75  1  0.91767831  0.14776236  0.18117127  1
  O  O76  1  0.01166502  0.96604658  0.64313184  1
  O  O77  1  0.96604658  0.01166502  0.85686816  1
  O  O78  1  0.98833498  0.03395342  0.35686816  1
  O  O79  1  0.03395342  0.98833498  0.14313184  1
  O  O80  1  0.99492196  0.17264953  0.56193099  1
  O  O81  1  0.17264953  0.99492196  0.93806901  1
  O  O82  1  0.00507804  0.82735047  0.43806901  1
  O  O83  1  0.82735047  0.00507804  0.06193099  1
  O  O84  1  0.36832559  0.85402616  0.82665282  1
  O  O85  1  0.85402616  0.36832559  0.67334718  1
  O  O86  1  0.63167441  0.14597384  0.17334718  1
  O  O87  1  0.14597384  0.63167441  0.32665282  1
  O  O88  1  0.97942279  0.66500118  0.69776125  1
  O  O89  1  0.66500118  0.97942279  0.80223875  1
  O  O90  1  0.02057721  0.33499882  0.30223875  1
  O  O91  1  0.33499882  0.02057721  0.19776125  1
  O  O92  1  0.95101449  0.56565600  0.56534007  1
  O  O93  1  0.56565600  0.95101449  0.93465993  1
  O  O94  1  0.04898551  0.43434400  0.43465993  1
  O  O95  1  0.43434400  0.04898551  0.06534007  1
  O  O96  1  0.71610007  0.51842336  0.63049855  1
  O  O97  1  0.51842336  0.71610007  0.86950145  1
  O  O98  1  0.28389993  0.48157664  0.36950145  1
  O  O99  1  0.48157664  0.28389993  0.13049855  1
  O  O100  1  0.67364796  0.27442990  0.81167021  1
  O  O101  1  0.27442990  0.67364796  0.68832979  1
  O  O102  1  0.32635204  0.72557010  0.18832979  1
  O  O103  1  0.72557010  0.32635204  0.31167021  1
  O  O104  1  0.54198621  0.44534190  0.81266723  1
  O  O105  1  0.44534190  0.54198621  0.68733277  1
  O  O106  1  0.45801379  0.55465810  0.18733277  1
  O  O107  1  0.55465810  0.45801379  0.31266723  1
  O  O108  1  0.57949261  0.31897367  0.93183972  1
  O  O109  1  0.31897367  0.57949261  0.56816028  1
  O  O110  1  0.42050739  0.68102633  0.06816028  1
  O  O111  1  0.68102633  0.42050739  0.43183972  1
  O  O112  1  0.80910202  0.54705530  0.86957052  1
  O  O113  1  0.54705530  0.80910202  0.63042948  1
  O  O114  1  0.19089798  0.45294470  0.13042948  1
  O  O115  1  0.45294470  0.19089798  0.36957052  1
  O  O116  1  0.45806346  0.26462371  0.68294888  1
  O  O117  1  0.26462371  0.45806346  0.81705112  1
  O  O118  1  0.54193654  0.73537629  0.31705112  1
  O  O119  1  0.73537629  0.54193654  0.18294888  1
  O  O120  1  0.26644222  0.96244283  0.68776311  1
  O  O121  1  0.96244283  0.26644222  0.81223689  1
  O  O122  1  0.73355778  0.03755717  0.31223689  1
  O  O123  1  0.03755717  0.73355778  0.18776311  1
  O  O124  1  0.07337920  0.56136082  0.82585028  1
  O  O125  1  0.56136082  0.07337920  0.67414972  1
  O  O126  1  0.92662080  0.43863918  0.17414972  1
  O  O127  1  0.43863918  0.92662080  0.32585028  1
  O  O128  1  0.39880852  0.10973350  0.56903242  1
  O  O129  1  0.10973350  0.39880852  0.93096758  1
  O  O130  1  0.60119148  0.89026650  0.43096758  1
  O  O131  1  0.89026650  0.60119148  0.06903242  1
  O  O132  1  0.31834281  0.28734871  0.99449910  1
  O  O133  1  0.28734871  0.31834281  0.50550090  1
  O  O134  1  0.68165719  0.71265129  0.00550090  1
  O  O135  1  0.71265129  0.68165719  0.49449910  1
  O  O136  1  0.75865381  0.18591127  0.48413777  1
  O  O137  1  0.18591127  0.75865381  0.01586223  1
  O  O138  1  0.24134619  0.81408873  0.51586223  1
  O  O139  1  0.81408873  0.24134619  0.98413777  1
