# generated using pymatgen
data_KFe2P2H5O11
_symmetry_space_group_name_H-M   'P 1'
_cell_length_a   9.86607340
_cell_length_b   9.80068693
_cell_length_c   9.88713309
_cell_angle_alpha   90.00000000
_cell_angle_beta   102.93712922
_cell_angle_gamma   90.00000000
_symmetry_Int_Tables_number   1
_chemical_formula_structural   KFe2P2H5O11
_chemical_formula_sum   'K4 Fe8 P8 H20 O44'
_cell_volume   931.76183345
_cell_formula_units_Z   4
loop_
 _symmetry_equiv_pos_site_id
 _symmetry_equiv_pos_as_xyz
  1  'x, y, z'
loop_
 _atom_site_type_symbol
 _atom_site_label
 _atom_site_symmetry_multiplicity
 _atom_site_fract_x
 _atom_site_fract_y
 _atom_site_fract_z
 _atom_site_occupancy
  K  K0  1  0.98300766  0.69602851  0.60170893  1
  K  K1  1  0.48300766  0.80397149  0.10170893  1
  K  K2  1  0.01699234  0.30397149  0.39829107  1
  K  K3  1  0.51699234  0.19602851  0.89829107  1
  Fe  Fe4  1  0.10661845  0.05371346  0.12885449  1
  Fe  Fe5  1  0.60661845  0.44628654  0.62885449  1
  Fe  Fe6  1  0.89338155  0.94628654  0.87114551  1
  Fe  Fe7  1  0.39338155  0.55371346  0.37114551  1
  Fe  Fe8  1  0.90159908  0.72607244  0.19245318  1
  Fe  Fe9  1  0.40159908  0.77392756  0.69245318  1
  Fe  Fe10  1  0.09840092  0.27392756  0.80754682  1
  Fe  Fe11  1  0.59840092  0.22607244  0.30754682  1
  P  P12  1  0.70774047  0.52770238  0.35499344  1
  P  P13  1  0.20774047  0.97229762  0.85499344  1
  P  P14  1  0.29225953  0.47229762  0.64500656  1
  P  P15  1  0.79225953  0.02770238  0.14500656  1
  P  P16  1  0.71069938  0.67717011  0.87124238  1
  P  P17  1  0.21069938  0.82282989  0.37124238  1
  P  P18  1  0.28930062  0.32282989  0.12875762  1
  P  P19  1  0.78930062  0.17717011  0.62875762  1
  H  H20  1  0.07545257  0.79877899  0.03309537  1
  H  H21  1  0.57545257  0.70122101  0.53309537  1
  H  H22  1  0.92454743  0.20122101  0.96690463  1
  H  H23  1  0.42454743  0.29877899  0.46690463  1
  H  H24  1  0.95689782  0.47201649  0.10396303  1
  H  H25  1  0.45689782  0.02798351  0.60396303  1
  H  H26  1  0.04310218  0.52798351  0.89603697  1
  H  H27  1  0.54310218  0.97201649  0.39603697  1
  H  H28  1  0.11292853  0.52141239  0.18017299  1
  H  H29  1  0.61292853  0.97858761  0.68017299  1
  H  H30  1  0.88707147  0.47858761  0.81982701  1
  H  H31  1  0.38707147  0.02141239  0.31982701  1
  H  H32  1  0.23803906  0.58672697  0.04091948  1
  H  H33  1  0.73803906  0.91327303  0.54091948  1
  H  H34  1  0.76196094  0.41327303  0.95908052  1
  H  H35  1  0.26196094  0.08672697  0.45908052  1
  H  H36  1  0.23449632  0.63987115  0.88876322  1
  H  H37  1  0.73449632  0.86012885  0.38876322  1
  H  H38  1  0.76550368  0.36012885  0.11123678  1
  H  H39  1  0.26550368  0.13987115  0.61123678  1
  O  O40  1  0.56218780  0.59274243  0.29958454  1
  O  O41  1  0.06218780  0.90725757  0.79958454  1
  O  O42  1  0.43781220  0.40725757  0.70041546  1
  O  O43  1  0.93781220  0.09274243  0.20041546  1
  O  O44  1  0.82438432  0.62143259  0.32921084  1
  O  O45  1  0.32438432  0.87856741  0.82921084  1
  O  O46  1  0.17561568  0.37856741  0.67078916  1
  O  O47  1  0.67561568  0.12143259  0.17078916  1
  O  O48  1  0.73658892  0.50577710  0.51501634  1
  O  O49  1  0.23658892  0.99422290  0.01501634  1
  O  O50  1  0.26341108  0.49422290  0.48498366  1
  O  O51  1  0.76341108  0.00577710  0.98498366  1
  O  O52  1  0.78334279  0.88773542  0.21841558  1
  O  O53  1  0.28334279  0.61226458  0.71841558  1
  O  O54  1  0.21665721  0.11226458  0.78158442  1
  O  O55  1  0.71665721  0.38773542  0.28158442  1
  O  O56  1  0.55991916  0.72965827  0.84482050  1
  O  O57  1  0.05991916  0.77034173  0.34482050  1
  O  O58  1  0.44008084  0.27034173  0.15517950  1
  O  O59  1  0.94008084  0.22965827  0.65517950  1
  O  O60  1  0.71602615  0.53102240  0.80738378  1
  O  O61  1  0.21602615  0.96897760  0.30738378  1
  O  O62  1  0.28397385  0.46897760  0.19261622  1
  O  O63  1  0.78397385  0.03102240  0.69261622  1
  O  O64  1  0.80503260  0.77066936  0.80550880  1
  O  O65  1  0.30503260  0.72933064  0.30550880  1
  O  O66  1  0.19496740  0.22933064  0.19449120  1
  O  O67  1  0.69496740  0.27066936  0.69449120  1
  O  O68  1  0.76488676  0.66364284  0.02940670  1
  O  O69  1  0.26488676  0.83635716  0.52940670  1
  O  O70  1  0.23511324  0.33635716  0.97059330  1
  O  O71  1  0.73511324  0.16364284  0.47059330  1
  O  O72  1  0.00479157  0.85638728  0.06215239  1
  O  O73  1  0.50479157  0.64361272  0.56215239  1
  O  O74  1  0.99520843  0.14361272  0.93784761  1
  O  O75  1  0.49520843  0.35638728  0.43784761  1
  O  O76  1  0.01176817  0.54460898  0.16087529  1
  O  O77  1  0.51176817  0.95539102  0.66087529  1
  O  O78  1  0.98823183  0.45539102  0.83912471  1
  O  O79  1  0.48823183  0.04460898  0.33912471  1
  O  O80  1  0.19139673  0.65185912  0.96923727  1
  O  O81  1  0.69139673  0.84814088  0.46923727  1
  O  O82  1  0.80860327  0.34814088  0.03076273  1
  O  O83  1  0.30860327  0.15185912  0.53076273  1
