# generated using pymatgen
data_Ba13Nb14O42
_symmetry_space_group_name_H-M   'P 1'
_cell_length_a   11.71426129
_cell_length_b   9.25128741
_cell_length_c   10.14830129
_cell_angle_alpha   90.02440556
_cell_angle_beta   73.20107715
_cell_angle_gamma   108.42926858
_symmetry_Int_Tables_number   1
_chemical_formula_structural   Ba13Nb14O42
_chemical_formula_sum   'Ba13 Nb14 O42'
_cell_volume   993.84186913
_cell_formula_units_Z   1
loop_
 _symmetry_equiv_pos_site_id
 _symmetry_equiv_pos_as_xyz
  1  'x, y, z'
loop_
 _atom_site_type_symbol
 _atom_site_label
 _atom_site_symmetry_multiplicity
 _atom_site_fract_x
 _atom_site_fract_y
 _atom_site_fract_z
 _atom_site_occupancy
  Ba  Ba0  1  0.85928932  0.14123645  0.71684439  1
  Ba  Ba1  1  0.92971263  0.57587816  0.85905535  1
  Ba  Ba2  1  0.42800740  0.57196466  0.85779821  1
  Ba  Ba3  1  0.35226377  0.14074690  0.71798767  1
  Ba  Ba4  1  0.71512416  0.28633997  0.42764821  1
  Ba  Ba5  1  0.78657594  0.71516388  0.57114470  1
  Ba  Ba6  1  0.21342406  0.28483612  0.42885430  1
  Ba  Ba7  1  0.28487584  0.71366003  0.57235179  1
  Ba  Ba8  1  0.64773623  0.85925310  0.28201233  1
  Ba  Ba9  1  0.57199260  0.42803534  0.14220179  1
  Ba  Ba10  1  0.50000000  0.00000000  0.00000000  1
  Ba  Ba11  1  0.14071068  0.85876355  0.28315561  1
  Ba  Ba12  1  0.07028737  0.42412184  0.14094465  1
  Nb  Nb13  1  0.71817745  0.78875760  0.92947985  1
  Nb  Nb14  1  0.64259316  0.35726457  0.78661420  1
  Nb  Nb15  1  0.92971505  0.07022175  0.35276468  1
  Nb  Nb16  1  0.57166222  0.92887471  0.64293917  1
  Nb  Nb17  1  0.42833778  0.07112529  0.35706083  1
  Nb  Nb18  1  0.78869045  0.21184687  0.07053520  1
  Nb  Nb19  1  0.85905758  0.64696803  0.21129125  1
  Nb  Nb20  1  0.21130955  0.78815313  0.92946480  1
  Nb  Nb21  1  0.50000000  0.50000000  0.50000000  1
  Nb  Nb22  1  0.14094242  0.35303197  0.78870875  1
  Nb  Nb23  1  0.35740684  0.64273543  0.21338580  1
  Nb  Nb24  1  0.07028495  0.92977825  0.64723532  1
  Nb  Nb25  1  0.00000000  0.50000000  0.50000000  1
  Nb  Nb26  1  0.28182255  0.21124240  0.07052015  1
  O  O27  1  0.96391158  0.28998227  0.92766014  1
  O  O28  1  0.71438615  0.28554559  0.92849737  1
  O  O29  1  0.60716587  0.14291021  0.71467116  1
  O  O30  1  0.67882602  0.57137108  0.85751418  1
  O  O31  1  0.96446416  0.28608356  0.42832972  1
  O  O32  1  0.46413084  0.28572364  0.92844151  1
  O  O33  1  0.74976333  0.99970864  0.49986925  1
  O  O34  1  0.82142158  0.42869701  0.64278745  1
  O  O35  1  0.89139636  0.85529792  0.78244568  1
  O  O36  1  0.64317739  0.85764759  0.78581479  1
  O  O37  1  0.92872669  0.57152461  0.35729357  1
  O  O38  1  0.21712123  0.28948445  0.92756895  1
  O  O39  1  0.50000000  0.00000000  0.50000000  1
  O  O40  1  0.57136678  0.42844955  0.64311602  1
  O  O41  1  0.85506760  0.14485346  0.21749499  1
  O  O42  1  0.46420080  0.28578763  0.42847286  1
  O  O43  1  0.82186607  0.42884732  0.14255134  1
  O  O44  1  0.10851289  0.14516274  0.71031652  1
  O  O45  1  0.39279701  0.85726995  0.78544483  1
  O  O46  1  0.74663452  0.00029055  0.00007313  1
  O  O47  1  0.60720299  0.14273005  0.21455517  1
  O  O48  1  0.89148711  0.85483726  0.28968348  1
  O  O49  1  0.53579920  0.71421237  0.57152714  1
  O  O50  1  0.67838638  0.57155367  0.35701843  1
  O  O51  1  0.25023667  0.00029136  0.50013075  1
  O  O52  1  0.17813393  0.57115268  0.85744866  1
  O  O53  1  0.32161362  0.42844633  0.64298157  1
  O  O54  1  0.78287877  0.71051555  0.07243105  1
  O  O55  1  0.35682261  0.14235241  0.21418521  1
  O  O56  1  0.14493240  0.85514654  0.78250501  1
  O  O57  1  0.00000000  0.00000000  0.50000000  1
  O  O58  1  0.42863322  0.57155045  0.35688398  1
  O  O59  1  0.07127331  0.42847539  0.64270643  1
  O  O60  1  0.03553584  0.71391644  0.57167028  1
  O  O61  1  0.39283413  0.85708979  0.28532884  1
  O  O62  1  0.25336548  0.99970945  0.99992687  1
  O  O63  1  0.32117398  0.42862892  0.14248582  1
  O  O64  1  0.17857842  0.57130299  0.35721255  1
  O  O65  1  0.10860364  0.14470208  0.21755432  1
  O  O66  1  0.53586916  0.71427636  0.07155849  1
  O  O67  1  0.28561385  0.71445441  0.07150263  1
  O  O68  1  0.03608842  0.71001773  0.07233986  1
