# generated using pymatgen
data_GdH18(IO3)3
_symmetry_space_group_name_H-M   'P 1'
_cell_length_a   11.69050624
_cell_length_b   8.16604293
_cell_length_c   9.04909055
_cell_angle_alpha   90.00000000
_cell_angle_beta   90.00000000
_cell_angle_gamma   90.00000000
_symmetry_Int_Tables_number   1
_chemical_formula_structural   GdH18(IO3)3
_chemical_formula_sum   'Gd2 H36 I6 O18'
_cell_volume   863.87302045
_cell_formula_units_Z   2
loop_
 _symmetry_equiv_pos_site_id
 _symmetry_equiv_pos_as_xyz
  1  'x, y, z'
loop_
 _atom_site_type_symbol
 _atom_site_label
 _atom_site_symmetry_multiplicity
 _atom_site_fract_x
 _atom_site_fract_y
 _atom_site_fract_z
 _atom_site_occupancy
  Gd  Gd0  1  0.75000000  0.25000000  0.33938571  1
  Gd  Gd1  1  0.25000000  0.75000000  0.66061429  1
  H  H2  1  0.84630727  0.97187880  0.52280091  1
  H  H3  1  0.65369273  0.97187880  0.52280091  1
  H  H4  1  0.84630727  0.52812120  0.52280091  1
  H  H5  1  0.65369273  0.52812120  0.52280091  1
  H  H6  1  0.15369273  0.02812120  0.47719909  1
  H  H7  1  0.34630727  0.02812120  0.47719909  1
  H  H8  1  0.15369273  0.47187880  0.47719909  1
  H  H9  1  0.34630727  0.47187880  0.47719909  1
  H  H10  1  0.91339540  0.95635750  0.37356465  1
  H  H11  1  0.58660460  0.95635750  0.37356465  1
  H  H12  1  0.91339540  0.54364250  0.37356465  1
  H  H13  1  0.58660460  0.54364250  0.37356465  1
  H  H14  1  0.08660460  0.04364250  0.62643535  1
  H  H15  1  0.41339540  0.04364250  0.62643535  1
  H  H16  1  0.08660460  0.45635750  0.62643535  1
  H  H17  1  0.41339540  0.45635750  0.62643535  1
  H  H18  1  0.68192302  0.25000000  0.67836547  1
  H  H19  1  0.81807698  0.25000000  0.67836547  1
  H  H20  1  0.31807698  0.75000000  0.32163453  1
  H  H21  1  0.18192302  0.75000000  0.32163453  1
  H  H22  1  0.68336772  0.52427869  0.12834681  1
  H  H23  1  0.81663228  0.52427869  0.12834681  1
  H  H24  1  0.68336772  0.97572131  0.12834681  1
  H  H25  1  0.81663228  0.97572131  0.12834681  1
  H  H26  1  0.31663228  0.47572131  0.87165319  1
  H  H27  1  0.18336772  0.47572131  0.87165319  1
  H  H28  1  0.31663228  0.02427869  0.87165319  1
  H  H29  1  0.18336772  0.02427869  0.87165319  1
  H  H30  1  0.95446549  0.25000000  0.10012597  1
  H  H31  1  0.54553451  0.25000000  0.10012597  1
  H  H32  1  0.04553451  0.75000000  0.89987403  1
  H  H33  1  0.45446549  0.75000000  0.89987403  1
  H  H34  1  0.01380584  0.25000000  0.25491105  1
  H  H35  1  0.48619416  0.25000000  0.25491105  1
  H  H36  1  0.98619416  0.75000000  0.74508895  1
  H  H37  1  0.51380584  0.75000000  0.74508895  1
  I  I38  1  0.98557443  0.75000000  0.17568961  1
  I  I39  1  0.51442557  0.75000000  0.17568961  1
  I  I40  1  0.01442557  0.25000000  0.82431039  1
  I  I41  1  0.48557443  0.25000000  0.82431039  1
  I  I42  1  0.25000000  0.25000000  0.30513619  1
  I  I43  1  0.75000000  0.75000000  0.69486381  1
  O  O44  1  0.87547914  0.03652976  0.43886095  1
  O  O45  1  0.62452086  0.03652976  0.43886095  1
  O  O46  1  0.87547914  0.46347024  0.43886095  1
  O  O47  1  0.62452086  0.46347024  0.43886095  1
  O  O48  1  0.12452086  0.96347024  0.56113905  1
  O  O49  1  0.37547914  0.96347024  0.56113905  1
  O  O50  1  0.12452086  0.53652976  0.56113905  1
  O  O51  1  0.37547914  0.53652976  0.56113905  1
  O  O52  1  0.75000000  0.25000000  0.61428330  1
  O  O53  1  0.25000000  0.75000000  0.38571670  1
  O  O54  1  0.75000000  0.45162967  0.13808245  1
  O  O55  1  0.75000000  0.04837033  0.13808245  1
  O  O56  1  0.25000000  0.54837033  0.86191755  1
  O  O57  1  0.25000000  0.95162967  0.86191755  1
  O  O58  1  0.93857241  0.25000000  0.20718461  1
  O  O59  1  0.56142759  0.25000000  0.20718461  1
  O  O60  1  0.06142759  0.75000000  0.79281539  1
  O  O61  1  0.43857241  0.75000000  0.79281539  1
