# generated using pymatgen
data_Nb6HI11
_symmetry_space_group_name_H-M   'P 1'
_cell_length_a   11.56044858
_cell_length_b   15.91985562
_cell_length_c   13.87533427
_cell_angle_alpha   90.00000000
_cell_angle_beta   90.00000000
_cell_angle_gamma   90.00000000
_symmetry_Int_Tables_number   1
_chemical_formula_structural   Nb6HI11
_chemical_formula_sum   'Nb24 H4 I44'
_cell_volume   2553.62584738
_cell_formula_units_Z   4
loop_
 _symmetry_equiv_pos_site_id
 _symmetry_equiv_pos_as_xyz
  1  'x, y, z'
loop_
 _atom_site_type_symbol
 _atom_site_label
 _atom_site_symmetry_multiplicity
 _atom_site_fract_x
 _atom_site_fract_y
 _atom_site_fract_z
 _atom_site_occupancy
  Nb  Nb0  1  0.10087459  0.39737105  0.47509804  1
  Nb  Nb1  1  0.39912541  0.10262895  0.47509804  1
  Nb  Nb2  1  0.60087459  0.60262895  0.02490196  1
  Nb  Nb3  1  0.89912541  0.89737105  0.02490196  1
  Nb  Nb4  1  0.89912541  0.60262895  0.52490196  1
  Nb  Nb5  1  0.60087459  0.89737105  0.52490196  1
  Nb  Nb6  1  0.39912541  0.39737105  0.97509804  1
  Nb  Nb7  1  0.10087459  0.10262895  0.97509804  1
  Nb  Nb8  1  0.13311380  0.55056899  0.58026924  1
  Nb  Nb9  1  0.36688620  0.94943101  0.58026924  1
  Nb  Nb10  1  0.63311380  0.44943101  0.91973076  1
  Nb  Nb11  1  0.86688620  0.05056899  0.91973076  1
  Nb  Nb12  1  0.86688620  0.44943101  0.41973076  1
  Nb  Nb13  1  0.63311380  0.05056899  0.41973076  1
  Nb  Nb14  1  0.36688620  0.55056899  0.08026924  1
  Nb  Nb15  1  0.13311380  0.94943101  0.08026924  1
  Nb  Nb16  1  0.93156844  0.44945629  0.62324049  1
  Nb  Nb17  1  0.56843156  0.05054371  0.62324049  1
  Nb  Nb18  1  0.43156844  0.55054371  0.87675951  1
  Nb  Nb19  1  0.06843156  0.94945629  0.87675951  1
  Nb  Nb20  1  0.06843156  0.55054371  0.37675951  1
  Nb  Nb21  1  0.43156844  0.94945629  0.37675951  1
  Nb  Nb22  1  0.56843156  0.44945629  0.12324049  1
  Nb  Nb23  1  0.93156844  0.05054371  0.12324049  1
  H  H24  1  0.00000000  0.50000000  0.50000000  1
  H  H25  1  0.50000000  0.00000000  0.50000000  1
  H  H26  1  0.50000000  0.50000000  0.00000000  1
  H  H27  1  0.00000000  0.00000000  0.00000000  1
  I  I28  1  0.15879841  0.39069698  0.67643996  1
  I  I29  1  0.34120159  0.10930302  0.67643996  1
  I  I30  1  0.65879841  0.60930302  0.82356004  1
  I  I31  1  0.84120159  0.89069698  0.82356004  1
  I  I32  1  0.84120159  0.60930302  0.32356004  1
  I  I33  1  0.65879841  0.89069698  0.32356004  1
  I  I34  1  0.34120159  0.39069698  0.17643996  1
  I  I35  1  0.15879841  0.10930302  0.17643996  1
  I  I36  1  0.02614114  0.39431306  0.27604632  1
  I  I37  1  0.47385886  0.10568694  0.27604632  1
  I  I38  1  0.52614114  0.60568694  0.22395368  1
  I  I39  1  0.97385886  0.89431306  0.22395368  1
  I  I40  1  0.97385886  0.60568694  0.72395368  1
  I  I41  1  0.52614114  0.89431306  0.72395368  1
  I  I42  1  0.47385886  0.39431306  0.77604632  1
  I  I43  1  0.02614114  0.10568694  0.77604632  1
  I  I44  1  0.90717994  0.29074655  0.52138697  1
  I  I45  1  0.59282006  0.20925345  0.52138697  1
  I  I46  1  0.40717994  0.70925345  0.97861303  1
  I  I47  1  0.09282006  0.79074655  0.97861303  1
  I  I48  1  0.09282006  0.70925345  0.47861303  1
  I  I49  1  0.40717994  0.79074655  0.47861303  1
  I  I50  1  0.59282006  0.29074655  0.02138697  1
  I  I51  1  0.90717994  0.20925345  0.02138697  1
  I  I52  1  0.29804667  0.50411852  0.43602835  1
  I  I53  1  0.20195333  0.99588148  0.43602835  1
  I  I54  1  0.79804667  0.49588148  0.06397165  1
  I  I55  1  0.70195333  0.00411852  0.06397165  1
  I  I56  1  0.70195333  0.49588148  0.56397165  1
  I  I57  1  0.79804667  0.00411852  0.56397165  1
  I  I58  1  0.20195333  0.50411852  0.93602835  1
  I  I59  1  0.29804667  0.99588148  0.93602835  1
  I  I60  1  0.83076718  0.37728292  0.80364513  1
  I  I61  1  0.66923282  0.12271708  0.80364513  1
  I  I62  1  0.33076718  0.62271708  0.69635487  1
  I  I63  1  0.16923282  0.87728292  0.69635487  1
  I  I64  1  0.16923282  0.62271708  0.19635487  1
  I  I65  1  0.33076718  0.87728292  0.19635487  1
  I  I66  1  0.66923282  0.37728292  0.30364513  1
  I  I67  1  0.83076718  0.12271708  0.30364513  1
  I  I68  1  0.25000000  0.25000000  0.42356574  1
  I  I69  1  0.75000000  0.75000000  0.07643426  1
  I  I70  1  0.75000000  0.75000000  0.57643426  1
  I  I71  1  0.25000000  0.25000000  0.92356574  1
