# generated using pymatgen
data_Mg11Ti25O60
_symmetry_space_group_name_H-M   'P 1'
_cell_length_a   10.51542495
_cell_length_b   11.34068420
_cell_length_c   11.38834670
_cell_angle_alpha   80.45132201
_cell_angle_beta   110.01670288
_cell_angle_gamma   68.92953018
_symmetry_Int_Tables_number   1
_chemical_formula_structural   Mg11Ti25O60
_chemical_formula_sum   'Mg11 Ti25 O60'
_cell_volume   1124.20952332
_cell_formula_units_Z   1
loop_
 _symmetry_equiv_pos_site_id
 _symmetry_equiv_pos_as_xyz
  1  'x, y, z'
loop_
 _atom_site_type_symbol
 _atom_site_label
 _atom_site_symmetry_multiplicity
 _atom_site_fract_x
 _atom_site_fract_y
 _atom_site_fract_z
 _atom_site_occupancy
  Mg  Mg0  1  0.92984636  0.31643775  0.24994303  1
  Mg  Mg1  1  0.92995645  0.64694356  0.25004314  1
  Mg  Mg2  1  0.42882187  0.64808677  0.25020826  1
  Mg  Mg3  1  0.42825539  0.31564826  0.24980273  1
  Mg  Mg4  1  0.42856651  0.98271938  0.24998047  1
  Mg  Mg5  1  0.57120866  0.01746596  0.74928348  1
  Mg  Mg6  1  0.57130919  0.68437131  0.75008395  1
  Mg  Mg7  1  0.57116286  0.35214707  0.74919859  1
  Mg  Mg8  1  0.07121546  0.35134680  0.74969024  1
  Mg  Mg9  1  0.07183823  0.01798440  0.75094113  1
  Mg  Mg10  1  0.07208726  0.68371064  0.75082433  1
  Ti  Ti11  1  0.92731835  0.98255458  0.25006159  1
  Ti  Ti12  1  0.84958642  0.47801946  0.43306782  1
  Ti  Ti13  1  0.66167461  0.27144870  0.06099588  1
  Ti  Ti14  1  0.85156974  0.14502208  0.43905284  1
  Ti  Ti15  1  0.85079744  0.80779715  0.43878267  1
  Ti  Ti16  1  0.66734648  0.59978178  0.06696040  1
  Ti  Ti17  1  0.66194043  0.93374867  0.06120001  1
  Ti  Ti18  1  0.82958355  0.06845724  0.92998133  1
  Ti  Ti19  1  0.83370206  0.40004283  0.93286059  1
  Ti  Ti20  1  0.65008335  0.52140805  0.56687813  1
  Ti  Ti21  1  0.64695412  0.19032106  0.56471936  1
  Ti  Ti22  1  0.83411125  0.73289602  0.93332651  1
  Ti  Ti23  1  0.64765512  0.85708591  0.56675098  1
  Ti  Ti24  1  0.34994712  0.14470212  0.43291908  1
  Ti  Ti25  1  0.35001708  0.47793944  0.43300510  1
  Ti  Ti26  1  0.35408910  0.80927681  0.43408504  1
  Ti  Ti27  1  0.16695479  0.26678655  0.06708893  1
  Ti  Ti28  1  0.16724981  0.59982374  0.06716849  1
  Ti  Ti29  1  0.17005647  0.93198976  0.06619960  1
  Ti  Ti30  1  0.33080436  0.06838316  0.93317201  1
  Ti  Ti31  1  0.15058133  0.18900365  0.56664852  1
  Ti  Ti32  1  0.33469204  0.73176631  0.93489768  1
  Ti  Ti33  1  0.33065577  0.40083446  0.93328371  1
  Ti  Ti34  1  0.14963296  0.85502195  0.57012030  1
  Ti  Ti35  1  0.15064260  0.52174678  0.56679279  1
  O  O36  1  0.84329339  0.51060344  0.24977386  1
  O  O37  1  0.85114744  0.16783059  0.25008893  1
  O  O38  1  0.85108370  0.84810207  0.24998017  1
  O  O39  1  0.72457084  0.08026319  0.06919617  1
  O  O40  1  0.71884300  0.41505136  0.06538523  1
  O  O41  1  0.90345624  0.29203237  0.43453123  1
  O  O42  1  0.90537937  0.95969512  0.43087965  1
  O  O43  1  0.90345164  0.62750237  0.43455012  1
  O  O44  1  0.71888262  0.75061037  0.06543633  1
  O  O45  1  0.85276137  0.44697006  0.61313743  1
  O  O46  1  0.98983218  0.02171041  0.88971601  1
  O  O47  1  0.85320574  0.11302861  0.61360742  1
  O  O48  1  0.98952487  0.35559980  0.88659489  1
  O  O49  1  0.98934743  0.68913773  0.88649763  1
  O  O50  1  0.85310553  0.78048705  0.61343072  1
  O  O51  1  0.64719981  0.55316088  0.38674084  1
  O  O52  1  0.51038749  0.64449919  0.11314773  1
  O  O53  1  0.64783037  0.21963217  0.38669309  1
  O  O54  1  0.51124710  0.31087024  0.11353011  1
  O  O55  1  0.64773695  0.88615537  0.38657334  1
  O  O56  1  0.51113888  0.97721485  0.11340843  1
  O  O57  1  0.59481075  0.04137153  0.56314053  1
  O  O58  1  0.78152352  0.58327027  0.93772692  1
  O  O59  1  0.78165668  0.24952732  0.93710753  1
  O  O60  1  0.78154733  0.91695286  0.93705120  1
  O  O61  1  0.59479856  0.37433095  0.56313532  1
  O  O62  1  0.59163990  0.70932173  0.56105365  1
  O  O63  1  0.65724541  0.15578159  0.75079079  1
  O  O64  1  0.65683530  0.48964170  0.74999012  1
  O  O65  1  0.65669982  0.82259812  0.74947605  1
  O  O66  1  0.34307997  0.17731639  0.25001540  1
  O  O67  1  0.34300244  0.51057142  0.24993996  1
  O  O68  1  0.34182492  0.84447611  0.24995012  1
  O  O69  1  0.40612169  0.29170184  0.43748976  1
  O  O70  1  0.21867550  0.08300161  0.06267629  1
  O  O71  1  0.21820572  0.75042597  0.06322763  1
  O  O72  1  0.40505219  0.62578188  0.43687948  1
  O  O73  1  0.21854037  0.41679090  0.06235263  1
  O  O74  1  0.40592486  0.95832315  0.43725611  1
  O  O75  1  0.35276352  0.11355096  0.61346882  1
  O  O76  1  0.48970117  0.02258407  0.88657195  1
  O  O77  1  0.48936938  0.68913047  0.88648416  1
  O  O78  1  0.35012718  0.78162899  0.61024024  1
  O  O79  1  0.48979395  0.35512842  0.88666749  1
  O  O80  1  0.35275662  0.44681957  0.61349037  1
  O  O81  1  0.14740170  0.21944174  0.38683943  1
  O  O82  1  0.01062908  0.31079913  0.11321036  1
  O  O83  1  0.13938250  0.89029876  0.37935585  1
  O  O84  1  0.01005562  0.97654894  0.12062792  1
  O  O85  1  0.14742881  0.55317250  0.38685846  1
  O  O86  1  0.01052424  0.64457871  0.11310887  1
  O  O87  1  0.28197307  0.24973719  0.93714690  1
  O  O88  1  0.09403932  0.37481598  0.56253856  1
  O  O89  1  0.09422500  0.04115043  0.56271417  1
  O  O90  1  0.28172794  0.58351807  0.93693462  1
  O  O91  1  0.28051395  0.91649905  0.93874656  1
  O  O92  1  0.09444434  0.70837553  0.56287479  1
  O  O93  1  0.15726306  0.15552891  0.75055196  1
  O  O94  1  0.15614203  0.82339502  0.74901115  1
  O  O95  1  0.15721203  0.48923082  0.75037380  1
