# generated using pymatgen
data_Cu9P4(HO10)2
_symmetry_space_group_name_H-M   'P 1'
_cell_length_a   8.23529737
_cell_length_b   8.93248819
_cell_length_c   5.95585848
_cell_angle_alpha   102.09793714
_cell_angle_beta   94.31491440
_cell_angle_gamma   113.33603182
_symmetry_Int_Tables_number   1
_chemical_formula_structural   Cu9P4(HO10)2
_chemical_formula_sum   'Cu9 P4 H2 O20'
_cell_volume   387.18971840
_cell_formula_units_Z   1
loop_
 _symmetry_equiv_pos_site_id
 _symmetry_equiv_pos_as_xyz
  1  'x, y, z'
loop_
 _atom_site_type_symbol
 _atom_site_label
 _atom_site_symmetry_multiplicity
 _atom_site_fract_x
 _atom_site_fract_y
 _atom_site_fract_z
 _atom_site_occupancy
  Cu  Cu0  1  0.00000000  0.00000000  0.00000000  1
  Cu  Cu1  1  0.60234239  0.94454235  0.81868602  1
  Cu  Cu2  1  0.39765761  0.05545765  0.18131398  1
  Cu  Cu3  1  0.67961568  0.64373160  0.97363883  1
  Cu  Cu4  1  0.32038432  0.35626840  0.02636117  1
  Cu  Cu5  1  0.81937879  0.70848680  0.56427900  1
  Cu  Cu6  1  0.18062121  0.29151320  0.43572100  1
  Cu  Cu7  1  0.77984931  0.31780662  0.68152720  1
  Cu  Cu8  1  0.22015069  0.68219338  0.31847280  1
  P  P9  1  0.24761430  0.59299464  0.79929606  1
  P  P10  1  0.75238570  0.40700536  0.20070394  1
  P  P11  1  0.27149042  0.03041153  0.66316079  1
  P  P12  1  0.72850958  0.96958847  0.33683921  1
  H  H13  1  0.95541805  0.61593451  0.86332261  1
  H  H14  1  0.04458195  0.38406549  0.13667739  1
  O  O15  1  0.82862070  0.56151954  0.77229412  1
  O  O16  1  0.17137930  0.43848046  0.22770588  1
  O  O17  1  0.76152219  0.83372986  0.83532655  1
  O  O18  1  0.23847781  0.16627014  0.16467345  1
  O  O19  1  0.43239245  0.05457380  0.84636136  1
  O  O20  1  0.56760755  0.94542620  0.15363864  1
  O  O21  1  0.32880880  0.70511153  0.63377022  1
  O  O22  1  0.67119120  0.29488847  0.36622978  1
  O  O23  1  0.09006894  0.92435544  0.72867596  1
  O  O24  1  0.90993106  0.07564456  0.27132404  1
  O  O25  1  0.28749742  0.20985037  0.66616925  1
  O  O26  1  0.71250258  0.79014963  0.33383075  1
  O  O27  1  0.09511315  0.41799409  0.66722187  1
  O  O28  1  0.90488685  0.58200591  0.33277813  1
  O  O29  1  0.71956421  0.06337409  0.58443161  1
  O  O30  1  0.28043579  0.93662591  0.41556839  1
  O  O31  1  0.40223689  0.56013279  0.91352088  1
  O  O32  1  0.59776311  0.43986721  0.08647912  1
  O  O33  1  0.17104022  0.68166744  0.98830986  1
  O  O34  1  0.82895978  0.31833256  0.01169014  1
