# generated using pymatgen
data_Ba3(RhO2)14
_symmetry_space_group_name_H-M   'P 1'
_cell_length_a   10.09985018
_cell_length_b   10.77538739
_cell_length_c   10.99471694
_cell_angle_alpha   106.48924038
_cell_angle_beta   98.29345447
_cell_angle_gamma   77.21413532
_symmetry_Int_Tables_number   1
_chemical_formula_structural   Ba3(RhO2)14
_chemical_formula_sum   'Ba6 Rh28 O56'
_cell_volume   1114.64243801
_cell_formula_units_Z   2
loop_
 _symmetry_equiv_pos_site_id
 _symmetry_equiv_pos_as_xyz
  1  'x, y, z'
loop_
 _atom_site_type_symbol
 _atom_site_label
 _atom_site_symmetry_multiplicity
 _atom_site_fract_x
 _atom_site_fract_y
 _atom_site_fract_z
 _atom_site_occupancy
  Ba  Ba0  1  0.50516193  0.98966654  0.49645769  1
  Ba  Ba1  1  0.35198007  0.29604746  0.64639931  1
  Ba  Ba2  1  0.02959981  0.94098450  0.97073438  1
  Ba  Ba3  1  0.19752522  0.60683674  0.80307247  1
  Ba  Ba4  1  0.65961778  0.67887726  0.33978453  1
  Ba  Ba5  1  0.82754319  0.34472950  0.17212262  1
  Rh  Rh6  1  0.09543549  0.15240006  0.71649176  1
  Rh  Rh7  1  0.11163126  0.09028271  0.38569161  1
  Rh  Rh8  1  0.19125038  0.27754363  0.99795346  1
  Rh  Rh9  1  0.31932419  0.05278387  0.18951160  1
  Rh  Rh10  1  0.03326973  0.62240708  0.47424448  1
  Rh  Rh11  1  0.17709069  0.33708720  0.33221015  1
  Rh  Rh12  1  0.04822191  0.56351979  0.14056906  1
  Rh  Rh13  1  0.53781881  0.23293013  0.95334540  1
  Rh  Rh14  1  0.52389419  0.29387019  0.28866781  1
  Rh  Rh15  1  0.23852073  0.86596503  0.57445853  1
  Rh  Rh16  1  0.38158548  0.57986486  0.43195749  1
  Rh  Rh17  1  0.66589262  0.00817037  0.14490354  1
  Rh  Rh18  1  0.39703565  0.51885574  0.09732145  1
  Rh  Rh19  1  0.25494560  0.80437859  0.24201055  1
  Rh  Rh20  1  0.74551174  0.19543229  0.75716539  1
  Rh  Rh21  1  0.60219640  0.48133541  0.90084645  1
  Rh  Rh22  1  0.61862227  0.41974897  0.56839847  1
  Rh  Rh23  1  0.33324881  0.99184381  0.85418919  1
  Rh  Rh24  1  0.76170751  0.13331494  0.42636524  1
  Rh  Rh25  1  0.47555752  0.70584914  0.71089951  1
  Rh  Rh26  1  0.46010735  0.76685826  0.04553555  1
  Rh  Rh27  1  0.95224330  0.43741850  0.85831361  1
  Rh  Rh28  1  0.82387327  0.66330692  0.66861252  1
  Rh  Rh29  1  0.96813750  0.37709774  0.52725327  1
  Rh  Rh30  1  0.68005231  0.94862680  0.81064685  1
  Rh  Rh31  1  0.80892109  0.72219521  0.00228794  1
  Rh  Rh32  1  0.88900550  0.90861626  0.61560373  1
  Rh  Rh33  1  0.90489970  0.84829550  0.28454339  1
  O  O34  1  0.13987069  0.10211065  0.88725149  1
  O  O35  1  0.01043942  0.26393167  0.34573773  1
  O  O36  1  0.09525537  0.21401289  0.56265564  1
  O  O37  1  0.14927458  0.33091965  0.82425682  1
  O  O38  1  0.29226187  0.04513746  0.68078896  1
  O  O39  1  0.00458058  0.61539288  0.96792231  1
  O  O40  1  0.19152356  0.21556608  0.15345669  1
  O  O41  1  0.04757722  0.49892746  0.29493771  1
  O  O42  1  0.28285410  0.16206354  0.37687439  1
  O  O43  1  0.13928259  0.44875980  0.51955934  1
  O  O44  1  0.37263776  0.16797254  0.95211262  1
  O  O45  1  0.23022066  0.45493802  0.09367685  1
  O  O46  1  0.08719471  0.74051272  0.23741383  1
  O  O47  1  0.05621642  0.97442684  0.62064750  1
  O  O48  1  0.34258674  0.40316176  0.33608501  1
  O  O49  1  0.48450524  0.11774146  0.19074438  1
  O  O50  1  0.19976073  0.68848422  0.47912680  1
  O  O51  1  0.57428890  0.12365046  0.76598261  1
  O  O52  1  0.43180705  0.40932647  0.91041471  1
  O  O53  1  0.66561944  0.07014892  0.98940031  1
  O  O54  1  0.42177556  0.52714659  0.60474298  1
  O  O55  1  0.56488113  0.24057654  0.46206804  1
  O  O56  1  0.28005738  0.81429862  0.74644699  1
  O  O57  1  0.29108831  0.69482700  0.05646504  1
  O  O58  1  0.15326615  0.98020280  0.20474763  1
  O  O59  1  0.52604065  0.35546277  0.13295679  1
  O  O60  1  0.38244533  0.64059439  0.27627056  1
  O  O61  1  0.23932168  0.92704290  0.42005939  1
  O  O62  1  0.61782132  0.35867110  0.72279861  1
  O  O63  1  0.47469667  0.64511961  0.86658644  1
  O  O64  1  0.76188763  0.07170111  0.58020136  1
  O  O65  1  0.70387685  0.30551220  0.93811037  1
  O  O66  1  0.84670258  0.02178233  0.79711927  1
  O  O67  1  0.57708562  0.47141538  0.39641001  1
  O  O68  1  0.71727231  0.18360335  0.25560551  1
  O  O69  1  0.43536744  0.75856741  0.53811402  1
  O  O70  1  0.33110235  0.93025223  0.00990021  1
  O  O71  1  0.42533595  0.87638853  0.23244229  1
  O  O72  1  0.56605469  0.59088700  0.08639196  1
  O  O73  1  0.94380683  0.02578298  0.37953055  1
  O  O74  1  0.65738227  0.59723078  0.66373120  1
  O  O75  1  0.80092658  0.31128816  0.52220950  1
  O  O76  1  0.51455626  0.88255224  0.80677199  1
  O  O77  1  0.76994829  0.54520128  0.90544317  1
  O  O78  1  0.91333617  0.25993102  0.76332645  1
  O  O79  1  0.62692234  0.83077698  0.04918115  1
  O  O80  1  0.86331002  0.55057847  0.48327384  1
  O  O81  1  0.71785941  0.83695420  0.62329766  1
  O  O82  1  0.95165825  0.50110253  0.70487770  1
  O  O83  1  0.80956478  0.78678654  0.84791929  1
  O  O84  1  0.99826209  0.38703452  0.02896516  1
  O  O85  1  0.70786842  0.95479535  0.31860118  1
  O  O86  1  0.85256242  0.67032212  0.17493569  1
  O  O87  1  0.90548475  0.78461247  0.43797930  1
  O  O88  1  0.99383298  0.73513553  0.65958416  1
  O  O89  1  0.85888091  0.89867948  0.11389184  1
