# generated using pymatgen
data_NiP2H2O7
_symmetry_space_group_name_H-M   'P 1'
_cell_length_a   8.89080679
_cell_length_b   13.02309454
_cell_length_c   9.67812381
_cell_angle_alpha   90.00000000
_cell_angle_beta   106.40243224
_cell_angle_gamma   90.00000000
_symmetry_Int_Tables_number   1
_chemical_formula_structural   NiP2H2O7
_chemical_formula_sum   'Ni8 P16 H16 O56'
_cell_volume   1074.98371134
_cell_formula_units_Z   8
loop_
 _symmetry_equiv_pos_site_id
 _symmetry_equiv_pos_as_xyz
  1  'x, y, z'
loop_
 _atom_site_type_symbol
 _atom_site_label
 _atom_site_symmetry_multiplicity
 _atom_site_fract_x
 _atom_site_fract_y
 _atom_site_fract_z
 _atom_site_occupancy
  Ni  Ni0  1  0.74737859  0.25506235  0.75057819  1
  Ni  Ni1  1  0.25262141  0.75506235  0.74942181  1
  Ni  Ni2  1  0.25262141  0.74493765  0.24942181  1
  Ni  Ni3  1  0.74737859  0.24493765  0.25057819  1
  Ni  Ni4  1  0.74849090  0.40976410  0.00328258  1
  Ni  Ni5  1  0.25150910  0.90976410  0.49671742  1
  Ni  Ni6  1  0.25150910  0.59023590  0.99671742  1
  Ni  Ni7  1  0.74849090  0.09023590  0.50328258  1
  P  P8  1  0.52536436  0.05189657  0.71547989  1
  P  P9  1  0.47463564  0.55189657  0.78452011  1
  P  P10  1  0.47463564  0.94810343  0.28452011  1
  P  P11  1  0.52536436  0.44810343  0.21547989  1
  P  P12  1  0.99225014  0.29295679  0.56704588  1
  P  P13  1  0.00774986  0.79295679  0.93295412  1
  P  P14  1  0.00774986  0.70704321  0.43295412  1
  P  P15  1  0.99225014  0.20704321  0.06704588  1
  P  P16  1  0.04061076  0.53888454  0.22066866  1
  P  P17  1  0.95938924  0.03888454  0.27933134  1
  P  P18  1  0.95938924  0.46111546  0.77933134  1
  P  P19  1  0.04061076  0.96111546  0.72066866  1
  P  P20  1  0.49899196  0.21488169  0.93310543  1
  P  P21  1  0.50100804  0.71488169  0.56689457  1
  P  P22  1  0.50100804  0.78511831  0.06689457  1
  P  P23  1  0.49899196  0.28511831  0.43310543  1
  H  H24  1  0.04384562  0.39302036  0.33506248  1
  H  H25  1  0.95615438  0.89302036  0.16493752  1
  H  H26  1  0.95615438  0.60697964  0.66493752  1
  H  H27  1  0.04384562  0.10697964  0.83506248  1
  H  H28  1  0.52604985  0.91190913  0.84444475  1
  H  H29  1  0.47395015  0.41190913  0.65555525  1
  H  H30  1  0.47395015  0.08809087  0.15555525  1
  H  H31  1  0.52604985  0.58809087  0.34444475  1
  H  H32  1  0.22079402  0.25405863  0.71810453  1
  H  H33  1  0.77920598  0.75405863  0.78189547  1
  H  H34  1  0.77920598  0.74594137  0.28189547  1
  H  H35  1  0.22079402  0.24594137  0.21810453  1
  H  H36  1  0.28008283  0.25997681  0.99051387  1
  H  H37  1  0.71991717  0.75997681  0.50948613  1
  H  H38  1  0.71991717  0.74002319  0.00948613  1
  H  H39  1  0.28008283  0.24002319  0.49051387  1
  O  O40  1  0.16628249  0.60291907  0.17950031  1
  O  O41  1  0.83371751  0.10291907  0.32049969  1
  O  O42  1  0.83371751  0.39708093  0.82049969  1
  O  O43  1  0.16628249  0.89708093  0.67950031  1
  O  O44  1  0.65797801  0.11327448  0.68110626  1
  O  O45  1  0.34202199  0.61327448  0.81889374  1
  O  O46  1  0.34202199  0.88672552  0.31889374  1
  O  O47  1  0.65797801  0.38672552  0.18110626  1
  O  O48  1  0.60479154  0.29030054  0.88305307  1
  O  O49  1  0.39520846  0.79030054  0.61694693  1
  O  O50  1  0.39520846  0.70969946  0.11694693  1
  O  O51  1  0.60479154  0.20969946  0.38305307  1
  O  O52  1  0.89347364  0.52154682  0.10238525  1
  O  O53  1  0.10652636  0.02154682  0.39761475  1
  O  O54  1  0.10652636  0.47845318  0.89761475  1
  O  O55  1  0.89347364  0.97845318  0.60238525  1
  O  O56  1  0.56659994  0.17385081  0.08499301  1
  O  O57  1  0.43340006  0.67385081  0.41500699  1
  O  O58  1  0.43340006  0.82614919  0.91500699  1
  O  O59  1  0.56659994  0.32614919  0.58499301  1
  O  O60  1  0.94521864  0.31171734  0.40620871  1
  O  O61  1  0.05478136  0.81171734  0.09379129  1
  O  O62  1  0.05478136  0.68828266  0.59379129  1
  O  O63  1  0.94521864  0.18828266  0.90620871  1
  O  O64  1  0.60147176  0.96020929  0.81600390  1
  O  O65  1  0.39852824  0.46020929  0.68399610  1
  O  O66  1  0.39852824  0.03979071  0.18399610  1
  O  O67  1  0.60147176  0.53979071  0.31600390  1
  O  O68  1  0.45321149  0.12529737  0.81739464  1
  O  O69  1  0.54678851  0.62529737  0.68260536  1
  O  O70  1  0.54678851  0.87470263  0.18260536  1
  O  O71  1  0.45321149  0.37470263  0.31739464  1
  O  O72  1  0.39102311  0.02577412  0.58875478  1
  O  O73  1  0.60897689  0.52577412  0.91124522  1
  O  O74  1  0.60897689  0.97422588  0.41124522  1
  O  O75  1  0.39102311  0.47422588  0.08875478  1
  O  O76  1  0.88444656  0.21930873  0.61670498  1
  O  O77  1  0.11555344  0.71930873  0.88329502  1
  O  O78  1  0.11555344  0.78069127  0.38329502  1
  O  O79  1  0.88444656  0.28069127  0.11670498  1
  O  O80  1  0.32993345  0.26440097  0.90984302  1
  O  O81  1  0.67006655  0.76440097  0.59015698  1
  O  O82  1  0.67006655  0.73559903  0.09015698  1
  O  O83  1  0.32993345  0.23559903  0.40984302  1
  O  O84  1  0.11822790  0.43940960  0.30139063  1
  O  O85  1  0.88177210  0.93940960  0.19860937  1
  O  O86  1  0.88177210  0.56059040  0.69860937  1
  O  O87  1  0.11822790  0.06059040  0.80139063  1
  O  O88  1  0.99535306  0.60152196  0.34935742  1
  O  O89  1  0.00464694  0.10152196  0.15064258  1
  O  O90  1  0.00464694  0.39847804  0.65064258  1
  O  O91  1  0.99535306  0.89847804  0.84935742  1
  O  O92  1  0.16999185  0.25351854  0.61190632  1
  O  O93  1  0.83000815  0.75351854  0.88809368  1
  O  O94  1  0.83000815  0.74648146  0.38809368  1
  O  O95  1  0.16999185  0.24648146  0.11190632  1
