# generated using pymatgen
data_HgF
_symmetry_space_group_name_H-M   'P 1'
_cell_length_a   3.84154763
_cell_length_b   3.84154763
_cell_length_c   6.14232156
_cell_angle_alpha   108.22270666
_cell_angle_beta   108.22270676
_cell_angle_gamma   89.99999996
_symmetry_Int_Tables_number   1
_chemical_formula_structural   HgF
_chemical_formula_sum   'Hg2 F2'
_cell_volume   81.29938948
_cell_formula_units_Z   2
loop_
 _symmetry_equiv_pos_site_id
 _symmetry_equiv_pos_as_xyz
  1  'x, y, z'
loop_
 _atom_site_type_symbol
 _atom_site_label
 _atom_site_symmetry_multiplicity
 _atom_site_fract_x
 _atom_site_fract_y
 _atom_site_fract_z
 _atom_site_occupancy
  F  F0  1  0.68606043  0.68606043  0.37212086  1
  F  F1  1  0.31393957  0.31393957  0.62787914  1
  Hg  Hg2  1  0.88294921  0.88294921  0.76589842  1
  Hg  Hg3  1  0.11705079  0.11705079  0.23410158  1
