# generated using pymatgen
data_SrPSe3
_symmetry_space_group_name_H-M   'P 1'
_cell_length_a   7.13022560
_cell_length_b   7.91294961
_cell_length_c   9.90955568
_cell_angle_alpha   90.00000000
_cell_angle_beta   91.83181820
_cell_angle_gamma   90.00000000
_symmetry_Int_Tables_number   1
_chemical_formula_structural   SrPSe3
_chemical_formula_sum   'Sr4 P4 Se12'
_cell_volume   558.82246451
_cell_formula_units_Z   4
loop_
 _symmetry_equiv_pos_site_id
 _symmetry_equiv_pos_as_xyz
  1  'x, y, z'
loop_
 _atom_site_type_symbol
 _atom_site_label
 _atom_site_symmetry_multiplicity
 _atom_site_fract_x
 _atom_site_fract_y
 _atom_site_fract_z
 _atom_site_occupancy
  P  P0  1  0.05825879  0.89426436  0.43635227  1
  P  P1  1  0.44174121  0.39426436  0.06364773  1
  P  P2  1  0.94174121  0.10573564  0.56364773  1
  P  P3  1  0.55825879  0.60573564  0.93635227  1
  Se  Se4  1  0.60195979  0.49865006  0.73455244  1
  Se  Se5  1  0.89804021  0.99865006  0.76544756  1
  Se  Se6  1  0.39804021  0.50134994  0.26544756  1
  Se  Se7  1  0.10195979  0.00134994  0.23455244  1
  Se  Se8  1  0.81707245  0.69954165  0.04138220  1
  Se  Se9  1  0.68292755  0.19954165  0.45861780  1
  Se  Se10  1  0.18292755  0.30045835  0.95861780  1
  Se  Se11  1  0.31707245  0.80045835  0.54138220  1
  Se  Se12  1  0.33844143  0.80208934  0.94463189  1
  Se  Se13  1  0.16155857  0.30208934  0.55536811  1
  Se  Se14  1  0.66155857  0.19791066  0.05536811  1
  Se  Se15  1  0.83844143  0.69791066  0.44463189  1
  Sr  Sr16  1  0.53503247  0.89038761  0.25114719  1
  Sr  Sr17  1  0.96496753  0.39038761  0.24885281  1
  Sr  Sr18  1  0.46496753  0.10961239  0.74885281  1
  Sr  Sr19  1  0.03503247  0.60961239  0.75114719  1
