# generated using pymatgen
data_HgPSe3
_symmetry_space_group_name_H-M   'P 1'
_cell_length_a   6.70013225
_cell_length_b   6.72067987
_cell_length_c   15.19005212
_cell_angle_alpha   86.06077917
_cell_angle_beta   82.07840849
_cell_angle_gamma   60.10108556
_symmetry_Int_Tables_number   1
_chemical_formula_structural   HgPSe3
_chemical_formula_sum   'Hg4 P4 Se12'
_cell_volume   587.30519365
_cell_formula_units_Z   4
loop_
 _symmetry_equiv_pos_site_id
 _symmetry_equiv_pos_as_xyz
  1  'x, y, z'
loop_
 _atom_site_type_symbol
 _atom_site_label
 _atom_site_symmetry_multiplicity
 _atom_site_fract_x
 _atom_site_fract_y
 _atom_site_fract_z
 _atom_site_occupancy
  P  P0  1  0.52503197  0.53637469  0.92419673  1
  P  P1  1  0.93859334  0.53637469  0.57580327  1
  P  P2  1  0.47496803  0.46362531  0.07580327  1
  P  P3  1  0.06140666  0.46362531  0.42419673  1
  Se  Se4  1  0.42683985  0.39437766  0.39846332  1
  Se  Se5  1  0.17878249  0.39437766  0.10153668  1
  Se  Se6  1  0.57316015  0.60562234  0.60153668  1
  Se  Se7  1  0.82121751  0.60562234  0.89846332  1
  Se  Se8  1  0.04043936  0.15998813  0.38866665  1
  Se  Se9  1  0.79957251  0.15998813  0.11133335  1
  Se  Se10  1  0.95956064  0.84001187  0.61133335  1
  Se  Se11  1  0.20042749  0.84001187  0.88866665  1
  Se  Se12  1  0.40291309  0.76918019  0.14705375  1
  Se  Se13  1  0.82790672  0.76918019  0.35294625  1
  Se  Se14  1  0.59708691  0.23081981  0.85294625  1
  Se  Se15  1  0.17209328  0.23081981  0.64705375  1
  Hg  Hg16  1  0.57682105  0.19532541  0.56267706  1
  Hg  Hg17  1  0.22785353  0.19532541  0.93732294  1
  Hg  Hg18  1  0.42317895  0.80467459  0.43732294  1
  Hg  Hg19  1  0.77214647  0.80467459  0.06267706  1
