# generated using pymatgen
data_Na9Sr2Nd9Ti20O60
_symmetry_space_group_name_H-M   'P 1'
_cell_length_a   5.48681114
_cell_length_b   5.52238390
_cell_length_c   38.78831227
_cell_angle_alpha   90.00000000
_cell_angle_beta   90.00000000
_cell_angle_gamma   90.02217431
_symmetry_Int_Tables_number   1
_chemical_formula_structural   Na9Sr2Nd9Ti20O60
_chemical_formula_sum   'Na9 Sr2 Nd9 Ti20 O60'
_cell_volume   1175.29653899
_cell_formula_units_Z   1
loop_
 _symmetry_equiv_pos_site_id
 _symmetry_equiv_pos_as_xyz
  1  'x, y, z'
loop_
 _atom_site_type_symbol
 _atom_site_label
 _atom_site_symmetry_multiplicity
 _atom_site_fract_x
 _atom_site_fract_y
 _atom_site_fract_z
 _atom_site_occupancy
  Na  Na0  1  0.51029058  0.97773174  0.15000000  1
  Na  Na1  1  0.49588774  0.99542278  0.65000000  1
  Na  Na2  1  0.49081921  0.99204627  0.44984046  1
  Na  Na3  1  0.49081921  0.99204627  0.85015954  1
  Na  Na4  1  0.01124040  0.51894803  0.25047623  1
  Na  Na5  1  0.01124040  0.51894803  0.04952377  1
  Na  Na6  1  0.00317529  0.49526964  0.65000000  1
  Na  Na7  1  0.00349708  0.48816182  0.44939268  1
  Na  Na8  1  0.00349708  0.48816182  0.85060732  1
  Sr  Sr9  1  0.50410057  0.98527037  0.35189351  1
  Sr  Sr10  1  0.50410057  0.98527037  0.94810649  1
  Nd  Nd11  1  0.99236422  0.46169946  0.15000000  1
  Nd  Nd12  1  0.99545257  0.47216624  0.35222931  1
  Nd  Nd13  1  0.99296144  0.46504649  0.55033690  1
  Nd  Nd14  1  0.99296144  0.46504649  0.74966310  1
  Nd  Nd15  1  0.99545257  0.47216624  0.94777069  1
  Nd  Nd16  1  0.50356195  0.96507060  0.55039456  1
  Nd  Nd17  1  0.50356195  0.96507060  0.74960544  1
  Nd  Nd18  1  0.49326010  0.03996779  0.05103477  1
  Nd  Nd19  1  0.49326010  0.03996779  0.24896523  1
  Ti  Ti20  1  0.00567624  0.99900413  0.00032232  1
  Ti  Ti21  1  0.00838694  0.99557991  0.09991634  1
  Ti  Ti22  1  0.00838694  0.99557991  0.20008366  1
  Ti  Ti23  1  0.00567624  0.99900413  0.29967768  1
  Ti  Ti24  1  0.00084497  0.98396401  0.40332255  1
  Ti  Ti25  1  0.00338006  0.98375847  0.49824356  1
  Ti  Ti26  1  0.00443723  0.98504725  0.60253350  1
  Ti  Ti27  1  0.00443723  0.98504725  0.69746650  1
  Ti  Ti28  1  0.00338006  0.98375847  0.80175644  1
  Ti  Ti29  1  0.00084497  0.98396401  0.89667745  1
  Ti  Ti30  1  0.50849899  0.50554243  0.10038871  1
  Ti  Ti31  1  0.50616117  0.50530163  0.29970487  1
  Ti  Ti32  1  0.50616117  0.50530163  0.00029513  1
  Ti  Ti33  1  0.49193271  0.48420326  0.49842449  1
  Ti  Ti34  1  0.49905708  0.48781462  0.89642949  1
  Ti  Ti35  1  0.50849899  0.50554243  0.19961129  1
  Ti  Ti36  1  0.49363853  0.48494692  0.69743624  1
  Ti  Ti37  1  0.49363853  0.48494692  0.60256376  1
  Ti  Ti38  1  0.49905708  0.48781462  0.40357051  1
  Ti  Ti39  1  0.49193271  0.48420326  0.80157551  1
  O  O40  1  0.06573775  0.01672225  0.15000000  1
  O  O41  1  0.05393875  0.01962545  0.34905805  1
  O  O42  1  0.07168382  0.02307837  0.55040048  1
  O  O43  1  0.07168382  0.02307837  0.74959952  1
  O  O44  1  0.05393875  0.01962545  0.95094195  1
  O  O45  1  0.22331340  0.27366371  0.09279840  1
  O  O46  1  0.23428894  0.27111714  0.29209921  1
  O  O47  1  0.23428894  0.27111714  0.00790079  1
  O  O48  1  0.21668225  0.28909424  0.49570681  1
  O  O49  1  0.21844312  0.28834025  0.69498305  1
  O  O50  1  0.22331340  0.27366371  0.20720160  1
  O  O51  1  0.23629665  0.26858396  0.40468364  1
  O  O52  1  0.23629665  0.26858396  0.89531636  1
  O  O53  1  0.21844312  0.28834025  0.60501695  1
  O  O54  1  0.21668225  0.28909424  0.80429319  1
  O  O55  1  0.28682243  0.78821577  0.00795713  1
  O  O56  1  0.27731672  0.78314444  0.09155156  1
  O  O57  1  0.27731672  0.78314444  0.20844844  1
  O  O58  1  0.28682243  0.78821577  0.29204287  1
  O  O59  1  0.26342023  0.76694578  0.40485780  1
  O  O60  1  0.27903866  0.78829897  0.60496966  1
  O  O61  1  0.27893830  0.78929923  0.49595422  1
  O  O62  1  0.27903866  0.78829897  0.69503034  1
  O  O63  1  0.27893830  0.78929923  0.80404578  1
  O  O64  1  0.26342023  0.76694578  0.89514220  1
  O  O65  1  0.42642258  0.50612708  0.34873827  1
  O  O66  1  0.41583372  0.51611103  0.15000000  1
  O  O67  1  0.42462965  0.52209874  0.55037771  1
  O  O68  1  0.42462965  0.52209874  0.74962229  1
  O  O69  1  0.42642258  0.50612708  0.95126173  1
  O  O70  1  0.56685049  0.48892677  0.05057788  1
  O  O71  1  0.56685049  0.48892677  0.24942212  1
  O  O72  1  0.56923546  0.49741716  0.65000000  1
  O  O73  1  0.56604753  0.50026410  0.45091178  1
  O  O74  1  0.56604753  0.50026410  0.84908822  1
  O  O75  1  0.72241782  0.22902147  0.10752067  1
  O  O76  1  0.73174936  0.23313247  0.30620733  1
  O  O77  1  0.72241782  0.22902147  0.19247933  1
  O  O78  1  0.74386783  0.24892358  0.39265294  1
  O  O79  1  0.72292790  0.23481139  0.59039907  1
  O  O80  1  0.72186329  0.23442834  0.51040641  1
  O  O81  1  0.72292790  0.23481139  0.70960093  1
  O  O82  1  0.74386783  0.24892358  0.90734706  1
  O  O83  1  0.72186329  0.23442834  0.78959359  1
  O  O84  1  0.73174936  0.23313247  0.99379267  1
  O  O85  1  0.77784659  0.72014529  0.10877650  1
  O  O86  1  0.77784659  0.72014529  0.19122350  1
  O  O87  1  0.78180994  0.72326670  0.30839148  1
  O  O88  1  0.77059621  0.73393531  0.39162945  1
  O  O89  1  0.77379257  0.73470569  0.51058031  1
  O  O90  1  0.77403072  0.73476948  0.59036402  1
  O  O91  1  0.77403072  0.73476948  0.70963598  1
  O  O92  1  0.77379257  0.73470569  0.78941969  1
  O  O93  1  0.77059621  0.73393531  0.90837055  1
  O  O94  1  0.78180994  0.72326670  0.99160852  1
  O  O95  1  0.91870537  0.98921180  0.05032455  1
  O  O96  1  0.91870537  0.98921180  0.24967545  1
  O  O97  1  0.92871418  0.99626326  0.45073387  1
  O  O98  1  0.92875011  0.99706586  0.65000000  1
  O  O99  1  0.92871418  0.99626326  0.84926613  1
