# generated using pymatgen
data_Na3H7Ru
_symmetry_space_group_name_H-M   'P 1'
_cell_length_a   9.55158666
_cell_length_b   9.55158666
_cell_length_c   5.31828166
_cell_angle_alpha   90.00000000
_cell_angle_beta   90.00000000
_cell_angle_gamma   90.00000000
_symmetry_Int_Tables_number   1
_chemical_formula_structural   Na3H7Ru
_chemical_formula_sum   'Na12 H28 Ru4'
_cell_volume   485.20176811
_cell_formula_units_Z   4
loop_
 _symmetry_equiv_pos_site_id
 _symmetry_equiv_pos_as_xyz
  1  'x, y, z'
loop_
 _atom_site_type_symbol
 _atom_site_label
 _atom_site_symmetry_multiplicity
 _atom_site_fract_x
 _atom_site_fract_y
 _atom_site_fract_z
 _atom_site_occupancy
  Na  Na0  1  0.96471019  0.69940748  0.50000000  1
  Na  Na1  1  0.03528981  0.30059252  0.50000000  1
  Na  Na2  1  0.53528981  0.19940748  0.00000000  1
  Na  Na3  1  0.46471019  0.80059252  0.00000000  1
  Na  Na4  1  0.69940748  0.96471019  0.50000000  1
  Na  Na5  1  0.30059252  0.03528981  0.50000000  1
  Na  Na6  1  0.19940748  0.53528981  0.00000000  1
  Na  Na7  1  0.80059252  0.46471019  0.00000000  1
  Na  Na8  1  0.38665996  0.38665996  0.50000000  1
  Na  Na9  1  0.61334004  0.61334004  0.50000000  1
  Na  Na10  1  0.11334004  0.88665996  0.00000000  1
  Na  Na11  1  0.88665996  0.11334004  0.00000000  1
  H  H12  1  0.39459697  0.60540303  0.69877614  1
  H  H13  1  0.60540303  0.39459697  0.69877614  1
  H  H14  1  0.10540303  0.10540303  0.19877614  1
  H  H15  1  0.89459697  0.89459697  0.19877614  1
  H  H16  1  0.60540303  0.39459697  0.30122386  1
  H  H17  1  0.39459697  0.60540303  0.30122386  1
  H  H18  1  0.89459697  0.89459697  0.80122386  1
  H  H19  1  0.10540303  0.10540303  0.80122386  1
  H  H20  1  0.25419834  0.74580166  0.21131131  1
  H  H21  1  0.74580166  0.25419834  0.21131131  1
  H  H22  1  0.24580166  0.24580166  0.71131131  1
  H  H23  1  0.75419834  0.75419834  0.71131131  1
  H  H24  1  0.74580166  0.25419834  0.78868869  1
  H  H25  1  0.25419834  0.74580166  0.78868869  1
  H  H26  1  0.75419834  0.75419834  0.28868869  1
  H  H27  1  0.24580166  0.24580166  0.28868869  1
  H  H28  1  0.17647555  0.56762330  0.50000000  1
  H  H29  1  0.82352445  0.43237670  0.50000000  1
  H  H30  1  0.32352445  0.06762330  0.00000000  1
  H  H31  1  0.67647555  0.93237670  0.00000000  1
  H  H32  1  0.56762330  0.17647555  0.50000000  1
  H  H33  1  0.43237670  0.82352445  0.50000000  1
  H  H34  1  0.06762330  0.32352445  0.00000000  1
  H  H35  1  0.93237670  0.67647555  0.00000000  1
  H  H36  1  0.17528295  0.82471705  0.50000000  1
  H  H37  1  0.82471705  0.17528295  0.50000000  1
  H  H38  1  0.32471705  0.32471705  0.00000000  1
  H  H39  1  0.67528295  0.67528295  0.00000000  1
  Ru  Ru40  1  0.29749562  0.70250438  0.50000000  1
  Ru  Ru41  1  0.70250438  0.29749562  0.50000000  1
  Ru  Ru42  1  0.20250438  0.20250438  0.00000000  1
  Ru  Ru43  1  0.79749562  0.79749562  0.00000000  1
