# generated using pymatgen
data_Li4Mn5O12
_symmetry_space_group_name_H-M   'P 1'
_cell_length_a   5.83926663
_cell_length_b   17.49208051
_cell_length_c   15.45112694
_cell_angle_alpha   19.14316712
_cell_angle_beta   55.27606886
_cell_angle_gamma   59.86816035
_symmetry_Int_Tables_number   1
_chemical_formula_structural   Li4Mn5O12
_chemical_formula_sum   'Li8 Mn10 O24'
_cell_volume   421.52660082
_cell_formula_units_Z   2
loop_
 _symmetry_equiv_pos_site_id
 _symmetry_equiv_pos_as_xyz
  1  'x, y, z'
loop_
 _atom_site_type_symbol
 _atom_site_label
 _atom_site_symmetry_multiplicity
 _atom_site_fract_x
 _atom_site_fract_y
 _atom_site_fract_z
 _atom_site_occupancy
  Li  Li0  1  0.99963999  0.00118943  0.00224706  1
  Li  Li1  1  0.24328926  0.24393653  0.25895564  1
  Li  Li2  1  0.24397350  0.57905941  0.25462967  1
  Li  Li3  1  0.00677008  0.33965270  0.99322193  1
  Li  Li4  1  0.62497990  0.45948163  0.12333836  1
  Li  Li5  1  0.25062757  0.91900915  0.24450718  1
  Li  Li6  1  0.00679296  0.67647107  0.98630198  1
  Li  Li7  1  0.62271629  0.45660069  0.62763455  1
  Mn  Mn8  1  0.62696315  0.12717169  0.12086538  1
  Mn  Mn9  1  0.13174800  0.13012513  0.61666510  1
  Mn  Mn10  1  0.62571721  0.12926909  0.61827021  1
  Mn  Mn11  1  0.12370328  0.45888217  0.62492213  1
  Mn  Mn12  1  0.62101980  0.29426641  0.62562854  1
  Mn  Mn13  1  0.62161167  0.78941056  0.13003227  1
  Mn  Mn14  1  0.11658747  0.78815178  0.63175517  1
  Mn  Mn15  1  0.62694382  0.62256958  0.62491529  1
  Mn  Mn16  1  0.62292058  0.78887186  0.63038133  1
  Mn  Mn17  1  0.62472909  0.96005928  0.62302634  1
  O  O18  1  0.38960147  0.01796860  0.38929326  1
  O  O19  1  0.37299793  0.18626954  0.41033703  1
  O  O20  1  0.37147244  0.33634179  0.41560353  1
  O  O21  1  0.86387071  0.01389468  0.41069281  1
  O  O22  1  0.83541528  0.18657370  0.41010244  1
  O  O23  1  0.41640834  0.04684205  0.86017942  1
  O  O24  1  0.38493367  0.53727682  0.38824408  1
  O  O25  1  0.37735269  0.69670052  0.37364612  1
  O  O26  1  0.86409500  0.34481103  0.41208400  1
  O  O27  1  0.37724920  0.23470671  0.83541778  1
  O  O28  1  0.83747637  0.54386863  0.37115292  1
  O  O29  1  0.85550255  0.04705852  0.86282496  1
  O  O30  1  0.41053832  0.37218203  0.88064024  1
  O  O31  1  0.39322434  0.87010428  0.38705612  1
  O  O32  1  0.86978943  0.68242629  0.41494568  1
  O  O33  1  0.38357205  0.57345074  0.83686118  1
  O  O34  1  0.87034329  0.22041808  0.87694228  1
  O  O35  1  0.86272626  0.37965243  0.86253355  1
  O  O36  1  0.83236793  0.86986293  0.39013579  1
  O  O37  1  0.41407739  0.73285075  0.83699916  1
  O  O38  1  0.38565003  0.90493473  0.83652738  1
  O  O39  1  0.87708082  0.58165106  0.83316422  1
  O  O40  1  0.87511174  0.73301489  0.83690051  1
  O  O41  1  0.85841912  0.89947302  0.86041445  1
