# generated using pymatgen
data_Li3MnCoO5
_symmetry_space_group_name_H-M   'P 1'
_cell_length_a   2.91340516
_cell_length_b   7.86494033
_cell_length_c   8.26068337
_cell_angle_alpha   75.56761619
_cell_angle_beta   90.00000000
_cell_angle_gamma   100.67365025
_symmetry_Int_Tables_number   1
_chemical_formula_structural   Li3MnCoO5
_chemical_formula_sum   'Li6 Mn2 Co2 O10'
_cell_volume   179.92632336
_cell_formula_units_Z   2
loop_
 _symmetry_equiv_pos_site_id
 _symmetry_equiv_pos_as_xyz
  1  'x, y, z'
loop_
 _atom_site_type_symbol
 _atom_site_label
 _atom_site_symmetry_multiplicity
 _atom_site_fract_x
 _atom_site_fract_y
 _atom_site_fract_z
 _atom_site_occupancy
  Li  Li0  1  0.60236768  0.20473535  0.69331309  1
  Li  Li1  1  0.38863391  0.77726781  0.32163568  1
  Li  Li2  1  0.21136609  0.42273219  0.87836432  1
  Li  Li3  1  0.99763232  0.99526465  0.50668691  1
  Li  Li4  1  0.80000000  0.60000000  0.10000000  1
  Li  Li5  1  0.80000000  0.60000000  0.60000000  1
  Mn  Mn6  1  0.99908062  0.99816124  0.99648882  1
  Mn  Mn7  1  0.60091938  0.20183876  0.20351118  1
  Co  Co8  1  0.39282283  0.78564566  0.77962162  1
  Co  Co9  1  0.20717717  0.41435434  0.42037838  1
  O  O10  1  0.41478738  0.82957476  0.04533894  1
  O  O11  1  0.19647645  0.39295289  0.64052601  1
  O  O12  1  0.01149779  0.02299558  0.23449726  1
  O  O13  1  0.80468898  0.60937795  0.85666025  1
  O  O14  1  0.60409598  0.20819196  0.42826776  1
  O  O15  1  0.79531102  0.59062205  0.34333975  1
  O  O16  1  0.58850221  0.17700442  0.96550274  1
  O  O17  1  0.40352355  0.80704711  0.55947399  1
  O  O18  1  0.18521262  0.37042524  0.15466106  1
  O  O19  1  0.99590402  0.99180804  0.77173224  1
