# generated using pymatgen
data_Mn14Al56Ge3
_symmetry_space_group_name_H-M   'P 1'
_cell_length_a   11.05715611
_cell_length_b   11.05438445
_cell_length_c   10.30886663
_cell_angle_alpha   90.01380785
_cell_angle_beta   89.98497260
_cell_angle_gamma   119.98781054
_symmetry_Int_Tables_number   1
_chemical_formula_structural   Mn14Al56Ge3
_chemical_formula_sum   'Mn14 Al56 Ge3'
_cell_volume   1091.37215890
_cell_formula_units_Z   1
loop_
 _symmetry_equiv_pos_site_id
 _symmetry_equiv_pos_as_xyz
  1  'x, y, z'
loop_
 _atom_site_type_symbol
 _atom_site_label
 _atom_site_symmetry_multiplicity
 _atom_site_fract_x
 _atom_site_fract_y
 _atom_site_fract_z
 _atom_site_occupancy
  Mn  Mn0  1  0.93745987  0.36039928  0.92831671  1
  Mn  Mn1  1  0.20955766  0.25794475  0.66899914  1
  Mn  Mn2  1  0.42286298  0.06255787  0.92821328  1
  Mn  Mn3  1  0.04838300  0.79053149  0.66907169  1
  Mn  Mn4  1  0.36035815  0.42292488  0.07182788  1
  Mn  Mn5  1  0.66660122  0.33330761  0.55498575  1
  Mn  Mn6  1  0.33334952  0.66654412  0.44497016  1
  Mn  Mn7  1  0.74217763  0.95164268  0.66890406  1
  Mn  Mn8  1  0.63973756  0.57712872  0.92820209  1
  Mn  Mn9  1  0.06249849  0.63952495  0.07179329  1
  Mn  Mn10  1  0.79050530  0.74205036  0.33092948  1
  Mn  Mn11  1  0.95171486  0.20955424  0.33096009  1
  Mn  Mn12  1  0.57710679  0.93748416  0.07178718  1
  Mn  Mn13  1  0.25777014  0.04832439  0.33098532  1
  Al  Al14  1  0.59352477  0.69521344  0.73109240  1
  Al  Al15  1  0.99993529  0.00002255  0.74430178  1
  Al  Al16  1  0.70013953  0.84551021  0.18816856  1
  Al  Al17  1  0.41649155  0.27858804  0.54737453  1
  Al  Al18  1  0.32168934  0.80842518  0.01592287  1
  Al  Al19  1  0.16794245  0.62487266  0.27285042  1
  Al  Al20  1  0.48670170  0.67829601  0.01589510  1
  Al  Al21  1  0.38493203  0.44758141  0.82956782  1
  Al  Al22  1  0.83210932  0.37516172  0.72706051  1
  Al  Al23  1  0.61510520  0.55242766  0.17044246  1
  Al  Al24  1  0.19144535  0.51326746  0.01593112  1
  Al  Al25  1  0.02853618  0.83355717  0.42221172  1
  Al  Al26  1  0.72132771  0.13785023  0.54732264  1
  Al  Al27  1  0.26214775  0.13087856  0.08388892  1
  Al  Al28  1  0.15426455  0.85442767  0.18809121  1
  Al  Al29  1  0.88557255  0.37780679  0.43644148  1
  Al  Al30  1  0.93733144  0.38493057  0.17039587  1
  Al  Al31  1  0.80860559  0.48678701  0.98406549  1
  Al  Al32  1  0.19505905  0.02846090  0.57783973  1
  Al  Al33  1  0.44763531  0.06276020  0.17038724  1
  Al  Al34  1  0.58350870  0.72142149  0.45270935  1
  Al  Al35  1  0.16661372  0.19499460  0.42224431  1
  Al  Al36  1  0.86907846  0.13134166  0.08399702  1
  Al  Al37  1  0.69533961  0.10182227  0.26891515  1
  Al  Al38  1  0.73778795  0.86909687  0.91607622  1
  Al  Al39  1  0.45701645  0.83215479  0.27299306  1
  Al  Al40  1  0.55235267  0.93724910  0.82951843  1
  Al  Al41  1  0.11444488  0.62216647  0.56352430  1
  Al  Al42  1  0.83327150  0.80488711  0.57783876  1
  Al  Al43  1  0.30473230  0.89829738  0.73119977  1
  Al  Al44  1  0.49223368  0.11445852  0.43644200  1
  Al  Al45  1  0.62210749  0.50772101  0.43645550  1
  Al  Al46  1  0.13076178  0.86855836  0.91606561  1
  Al  Al47  1  0.97162578  0.16672499  0.57782150  1
  Al  Al48  1  0.27848358  0.86204391  0.45273498  1
  Al  Al49  1  0.14543945  0.29985062  0.18821359  1
  Al  Al50  1  0.62481211  0.45687041  0.72709174  1
  Al  Al51  1  0.89821846  0.59340485  0.26878003  1
  Al  Al52  1  0.29986834  0.15454483  0.81180148  1
  Al  Al53  1  0.51326970  0.32176678  0.98423054  1
  Al  Al54  1  0.13135672  0.26221319  0.91604367  1
  Al  Al55  1  0.00003710  0.00007778  0.25564374  1
  Al  Al56  1  0.06275221  0.61504320  0.82972835  1
  Al  Al57  1  0.80507973  0.97156660  0.42219058  1
  Al  Al58  1  0.37777986  0.49217025  0.56353746  1
  Al  Al59  1  0.67828411  0.19157112  0.98399376  1
  Al  Al60  1  0.54312641  0.16800695  0.72715329  1
  Al  Al61  1  0.37524299  0.54324524  0.27298908  1
  Al  Al62  1  0.84558263  0.14541346  0.81185911  1
  Al  Al63  1  0.86207798  0.58343498  0.54733614  1
  Al  Al64  1  0.40646063  0.30473805  0.26886470  1
  Al  Al65  1  0.85464444  0.70009988  0.81175408  1
  Al  Al66  1  0.50780946  0.88554338  0.56350053  1
  Al  Al67  1  0.13792107  0.41649777  0.45250594  1
  Al  Al68  1  0.10171386  0.40649236  0.73112361  1
  Al  Al69  1  0.86860870  0.73779550  0.08390832  1
  Ge  Ge70  1  0.00003191  0.00001917  0.00000905  1
  Ge  Ge71  1  0.66655770  0.33330265  0.27952636  1
  Ge  Ge72  1  0.33338606  0.66664752  0.72048091  1
