# generated using pymatgen
data_Dy3Ni2
_symmetry_space_group_name_H-M   'P 1'
_cell_length_a   3.65982623
_cell_length_b   6.89035297
_cell_length_c   9.51605883
_cell_angle_alpha   104.88677183
_cell_angle_beta   90.00000000
_cell_angle_gamma   105.40118798
_symmetry_Int_Tables_number   1
_chemical_formula_structural   Dy3Ni2
_chemical_formula_sum   'Dy6 Ni4'
_cell_volume   222.98819050
_cell_formula_units_Z   2
loop_
 _symmetry_equiv_pos_site_id
 _symmetry_equiv_pos_as_xyz
  1  'x, y, z'
loop_
 _atom_site_type_symbol
 _atom_site_label
 _atom_site_symmetry_multiplicity
 _atom_site_fract_x
 _atom_site_fract_y
 _atom_site_fract_z
 _atom_site_occupancy
  Ni  Ni0  1  0.25630746  0.51261491  0.77341289  1
  Ni  Ni1  1  0.74369254  0.48738509  0.22658711  1
  Ni  Ni2  1  0.46528890  0.93057780  0.85562921  1
  Ni  Ni3  1  0.53471110  0.06942220  0.14437079  1
  Dy  Dy4  1  0.14409564  0.28819128  0.36722723  1
  Dy  Dy5  1  0.85590436  0.71180872  0.63277277  1
  Dy  Dy6  1  0.59720092  0.19440183  0.67293172  1
  Dy  Dy7  1  0.40279908  0.80559817  0.32706828  1
  Dy  Dy8  1  0.86837646  0.73675291  0.00258309  1
  Dy  Dy9  1  0.13162354  0.26324709  0.99741691  1
