# generated using pymatgen
data_NdP5
_symmetry_space_group_name_H-M   'P 1'
_cell_length_a   5.05461278
_cell_length_b   5.46987830
_cell_length_c   9.59852969
_cell_angle_alpha   90.00000000
_cell_angle_beta   90.00000000
_cell_angle_gamma   102.03899541
_symmetry_Int_Tables_number   1
_chemical_formula_structural   NdP5
_chemical_formula_sum   'Nd2 P10'
_cell_volume   259.54443916
_cell_formula_units_Z   2
loop_
 _symmetry_equiv_pos_site_id
 _symmetry_equiv_pos_as_xyz
  1  'x, y, z'
loop_
 _atom_site_type_symbol
 _atom_site_label
 _atom_site_symmetry_multiplicity
 _atom_site_fract_x
 _atom_site_fract_y
 _atom_site_fract_z
 _atom_site_occupancy
  P  P0  1  0.28866378  0.89949615  0.25000000  1
  P  P1  1  0.71133622  0.10050385  0.75000000  1
  P  P2  1  0.61489279  0.95232841  0.40932696  1
  P  P3  1  0.38510721  0.04767159  0.90932696  1
  P  P4  1  0.38510721  0.04767159  0.59067304  1
  P  P5  1  0.61489279  0.95232841  0.09067304  1
  P  P6  1  0.70719954  0.59707897  0.47024964  1
  P  P7  1  0.29280046  0.40292103  0.97024964  1
  P  P8  1  0.29280046  0.40292103  0.52975036  1
  P  P9  1  0.70719954  0.59707897  0.02975036  1
  Nd  Nd10  1  0.00790500  0.34804065  0.25000000  1
  Nd  Nd11  1  0.99209500  0.65195935  0.75000000  1
