# generated using pymatgen
data_Sm3ReO8
_symmetry_space_group_name_H-M   'P 1'
_cell_length_a   6.15026403
_cell_length_b   7.41988070
_cell_length_c   14.00502937
_cell_angle_alpha   98.57207314
_cell_angle_beta   90.00000000
_cell_angle_gamma   90.00000000
_symmetry_Int_Tables_number   1
_chemical_formula_structural   Sm3ReO8
_chemical_formula_sum   'Sm12 Re4 O32'
_cell_volume   631.96927964
_cell_formula_units_Z   4
loop_
 _symmetry_equiv_pos_site_id
 _symmetry_equiv_pos_as_xyz
  1  'x, y, z'
loop_
 _atom_site_type_symbol
 _atom_site_label
 _atom_site_symmetry_multiplicity
 _atom_site_fract_x
 _atom_site_fract_y
 _atom_site_fract_z
 _atom_site_occupancy
  O  O0  1  0.80259135  0.54691130  0.52029665  1
  O  O1  1  0.30259135  0.95308870  0.97970335  1
  O  O2  1  0.19740865  0.45308870  0.47970335  1
  O  O3  1  0.69740865  0.04691130  0.02029665  1
  O  O4  1  0.04302361  0.84512473  0.59636612  1
  O  O5  1  0.54302361  0.65487527  0.90363388  1
  O  O6  1  0.95697639  0.15487527  0.40363388  1
  O  O7  1  0.45697639  0.34512473  0.09636612  1
  O  O8  1  0.65005074  0.99962914  0.66902436  1
  O  O9  1  0.15005074  0.50037086  0.83097564  1
  O  O10  1  0.34994926  0.00037086  0.33097564  1
  O  O11  1  0.84994926  0.49962914  0.16902436  1
  O  O12  1  0.44994944  0.71052398  0.58882341  1
  O  O13  1  0.94994944  0.78947602  0.91117659  1
  O  O14  1  0.55005056  0.28947602  0.41117659  1
  O  O15  1  0.05005056  0.21052398  0.08882341  1
  O  O16  1  0.53034269  0.64218254  0.32704133  1
  O  O17  1  0.03034269  0.85781746  0.17295867  1
  O  O18  1  0.46965731  0.35781746  0.67295867  1
  O  O19  1  0.96965731  0.14218254  0.82704133  1
  O  O20  1  0.53036421  0.80663958  0.15939584  1
  O  O21  1  0.03036421  0.69336042  0.34060416  1
  O  O22  1  0.46963579  0.19336042  0.84060416  1
  O  O23  1  0.96963579  0.30663958  0.65939584  1
  O  O24  1  0.80220555  0.39257808  0.98205631  1
  O  O25  1  0.30220555  0.10742192  0.51794369  1
  O  O26  1  0.19779445  0.60742192  0.01794369  1
  O  O27  1  0.69779445  0.89257808  0.48205631  1
  O  O28  1  0.70535324  0.18142245  0.21104691  1
  O  O29  1  0.20535324  0.31857755  0.28895309  1
  O  O30  1  0.29464676  0.81857755  0.78895309  1
  O  O31  1  0.79464676  0.68142245  0.71104691  1
  Sm  Sm32  1  0.31192696  0.06181115  0.16704739  1
  Sm  Sm33  1  0.81192696  0.43818885  0.33295261  1
  Sm  Sm34  1  0.68807304  0.93818885  0.83295261  1
  Sm  Sm35  1  0.18807304  0.56181115  0.66704739  1
  Sm  Sm36  1  0.69998581  0.21509416  0.55419374  1
  Sm  Sm37  1  0.19998581  0.28490584  0.94580626  1
  Sm  Sm38  1  0.30001419  0.78490584  0.44580626  1
  Sm  Sm39  1  0.80001419  0.71509416  0.05419374  1
  Sm  Sm40  1  0.73858930  0.39400441  0.79859933  1
  Sm  Sm41  1  0.23858930  0.10599559  0.70140067  1
  Sm  Sm42  1  0.26141070  0.60599559  0.20140067  1
  Sm  Sm43  1  0.76141070  0.89400441  0.29859933  1
  Re  Re44  1  0.75438135  0.26962878  0.09049380  1
  Re  Re45  1  0.25438135  0.23037122  0.40950620  1
  Re  Re46  1  0.24561865  0.73037122  0.90950620  1
  Re  Re47  1  0.74561865  0.76962878  0.59049380  1
