# generated using pymatgen
data_K4Hf3Mn(PO4)6
_symmetry_space_group_name_H-M   'P 1'
_cell_length_a   10.30264539
_cell_length_b   10.30312743
_cell_length_c   10.28287907
_cell_angle_alpha   90.00000000
_cell_angle_beta   90.00000000
_cell_angle_gamma   90.01144749
_symmetry_Int_Tables_number   1
_chemical_formula_structural   K4Hf3Mn(PO4)6
_chemical_formula_sum   'K8 Hf6 Mn2 P12 O48'
_cell_volume   1091.52212458
_cell_formula_units_Z   2
loop_
 _symmetry_equiv_pos_site_id
 _symmetry_equiv_pos_as_xyz
  1  'x, y, z'
loop_
 _atom_site_type_symbol
 _atom_site_label
 _atom_site_symmetry_multiplicity
 _atom_site_fract_x
 _atom_site_fract_y
 _atom_site_fract_z
 _atom_site_occupancy
  K  K0  1  0.07252392  0.42892749  0.56842105  1
  K  K1  1  0.20773124  0.81058693  0.29956646  1
  K  K2  1  0.29226876  0.18941307  0.79956646  1
  K  K3  1  0.42747608  0.57107251  0.06842105  1
  K  K4  1  0.55789451  0.06010952  0.43746914  1
  K  K5  1  0.69294634  0.71088001  0.70083860  1
  K  K6  1  0.80705366  0.28911999  0.20083860  1
  K  K7  1  0.94210549  0.93989048  0.93746914  1
  Hf  Hf8  1  0.08921883  0.58661212  0.91262035  1
  Hf  Hf9  1  0.41078117  0.41338788  0.41262035  1
  Hf  Hf10  1  0.58241446  0.91458291  0.08428272  1
  Hf  Hf11  1  0.64313244  0.35470810  0.85694393  1
  Hf  Hf12  1  0.85686756  0.64529190  0.35694393  1
  Hf  Hf13  1  0.91758554  0.08541709  0.58428272  1
  Mn  Mn14  1  0.14834908  0.14564227  0.14759511  1
  Mn  Mn15  1  0.35165092  0.85435773  0.64759511  1
  P  P16  1  0.03949765  0.76781629  0.62370793  1
  P  P17  1  0.12218266  0.46071932  0.23109687  1
  P  P18  1  0.23251539  0.12366317  0.46117551  1
  P  P19  1  0.26748461  0.87633683  0.96117551  1
  P  P20  1  0.37781734  0.53928068  0.73109687  1
  P  P21  1  0.46050235  0.23218371  0.12370793  1
  P  P22  1  0.53773717  0.72876594  0.37301591  1
  P  P23  1  0.62865893  0.03788700  0.76981089  1
  P  P24  1  0.72913238  0.37340833  0.53846254  1
  P  P25  1  0.77086762  0.62659167  0.03846254  1
  P  P26  1  0.87134107  0.96211300  0.26981089  1
  P  P27  1  0.96226283  0.27123406  0.87301591  1
  O  O28  1  0.00510704  0.41448501  0.85024839  1
  O  O29  1  0.02142920  0.69249025  0.75416753  1
  O  O30  1  0.02488105  0.55677123  0.29805540  1
  O  O31  1  0.04438057  0.20124910  0.97175718  1
  O  O32  1  0.06957232  0.32385567  0.23975589  1
  O  O33  1  0.08775567  0.14796422  0.50513124  1
  O  O34  1  0.14470697  0.50735083  0.08898800  1
  O  O35  1  0.17600844  0.75834872  0.57033770  1
  O  O36  1  0.19830973  0.73983092  0.97272163  1
  O  O37  1  0.19939941  0.96547067  0.05693078  1
  O  O38  1  0.23844577  0.07465383  0.32166316  1
  O  O39  1  0.24690685  0.52026185  0.80545850  1
  O  O40  1  0.25309315  0.47973815  0.30545850  1
  O  O41  1  0.26155423  0.92534617  0.82166316  1
  O  O42  1  0.30060059  0.03452933  0.55693078  1
  O  O43  1  0.30169027  0.26016908  0.47272163  1
  O  O44  1  0.32399156  0.24165128  0.07033770  1
  O  O45  1  0.35529303  0.49264917  0.58898800  1
  O  O46  1  0.41224433  0.85203578  0.00513124  1
  O  O47  1  0.43042768  0.67614433  0.73975589  1
  O  O48  1  0.45561943  0.79875090  0.47175718  1
  O  O49  1  0.47511895  0.44322877  0.79805540  1
  O  O50  1  0.47857080  0.30750975  0.25416753  1
  O  O51  1  0.49489296  0.58551499  0.35024839  1
  O  O52  1  0.50711058  0.09006814  0.14622999  1
  O  O53  1  0.52559956  0.80055503  0.24004135  1
  O  O54  1  0.53167432  0.95340500  0.70043431  1
  O  O55  1  0.55831615  0.29827188  0.02730851  1
  O  O56  1  0.58571206  0.18370691  0.77069444  1
  O  O57  1  0.58784994  0.35265507  0.49319635  1
  O  O58  1  0.65115164  0.99538961  0.91377241  1
  O  O59  1  0.68358871  0.72749990  0.41478023  1
  O  O60  1  0.69369128  0.75397421  0.02092139  1
  O  O61  1  0.70232980  0.52353925  0.95270162  1
  O  O62  1  0.73079032  0.41905667  0.68218931  1
  O  O63  1  0.73893190  0.97266327  0.19750767  1
  O  O64  1  0.76106810  0.02733673  0.69750767  1
  O  O65  1  0.76920968  0.58094333  0.18218931  1
  O  O66  1  0.79767020  0.47646075  0.45270162  1
  O  O67  1  0.80630872  0.24602579  0.52092139  1
  O  O68  1  0.81641129  0.27250010  0.91478023  1
  O  O69  1  0.84884836  0.00461039  0.41377241  1
  O  O70  1  0.91215006  0.64734493  0.99319635  1
  O  O71  1  0.91428794  0.81629309  0.27069444  1
  O  O72  1  0.94168385  0.70172812  0.52730851  1
  O  O73  1  0.96832568  0.04659500  0.20043431  1
  O  O74  1  0.97440044  0.19944497  0.74004135  1
  O  O75  1  0.99288942  0.90993186  0.64622999  1
