# generated using pymatgen
data_Li4MnCo2O7
_symmetry_space_group_name_H-M   'P 1'
_cell_length_a   5.12255805
_cell_length_b   5.12528130
_cell_length_c   10.11364925
_cell_angle_alpha   79.45129566
_cell_angle_beta   79.27831773
_cell_angle_gamma   98.04803998
_symmetry_Int_Tables_number   1
_chemical_formula_structural   Li4MnCo2O7
_chemical_formula_sum   'Li8 Mn2 Co4 O14'
_cell_volume   252.28598864
_cell_formula_units_Z   2
loop_
 _symmetry_equiv_pos_site_id
 _symmetry_equiv_pos_as_xyz
  1  'x, y, z'
loop_
 _atom_site_type_symbol
 _atom_site_label
 _atom_site_symmetry_multiplicity
 _atom_site_fract_x
 _atom_site_fract_y
 _atom_site_fract_z
 _atom_site_occupancy
  Li  Li0  1  0.57125935  0.29206549  0.92562472  1
  Li  Li1  1  0.42486399  0.70385985  0.07363325  1
  Li  Li2  1  0.71554392  0.86289532  0.78435588  1
  Li  Li3  1  0.84818853  0.41636719  0.63785678  1
  Li  Li4  1  0.00687181  0.00783352  0.49446700  1
  Li  Li5  1  0.13758759  0.56552446  0.36097456  1
  Li  Li6  1  0.29465205  0.15074479  0.22373392  1
  Li  Li7  1  0.57116109  0.28677536  0.42943300  1
  Mn  Mn8  1  0.00273340  0.00208491  0.99664449  1
  Mn  Mn9  1  0.85441551  0.42973127  0.14321770  1
  Co  Co10  1  0.70597903  0.85823171  0.29623297  1
  Co  Co11  1  0.43633264  0.71552493  0.56808096  1
  Co  Co12  1  0.28610140  0.14330985  0.71295422  1
  Co  Co13  1  0.14497716  0.57590893  0.85529282  1
  O  O14  1  0.34343458  0.95057398  0.88594544  1
  O  O15  1  0.19582594  0.38455541  0.02740446  1
  O  O16  1  0.46459493  0.47734576  0.75119070  1
  O  O17  1  0.59738464  0.05208745  0.61770888  1
  O  O18  1  0.78148765  0.66034030  0.46791869  1
  O  O19  1  0.92556833  0.21404597  0.30505391  1
  O  O20  1  0.04494388  0.77135202  0.16816316  1
  O  O21  1  0.80234996  0.62373332  0.96494411  1
  O  O22  1  0.67525208  0.09573870  0.10552407  1
  O  O23  1  0.95368349  0.19729680  0.82053081  1
  O  O24  1  0.09485807  0.79872901  0.69354057  1
  O  O25  1  0.22303842  0.35362961  0.55566300  1
  O  O26  1  0.36442602  0.90188280  0.39235126  1
  O  O27  1  0.53248455  0.50783129  0.24155866  1
