# generated using pymatgen
data_BaV2H2(Se2O7)2
_symmetry_space_group_name_H-M   'P 1'
_cell_length_a   9.88786899
_cell_length_b   7.20611870
_cell_length_c   10.01289904
_cell_angle_alpha   90.00000000
_cell_angle_beta   116.52513143
_cell_angle_gamma   90.00000000
_symmetry_Int_Tables_number   1
_chemical_formula_structural   BaV2H2(Se2O7)2
_chemical_formula_sum   'Ba2 V4 H4 Se8 O28'
_cell_volume   638.35182981
_cell_formula_units_Z   2
loop_
 _symmetry_equiv_pos_site_id
 _symmetry_equiv_pos_as_xyz
  1  'x, y, z'
loop_
 _atom_site_type_symbol
 _atom_site_label
 _atom_site_symmetry_multiplicity
 _atom_site_fract_x
 _atom_site_fract_y
 _atom_site_fract_z
 _atom_site_occupancy
  Ba  Ba0  1  0.50000000  0.50000000  0.00000000  1
  Ba  Ba1  1  0.50000000  0.00000000  0.50000000  1
  V  V2  1  0.70547142  0.47403641  0.44526938  1
  V  V3  1  0.29452858  0.97403641  0.05473062  1
  V  V4  1  0.29452858  0.52596359  0.55473062  1
  V  V5  1  0.70547142  0.02596359  0.94526938  1
  H  H6  1  0.13086642  0.56869721  0.94552251  1
  H  H7  1  0.86913358  0.06869721  0.55447749  1
  H  H8  1  0.86913358  0.43130279  0.05447749  1
  H  H9  1  0.13086642  0.93130279  0.44552251  1
  Se  Se10  1  0.05540317  0.57387855  0.68879614  1
  Se  Se11  1  0.94459683  0.07387855  0.81120386  1
  Se  Se12  1  0.94459683  0.42612145  0.31120386  1
  Se  Se13  1  0.05540317  0.92612145  0.18879614  1
  Se  Se14  1  0.68483943  0.49481834  0.75108680  1
  Se  Se15  1  0.31516057  0.99481834  0.74891320  1
  Se  Se16  1  0.31516057  0.50518166  0.24891320  1
  Se  Se17  1  0.68483943  0.00518166  0.25108680  1
  O  O18  1  0.92668451  0.40978923  0.58067851  1
  O  O19  1  0.07331549  0.90978923  0.91932149  1
  O  O20  1  0.07331549  0.59021077  0.41932149  1
  O  O21  1  0.92668451  0.09021077  0.08067851  1
  O  O22  1  0.65214820  0.34729385  0.60114985  1
  O  O23  1  0.34785180  0.84729385  0.89885015  1
  O  O24  1  0.34785180  0.65270615  0.39885015  1
  O  O25  1  0.65214820  0.15270615  0.10114985  1
  O  O26  1  0.49602857  0.43400780  0.28143818  1
  O  O27  1  0.50397143  0.93400780  0.21856182  1
  O  O28  1  0.50397143  0.56599220  0.71856182  1
  O  O29  1  0.49602857  0.06599220  0.78143818  1
  O  O30  1  0.72267011  0.15390529  0.39967468  1
  O  O31  1  0.27732989  0.65390529  0.10032532  1
  O  O32  1  0.27732989  0.84609471  0.60032532  1
  O  O33  1  0.72267011  0.34609471  0.89967468  1
  O  O34  1  0.77123760  0.52008244  0.28236639  1
  O  O35  1  0.22876240  0.02008244  0.21763361  1
  O  O36  1  0.22876240  0.47991756  0.71763361  1
  O  O37  1  0.77123760  0.97991756  0.78236639  1
  O  O38  1  0.69570920  0.68957060  0.49623722  1
  O  O39  1  0.30429080  0.18957060  0.00376278  1
  O  O40  1  0.30429080  0.31042940  0.50376278  1
  O  O41  1  0.69570920  0.81042940  0.99623722  1
  O  O42  1  0.05396137  0.49705496  0.85715369  1
  O  O43  1  0.94603863  0.99705496  0.64284631  1
  O  O44  1  0.94603863  0.50294504  0.14284631  1
  O  O45  1  0.05396137  0.00294504  0.35715369  1
