# generated using pymatgen
data_Na3V2P2O8F3
_symmetry_space_group_name_H-M   'P 1'
_cell_length_a   9.16654869
_cell_length_b   9.19762603
_cell_length_c   10.92377894
_cell_angle_alpha   90.00000000
_cell_angle_beta   90.00000000
_cell_angle_gamma   90.00000000
_symmetry_Int_Tables_number   1
_chemical_formula_structural   Na3V2P2O8F3
_chemical_formula_sum   'Na12 V8 P8 O32 F12'
_cell_volume   920.98912052
_cell_formula_units_Z   4
loop_
 _symmetry_equiv_pos_site_id
 _symmetry_equiv_pos_as_xyz
  1  'x, y, z'
loop_
 _atom_site_type_symbol
 _atom_site_label
 _atom_site_symmetry_multiplicity
 _atom_site_fract_x
 _atom_site_fract_y
 _atom_site_fract_z
 _atom_site_occupancy
  Na  Na0  1  0.03006426  0.27758900  0.50000000  1
  Na  Na1  1  0.04848976  0.80657429  0.00000000  1
  Na  Na2  1  0.24001325  0.51730321  0.00000000  1
  Na  Na3  1  0.25998675  0.01730321  0.50000000  1
  Na  Na4  1  0.45151024  0.30657429  0.50000000  1
  Na  Na5  1  0.46993574  0.77758900  0.00000000  1
  Na  Na6  1  0.53006426  0.22241100  0.00000000  1
  Na  Na7  1  0.54848976  0.69342571  0.50000000  1
  Na  Na8  1  0.74001325  0.98269679  0.50000000  1
  Na  Na9  1  0.75998675  0.48269679  0.00000000  1
  Na  Na10  1  0.95151024  0.19342571  0.00000000  1
  Na  Na11  1  0.96993574  0.72241100  0.50000000  1
  V  V12  1  0.24879411  0.24502833  0.18530520  1
  V  V13  1  0.24879411  0.24502833  0.81469480  1
  V  V14  1  0.25120589  0.74502833  0.31469480  1
  V  V15  1  0.25120589  0.74502833  0.68530520  1
  V  V16  1  0.74879411  0.25497167  0.31469480  1
  V  V17  1  0.74879411  0.25497167  0.68530520  1
  V  V18  1  0.75120589  0.75497167  0.18530520  1
  V  V19  1  0.75120589  0.75497167  0.81469480  1
  P  P20  1  0.00000000  0.00000000  0.74275466  1
  P  P21  1  0.00000000  0.00000000  0.25724534  1
  P  P22  1  0.50000000  0.50000000  0.75724534  1
  P  P23  1  0.50000000  0.50000000  0.24275466  1
  P  P24  1  0.50000000  0.00000000  0.74810850  1
  P  P25  1  0.50000000  0.00000000  0.25189150  1
  P  P26  1  0.00000000  0.50000000  0.75189150  1
  P  P27  1  0.00000000  0.50000000  0.24810850  1
  O  O28  1  0.09259272  0.59762984  0.33296873  1
  O  O29  1  0.09259272  0.59762984  0.66703127  1
  O  O30  1  0.09172908  0.09662883  0.16964364  1
  O  O31  1  0.09172908  0.09662883  0.83035636  1
  O  O32  1  0.09666309  0.40531159  0.16256914  1
  O  O33  1  0.09689856  0.90554069  0.65841303  1
  O  O34  1  0.09666309  0.40531159  0.83743086  1
  O  O35  1  0.09689856  0.90554069  0.34158697  1
  O  O36  1  0.40333691  0.90531159  0.66256914  1
  O  O37  1  0.40333691  0.90531159  0.33743086  1
  O  O38  1  0.40310144  0.40554069  0.15841303  1
  O  O39  1  0.40310144  0.40554069  0.84158697  1
  O  O40  1  0.40827092  0.59662883  0.33035636  1
  O  O41  1  0.40827092  0.59662883  0.66964364  1
  O  O42  1  0.40740728  0.09762984  0.16703127  1
  O  O43  1  0.40740728  0.09762984  0.83296873  1
  O  O44  1  0.59259272  0.90237016  0.16703127  1
  O  O45  1  0.59259272  0.90237016  0.83296873  1
  O  O46  1  0.59172908  0.40337117  0.33035636  1
  O  O47  1  0.59172908  0.40337117  0.66964364  1
  O  O48  1  0.59689856  0.59445931  0.15841303  1
  O  O49  1  0.59689856  0.59445931  0.84158697  1
  O  O50  1  0.59666309  0.09468841  0.66256914  1
  O  O51  1  0.59666309  0.09468841  0.33743086  1
  O  O52  1  0.90333691  0.59468841  0.16256914  1
  O  O53  1  0.90333691  0.59468841  0.83743086  1
  O  O54  1  0.90310144  0.09445931  0.65841303  1
  O  O55  1  0.90310144  0.09445931  0.34158697  1
  O  O56  1  0.90827092  0.90337117  0.16964364  1
  O  O57  1  0.90827092  0.90337117  0.83035636  1
  O  O58  1  0.90740728  0.40237016  0.33296873  1
  O  O59  1  0.90740728  0.40237016  0.66703127  1
  F  F60  1  0.24907970  0.23869834  0.37040956  1
  F  F61  1  0.24907970  0.23869834  0.62959044  1
  F  F62  1  0.24619775  0.24872484  0.00000000  1
  F  F63  1  0.25380225  0.74872484  0.50000000  1
  F  F64  1  0.25092030  0.73869834  0.12959044  1
  F  F65  1  0.25092030  0.73869834  0.87040956  1
  F  F66  1  0.74907970  0.26130166  0.12959044  1
  F  F67  1  0.74907970  0.26130166  0.87040956  1
  F  F68  1  0.74619775  0.25127516  0.50000000  1
  F  F69  1  0.75380225  0.75127516  0.00000000  1
  F  F70  1  0.75092030  0.76130166  0.37040956  1
  F  F71  1  0.75092030  0.76130166  0.62959044  1
