# generated using pymatgen
data_Mn6VSi5HO19
_symmetry_space_group_name_H-M   'P 1'
_cell_length_a   6.80221890
_cell_length_b   29.33742562
_cell_length_c   7.67251082
_cell_angle_alpha   90.00000000
_cell_angle_beta   95.64402590
_cell_angle_gamma   90.00000000
_symmetry_Int_Tables_number   1
_chemical_formula_structural   Mn6VSi5HO19
_chemical_formula_sum   'Mn24 V4 Si20 H4 O76'
_cell_volume   1523.70042581
_cell_formula_units_Z   4
loop_
 _symmetry_equiv_pos_site_id
 _symmetry_equiv_pos_as_xyz
  1  'x, y, z'
loop_
 _atom_site_type_symbol
 _atom_site_label
 _atom_site_symmetry_multiplicity
 _atom_site_fract_x
 _atom_site_fract_y
 _atom_site_fract_z
 _atom_site_occupancy
  Mn  Mn0  1  0.12983586  0.52230466  0.34523531  1
  Mn  Mn1  1  0.62983586  0.97769534  0.84523531  1
  Mn  Mn2  1  0.87016414  0.47769534  0.65476469  1
  Mn  Mn3  1  0.37016414  0.02230466  0.15476469  1
  Mn  Mn4  1  0.81759602  0.81685145  0.47432232  1
  Mn  Mn5  1  0.31759602  0.68314855  0.97432232  1
  Mn  Mn6  1  0.18240398  0.18314855  0.52567768  1
  Mn  Mn7  1  0.68240398  0.31685145  0.02567768  1
  Mn  Mn8  1  0.04413846  0.63679693  0.27784885  1
  Mn  Mn9  1  0.54413846  0.86320307  0.77784885  1
  Mn  Mn10  1  0.95586154  0.36320307  0.72215115  1
  Mn  Mn11  1  0.45586154  0.13679693  0.22215115  1
  Mn  Mn12  1  0.83214363  0.58688855  0.58143030  1
  Mn  Mn13  1  0.33214363  0.91311145  0.08143030  1
  Mn  Mn14  1  0.16785637  0.41311145  0.41856970  1
  Mn  Mn15  1  0.66785637  0.08688855  0.91856970  1
  Mn  Mn16  1  0.35667046  0.57704132  0.06092895  1
  Mn  Mn17  1  0.85667046  0.92295868  0.56092895  1
  Mn  Mn18  1  0.64332954  0.42295868  0.93907105  1
  Mn  Mn19  1  0.14332954  0.07704132  0.43907105  1
  Mn  Mn20  1  0.02763640  0.75264477  0.19066337  1
  Mn  Mn21  1  0.52763640  0.74735523  0.69066337  1
  Mn  Mn22  1  0.97236360  0.24735523  0.80933663  1
  Mn  Mn23  1  0.47236360  0.25264477  0.30933663  1
  V  V24  1  0.00910134  0.71367624  0.61864512  1
  V  V25  1  0.50910134  0.78632376  0.11864512  1
  V  V26  1  0.99089866  0.28632376  0.38135488  1
  V  V27  1  0.49089866  0.21367624  0.88135488  1
  Si  Si28  1  0.80492015  0.66665341  0.91035647  1
  Si  Si29  1  0.30492015  0.83334659  0.41035647  1
  Si  Si30  1  0.19507985  0.33334659  0.08964353  1
  Si  Si31  1  0.69507985  0.16665341  0.58964353  1
  Si  Si32  1  0.85724817  0.56262297  0.98476747  1
  Si  Si33  1  0.35724817  0.93737703  0.48476747  1
  Si  Si34  1  0.14275183  0.43737703  0.01523253  1
  Si  Si35  1  0.64275183  0.06262297  0.51523253  1
  Si  Si36  1  0.63538940  0.51221454  0.27040233  1
  Si  Si37  1  0.13538940  0.98778546  0.77040233  1
  Si  Si38  1  0.36461060  0.48778546  0.72959767  1
  Si  Si39  1  0.86461060  0.01221454  0.22959767  1
  Si  Si40  1  0.68250299  0.40599359  0.33368984  1
  Si  Si41  1  0.18250299  0.09400641  0.83368984  1
  Si  Si42  1  0.31749701  0.59400641  0.66631016  1
  Si  Si43  1  0.81749701  0.90599359  0.16631016  1
  Si  Si44  1  0.46227778  0.35459221  0.61341014  1
  Si  Si45  1  0.96227778  0.14540779  0.11341014  1
  Si  Si46  1  0.53772222  0.64540779  0.38658986  1
  Si  Si47  1  0.03772222  0.85459221  0.88658986  1
  H  H48  1  0.53716567  0.28195024  0.65653612  1
  H  H49  1  0.03716567  0.21804976  0.15653612  1
  H  H50  1  0.46283433  0.71804976  0.34346388  1
  H  H51  1  0.96283433  0.78195024  0.84346388  1
  O  O52  1  0.84378369  0.75843068  0.64788144  1
  O  O53  1  0.34378369  0.74156932  0.14788144  1
  O  O54  1  0.15621631  0.24156932  0.35211856  1
  O  O55  1  0.65621631  0.25843068  0.85211856  1
  O  O56  1  0.04637249  0.70246792  0.40549083  1
  O  O57  1  0.54637249  0.79753208  0.90549083  1
  O  O58  1  0.95362751  0.29753208  0.59450917  1
  O  O59  1  0.45362751  0.20246792  0.09450917  1
  O  O60  1  0.23257728  0.72428036  0.73888450  1
  O  O61  1  0.73257728  0.77571964  0.23888450  1
  O  O62  1  0.76742272  0.27571964  0.26111550  1
  O  O63  1  0.26742272  0.22428036  0.76111550  1
  O  O64  1  0.89178711  0.66436099  0.71143321  1
  O  O65  1  0.39178711  0.83563901  0.21143321  1
  O  O66  1  0.10821289  0.33563901  0.28856679  1
  O  O67  1  0.60821289  0.16436099  0.78856679  1
  O  O68  1  0.98837728  0.68498293  0.04879720  1
  O  O69  1  0.48837728  0.81501707  0.54879720  1
  O  O70  1  0.01162272  0.31501707  0.95120280  1
  O  O71  1  0.51162272  0.18498293  0.45120280  1
  O  O72  1  0.60989087  0.69834063  0.89868521  1
  O  O73  1  0.10989087  0.80165937  0.39868521  1
  O  O74  1  0.39010913  0.30165937  0.10131479  1
  O  O75  1  0.89010913  0.19834063  0.60131479  1
  O  O76  1  0.74699837  0.61312250  0.95155394  1
  O  O77  1  0.24699837  0.88687750  0.45155394  1
  O  O78  1  0.25300163  0.38687750  0.04844606  1
  O  O79  1  0.75300163  0.11312250  0.54844606  1
  O  O80  1  0.05253292  0.57003710  0.12558643  1
  O  O81  1  0.55253292  0.92996290  0.62558643  1
  O  O82  1  0.94746708  0.42996290  0.87441357  1
  O  O83  1  0.44746708  0.07003710  0.37441357  1
  O  O84  1  0.89968844  0.54244102  0.79611140  1
  O  O85  1  0.39968844  0.95755898  0.29611140  1
  O  O86  1  0.10031156  0.45755898  0.20388860  1
  O  O87  1  0.60031156  0.04244102  0.70388860  1
  O  O88  1  0.69704491  0.52972272  0.07567546  1
  O  O89  1  0.19704491  0.97027728  0.57567546  1
  O  O90  1  0.30295509  0.47027728  0.92432454  1
  O  O91  1  0.80295509  0.02972272  0.42432454  1
  O  O92  1  0.42574945  0.53696760  0.28734522  1
  O  O93  1  0.92574945  0.96303240  0.78734522  1
  O  O94  1  0.57425055  0.46303240  0.71265478  1
  O  O95  1  0.07425055  0.03696760  0.21265478  1
  O  O96  1  0.81259892  0.52280193  0.42511300  1
  O  O97  1  0.31259892  0.97719807  0.92511300  1
  O  O98  1  0.18740108  0.47719807  0.57488700  1
  O  O99  1  0.68740108  0.02280193  0.07488700  1
  O  O100  1  0.60518547  0.45640691  0.25547148  1
  O  O101  1  0.10518547  0.04359309  0.75547148  1
  O  O102  1  0.39481453  0.54359309  0.74452852  1
  O  O103  1  0.89481453  0.95640691  0.24452852  1
  O  O104  1  0.86797420  0.40944314  0.48575156  1
  O  O105  1  0.36797420  0.09055686  0.98575156  1
  O  O106  1  0.13202580  0.59055686  0.51424844  1
  O  O107  1  0.63202580  0.90944314  0.01424844  1
  O  O108  1  0.71875612  0.37952065  0.15444084  1
  O  O109  1  0.21875612  0.12047935  0.65444084  1
  O  O110  1  0.28124388  0.62047935  0.84555916  1
  O  O111  1  0.78124388  0.87952065  0.34555916  1
  O  O112  1  0.49611050  0.38351214  0.43025658  1
  O  O113  1  0.99611050  0.11648786  0.93025658  1
  O  O114  1  0.50388950  0.61648786  0.56974342  1
  O  O115  1  0.00388950  0.88351214  0.06974342  1
  O  O116  1  0.24681067  0.37267626  0.65178965  1
  O  O117  1  0.74681067  0.12732374  0.15178965  1
  O  O118  1  0.75318933  0.62732374  0.34821035  1
  O  O119  1  0.25318933  0.87267626  0.84821035  1
  O  O120  1  0.63486313  0.36077714  0.77711677  1
  O  O121  1  0.13486313  0.13922286  0.27711677  1
  O  O122  1  0.36513687  0.63922286  0.22288323  1
  O  O123  1  0.86513687  0.86077714  0.72288323  1
  O  O124  1  0.47411692  0.29938570  0.55391548  1
  O  O125  1  0.97411692  0.20061430  0.05391548  1
  O  O126  1  0.52588308  0.70061430  0.44608452  1
  O  O127  1  0.02588308  0.79938570  0.94608452  1
