# generated using pymatgen
data_Tl2GeS3
_symmetry_space_group_name_H-M   'P 1'
_cell_length_a   6.93493362
_cell_length_b   7.08852835
_cell_length_c   8.58421870
_cell_angle_alpha   88.91378364
_cell_angle_beta   111.92375271
_cell_angle_gamma   113.31700711
_symmetry_Int_Tables_number   1
_chemical_formula_structural   Tl2GeS3
_chemical_formula_sum   'Tl4 Ge2 S6'
_cell_volume   355.36346888
_cell_formula_units_Z   2
loop_
 _symmetry_equiv_pos_site_id
 _symmetry_equiv_pos_as_xyz
  1  'x, y, z'
loop_
 _atom_site_type_symbol
 _atom_site_label
 _atom_site_symmetry_multiplicity
 _atom_site_fract_x
 _atom_site_fract_y
 _atom_site_fract_z
 _atom_site_occupancy
  S  S0  1  0.50822515  0.87242687  0.26617953  1
  S  S1  1  0.49177485  0.12757313  0.73382047  1
  S  S2  1  0.74951588  0.68996212  0.90649522  1
  S  S3  1  0.24084449  0.46557487  0.49553727  1
  S  S4  1  0.75915551  0.53442513  0.50446273  1
  S  S5  1  0.25048412  0.31003788  0.09350478  1
  Ge  Ge6  1  0.42992782  0.55118882  0.31707807  1
  Ge  Ge7  1  0.57007218  0.44881118  0.68292193  1
  Tl  Tl8  1  0.27812018  0.68616932  0.89016280  1
  Tl  Tl9  1  0.72187982  0.31383068  0.10983720  1
  Tl  Tl10  1  0.86291232  0.04081297  0.67299613  1
  Tl  Tl11  1  0.13708768  0.95918703  0.32700387  1
