# generated using pymatgen
data_Na4VS3O13
_symmetry_space_group_name_H-M   'P 1'
_cell_length_a   8.74741025
_cell_length_b   15.67975985
_cell_length_c   16.18412650
_cell_angle_alpha   90.00000000
_cell_angle_beta   90.00000000
_cell_angle_gamma   90.00064607
_symmetry_Int_Tables_number   1
_chemical_formula_structural   Na4VS3O13
_chemical_formula_sum   'Na32 V8 S24 O104'
_cell_volume   2219.77096376
_cell_formula_units_Z   8
loop_
 _symmetry_equiv_pos_site_id
 _symmetry_equiv_pos_as_xyz
  1  'x, y, z'
loop_
 _atom_site_type_symbol
 _atom_site_label
 _atom_site_symmetry_multiplicity
 _atom_site_fract_x
 _atom_site_fract_y
 _atom_site_fract_z
 _atom_site_occupancy
  Na  Na0  1  0.64717795  0.24518650  0.08715503  1
  Na  Na1  1  0.68381505  0.46790667  0.28054457  1
  Na  Na2  1  0.32238730  0.81143900  0.21728288  1
  Na  Na3  1  0.18610101  0.81984466  0.71637229  1
  Na  Na4  1  0.78825188  0.72814337  0.92117346  1
  Na  Na5  1  0.78825188  0.22814337  0.57882654  1
  Na  Na6  1  0.69375789  0.99020997  0.95185981  1
  Na  Na7  1  0.67761270  0.68856100  0.71728288  1
  Na  Na8  1  0.16492852  0.00877144  0.57010785  1
  Na  Na9  1  0.21174812  0.27185663  0.07882654  1
  Na  Na10  1  0.81389899  0.68015534  0.21637229  1
  Na  Na11  1  0.35282205  0.25481350  0.58715503  1
  Na  Na12  1  0.18610101  0.31984466  0.78362771  1
  Na  Na13  1  0.35282205  0.75481350  0.91284497  1
  Na  Na14  1  0.85306222  0.96965821  0.72104636  1
  Na  Na15  1  0.21174812  0.77185663  0.42117346  1
  Na  Na16  1  0.83507148  0.49122856  0.07010785  1
  Na  Na17  1  0.81389899  0.18015534  0.28362771  1
  Na  Na18  1  0.30624211  0.50979003  0.45185981  1
  Na  Na19  1  0.31618495  0.53209333  0.71945543  1
  Na  Na20  1  0.69375789  0.49020997  0.54814019  1
  Na  Na21  1  0.31618495  0.03209333  0.78054457  1
  Na  Na22  1  0.83507148  0.99122856  0.42989215  1
  Na  Na23  1  0.16492852  0.50877144  0.92989215  1
  Na  Na24  1  0.64717795  0.74518650  0.41284497  1
  Na  Na25  1  0.14693778  0.03034179  0.27895364  1
  Na  Na26  1  0.30624211  0.00979003  0.04814019  1
  Na  Na27  1  0.85306222  0.46965821  0.77895364  1
  Na  Na28  1  0.32238730  0.31143900  0.28271712  1
  Na  Na29  1  0.14693778  0.53034179  0.22104636  1
  Na  Na30  1  0.68381505  0.96790667  0.21945543  1
  Na  Na31  1  0.67761270  0.18856100  0.78271712  1
  V  V32  1  0.97297506  0.86894041  0.07885435  1
  V  V33  1  0.52693597  0.86084587  0.57448049  1
  V  V34  1  0.02702494  0.13105959  0.92114565  1
  V  V35  1  0.02702494  0.63105959  0.57885435  1
  V  V36  1  0.97297506  0.36894041  0.42114565  1
  V  V37  1  0.47306403  0.13915413  0.42551951  1
  V  V38  1  0.52693597  0.36084587  0.92551951  1
  V  V39  1  0.47306403  0.63915413  0.07448049  1
  S  S40  1  0.93796463  0.84006074  0.54711684  1
  S  S41  1  0.09184682  0.42539950  0.60145105  1
  S  S42  1  0.94542261  0.34091449  0.22109806  1
  S  S43  1  0.05457739  0.15908551  0.72109806  1
  S  S44  1  0.43861644  0.63459398  0.27902698  1
  S  S45  1  0.56138356  0.86540602  0.77902698  1
  S  S46  1  0.93796463  0.34006074  0.95288316  1
  S  S47  1  0.57277464  0.33910075  0.42443242  1
  S  S48  1  0.43861644  0.13459398  0.22097302  1
  S  S49  1  0.90815318  0.57460050  0.39854895  1
  S  S50  1  0.09184682  0.92539950  0.89854895  1
  S  S51  1  0.53965466  0.06140258  0.61257995  1
  S  S52  1  0.05457739  0.65908551  0.77890194  1
  S  S53  1  0.06203537  0.65993926  0.04711684  1
  S  S54  1  0.06203537  0.15993926  0.45288316  1
  S  S55  1  0.42722536  0.66089925  0.57556758  1
  S  S56  1  0.90815318  0.07460050  0.10145105  1
  S  S57  1  0.57277464  0.83910075  0.07556758  1
  S  S58  1  0.42722536  0.16089925  0.92443242  1
  S  S59  1  0.56138356  0.36540602  0.72097302  1
  S  S60  1  0.46034534  0.43859742  0.11257995  1
  S  S61  1  0.94542261  0.84091449  0.27890194  1
  S  S62  1  0.53965466  0.56140258  0.88742005  1
  S  S63  1  0.46034534  0.93859742  0.38742005  1
  O  O64  1  0.39862062  0.38893462  0.72457571  1
  O  O65  1  0.41676268  0.71414165  0.32760349  1
  O  O66  1  0.86174778  0.97988126  0.10231087  1
  O  O67  1  0.82998979  0.79412418  0.32610135  1
  O  O68  1  0.27062270  0.17988929  0.95736720  1
  O  O69  1  0.77083973  0.84431666  0.52706394  1
  O  O70  1  0.58323732  0.78585835  0.82760349  1
  O  O71  1  0.34853783  0.87021759  0.60359704  1
  O  O72  1  0.60091358  0.98381016  0.56738994  1
  O  O73  1  0.95771664  0.91436173  0.95720692  1
  O  O74  1  0.86174778  0.47988126  0.39768913  1
  O  O75  1  0.72937730  0.32011071  0.45736720  1
  O  O76  1  0.99127800  0.25002373  0.96968933  1
  O  O77  1  0.10022714  0.80759080  0.29404262  1
  O  O78  1  0.22434653  0.37969226  0.57014352  1
  O  O79  1  0.46620527  0.86576223  0.44950784  1
  O  O80  1  0.65492566  0.43585962  0.68753975  1
  O  O81  1  0.17001021  0.70587582  0.82610135  1
  O  O82  1  0.96760474  0.36499793  0.86641080  1
  O  O83  1  0.64923188  0.08413506  0.67725202  1
  O  O84  1  0.03239526  0.63500207  0.13358920  1
  O  O85  1  0.09514196  0.17758309  0.81211019  1
  O  O86  1  0.95733866  0.59744986  0.31511191  1
  O  O87  1  0.02347436  0.89630628  0.48958905  1
  O  O88  1  0.34507434  0.06414038  0.18753975  1
  O  O89  1  0.89977286  0.19240920  0.70595738  1
  O  O90  1  0.93664431  0.43450937  0.20700814  1
  O  O91  1  0.00872200  0.24997627  0.46968933  1
  O  O92  1  0.77565347  0.12030774  0.07014352  1
  O  O93  1  0.02347436  0.39630628  0.01041095  1
  O  O94  1  0.77083973  0.34431666  0.97293606  1
  O  O95  1  0.35076812  0.41586494  0.17725202  1
  O  O96  1  0.46686373  0.26672958  0.45052051  1
  O  O97  1  0.42909169  0.15626176  0.83353574  1
  O  O98  1  0.51523046  0.91771563  0.03716620  1
  O  O99  1  0.77565347  0.62030774  0.42985648  1
  O  O100  1  0.64923188  0.58413506  0.82274798  1
  O  O101  1  0.61473239  0.95388049  0.35657796  1
  O  O102  1  0.22916027  0.15568334  0.47293606  1
  O  O103  1  0.95733866  0.09744986  0.18488809  1
  O  O104  1  0.04228336  0.08563827  0.04279308  1
  O  O105  1  0.00872200  0.74997627  0.03031067  1
  O  O106  1  0.34507434  0.56414038  0.31246025  1
  O  O107  1  0.97652564  0.10369372  0.51041095  1
  O  O108  1  0.65146217  0.12978241  0.39640296  1
  O  O109  1  0.46686373  0.76672958  0.04947949  1
  O  O110  1  0.57090831  0.84373824  0.16646426  1
  O  O111  1  0.85322344  0.60414669  0.60748096  1
  O  O112  1  0.60137938  0.61106538  0.27542429  1
  O  O113  1  0.14677656  0.89585331  0.10748096  1
  O  O114  1  0.85322344  0.10414669  0.89251904  1
  O  O115  1  0.27062270  0.67988929  0.54263280  1
  O  O116  1  0.90485804  0.32241691  0.31211019  1
  O  O117  1  0.04266134  0.90255014  0.81511191  1
  O  O118  1  0.53313627  0.73327042  0.54947949  1
  O  O119  1  0.39862062  0.88893462  0.77542429  1
  O  O120  1  0.06335569  0.56549063  0.79299186  1
  O  O121  1  0.65492566  0.93585962  0.81246025  1
  O  O122  1  0.60137938  0.11106538  0.22457571  1
  O  O123  1  0.93664431  0.93450937  0.29299186  1
  O  O124  1  0.34853783  0.37021759  0.89640296  1
  O  O125  1  0.39908642  0.51618984  0.06738994  1
  O  O126  1  0.13825222  0.02011874  0.89768913  1
  O  O127  1  0.39908642  0.01618984  0.43261006  1
  O  O128  1  0.38526761  0.04611951  0.64342204  1
  O  O129  1  0.53379473  0.63423777  0.94950784  1
  O  O130  1  0.61981435  0.34558839  0.80921363  1
  O  O131  1  0.97652564  0.60369372  0.98958905  1
  O  O132  1  0.57090831  0.34373824  0.33353574  1
  O  O133  1  0.35076812  0.91586494  0.32274798  1
  O  O134  1  0.51523046  0.41771563  0.46283380  1
  O  O135  1  0.38526761  0.54611951  0.85657796  1
  O  O136  1  0.04266134  0.40255014  0.68488809  1
  O  O137  1  0.61473239  0.45388049  0.14342204  1
  O  O138  1  0.22916027  0.65568334  0.02706394  1
  O  O139  1  0.03239526  0.13500207  0.36641080  1
  O  O140  1  0.95771664  0.41436173  0.54279308  1
  O  O141  1  0.17001021  0.20587582  0.67389865  1
  O  O142  1  0.04228336  0.58563827  0.45720692  1
  O  O143  1  0.10022714  0.30759080  0.20595738  1
  O  O144  1  0.46620527  0.36576223  0.05049216  1
  O  O145  1  0.96760474  0.86499793  0.63358920  1
  O  O146  1  0.89977286  0.69240920  0.79404262  1
  O  O147  1  0.38018565  0.15441161  0.30921363  1
  O  O148  1  0.38018565  0.65441161  0.19078637  1
  O  O149  1  0.53313627  0.23327042  0.95052051  1
  O  O150  1  0.22434653  0.87969226  0.92985648  1
  O  O151  1  0.72937730  0.82011071  0.04263280  1
  O  O152  1  0.48476954  0.58228437  0.53716620  1
  O  O153  1  0.42909169  0.65626176  0.66646426  1
  O  O154  1  0.48476954  0.08228437  0.96283380  1
  O  O155  1  0.06335569  0.06549063  0.70700814  1
  O  O156  1  0.58323732  0.28585835  0.67239651  1
  O  O157  1  0.13825222  0.52011874  0.60231087  1
  O  O158  1  0.82998979  0.29412418  0.17389865  1
  O  O159  1  0.60091358  0.48381016  0.93261006  1
  O  O160  1  0.53379473  0.13423777  0.55049216  1
  O  O161  1  0.61981435  0.84558839  0.69078637  1
  O  O162  1  0.99127800  0.75002373  0.53031067  1
  O  O163  1  0.14677656  0.39585331  0.39251904  1
  O  O164  1  0.09514196  0.67758309  0.68788981  1
  O  O165  1  0.90485804  0.82241691  0.18788981  1
  O  O166  1  0.41676268  0.21414165  0.17239651  1
  O  O167  1  0.65146217  0.62978241  0.10359704  1
