# generated using pymatgen
data_CsTaSe3
_symmetry_space_group_name_H-M   'P 1'
_cell_length_a   7.76013252
_cell_length_b   15.52504960
_cell_length_c   6.18906752
_cell_angle_alpha   90.27911885
_cell_angle_beta   89.83080398
_cell_angle_gamma   120.03482321
_symmetry_Int_Tables_number   1
_chemical_formula_structural   CsTaSe3
_chemical_formula_sum   'Cs4 Ta4 Se12'
_cell_volume   645.50595735
_cell_formula_units_Z   4
loop_
 _symmetry_equiv_pos_site_id
 _symmetry_equiv_pos_as_xyz
  1  'x, y, z'
loop_
 _atom_site_type_symbol
 _atom_site_label
 _atom_site_symmetry_multiplicity
 _atom_site_fract_x
 _atom_site_fract_y
 _atom_site_fract_z
 _atom_site_occupancy
  Cs  Cs0  1  0.33031437  0.83285708  0.75021446  1
  Cs  Cs1  1  0.67030720  0.66716214  0.24960101  1
  Cs  Cs2  1  0.33123676  0.33420306  0.75376923  1
  Cs  Cs3  1  0.66495807  0.16584751  0.24576794  1
  Ta  Ta4  1  0.99664675  0.99705516  0.04269657  1
  Ta  Ta5  1  0.00043350  0.50156121  0.45657360  1
  Ta  Ta6  1  0.00029311  0.50026976  0.95662655  1
  Ta  Ta7  1  0.00199748  0.00241450  0.54277110  1
  Se  Se8  1  0.15830036  0.92193076  0.25195270  1
  Se  Se9  1  0.15912442  0.65831768  0.24911356  1
  Se  Se10  1  0.15625790  0.42238494  0.24551489  1
  Se  Se11  1  0.31426167  0.57902485  0.74670720  1
  Se  Se12  1  0.68409687  0.91942308  0.25312250  1
  Se  Se13  1  0.15270454  0.15603017  0.25148765  1
  Se  Se14  1  0.84592137  0.84389924  0.75026984  1
  Se  Se15  1  0.31470112  0.08079971  0.75241573  1
  Se  Se16  1  0.68617599  0.42335439  0.24787672  1
  Se  Se17  1  0.84488949  0.58012693  0.75024664  1
  Se  Se18  1  0.84114382  0.34396560  0.74489068  1
  Se  Se19  1  0.84009420  0.07770223  0.75360044  1
