# generated using pymatgen
data_Ba8Mn8O21
_symmetry_space_group_name_H-M   'P 1'
_cell_length_a   5.79187789
_cell_length_b   11.65342473
_cell_length_c   9.57537006
_cell_angle_alpha   89.96730020
_cell_angle_beta   90.01226498
_cell_angle_gamma   120.15930101
_symmetry_Int_Tables_number   1
_chemical_formula_structural   Ba8Mn8O21
_chemical_formula_sum   'Ba8 Mn8 O21'
_cell_volume   558.80427427
_cell_formula_units_Z   1
loop_
 _symmetry_equiv_pos_site_id
 _symmetry_equiv_pos_as_xyz
  1  'x, y, z'
loop_
 _atom_site_type_symbol
 _atom_site_label
 _atom_site_symmetry_multiplicity
 _atom_site_fract_x
 _atom_site_fract_y
 _atom_site_fract_z
 _atom_site_occupancy
  Ba  Ba0  1  0.99478980  0.00258359  0.50886238  1
  Ba  Ba1  1  0.34063908  0.83061378  0.25029592  1
  Ba  Ba2  1  0.98662628  0.49419900  0.02909966  1
  Ba  Ba3  1  0.67655215  0.66931561  0.75044404  1
  Ba  Ba4  1  0.33034945  0.33701870  0.25064127  1
  Ba  Ba5  1  0.99479250  0.00248111  0.99163154  1
  Ba  Ba6  1  0.98678897  0.49422041  0.47190590  1
  Ba  Ba7  1  0.65586746  0.16281398  0.75042423  1
  Mn  Mn8  1  0.33380255  0.83689911  0.89810478  1
  Mn  Mn9  1  0.33369837  0.83697901  0.60249140  1
  Mn  Mn10  1  0.66427803  0.66671022  0.38939765  1
  Mn  Mn11  1  0.35408314  0.33383681  0.89387658  1
  Mn  Mn12  1  0.66427723  0.66662438  0.11152023  1
  Mn  Mn13  1  0.35433484  0.33383101  0.60747544  1
  Mn  Mn14  1  0.69020859  0.17166079  0.39115408  1
  Mn  Mn15  1  0.68998902  0.17152512  0.10972281  1
  O  O16  1  0.98988570  0.74044137  0.99634652  1
  O  O17  1  0.16549643  0.88669043  0.75034643  1
  O  O18  1  0.48864181  0.00287800  0.48397694  1
  O  O19  1  0.60411093  0.88999786  0.75020110  1
  O  O20  1  0.48870743  0.74187356  0.50520193  1
  O  O21  1  0.01237543  0.26418883  0.97887291  1
  O  O22  1  0.01301735  0.26376412  0.52182610  1
  O  O23  1  0.48855138  0.74158726  0.99527208  1
  O  O24  1  0.37257371  0.59532659  0.25047859  1
  O  O25  1  0.81705665  0.81329246  0.25027817  1
  O  O26  1  0.49453538  0.50547894  0.50410617  1
  O  O27  1  0.49483911  0.50525722  0.99735390  1
  O  O28  1  0.18740529  0.19330560  0.75072678  1
  O  O29  1  0.80647471  0.59267437  0.25061320  1
  O  O30  1  0.65110915  0.41648610  0.75074862  1
  O  O31  1  0.98961226  0.74034327  0.50455520  1
  O  O32  1  0.48441881  0.23766926  0.48033600  1
  O  O33  1  0.48259911  0.23703269  0.02129679  1
  O  O34  1  0.81337426  0.31614940  0.25037765  1
  O  O35  1  0.48990561  0.00296391  0.01631819  1
  O  O36  1  0.82942010  0.09444912  0.25051882  1
