# generated using pymatgen
data_Li4MnCo2O7
_symmetry_space_group_name_H-M   'P 1'
_cell_length_a   2.88071335
_cell_length_b   5.13233522
_cell_length_c   18.11609663
_cell_angle_alpha   99.98154285
_cell_angle_beta   94.56023854
_cell_angle_gamma   73.70138188
_symmetry_Int_Tables_number   1
_chemical_formula_structural   Li4MnCo2O7
_chemical_formula_sum   'Li8 Mn2 Co4 O14'
_cell_volume   253.05236269
_cell_formula_units_Z   2
loop_
 _symmetry_equiv_pos_site_id
 _symmetry_equiv_pos_as_xyz
  1  'x, y, z'
loop_
 _atom_site_type_symbol
 _atom_site_label
 _atom_site_symmetry_multiplicity
 _atom_site_fract_x
 _atom_site_fract_y
 _atom_site_fract_z
 _atom_site_occupancy
  Li  Li0  1  0.28947772  0.49880399  0.07776043  1
  Li  Li1  1  0.84866436  0.52574059  0.22306931  1
  Li  Li2  1  0.43704964  0.47425941  0.34835969  1
  Li  Li3  1  0.99623628  0.50119601  0.49366857  1
  Li  Li4  1  0.57458875  0.49605497  0.64523147  1
  Li  Li5  1  0.14285700  0.50000000  0.78571400  1
  Li  Li6  1  0.71112625  0.50394503  0.92619653  1
  Li  Li7  1  0.14285700  -0.00000000  0.28571400  1
  Mn  Mn8  1  0.00289498  0.99455515  0.00034512  1
  Mn  Mn9  1  0.28281902  0.00544485  0.57108388  1
  Co  Co10  1  0.56803012  0.01986735  0.15592659  1
  Co  Co11  1  0.71768488  0.98013265  0.41550141  1
  Co  Co12  1  0.85925572  0.99780943  0.71632087  1
  Co  Co13  1  0.42645828  0.00219057  0.85510813  1
  O  O14  1  0.37431826  0.21846089  0.96709741  1
  O  O15  1  0.94504661  0.20807238  0.09816460  1
  O  O16  1  0.49762262  0.24758299  0.24282922  1
  O  O17  1  0.08424335  0.22976918  0.39825588  1
  O  O18  1  0.65699259  0.22901864  0.54300482  1
  O  O19  1  0.22505765  0.22330015  0.67341544  1
  O  O20  1  0.79091201  0.23862347  0.82044649  1
  O  O21  1  0.20147065  0.77023082  0.17317312  1
  O  O22  1  0.78809138  0.75241701  0.32859978  1
  O  O23  1  0.34066839  0.79192762  0.47326340  1
  O  O24  1  0.91139574  0.78153911  0.60433059  1
  O  O25  1  0.49480299  0.76137653  0.75098151  1
  O  O26  1  0.06065635  0.77669985  0.89801356  1
  O  O27  1  0.62872141  0.77098136  0.02842418  1
